# generated using pymatgen
data_Cs6Er(RhBr6)3
_symmetry_space_group_name_H-M   'P 1'
_cell_length_a   7.84552600
_cell_length_b   7.84552652
_cell_length_c   19.81037200
_cell_angle_alpha   90.00000000
_cell_angle_beta   90.00000000
_cell_angle_gamma   119.99998937
_symmetry_Int_Tables_number   1
_chemical_formula_structural   Cs6Er(RhBr6)3
_chemical_formula_sum   'Cs6 Er1 Rh3 Br18'
_cell_volume   1056.00863583
_cell_formula_units_Z   1
loop_
 _symmetry_equiv_pos_site_id
 _symmetry_equiv_pos_as_xyz
  1  'x, y, z'
loop_
 _atom_site_type_symbol
 _atom_site_label
 _atom_site_symmetry_multiplicity
 _atom_site_fract_x
 _atom_site_fract_y
 _atom_site_fract_z
 _atom_site_occupancy
  Cs  Cs0  1  0.333333  0.666667  0.071034  1
  Cs  Cs1  1  0.666667  0.333333  0.937885  1
  Cs  Cs2  1  0.666667  0.333333  0.568607  1
  Cs  Cs3  1  0.333333  0.666667  0.433042  1
  Cs  Cs4  1  0.000000  0.000000  0.250855  1
  Cs  Cs5  1  0.000000  0.000000  0.745007  1
  Er  Er6  1  0.333333  0.666667  0.839030  1
  Rh  Rh7  1  0.333333  0.666667  0.665490  1
  Rh  Rh8  1  0.666667  0.333333  0.332985  1
  Rh  Rh9  1  0.666667  0.333333  0.167908  1
  Br  Br10  1  0.182827  0.365654  0.593753  1
  Br  Br11  1  0.817702  0.635405  0.403977  1
  Br  Br12  1  0.634346  0.817173  0.593753  1
  Br  Br13  1  0.817668  0.635335  0.096724  1
  Br  Br14  1  0.364595  0.182298  0.403977  1
  Br  Br15  1  0.165546  0.331091  0.910876  1
  Br  Br16  1  0.182827  0.817173  0.593753  1
  Br  Br17  1  0.364665  0.182332  0.096724  1
  Br  Br18  1  0.817702  0.182298  0.403977  1
  Br  Br19  1  0.668909  0.834454  0.910876  1
  Br  Br20  1  0.817668  0.182332  0.096724  1
  Br  Br21  1  0.165546  0.834454  0.910876  1
  Br  Br22  1  0.521643  0.043287  0.250309  1
  Br  Br23  1  0.488346  0.976692  0.740413  1
  Br  Br24  1  0.956713  0.478357  0.250309  1
  Br  Br25  1  0.023308  0.511654  0.740413  1
  Br  Br26  1  0.521643  0.478357  0.250309  1
  Br  Br27  1  0.488346  0.511654  0.740413  1
