# generated using pymatgen
data_DyBi3O7
_symmetry_space_group_name_H-M   'P 1'
_cell_length_a   6.65731072
_cell_length_b   6.85874499
_cell_length_c   7.85299354
_cell_angle_alpha   106.60843449
_cell_angle_beta   89.38083135
_cell_angle_gamma   99.27423164
_symmetry_Int_Tables_number   1
_chemical_formula_structural   DyBi3O7
_chemical_formula_sum   'Dy2 Bi6 O14'
_cell_volume   338.88705115
_cell_formula_units_Z   2
loop_
 _symmetry_equiv_pos_site_id
 _symmetry_equiv_pos_as_xyz
  1  'x, y, z'
loop_
 _atom_site_type_symbol
 _atom_site_label
 _atom_site_symmetry_multiplicity
 _atom_site_fract_x
 _atom_site_fract_y
 _atom_site_fract_z
 _atom_site_occupancy
  Dy  Dy0  1  0.460349  0.002586  0.248624  1
  Dy  Dy1  1  0.539651  0.997414  0.751376  1
  Bi  Bi2  1  0.000000  0.000000  0.500000  1
  Bi  Bi3  1  0.000000  0.000000  0.000000  1
  Bi  Bi4  1  0.260922  0.516614  0.878334  1
  Bi  Bi5  1  0.739078  0.483386  0.121666  1
  Bi  Bi6  1  0.722999  0.463909  0.608209  1
  Bi  Bi7  1  0.277001  0.536091  0.391791  1
  O  O8  1  0.464072  0.658015  0.183345  1
  O  O9  1  0.535928  0.341985  0.816655  1
  O  O10  1  0.304139  0.943191  0.953256  1
  O  O11  1  0.695861  0.056809  0.046744  1
  O  O12  1  0.297340  0.919033  0.512227  1
  O  O13  1  0.702660  0.080967  0.487773  1
  O  O14  1  0.530622  0.349560  0.351826  1
  O  O15  1  0.469378  0.650440  0.648174  1
  O  O16  1  0.915188  0.675828  0.961734  1
  O  O17  1  0.084812  0.324172  0.038266  1
  O  O18  1  0.097966  0.325604  0.621621  1
  O  O19  1  0.902034  0.674396  0.378379  1
  O  O20  1  0.877735  0.933139  0.733112  1
  O  O21  1  0.122265  0.066861  0.266888  1
