# generated using pymatgen
data_TbY3ThSn4
_symmetry_space_group_name_H-M   'P 1'
_cell_length_a   8.12502400
_cell_length_b   8.23134300
_cell_length_c   15.56647200
_cell_angle_alpha   90.00000000
_cell_angle_beta   90.00000000
_cell_angle_gamma   90.00000000
_symmetry_Int_Tables_number   1
_chemical_formula_structural   TbY3ThSn4
_chemical_formula_sum   'Tb4 Y12 Th4 Sn16'
_cell_volume   1041.08345914
_cell_formula_units_Z   4
loop_
 _symmetry_equiv_pos_site_id
 _symmetry_equiv_pos_as_xyz
  1  'x, y, z'
loop_
 _atom_site_type_symbol
 _atom_site_label
 _atom_site_symmetry_multiplicity
 _atom_site_fract_x
 _atom_site_fract_y
 _atom_site_fract_z
 _atom_site_occupancy
  Tb  Tb0  1  0.475757  0.678549  0.099480  1
  Tb  Tb1  1  0.975757  0.821451  0.400520  1
  Tb  Tb2  1  0.524243  0.321451  0.599480  1
  Tb  Tb3  1  0.024243  0.178549  0.900520  1
  Y  Y4  1  0.366243  0.836549  0.877323  1
  Y  Y5  1  0.866243  0.663451  0.622677  1
  Y  Y6  1  0.633757  0.163451  0.377323  1
  Y  Y7  1  0.133757  0.336549  0.122677  1
  Y  Y8  1  0.633511  0.164415  0.122610  1
  Y  Y9  1  0.133511  0.335585  0.377390  1
  Y  Y10  1  0.366489  0.835585  0.622610  1
  Y  Y11  1  0.866489  0.664415  0.877390  1
  Y  Y12  1  0.196663  0.500550  0.749669  1
  Y  Y13  1  0.696663  0.999450  0.750331  1
  Y  Y14  1  0.803337  0.499450  0.249669  1
  Y  Y15  1  0.303337  0.000550  0.250331  1
  Th  Th16  1  0.519662  0.320424  0.903109  1
  Th  Th17  1  0.019662  0.179576  0.596891  1
  Th  Th18  1  0.480338  0.679576  0.403109  1
  Th  Th19  1  0.980338  0.820424  0.096891  1
  Sn  Sn20  1  0.294802  0.038068  0.040995  1
  Sn  Sn21  1  0.794802  0.461932  0.459005  1
  Sn  Sn22  1  0.705198  0.961932  0.540995  1
  Sn  Sn23  1  0.205198  0.538068  0.959005  1
  Sn  Sn24  1  0.708700  0.967222  0.957365  1
  Sn  Sn25  1  0.208700  0.532778  0.542635  1
  Sn  Sn26  1  0.291300  0.032778  0.457365  1
  Sn  Sn27  1  0.791300  0.467222  0.042635  1
  Sn  Sn28  1  0.563812  0.620931  0.750805  1
  Sn  Sn29  1  0.063812  0.879069  0.749195  1
  Sn  Sn30  1  0.436188  0.379069  0.250805  1
  Sn  Sn31  1  0.936188  0.120931  0.249195  1
  Sn  Sn32  1  0.328575  0.144603  0.748597  1
  Sn  Sn33  1  0.828575  0.355397  0.751403  1
  Sn  Sn34  1  0.671425  0.855397  0.248597  1
  Sn  Sn35  1  0.171425  0.644603  0.251403  1
