# generated using pymatgen
data_Sm7HfGaPd24
_symmetry_space_group_name_H-M   'P 1'
_cell_length_a   8.40034262
_cell_length_b   8.40034262
_cell_length_c   8.40034262
_cell_angle_alpha   89.64889718
_cell_angle_beta   89.64889718
_cell_angle_gamma   89.64889718
_symmetry_Int_Tables_number   1
_chemical_formula_structural   Sm7HfGaPd24
_chemical_formula_sum   'Sm7 Hf1 Ga1 Pd24'
_cell_volume   592.74327565
_cell_formula_units_Z   1
loop_
 _symmetry_equiv_pos_site_id
 _symmetry_equiv_pos_as_xyz
  1  'x, y, z'
loop_
 _atom_site_type_symbol
 _atom_site_label
 _atom_site_symmetry_multiplicity
 _atom_site_fract_x
 _atom_site_fract_y
 _atom_site_fract_z
 _atom_site_occupancy
  Sm  Sm0  1  0.746792  0.746792  0.746792  1
  Sm  Sm1  1  0.748219  0.748219  0.251560  1
  Sm  Sm2  1  0.748219  0.251560  0.748219  1
  Sm  Sm3  1  0.252742  0.252742  0.750062  1
  Sm  Sm4  1  0.252742  0.750062  0.252742  1
  Sm  Sm5  1  0.251560  0.748219  0.748219  1
  Sm  Sm6  1  0.750062  0.252742  0.252742  1
  Hf  Hf7  1  0.256157  0.256157  0.256157  1
  Ga  Ga8  1  0.995144  0.995144  0.995144  1
  Pd  Pd9  1  0.259906  0.495013  0.008679  1
  Pd  Pd10  1  0.740490  0.497846  0.000570  1
  Pd  Pd11  1  0.008679  0.259906  0.495013  1
  Pd  Pd12  1  0.495013  0.259906  0.008679  1
  Pd  Pd13  1  0.000570  0.740490  0.497846  1
  Pd  Pd14  1  0.497846  0.740490  0.000570  1
  Pd  Pd15  1  0.495013  0.008679  0.259906  1
  Pd  Pd16  1  0.259906  0.008679  0.495013  1
  Pd  Pd17  1  0.497846  0.000570  0.740490  1
  Pd  Pd18  1  0.740490  0.000570  0.497846  1
  Pd  Pd19  1  0.008679  0.495013  0.259906  1
  Pd  Pd20  1  0.000570  0.497846  0.740490  1
  Pd  Pd21  1  0.253221  0.494484  0.494484  1
  Pd  Pd22  1  0.747674  0.498695  0.498695  1
  Pd  Pd23  1  0.494484  0.253221  0.494484  1
  Pd  Pd24  1  0.498695  0.747674  0.498695  1
  Pd  Pd25  1  0.494484  0.494484  0.253221  1
  Pd  Pd26  1  0.498695  0.498695  0.747674  1
  Pd  Pd27  1  0.286444  0.007264  0.007264  1
  Pd  Pd28  1  0.705271  0.999928  0.999928  1
  Pd  Pd29  1  0.007264  0.286444  0.007264  1
  Pd  Pd30  1  0.999928  0.705271  0.999928  1
  Pd  Pd31  1  0.007264  0.007264  0.286444  1
  Pd  Pd32  1  0.999928  0.999928  0.705271  1
