# generated using pymatgen
data_Dy6Al24FePd3Ru3Pt
_symmetry_space_group_name_H-M   'P 1'
_cell_length_a   8.82099790
_cell_length_b   8.82099789
_cell_length_c   9.52888500
_cell_angle_alpha   90.09800242
_cell_angle_beta   89.90199758
_cell_angle_gamma   119.88539839
_symmetry_Int_Tables_number   1
_chemical_formula_structural   Dy6Al24FePd3Ru3Pt
_chemical_formula_sum   'Dy6 Al24 Fe1 Pd3 Ru3 Pt1'
_cell_volume   642.84707643
_cell_formula_units_Z   1
loop_
 _symmetry_equiv_pos_site_id
 _symmetry_equiv_pos_as_xyz
  1  'x, y, z'
loop_
 _atom_site_type_symbol
 _atom_site_label
 _atom_site_symmetry_multiplicity
 _atom_site_fract_x
 _atom_site_fract_y
 _atom_site_fract_z
 _atom_site_occupancy
  Dy  Dy0  1  0.191550  0.808450  0.251528  1
  Dy  Dy1  1  0.189552  0.382193  0.252431  1
  Dy  Dy2  1  0.617807  0.810448  0.252431  1
  Dy  Dy3  1  0.808450  0.191550  0.748472  1
  Dy  Dy4  1  0.810448  0.617807  0.747569  1
  Dy  Dy5  1  0.382193  0.189552  0.747569  1
  Al  Al6  1  0.563802  0.436198  0.248807  1
  Al  Al7  1  0.562382  0.125157  0.253178  1
  Al  Al8  1  0.874843  0.437618  0.253178  1
  Al  Al9  1  0.436198  0.563802  0.751193  1
  Al  Al10  1  0.437618  0.874843  0.746822  1
  Al  Al11  1  0.125157  0.562382  0.746822  1
  Al  Al12  1  0.325075  0.157778  0.425720  1
  Al  Al13  1  0.836564  0.163436  0.425195  1
  Al  Al14  1  0.842222  0.674925  0.425720  1
  Al  Al15  1  0.674925  0.842222  0.574280  1
  Al  Al16  1  0.163436  0.836564  0.574805  1
  Al  Al17  1  0.157778  0.325075  0.574280  1
  Al  Al18  1  0.683036  0.841147  0.922253  1
  Al  Al19  1  0.158997  0.841003  0.921304  1
  Al  Al20  1  0.158853  0.316964  0.922253  1
  Al  Al21  1  0.316964  0.158853  0.077747  1
  Al  Al22  1  0.841003  0.158997  0.078696  1
  Al  Al23  1  0.841147  0.683036  0.077747  1
  Al  Al24  1  0.669451  0.330549  0.526783  1
  Al  Al25  1  0.330549  0.669451  0.473217  1
  Al  Al26  1  0.333475  0.666525  0.029474  1
  Al  Al27  1  0.666525  0.333475  0.970526  1
  Al  Al28  1  0.999344  0.000656  0.245494  1
  Al  Al29  1  0.000656  0.999344  0.754506  1
  Fe  Fe30  1  0.000000  0.000000  0.000000  1
  Pd  Pd31  1  0.500000  0.500000  0.000000  1
  Pd  Pd32  1  0.500000  0.000000  0.000000  1
  Pd  Pd33  1  0.000000  0.500000  0.000000  1
  Ru  Ru34  1  0.000000  0.000000  0.500000  1
  Ru  Ru35  1  0.500000  0.000000  0.500000  1
  Ru  Ru36  1  0.000000  0.500000  0.500000  1
  Pt  Pt37  1  0.500000  0.500000  0.500000  1
