# generated using pymatgen
data_TaNb5B4(Os4Ru)2
_symmetry_space_group_name_H-M   'P 1'
_cell_length_a   9.56059300
_cell_length_b   9.56059300
_cell_length_c   3.01946600
_cell_angle_alpha   90.00000000
_cell_angle_beta   90.00000000
_cell_angle_gamma   90.00000000
_symmetry_Int_Tables_number   1
_chemical_formula_structural   TaNb5B4(Os4Ru)2
_chemical_formula_sum   'Ta1 Nb5 B4 Os8 Ru2'
_cell_volume   275.99410407
_cell_formula_units_Z   1
loop_
 _symmetry_equiv_pos_site_id
 _symmetry_equiv_pos_as_xyz
  1  'x, y, z'
loop_
 _atom_site_type_symbol
 _atom_site_label
 _atom_site_symmetry_multiplicity
 _atom_site_fract_x
 _atom_site_fract_y
 _atom_site_fract_z
 _atom_site_occupancy
  Ta  Ta0  1  0.500000  0.500000  0.000000  1
  Nb  Nb1  1  0.823420  0.676704  0.000000  1
  Nb  Nb2  1  0.176580  0.323296  0.000000  1
  Nb  Nb3  1  0.323296  0.823420  0.000000  1
  Nb  Nb4  1  0.676704  0.176580  0.000000  1
  Nb  Nb5  1  0.000000  0.000000  0.000000  1
  B  B6  1  0.620670  0.879435  0.000000  1
  B  B7  1  0.379330  0.120565  0.000000  1
  B  B8  1  0.120565  0.620670  0.000000  1
  B  B9  1  0.879435  0.379330  0.000000  1
  Os  Os10  1  0.570866  0.719433  0.500000  1
  Os  Os11  1  0.429134  0.280567  0.500000  1
  Os  Os12  1  0.070974  0.780139  0.500000  1
  Os  Os13  1  0.929026  0.219861  0.500000  1
  Os  Os14  1  0.280567  0.570866  0.500000  1
  Os  Os15  1  0.719433  0.429134  0.500000  1
  Os  Os16  1  0.219861  0.070974  0.500000  1
  Os  Os17  1  0.780139  0.929026  0.500000  1
  Ru  Ru18  1  0.500000  0.000000  0.500000  1
  Ru  Ru19  1  0.000000  0.500000  0.500000  1
