# generated using pymatgen
data_Sc5MnReC7
_symmetry_space_group_name_H-M   'P 1'
_cell_length_a   7.78993031
_cell_length_b   7.78993097
_cell_length_c   3.21929400
_cell_angle_alpha   90.00000000
_cell_angle_beta   90.00000000
_cell_angle_gamma   121.22058258
_symmetry_Int_Tables_number   1
_chemical_formula_structural   Sc5MnReC7
_chemical_formula_sum   'Sc5 Mn1 Re1 C7'
_cell_volume   167.06458593
_cell_formula_units_Z   1
loop_
 _symmetry_equiv_pos_site_id
 _symmetry_equiv_pos_as_xyz
  1  'x, y, z'
loop_
 _atom_site_type_symbol
 _atom_site_label
 _atom_site_symmetry_multiplicity
 _atom_site_fract_x
 _atom_site_fract_y
 _atom_site_fract_z
 _atom_site_occupancy
  Sc  Sc0  1  0.079712  0.336977  0.500000  1
  Sc  Sc1  1  0.341911  0.083951  0.500000  1
  Sc  Sc2  1  0.501497  0.498503  0.000000  1
  Sc  Sc3  1  0.916049  0.658089  0.500000  1
  Sc  Sc4  1  0.663023  0.920288  0.500000  1
  Mn  Mn5  1  0.710170  0.289830  0.000000  1
  Re  Re6  1  0.283834  0.716166  0.000000  1
  C  C7  1  0.998764  0.001236  0.000000  1
  C  C8  1  0.989646  0.490864  0.000000  1
  C  C9  1  0.509136  0.010354  0.000000  1
  C  C10  1  0.176487  0.177111  0.000000  1
  C  C11  1  0.822889  0.823513  0.000000  1
  C  C12  1  0.625640  0.374360  0.500000  1
  C  C13  1  0.381241  0.618759  0.500000  1
