# generated using pymatgen
data_Zn2SiPd5
_symmetry_space_group_name_H-M   'P 1'
_cell_length_a   4.05191500
_cell_length_b   5.50669800
_cell_length_c   10.48299400
_cell_angle_alpha   90.00000000
_cell_angle_beta   90.00000000
_cell_angle_gamma   90.00000000
_symmetry_Int_Tables_number   1
_chemical_formula_structural   Zn2SiPd5
_chemical_formula_sum   'Zn4 Si2 Pd10'
_cell_volume   233.90360908
_cell_formula_units_Z   2
loop_
 _symmetry_equiv_pos_site_id
 _symmetry_equiv_pos_as_xyz
  1  'x, y, z'
loop_
 _atom_site_type_symbol
 _atom_site_label
 _atom_site_symmetry_multiplicity
 _atom_site_fract_x
 _atom_site_fract_y
 _atom_site_fract_z
 _atom_site_occupancy
  Zn  Zn0  1  0.500000  0.149773  0.146170  1
  Zn  Zn1  1  0.500000  0.850227  0.853830  1
  Zn  Zn2  1  0.500000  0.350227  0.646170  1
  Zn  Zn3  1  0.500000  0.649773  0.353830  1
  Si  Si4  1  0.000000  0.000000  0.500000  1
  Si  Si5  1  0.000000  0.500000  0.000000  1
  Pd  Pd6  1  0.500000  0.180276  0.400783  1
  Pd  Pd7  1  0.500000  0.819724  0.599217  1
  Pd  Pd8  1  0.500000  0.319724  0.900783  1
  Pd  Pd9  1  0.500000  0.680276  0.099217  1
  Pd  Pd10  1  0.000000  0.408291  0.227428  1
  Pd  Pd11  1  0.000000  0.591709  0.772572  1
  Pd  Pd12  1  0.000000  0.091709  0.727428  1
  Pd  Pd13  1  0.000000  0.908291  0.272572  1
  Pd  Pd14  1  0.000000  0.000000  0.000000  1
  Pd  Pd15  1  0.000000  0.500000  0.500000  1
