# generated using pymatgen
data_Y4Mn4Co7(Ni3P4)3
_symmetry_space_group_name_H-M   'P 1'
_cell_length_a   3.69822100
_cell_length_b   10.39581513
_cell_length_c   11.89646315
_cell_angle_alpha   89.98191916
_cell_angle_beta   90.00000000
_cell_angle_gamma   90.00000000
_symmetry_Int_Tables_number   1
_chemical_formula_structural   Y4Mn4Co7(Ni3P4)3
_chemical_formula_sum   'Y4 Mn4 Co7 Ni9 P12'
_cell_volume   457.37165904
_cell_formula_units_Z   1
loop_
 _symmetry_equiv_pos_site_id
 _symmetry_equiv_pos_as_xyz
  1  'x, y, z'
loop_
 _atom_site_type_symbol
 _atom_site_label
 _atom_site_symmetry_multiplicity
 _atom_site_fract_x
 _atom_site_fract_y
 _atom_site_fract_z
 _atom_site_occupancy
  Y  Y0  1  0.250000  0.918890  0.204770  1
  Y  Y1  1  0.750000  0.082190  0.794997  1
  Y  Y2  1  0.750000  0.417127  0.295555  1
  Y  Y3  1  0.250000  0.581606  0.704645  1
  Mn  Mn4  1  0.250000  0.791900  0.488645  1
  Mn  Mn5  1  0.750000  0.208358  0.512803  1
  Mn  Mn6  1  0.750000  0.291703  0.012427  1
  Mn  Mn7  1  0.250000  0.709189  0.987480  1
  Co  Co8  1  0.750000  0.381117  0.800705  1
  Co  Co9  1  0.750000  0.118469  0.301364  1
  Co  Co10  1  0.250000  0.881648  0.699546  1
  Co  Co11  1  0.250000  0.033527  0.432918  1
  Co  Co12  1  0.750000  0.966030  0.567622  1
  Co  Co13  1  0.750000  0.533827  0.067914  1
  Co  Co14  1  0.250000  0.466364  0.932446  1
  Ni  Ni15  1  0.250000  0.094992  0.988010  1
  Ni  Ni16  1  0.750000  0.908392  0.010463  1
  Ni  Ni17  1  0.750000  0.593777  0.511754  1
  Ni  Ni18  1  0.250000  0.404514  0.488483  1
  Ni  Ni19  1  0.250000  0.275933  0.676565  1
  Ni  Ni20  1  0.750000  0.724066  0.322714  1
  Ni  Ni21  1  0.750000  0.776277  0.823178  1
  Ni  Ni22  1  0.250000  0.222756  0.176821  1
  Ni  Ni23  1  0.250000  0.617940  0.199828  1
  P  P24  1  0.250000  0.075741  0.613044  1
  P  P25  1  0.750000  0.923693  0.387252  1
  P  P26  1  0.750000  0.575866  0.887279  1
  P  P27  1  0.250000  0.421608  0.111765  1
  P  P28  1  0.250000  0.228001  0.368042  1
  P  P29  1  0.750000  0.771215  0.632303  1
  P  P30  1  0.750000  0.731964  0.128657  1
  P  P31  1  0.250000  0.271567  0.867552  1
  P  P32  1  0.250000  0.898726  0.890013  1
  P  P33  1  0.750000  0.101822  0.109874  1
  P  P34  1  0.750000  0.398248  0.609984  1
  P  P35  1  0.250000  0.600958  0.392583  1
