# generated using pymatgen
data_Pr4TmLu3Pt4
_symmetry_space_group_name_H-M   'P 1'
_cell_length_a   4.87253200
_cell_length_b   7.31287403
_cell_length_c   8.87404300
_cell_angle_alpha   89.87278431
_cell_angle_beta   90.00000000
_cell_angle_gamma   90.00000000
_symmetry_Int_Tables_number   1
_chemical_formula_structural   Pr4TmLu3Pt4
_chemical_formula_sum   'Pr4 Tm1 Lu3 Pt4'
_cell_volume   316.20100829
_cell_formula_units_Z   1
loop_
 _symmetry_equiv_pos_site_id
 _symmetry_equiv_pos_as_xyz
  1  'x, y, z'
loop_
 _atom_site_type_symbol
 _atom_site_label
 _atom_site_symmetry_multiplicity
 _atom_site_fract_x
 _atom_site_fract_y
 _atom_site_fract_z
 _atom_site_occupancy
  Pr  Pr0  1  0.250000  0.988893  0.327800  1
  Pr  Pr1  1  0.250000  0.486881  0.172021  1
  Pr  Pr2  1  0.750000  0.012644  0.674403  1
  Pr  Pr3  1  0.750000  0.512843  0.826307  1
  Tm  Tm4  1  0.750000  0.639775  0.422753  1
  Lu  Lu5  1  0.250000  0.860962  0.924270  1
  Lu  Lu6  1  0.250000  0.360407  0.576515  1
  Lu  Lu7  1  0.750000  0.138907  0.076185  1
  Pt  Pt8  1  0.250000  0.242161  0.908690  1
  Pt  Pt9  1  0.250000  0.742523  0.592607  1
  Pt  Pt10  1  0.750000  0.757617  0.088888  1
  Pt  Pt11  1  0.750000  0.256386  0.409559  1
