# generated using pymatgen
data_Pr4AlZn3Pt4
_symmetry_space_group_name_H-M   'P 1'
_cell_length_a   4.45984700
_cell_length_b   7.14475303
_cell_length_c   8.04853801
_cell_angle_alpha   90.00298590
_cell_angle_beta   90.00000000
_cell_angle_gamma   90.00000000
_symmetry_Int_Tables_number   1
_chemical_formula_structural   Pr4AlZn3Pt4
_chemical_formula_sum   'Pr4 Al1 Zn3 Pt4'
_cell_volume   256.46268202
_cell_formula_units_Z   1
loop_
 _symmetry_equiv_pos_site_id
 _symmetry_equiv_pos_as_xyz
  1  'x, y, z'
loop_
 _atom_site_type_symbol
 _atom_site_label
 _atom_site_symmetry_multiplicity
 _atom_site_fract_x
 _atom_site_fract_y
 _atom_site_fract_z
 _atom_site_occupancy
  Pr  Pr0  1  0.250000  0.521327  0.806811  1
  Pr  Pr1  1  0.250000  0.027144  0.688385  1
  Pr  Pr2  1  0.750000  0.975357  0.311880  1
  Pr  Pr3  1  0.750000  0.475333  0.191945  1
  Al  Al4  1  0.750000  0.849091  0.934052  1
  Zn  Zn5  1  0.250000  0.153068  0.070401  1
  Zn  Zn6  1  0.750000  0.348654  0.569726  1
  Zn  Zn7  1  0.250000  0.655997  0.428437  1
  Pt  Pt8  1  0.250000  0.773850  0.098096  1
  Pt  Pt9  1  0.250000  0.273201  0.390310  1
  Pt  Pt10  1  0.750000  0.731059  0.617903  1
  Pt  Pt11  1  0.750000  0.215919  0.892054  1
