# generated using pymatgen
data_CaNb5As4
_symmetry_space_group_name_H-M   'P 1'
_cell_length_a   10.25350400
_cell_length_b   10.25350400
_cell_length_c   3.54997800
_cell_angle_alpha   90.00000000
_cell_angle_beta   90.00000000
_cell_angle_gamma   90.00000000
_symmetry_Int_Tables_number   1
_chemical_formula_structural   CaNb5As4
_chemical_formula_sum   'Ca2 Nb10 As8'
_cell_volume   373.22460923
_cell_formula_units_Z   2
loop_
 _symmetry_equiv_pos_site_id
 _symmetry_equiv_pos_as_xyz
  1  'x, y, z'
loop_
 _atom_site_type_symbol
 _atom_site_label
 _atom_site_symmetry_multiplicity
 _atom_site_fract_x
 _atom_site_fract_y
 _atom_site_fract_z
 _atom_site_occupancy
  Ca  Ca0  1  0.000000  0.500000  0.500000  1
  Ca  Ca1  1  0.500000  0.000000  0.500000  1
  Nb  Nb2  1  0.137578  0.816113  0.500000  1
  Nb  Nb3  1  0.862422  0.183887  0.500000  1
  Nb  Nb4  1  0.183887  0.137578  0.500000  1
  Nb  Nb5  1  0.816113  0.862422  0.500000  1
  Nb  Nb6  1  0.391011  0.710414  0.000000  1
  Nb  Nb7  1  0.608989  0.289586  0.000000  1
  Nb  Nb8  1  0.289586  0.391011  0.000000  1
  Nb  Nb9  1  0.710414  0.608989  0.000000  1
  Nb  Nb10  1  0.500000  0.500000  0.500000  1
  Nb  Nb11  1  0.000000  0.000000  0.000000  1
  As  As12  1  0.250379  0.584672  0.500000  1
  As  As13  1  0.749621  0.415328  0.500000  1
  As  As14  1  0.415328  0.250379  0.500000  1
  As  As15  1  0.584672  0.749621  0.500000  1
  As  As16  1  0.273556  0.954563  0.000000  1
  As  As17  1  0.726444  0.045437  0.000000  1
  As  As18  1  0.045437  0.273556  0.000000  1
  As  As19  1  0.954563  0.726444  0.000000  1
