# generated using pymatgen
data_Er5Tm5(Tl2Ir)2
_symmetry_space_group_name_H-M   'P 1'
_cell_length_a   7.88896077
_cell_length_b   8.98534600
_cell_length_c   12.39112500
_cell_angle_alpha   90.00000000
_cell_angle_beta   89.96163800
_cell_angle_gamma   90.00000000
_symmetry_Int_Tables_number   1
_chemical_formula_structural   Er5Tm5(Tl2Ir)2
_chemical_formula_sum   'Er10 Tm10 Tl8 Ir4'
_cell_volume   878.34522021
_cell_formula_units_Z   2
loop_
 _symmetry_equiv_pos_site_id
 _symmetry_equiv_pos_as_xyz
  1  'x, y, z'
loop_
 _atom_site_type_symbol
 _atom_site_label
 _atom_site_symmetry_multiplicity
 _atom_site_fract_x
 _atom_site_fract_y
 _atom_site_fract_z
 _atom_site_occupancy
  Er  Er0  1  0.155031  0.250000  0.780926  1
  Er  Er1  1  0.844969  0.750000  0.219074  1
  Er  Er2  1  0.114862  0.750000  0.808704  1
  Er  Er3  1  0.885138  0.250000  0.191296  1
  Er  Er4  1  0.615233  0.250000  0.691203  1
  Er  Er5  1  0.384767  0.750000  0.308797  1
  Er  Er6  1  0.547458  0.750000  0.998701  1
  Er  Er7  1  0.452542  0.250000  0.001299  1
  Er  Er8  1  0.046923  0.250000  0.501272  1
  Er  Er9  1  0.953077  0.750000  0.498728  1
  Tm  Tm10  1  0.654727  0.750000  0.718428  1
  Tm  Tm11  1  0.345273  0.250000  0.281572  1
  Tm  Tm12  1  0.827012  0.461934  0.925978  1
  Tm  Tm13  1  0.172988  0.538066  0.074022  1
  Tm  Tm14  1  0.327149  0.538159  0.574190  1
  Tm  Tm15  1  0.172988  0.961934  0.074022  1
  Tm  Tm16  1  0.672851  0.461841  0.425810  1
  Tm  Tm17  1  0.827012  0.038066  0.925978  1
  Tm  Tm18  1  0.672851  0.038159  0.425810  1
  Tm  Tm19  1  0.327149  0.961841  0.574190  1
  Tl  Tl20  1  0.922008  0.006325  0.667896  1
  Tl  Tl21  1  0.077992  0.993675  0.332104  1
  Tl  Tl22  1  0.422845  0.993006  0.832002  1
  Tl  Tl23  1  0.077992  0.506325  0.332104  1
  Tl  Tl24  1  0.577155  0.006994  0.167998  1
  Tl  Tl25  1  0.922008  0.493675  0.667896  1
  Tl  Tl26  1  0.577155  0.493006  0.167998  1
  Tl  Tl27  1  0.422845  0.506994  0.832002  1
  Ir  Ir28  1  0.923846  0.750000  0.997968  1
  Ir  Ir29  1  0.076154  0.250000  0.002032  1
  Ir  Ir30  1  0.423884  0.250000  0.502048  1
  Ir  Ir31  1  0.576116  0.750000  0.497952  1
