# generated using pymatgen
data_KOs2Cl11
_symmetry_space_group_name_H-M   'P 1'
_cell_length_a   7.14562485
_cell_length_b   7.21808772
_cell_length_c   17.41228239
_cell_angle_alpha   79.35446204
_cell_angle_beta   79.22585170
_cell_angle_gamma   88.86818102
_symmetry_Int_Tables_number   1
_chemical_formula_structural   KOs2Cl11
_chemical_formula_sum   'K2 Os4 Cl22'
_cell_volume   866.96831144
_cell_formula_units_Z   2
loop_
 _symmetry_equiv_pos_site_id
 _symmetry_equiv_pos_as_xyz
  1  'x, y, z'
loop_
 _atom_site_type_symbol
 _atom_site_label
 _atom_site_symmetry_multiplicity
 _atom_site_fract_x
 _atom_site_fract_y
 _atom_site_fract_z
 _atom_site_occupancy
  K  K0  1  0.749288  0.750925  0.503488  1
  K  K1  1  0.250712  0.249075  0.496512  1
  Os  Os2  1  0.320638  0.818099  0.348303  1
  Os  Os3  1  0.679362  0.181901  0.651697  1
  Os  Os4  1  0.843355  0.339971  0.082005  1
  Os  Os5  1  0.156645  0.660029  0.917995  1
  Cl  Cl6  1  0.252767  0.773741  0.490342  1
  Cl  Cl7  1  0.747233  0.226259  0.509658  1
  Cl  Cl8  1  0.568775  0.019456  0.349910  1
  Cl  Cl9  1  0.431225  0.980544  0.650090  1
  Cl  Cl10  1  0.525803  0.563937  0.359273  1
  Cl  Cl11  1  0.474197  0.436063  0.640727  1
  Cl  Cl12  1  0.382438  0.857685  0.214003  1
  Cl  Cl13  1  0.617562  0.142315  0.785997  1
  Cl  Cl14  1  0.068446  0.609698  0.357909  1
  Cl  Cl15  1  0.931554  0.390302  0.642091  1
  Cl  Cl16  1  0.112981  0.068727  0.345703  1
  Cl  Cl17  1  0.887019  0.931273  0.654297  1
  Cl  Cl18  1  0.892522  0.048197  0.146188  1
  Cl  Cl19  1  0.107478  0.951803  0.853812  1
  Cl  Cl20  1  0.546308  0.375795  0.147758  1
  Cl  Cl21  1  0.453692  0.624205  0.852242  1
  Cl  Cl22  1  0.728174  0.221710  0.986219  1
  Cl  Cl23  1  0.271826  0.778290  0.013781  1
  Cl  Cl24  1  0.973855  0.474670  0.169315  1
  Cl  Cl25  1  0.026145  0.525330  0.830685  1
  Cl  Cl26  1  0.163520  0.344041  0.999396  1
  Cl  Cl27  1  0.836480  0.655959  0.000604  1
