# generated using pymatgen
data_MgTi(VRu2)2
_symmetry_space_group_name_H-M   'P 1'
_cell_length_a   6.12254800
_cell_length_b   4.29080000
_cell_length_c   8.58833200
_cell_angle_alpha   90.00000000
_cell_angle_beta   89.99970990
_cell_angle_gamma   90.00000000
_symmetry_Int_Tables_number   1
_chemical_formula_structural   MgTi(VRu2)2
_chemical_formula_sum   'Mg2 Ti2 V4 Ru8'
_cell_volume   225.62088334
_cell_formula_units_Z   2
loop_
 _symmetry_equiv_pos_site_id
 _symmetry_equiv_pos_as_xyz
  1  'x, y, z'
loop_
 _atom_site_type_symbol
 _atom_site_label
 _atom_site_symmetry_multiplicity
 _atom_site_fract_x
 _atom_site_fract_y
 _atom_site_fract_z
 _atom_site_occupancy
  Mg  Mg0  1  0.250007  0.249999  0.623588  1
  Mg  Mg1  1  0.750003  0.749999  0.876387  1
  Ti  Ti2  1  0.249997  0.249999  0.125091  1
  Ti  Ti3  1  0.749995  0.749999  0.374952  1
  V  V4  1  0.749996  0.249999  0.118367  1
  V  V5  1  0.249995  0.749999  0.381624  1
  V  V6  1  0.750003  0.249999  0.632905  1
  V  V7  1  0.250001  0.749999  0.867108  1
  Ru  Ru8  1  0.003700  0.749999  0.128962  1
  Ru  Ru9  1  0.496297  0.749999  0.128960  1
  Ru  Ru10  1  0.996414  0.249999  0.371061  1
  Ru  Ru11  1  0.503582  0.249999  0.371054  1
  Ru  Ru12  1  0.503187  0.749999  0.620953  1
  Ru  Ru13  1  0.996819  0.749999  0.620953  1
  Ru  Ru14  1  0.496719  0.249999  0.879016  1
  Ru  Ru15  1  0.003285  0.249999  0.879015  1
