# generated using pymatgen
data_Sr2HoTmLu2O8
_symmetry_space_group_name_H-M   'P 1'
_cell_length_a   3.36637200
_cell_length_b   10.05020583
_cell_length_c   11.84329369
_cell_angle_alpha   89.88766132
_cell_angle_beta   90.00000000
_cell_angle_gamma   90.00000000
_symmetry_Int_Tables_number   1
_chemical_formula_structural   Sr2HoTmLu2O8
_chemical_formula_sum   'Sr4 Ho2 Tm2 Lu4 O16'
_cell_volume   400.69020533
_cell_formula_units_Z   2
loop_
 _symmetry_equiv_pos_site_id
 _symmetry_equiv_pos_as_xyz
  1  'x, y, z'
loop_
 _atom_site_type_symbol
 _atom_site_label
 _atom_site_symmetry_multiplicity
 _atom_site_fract_x
 _atom_site_fract_y
 _atom_site_fract_z
 _atom_site_occupancy
  Sr  Sr0  1  0.750000  0.254294  0.849962  1
  Sr  Sr1  1  0.250000  0.745706  0.150038  1
  Sr  Sr2  1  0.750000  0.753633  0.649372  1
  Sr  Sr3  1  0.250000  0.246367  0.350628  1
  Ho  Ho4  1  0.750000  0.924196  0.887378  1
  Ho  Ho5  1  0.250000  0.075804  0.112622  1
  Tm  Tm6  1  0.750000  0.425630  0.612435  1
  Tm  Tm7  1  0.250000  0.574370  0.387565  1
  Lu  Lu8  1  0.250000  0.577086  0.891032  1
  Lu  Lu9  1  0.750000  0.422914  0.108968  1
  Lu  Lu10  1  0.250000  0.077823  0.608459  1
  Lu  Lu11  1  0.750000  0.922177  0.391541  1
  O  O12  1  0.250000  0.574810  0.576114  1
  O  O13  1  0.750000  0.425190  0.423886  1
  O  O14  1  0.250000  0.076205  0.922939  1
  O  O15  1  0.750000  0.923795  0.077061  1
  O  O16  1  0.250000  0.482199  0.215245  1
  O  O17  1  0.750000  0.517801  0.784755  1
  O  O18  1  0.250000  0.981525  0.285764  1
  O  O19  1  0.750000  0.018475  0.714236  1
  O  O20  1  0.250000  0.878832  0.519989  1
  O  O21  1  0.750000  0.121168  0.480011  1
  O  O22  1  0.250000  0.378710  0.980431  1
  O  O23  1  0.750000  0.621290  0.019569  1
  O  O24  1  0.750000  0.711364  0.330446  1
  O  O25  1  0.250000  0.288636  0.669554  1
  O  O26  1  0.750000  0.213297  0.170683  1
  O  O27  1  0.250000  0.786703  0.829317  1
