# generated using pymatgen
data_TmPa(ZnIr)2
_symmetry_space_group_name_H-M   'P 1'
_cell_length_a   3.83237400
_cell_length_b   7.11022117
_cell_length_c   8.38407322
_cell_angle_alpha   90.96303855
_cell_angle_beta   90.00000000
_cell_angle_gamma   90.00000000
_symmetry_Int_Tables_number   1
_chemical_formula_structural   TmPa(ZnIr)2
_chemical_formula_sum   'Tm2 Pa2 Zn4 Ir4'
_cell_volume   228.42556468
_cell_formula_units_Z   2
loop_
 _symmetry_equiv_pos_site_id
 _symmetry_equiv_pos_as_xyz
  1  'x, y, z'
loop_
 _atom_site_type_symbol
 _atom_site_label
 _atom_site_symmetry_multiplicity
 _atom_site_fract_x
 _atom_site_fract_y
 _atom_site_fract_z
 _atom_site_occupancy
  Tm  Tm0  1  0.750000  0.942474  0.683796  1
  Tm  Tm1  1  0.250000  0.057526  0.316204  1
  Pa  Pa2  1  0.250000  0.552785  0.190064  1
  Pa  Pa3  1  0.750000  0.447215  0.809936  1
  Zn  Zn4  1  0.250000  0.632256  0.559247  1
  Zn  Zn5  1  0.750000  0.367744  0.440753  1
  Zn  Zn6  1  0.750000  0.884795  0.062279  1
  Zn  Zn7  1  0.250000  0.115205  0.937721  1
  Ir  Ir8  1  0.250000  0.722559  0.876920  1
  Ir  Ir9  1  0.750000  0.277441  0.123080  1
  Ir  Ir10  1  0.750000  0.753532  0.360241  1
  Ir  Ir11  1  0.250000  0.246468  0.639759  1
