# generated using pymatgen
data_Y8SiGeBr12
_symmetry_space_group_name_H-M   'P 1'
_cell_length_a   4.07562000
_cell_length_b   13.25037115
_cell_length_c   14.05195215
_cell_angle_alpha   90.01699085
_cell_angle_beta   90.00000000
_cell_angle_gamma   90.00000000
_symmetry_Int_Tables_number   1
_chemical_formula_structural   Y8SiGeBr12
_chemical_formula_sum   'Y8 Si1 Ge1 Br12'
_cell_volume   758.85425073
_cell_formula_units_Z   1
loop_
 _symmetry_equiv_pos_site_id
 _symmetry_equiv_pos_as_xyz
  1  'x, y, z'
loop_
 _atom_site_type_symbol
 _atom_site_label
 _atom_site_symmetry_multiplicity
 _atom_site_fract_x
 _atom_site_fract_y
 _atom_site_fract_z
 _atom_site_occupancy
  Y  Y0  1  0.500000  0.119150  0.339763  1
  Y  Y1  1  0.500000  0.880850  0.660237  1
  Y  Y2  1  0.500000  0.618037  0.158729  1
  Y  Y3  1  0.500000  0.381963  0.841271  1
  Y  Y4  1  0.000000  0.119163  0.579098  1
  Y  Y5  1  0.000000  0.880837  0.420902  1
  Y  Y6  1  0.000000  0.617736  0.921859  1
  Y  Y7  1  0.000000  0.382264  0.078141  1
  Si  Si8  1  0.500000  0.500000  0.000000  1
  Ge  Ge9  1  0.500000  0.000000  0.500000  1
  Br  Br10  1  0.500000  0.243755  0.162617  1
  Br  Br11  1  0.500000  0.756245  0.837383  1
  Br  Br12  1  0.500000  0.743925  0.337595  1
  Br  Br13  1  0.500000  0.256075  0.662405  1
  Br  Br14  1  0.000000  0.255850  0.411454  1
  Br  Br15  1  0.000000  0.744150  0.588546  1
  Br  Br16  1  0.000000  0.755875  0.088684  1
  Br  Br17  1  0.000000  0.244125  0.911316  1
  Br  Br18  1  0.000000  0.001416  0.242763  1
  Br  Br19  1  0.000000  0.998584  0.757237  1
  Br  Br20  1  0.000000  0.501543  0.257303  1
  Br  Br21  1  0.000000  0.498457  0.742697  1
