# generated using pymatgen
data_Ac3Pr(GaPd2)4
_symmetry_space_group_name_H-M   'P 1'
_cell_length_a   6.05802541
_cell_length_b   7.13104000
_cell_length_c   7.80744044
_cell_angle_alpha   90.00000000
_cell_angle_beta   89.89518916
_cell_angle_gamma   90.00000000
_symmetry_Int_Tables_number   1
_chemical_formula_structural   Ac3Pr(GaPd2)4
_chemical_formula_sum   'Ac3 Pr1 Ga4 Pd8'
_cell_volume   337.28103026
_cell_formula_units_Z   1
loop_
 _symmetry_equiv_pos_site_id
 _symmetry_equiv_pos_as_xyz
  1  'x, y, z'
loop_
 _atom_site_type_symbol
 _atom_site_label
 _atom_site_symmetry_multiplicity
 _atom_site_fract_x
 _atom_site_fract_y
 _atom_site_fract_z
 _atom_site_occupancy
  Ac  Ac0  1  0.344291  0.750000  0.034421  1
  Ac  Ac1  1  0.152140  0.750000  0.533369  1
  Ac  Ac2  1  0.652456  0.250000  0.966080  1
  Pr  Pr3  1  0.843816  0.250000  0.467539  1
  Ga  Ga4  1  0.656317  0.750000  0.378749  1
  Ga  Ga5  1  0.842990  0.750000  0.880869  1
  Ga  Ga6  1  0.343868  0.250000  0.616732  1
  Ga  Ga7  1  0.150692  0.250000  0.129545  1
  Pd  Pd8  1  0.909178  0.552554  0.176148  1
  Pd  Pd9  1  0.593941  0.947002  0.671471  1
  Pd  Pd10  1  0.085146  0.055178  0.822945  1
  Pd  Pd11  1  0.418450  0.444937  0.325784  1
  Pd  Pd12  1  0.085146  0.444822  0.822945  1
  Pd  Pd13  1  0.418450  0.055063  0.325784  1
  Pd  Pd14  1  0.909178  0.947446  0.176148  1
  Pd  Pd15  1  0.593941  0.552998  0.671471  1
