# generated using pymatgen
data_Cs4Si4BiSb3Se16
_symmetry_space_group_name_H-M   'P 1'
_cell_length_a   7.58814274
_cell_length_b   9.78044401
_cell_length_c   13.66837111
_cell_angle_alpha   72.85957560
_cell_angle_beta   89.84642380
_cell_angle_gamma   90.16464353
_symmetry_Int_Tables_number   1
_chemical_formula_structural   Cs4Si4BiSb3Se16
_chemical_formula_sum   'Cs4 Si4 Bi1 Sb3 Se16'
_cell_volume   969.33867768
_cell_formula_units_Z   1
loop_
 _symmetry_equiv_pos_site_id
 _symmetry_equiv_pos_as_xyz
  1  'x, y, z'
loop_
 _atom_site_type_symbol
 _atom_site_label
 _atom_site_symmetry_multiplicity
 _atom_site_fract_x
 _atom_site_fract_y
 _atom_site_fract_z
 _atom_site_occupancy
  Cs  Cs0  1  0.256468  0.432847  0.383616  1
  Cs  Cs1  1  0.756896  0.567419  0.116073  1
  Cs  Cs2  1  0.743218  0.567535  0.616264  1
  Cs  Cs3  1  0.243077  0.432358  0.883706  1
  Si  Si4  1  0.776734  0.176050  0.345996  1
  Si  Si5  1  0.276222  0.822398  0.153773  1
  Si  Si6  1  0.222921  0.822773  0.655401  1
  Si  Si7  1  0.722705  0.176714  0.845201  1
  Bi  Bi8  1  0.143156  0.940879  0.372688  1
  Sb  Sb9  1  0.634014  0.061558  0.125605  1
  Sb  Sb10  1  0.864806  0.060865  0.625654  1
  Sb  Sb11  1  0.366215  0.938707  0.873878  1
  Se  Se12  1  0.981421  0.213839  0.754234  1
  Se  Se13  1  0.796022  0.935607  0.442530  1
  Se  Se14  1  0.491610  0.208199  0.736377  1
  Se  Se15  1  0.698172  0.934489  0.941217  1
  Se  Se16  1  0.778131  0.311775  0.455980  1
  Se  Se17  1  0.016953  0.783402  0.242979  1
  Se  Se18  1  0.280029  0.687738  0.043379  1
  Se  Se19  1  0.200226  0.065707  0.559901  1
  Se  Se20  1  0.721755  0.311646  0.955786  1
  Se  Se21  1  0.505991  0.792451  0.264266  1
  Se  Se22  1  0.990429  0.791853  0.763851  1
  Se  Se23  1  0.225030  0.685080  0.547104  1
  Se  Se24  1  0.518077  0.213184  0.254456  1
  Se  Se25  1  0.006844  0.212548  0.234886  1
  Se  Se26  1  0.481358  0.786984  0.745963  1
  Se  Se27  1  0.301520  0.065395  0.059234  1
