# generated using pymatgen
data_Tb14Y5LuPb16
_symmetry_space_group_name_H-M   'P 1'
_cell_length_a   8.21901900
_cell_length_b   8.31128063
_cell_length_c   15.70161902
_cell_angle_alpha   90.00374535
_cell_angle_beta   89.99635966
_cell_angle_gamma   89.94660241
_symmetry_Int_Tables_number   1
_chemical_formula_structural   Tb14Y5LuPb16
_chemical_formula_sum   'Tb14 Y5 Lu1 Pb16'
_cell_volume   1072.58612865
_cell_formula_units_Z   1
loop_
 _symmetry_equiv_pos_site_id
 _symmetry_equiv_pos_as_xyz
  1  'x, y, z'
loop_
 _atom_site_type_symbol
 _atom_site_label
 _atom_site_symmetry_multiplicity
 _atom_site_fract_x
 _atom_site_fract_y
 _atom_site_fract_z
 _atom_site_occupancy
  Tb  Tb0  1  0.623296  0.158997  0.379753  1
  Tb  Tb1  1  0.123379  0.341054  0.119962  1
  Tb  Tb2  1  0.623240  0.159112  0.120352  1
  Tb  Tb3  1  0.123332  0.340940  0.379933  1
  Tb  Tb4  1  0.376387  0.840680  0.620501  1
  Tb  Tb5  1  0.877624  0.658445  0.879425  1
  Tb  Tb6  1  0.533649  0.323698  0.899833  1
  Tb  Tb7  1  0.034374  0.177275  0.600136  1
  Tb  Tb8  1  0.465966  0.676652  0.400047  1
  Tb  Tb9  1  0.965917  0.823331  0.100165  1
  Tb  Tb10  1  0.465888  0.676552  0.099910  1
  Tb  Tb11  1  0.965842  0.823446  0.399871  1
  Tb  Tb12  1  0.533739  0.323859  0.600228  1
  Tb  Tb13  1  0.034443  0.177126  0.899810  1
  Y  Y14  1  0.376048  0.840830  0.879425  1
  Y  Y15  1  0.877282  0.658302  0.620646  1
  Y  Y16  1  0.708684  0.996438  0.749935  1
  Y  Y17  1  0.791238  0.496442  0.250035  1
  Y  Y18  1  0.291218  0.003676  0.249961  1
  Lu  Lu19  1  0.209192  0.504197  0.750067  1
  Pb  Pb20  1  0.281267  0.032883  0.042787  1
  Pb  Pb21  1  0.781117  0.466856  0.457268  1
  Pb  Pb22  1  0.719069  0.966663  0.542951  1
  Pb  Pb23  1  0.218935  0.532887  0.956193  1
  Pb  Pb24  1  0.718643  0.966709  0.956999  1
  Pb  Pb25  1  0.218520  0.532838  0.543861  1
  Pb  Pb26  1  0.281270  0.033034  0.457099  1
  Pb  Pb27  1  0.781132  0.466719  0.042848  1
  Pb  Pb28  1  0.570737  0.625163  0.749960  1
  Pb  Pb29  1  0.072863  0.872936  0.750055  1
  Pb  Pb30  1  0.427366  0.374145  0.249987  1
  Pb  Pb31  1  0.927514  0.126123  0.249994  1
  Pb  Pb32  1  0.344951  0.154126  0.749999  1
  Pb  Pb33  1  0.846311  0.348297  0.750021  1
  Pb  Pb34  1  0.654684  0.847860  0.249985  1
  Pb  Pb35  1  0.154887  0.651709  0.249997  1
