# generated using pymatgen
data_Sr7Ce(Si3Pd)4
_symmetry_space_group_name_H-M   'P 1'
_cell_length_a   8.38500600
_cell_length_b   8.38500632
_cell_length_c   8.98648200
_cell_angle_alpha   90.00000000
_cell_angle_beta   90.00000000
_cell_angle_gamma   120.00000662
_symmetry_Int_Tables_number   1
_chemical_formula_structural   Sr7Ce(Si3Pd)4
_chemical_formula_sum   'Sr7 Ce1 Si12 Pd4'
_cell_volume   547.17605443
_cell_formula_units_Z   1
loop_
 _symmetry_equiv_pos_site_id
 _symmetry_equiv_pos_as_xyz
  1  'x, y, z'
loop_
 _atom_site_type_symbol
 _atom_site_label
 _atom_site_symmetry_multiplicity
 _atom_site_fract_x
 _atom_site_fract_y
 _atom_site_fract_z
 _atom_site_occupancy
  Sr  Sr0  1  0.500467  0.000933  0.250000  1
  Sr  Sr1  1  0.499486  0.998973  0.750000  1
  Sr  Sr2  1  0.999067  0.499533  0.250000  1
  Sr  Sr3  1  0.001027  0.500514  0.750000  1
  Sr  Sr4  1  0.500467  0.499533  0.250000  1
  Sr  Sr5  1  0.499486  0.500514  0.750000  1
  Sr  Sr6  1  0.000000  0.000000  0.250000  1
  Ce  Ce7  1  0.000000  0.000000  0.750000  1
  Si  Si8  1  0.163701  0.327403  0.992697  1
  Si  Si9  1  0.836315  0.672629  0.991448  1
  Si  Si10  1  0.672597  0.836299  0.992697  1
  Si  Si11  1  0.836315  0.672629  0.508552  1
  Si  Si12  1  0.327371  0.163685  0.991448  1
  Si  Si13  1  0.163701  0.327403  0.507303  1
  Si  Si14  1  0.163701  0.836299  0.992697  1
  Si  Si15  1  0.327371  0.163685  0.508552  1
  Si  Si16  1  0.836315  0.163685  0.991448  1
  Si  Si17  1  0.672597  0.836299  0.507303  1
  Si  Si18  1  0.836315  0.163685  0.508552  1
  Si  Si19  1  0.163701  0.836299  0.507303  1
  Pd  Pd20  1  0.333333  0.666667  0.000867  1
  Pd  Pd21  1  0.666667  0.333333  0.999037  1
  Pd  Pd22  1  0.666667  0.333333  0.500963  1
  Pd  Pd23  1  0.333333  0.666667  0.499133  1
