# generated using pymatgen
data_Y3PuN4
_symmetry_space_group_name_H-M   'P 1'
_cell_length_a   11.50631035
_cell_length_b   11.50631026
_cell_length_c   11.50630910
_cell_angle_alpha   17.40490491
_cell_angle_beta   17.40490627
_cell_angle_gamma   17.40490767
_symmetry_Int_Tables_number   1
_chemical_formula_structural   Y3PuN4
_chemical_formula_sum   'Y3 Pu1 N4'
_cell_volume   118.94970268
_cell_formula_units_Z   1
loop_
 _symmetry_equiv_pos_site_id
 _symmetry_equiv_pos_as_xyz
  1  'x, y, z'
loop_
 _atom_site_type_symbol
 _atom_site_label
 _atom_site_symmetry_multiplicity
 _atom_site_fract_x
 _atom_site_fract_y
 _atom_site_fract_z
 _atom_site_occupancy
  Y  Y0  1  0.248894  0.248894  0.248894  1
  Y  Y1  1  0.500000  0.500000  0.500000  1
  Y  Y2  1  0.751106  0.751106  0.751106  1
  Pu  Pu3  1  0.000000  0.000000  0.000000  1
  N  N4  1  0.372573  0.372573  0.372573  1
  N  N5  1  0.124298  0.124298  0.124298  1
  N  N6  1  0.627427  0.627427  0.627427  1
  N  N7  1  0.875702  0.875702  0.875702  1
