# generated using pymatgen
data_Cs2Cd5Bi4
_symmetry_space_group_name_H-M   'P 1'
_cell_length_a   8.10338078
_cell_length_b   8.10337983
_cell_length_c   13.96191000
_cell_angle_alpha   90.00000000
_cell_angle_beta   90.00000000
_cell_angle_gamma   116.87748359
_symmetry_Int_Tables_number   1
_chemical_formula_structural   Cs2Cd5Bi4
_chemical_formula_sum   'Cs4 Cd10 Bi8'
_cell_volume   817.76795146
_cell_formula_units_Z   2
loop_
 _symmetry_equiv_pos_site_id
 _symmetry_equiv_pos_as_xyz
  1  'x, y, z'
loop_
 _atom_site_type_symbol
 _atom_site_label
 _atom_site_symmetry_multiplicity
 _atom_site_fract_x
 _atom_site_fract_y
 _atom_site_fract_z
 _atom_site_occupancy
  Cs  Cs0  1  0.211856  0.788144  0.500000  1
  Cs  Cs1  1  0.211856  0.788144  0.000000  1
  Cs  Cs2  1  0.788144  0.211856  0.500000  1
  Cs  Cs3  1  0.788144  0.211856  0.000000  1
  Cd  Cd4  1  0.532583  0.247092  0.250000  1
  Cd  Cd5  1  0.752908  0.467417  0.750000  1
  Cd  Cd6  1  0.467417  0.752908  0.750000  1
  Cd  Cd7  1  0.247092  0.532583  0.250000  1
  Cd  Cd8  1  0.645074  0.645074  0.390433  1
  Cd  Cd9  1  0.354926  0.354926  0.609567  1
  Cd  Cd10  1  0.645074  0.645074  0.109567  1
  Cd  Cd11  1  0.354926  0.354926  0.890433  1
  Cd  Cd12  1  0.006696  0.006696  0.250000  1
  Cd  Cd13  1  0.993304  0.993304  0.750000  1
  Bi  Bi14  1  0.597051  0.913982  0.250000  1
  Bi  Bi15  1  0.086018  0.402949  0.750000  1
  Bi  Bi16  1  0.402949  0.086018  0.750000  1
  Bi  Bi17  1  0.913982  0.597051  0.250000  1
  Bi  Bi18  1  0.280302  0.280302  0.401855  1
  Bi  Bi19  1  0.719698  0.719698  0.598145  1
  Bi  Bi20  1  0.280302  0.280302  0.098145  1
  Bi  Bi21  1  0.719698  0.719698  0.901855  1
