# generated using pymatgen
data_Cr20Ga(RuC3)2
_symmetry_space_group_name_H-M   'P 1'
_cell_length_a   7.50718804
_cell_length_b   7.50720891
_cell_length_c   7.50727000
_cell_angle_alpha   60.00106469
_cell_angle_beta   60.00060210
_cell_angle_gamma   59.99996199
_symmetry_Int_Tables_number   1
_chemical_formula_structural   Cr20Ga(RuC3)2
_chemical_formula_sum   'Cr20 Ga1 Ru2 C6'
_cell_volume   299.17698362
_cell_formula_units_Z   1
loop_
 _symmetry_equiv_pos_site_id
 _symmetry_equiv_pos_as_xyz
  1  'x, y, z'
loop_
 _atom_site_type_symbol
 _atom_site_label
 _atom_site_symmetry_multiplicity
 _atom_site_fract_x
 _atom_site_fract_y
 _atom_site_fract_z
 _atom_site_occupancy
  Cr  Cr0  1  0.616133  0.616123  0.151605  1
  Cr  Cr1  1  0.616138  0.151613  0.616123  1
  Cr  Cr2  1  0.151622  0.616125  0.616119  1
  Cr  Cr3  1  0.616141  0.616120  0.616128  1
  Cr  Cr4  1  0.383867  0.383877  0.848395  1
  Cr  Cr5  1  0.383862  0.848387  0.383877  1
  Cr  Cr6  1  0.848378  0.383875  0.383881  1
  Cr  Cr7  1  0.383859  0.383880  0.383872  1
  Cr  Cr8  1  0.000003  0.999995  0.341814  1
  Cr  Cr9  1  0.658188  0.000002  0.341807  1
  Cr  Cr10  1  0.999996  0.658189  0.341825  1
  Cr  Cr11  1  0.658182  0.341796  0.000007  1
  Cr  Cr12  1  0.000008  0.341797  0.000004  1
  Cr  Cr13  1  0.000004  0.341811  0.658175  1
  Cr  Cr14  1  0.341818  0.658204  0.999993  1
  Cr  Cr15  1  0.341812  0.999998  0.658193  1
  Cr  Cr16  1  0.341801  0.999993  0.000000  1
  Cr  Cr17  1  0.999997  0.000005  0.658186  1
  Cr  Cr18  1  0.999992  0.658203  0.999996  1
  Cr  Cr19  1  0.658199  0.000007  0.000000  1
  Ga  Ga20  1  0.000000  0.000000  0.000000  1
  Ru  Ru21  1  0.750009  0.749997  0.749977  1
  Ru  Ru22  1  0.249991  0.250003  0.250023  1
  C  C23  1  0.721363  0.721366  0.278647  1
  C  C24  1  0.278622  0.721367  0.278635  1
  C  C25  1  0.721370  0.278616  0.278634  1
  C  C26  1  0.278637  0.278634  0.721353  1
  C  C27  1  0.721378  0.278633  0.721365  1
  C  C28  1  0.278630  0.721384  0.721366  1
