# generated using pymatgen
data_Li2HfSc(NiAs)4
_symmetry_space_group_name_H-M   'P 1'
_cell_length_a   3.93458400
_cell_length_b   6.33351341
_cell_length_c   7.12253121
_cell_angle_alpha   87.76384850
_cell_angle_beta   90.00000000
_cell_angle_gamma   90.00000000
_symmetry_Int_Tables_number   1
_chemical_formula_structural   Li2HfSc(NiAs)4
_chemical_formula_sum   'Li2 Hf1 Sc1 Ni4 As4'
_cell_volume   177.35646885
_cell_formula_units_Z   1
loop_
 _symmetry_equiv_pos_site_id
 _symmetry_equiv_pos_as_xyz
  1  'x, y, z'
loop_
 _atom_site_type_symbol
 _atom_site_label
 _atom_site_symmetry_multiplicity
 _atom_site_fract_x
 _atom_site_fract_y
 _atom_site_fract_z
 _atom_site_occupancy
  Li  Li0  1  0.250000  0.484682  0.184275  1
  Li  Li1  1  0.750000  0.513426  0.814231  1
  Hf  Hf2  1  0.250000  0.983853  0.304169  1
  Sc  Sc3  1  0.750000  0.014907  0.697869  1
  Ni  Ni4  1  0.250000  0.837205  0.935908  1
  Ni  Ni5  1  0.750000  0.164302  0.066790  1
  Ni  Ni6  1  0.750000  0.654794  0.434629  1
  Ni  Ni7  1  0.250000  0.347444  0.560992  1
  As  As8  1  0.250000  0.722465  0.618777  1
  As  As9  1  0.750000  0.278464  0.381724  1
  As  As10  1  0.750000  0.773193  0.109609  1
  As  As11  1  0.250000  0.225266  0.891027  1
