# generated using pymatgen
data_LuInGaNi3
_symmetry_space_group_name_H-M   'P 1'
_cell_length_a   4.94028394
_cell_length_b   4.94028424
_cell_length_c   4.94028449
_cell_angle_alpha   62.51717208
_cell_angle_beta   62.51716735
_cell_angle_gamma   62.51716463
_symmetry_Int_Tables_number   1
_chemical_formula_structural   LuInGaNi3
_chemical_formula_sum   'Lu1 In1 Ga1 Ni3'
_cell_volume   90.04117167
_cell_formula_units_Z   1
loop_
 _symmetry_equiv_pos_site_id
 _symmetry_equiv_pos_as_xyz
  1  'x, y, z'
loop_
 _atom_site_type_symbol
 _atom_site_label
 _atom_site_symmetry_multiplicity
 _atom_site_fract_x
 _atom_site_fract_y
 _atom_site_fract_z
 _atom_site_occupancy
  Lu  Lu0  1  0.250145  0.250145  0.250145  1
  In  In1  1  0.999007  0.999007  0.999007  1
  Ga  Ga2  1  0.623737  0.623737  0.623737  1
  Ni  Ni3  1  0.627347  0.627347  0.122417  1
  Ni  Ni4  1  0.627347  0.122417  0.627347  1
  Ni  Ni5  1  0.122417  0.627347  0.627347  1
