# generated using pymatgen
data_TbEr7(SiPt)8
_symmetry_space_group_name_H-M   'P 1'
_cell_length_a   4.29913700
_cell_length_b   7.38777718
_cell_length_c   13.96605900
_cell_angle_alpha   90.01254062
_cell_angle_beta   90.00000000
_cell_angle_gamma   90.00000000
_symmetry_Int_Tables_number   1
_chemical_formula_structural   TbEr7(SiPt)8
_chemical_formula_sum   'Tb1 Er7 Si8 Pt8'
_cell_volume   443.57691396
_cell_formula_units_Z   1
loop_
 _symmetry_equiv_pos_site_id
 _symmetry_equiv_pos_as_xyz
  1  'x, y, z'
loop_
 _atom_site_type_symbol
 _atom_site_label
 _atom_site_symmetry_multiplicity
 _atom_site_fract_x
 _atom_site_fract_y
 _atom_site_fract_z
 _atom_site_occupancy
  Tb  Tb0  1  0.000000  0.204190  0.249023  1
  Er  Er1  1  0.000000  0.300915  0.999637  1
  Er  Er2  1  0.500000  0.699921  0.500539  1
  Er  Er3  1  0.000000  0.294181  0.500140  1
  Er  Er4  1  0.500000  0.706512  0.999980  1
  Er  Er5  1  0.500000  0.795088  0.250953  1
  Er  Er6  1  0.000000  0.205026  0.750453  1
  Er  Er7  1  0.500000  0.794525  0.749429  1
  Si  Si8  1  0.000000  0.907907  0.592848  1
  Si  Si9  1  0.500000  0.091684  0.907013  1
  Si  Si10  1  0.000000  0.908245  0.408695  1
  Si  Si11  1  0.500000  0.090967  0.090803  1
  Si  Si12  1  0.000000  0.591712  0.150509  1
  Si  Si13  1  0.500000  0.410113  0.353527  1
  Si  Si14  1  0.000000  0.591172  0.850688  1
  Si  Si15  1  0.500000  0.408296  0.647669  1
  Pt  Pt16  1  0.500000  0.076467  0.608948  1
  Pt  Pt17  1  0.000000  0.923053  0.890954  1
  Pt  Pt18  1  0.500000  0.076359  0.392789  1
  Pt  Pt19  1  0.000000  0.921276  0.106784  1
  Pt  Pt20  1  0.500000  0.421449  0.150833  1
  Pt  Pt21  1  0.000000  0.581902  0.346326  1
  Pt  Pt22  1  0.500000  0.419596  0.847461  1
  Pt  Pt23  1  0.000000  0.579449  0.653994  1
