# generated using pymatgen
data_Rb4SnSbAu7
_symmetry_space_group_name_H-M   'P 1'
_cell_length_a   10.71081395
_cell_length_b   10.71081434
_cell_length_c   10.71081483
_cell_angle_alpha   37.94452937
_cell_angle_beta   37.94452472
_cell_angle_gamma   37.94452724
_symmetry_Int_Tables_number   1
_chemical_formula_structural   Rb4SnSbAu7
_chemical_formula_sum   'Rb4 Sn1 Sb1 Au7'
_cell_volume   416.99835635
_cell_formula_units_Z   1
loop_
 _symmetry_equiv_pos_site_id
 _symmetry_equiv_pos_as_xyz
  1  'x, y, z'
loop_
 _atom_site_type_symbol
 _atom_site_label
 _atom_site_symmetry_multiplicity
 _atom_site_fract_x
 _atom_site_fract_y
 _atom_site_fract_z
 _atom_site_occupancy
  Rb  Rb0  1  0.683540  0.683540  0.683540  1
  Rb  Rb1  1  0.315431  0.315431  0.315431  1
  Rb  Rb2  1  0.812952  0.812952  0.812952  1
  Rb  Rb3  1  0.188001  0.188001  0.188001  1
  Sn  Sn4  1  0.551743  0.551743  0.551743  1
  Sb  Sb5  1  0.448183  0.448183  0.448183  1
  Au  Au6  1  0.000032  0.000032  0.000032  1
  Au  Au7  1  0.193531  0.787874  0.787874  1
  Au  Au8  1  0.787874  0.787874  0.193531  1
  Au  Au9  1  0.787874  0.193531  0.787874  1
  Au  Au10  1  0.211981  0.806878  0.211981  1
  Au  Au11  1  0.806878  0.211981  0.211981  1
  Au  Au12  1  0.211981  0.211981  0.806878  1
