# generated using pymatgen
data_Zr8TaV(Sn3N)2
_symmetry_space_group_name_H-M   'P 1'
_cell_length_a   8.38739700
_cell_length_b   8.38739686
_cell_length_c   5.68086600
_cell_angle_alpha   90.00000000
_cell_angle_beta   90.00000000
_cell_angle_gamma   119.99999661
_symmetry_Int_Tables_number   1
_chemical_formula_structural   Zr8TaV(Sn3N)2
_chemical_formula_sum   'Zr8 Ta1 V1 Sn6 N2'
_cell_volume   346.09839428
_cell_formula_units_Z   1
loop_
 _symmetry_equiv_pos_site_id
 _symmetry_equiv_pos_as_xyz
  1  'x, y, z'
loop_
 _atom_site_type_symbol
 _atom_site_label
 _atom_site_symmetry_multiplicity
 _atom_site_fract_x
 _atom_site_fract_y
 _atom_site_fract_z
 _atom_site_occupancy
  Zr  Zr0  1  0.333333  0.666667  0.500000  1
  Zr  Zr1  1  0.666667  0.333333  0.500000  1
  Zr  Zr2  1  0.778424  0.776692  0.748712  1
  Zr  Zr3  1  0.223308  0.001732  0.748712  1
  Zr  Zr4  1  0.998268  0.221576  0.748712  1
  Zr  Zr5  1  0.223308  0.221576  0.251288  1
  Zr  Zr6  1  0.778424  0.001732  0.251288  1
  Zr  Zr7  1  0.998268  0.776692  0.251288  1
  Ta  Ta8  1  0.666667  0.333333  0.000000  1
  V  V9  1  0.333333  0.666667  0.000000  1
  Sn  Sn10  1  0.406129  0.411086  0.762094  1
  Sn  Sn11  1  0.588914  0.995043  0.762094  1
  Sn  Sn12  1  0.004957  0.593871  0.762094  1
  Sn  Sn13  1  0.588914  0.593871  0.237906  1
  Sn  Sn14  1  0.406129  0.995043  0.237906  1
  Sn  Sn15  1  0.004957  0.411086  0.237906  1
  N  N16  1  0.000000  0.000000  0.000000  1
  N  N17  1  0.000000  0.000000  0.500000  1
