# generated using pymatgen
data_Ac4Zn10SiSn
_symmetry_space_group_name_H-M   'P 1'
_cell_length_a   8.79975713
_cell_length_b   8.79975663
_cell_length_c   9.21791800
_cell_angle_alpha   90.00000000
_cell_angle_beta   90.00000000
_cell_angle_gamma   149.10483782
_symmetry_Int_Tables_number   1
_chemical_formula_structural   Ac4Zn10SiSn
_chemical_formula_sum   'Ac4 Zn10 Si1 Sn1'
_cell_volume   366.51204049
_cell_formula_units_Z   1
loop_
 _symmetry_equiv_pos_site_id
 _symmetry_equiv_pos_as_xyz
  1  'x, y, z'
loop_
 _atom_site_type_symbol
 _atom_site_label
 _atom_site_symmetry_multiplicity
 _atom_site_fract_x
 _atom_site_fract_y
 _atom_site_fract_z
 _atom_site_occupancy
  Ac  Ac0  1  0.206599  0.793401  0.250000  1
  Ac  Ac1  1  0.791455  0.208545  0.750000  1
  Ac  Ac2  1  0.000592  0.999408  0.488311  1
  Ac  Ac3  1  0.000592  0.999408  0.011689  1
  Zn  Zn4  1  0.814414  0.185586  0.390951  1
  Zn  Zn5  1  0.184477  0.815523  0.608152  1
  Zn  Zn6  1  0.814414  0.185586  0.109049  1
  Zn  Zn7  1  0.184477  0.815523  0.891848  1
  Zn  Zn8  1  0.650050  0.349950  0.478969  1
  Zn  Zn9  1  0.344923  0.655077  0.510582  1
  Zn  Zn10  1  0.650050  0.349950  0.021031  1
  Zn  Zn11  1  0.344923  0.655077  0.989418  1
  Zn  Zn12  1  0.408892  0.591108  0.250000  1
  Zn  Zn13  1  0.600880  0.399120  0.750000  1
  Si  Si14  1  0.560351  0.439649  0.250000  1
  Sn  Sn15  1  0.442908  0.557092  0.750000  1
