# generated using pymatgen
data_PrSm2Gd(Pb2O7)2
_symmetry_space_group_name_H-M   'P 1'
_cell_length_a   7.73453719
_cell_length_b   7.73922337
_cell_length_c   7.74337600
_cell_angle_alpha   59.98224883
_cell_angle_beta   59.96219020
_cell_angle_gamma   59.94571443
_symmetry_Int_Tables_number   1
_chemical_formula_structural   PrSm2Gd(Pb2O7)2
_chemical_formula_sum   'Pr1 Sm2 Gd1 Pb4 O14'
_cell_volume   327.48107394
_cell_formula_units_Z   1
loop_
 _symmetry_equiv_pos_site_id
 _symmetry_equiv_pos_as_xyz
  1  'x, y, z'
loop_
 _atom_site_type_symbol
 _atom_site_label
 _atom_site_symmetry_multiplicity
 _atom_site_fract_x
 _atom_site_fract_y
 _atom_site_fract_z
 _atom_site_occupancy
  Pr  Pr0  1  0.125000  0.625000  0.125000  1
  Sm  Sm1  1  0.125000  0.125000  0.125000  1
  Sm  Sm2  1  0.125000  0.125000  0.625000  1
  Gd  Gd3  1  0.625000  0.125000  0.125000  1
  Pb  Pb4  1  0.625000  0.625000  0.125000  1
  Pb  Pb5  1  0.625000  0.625000  0.625000  1
  Pb  Pb6  1  0.625000  0.125000  0.625000  1
  Pb  Pb7  1  0.125000  0.625000  0.625000  1
  O  O8  1  0.719786  0.279652  0.279916  1
  O  O9  1  0.719786  0.279652  0.720646  1
  O  O10  1  0.994420  0.007646  0.998968  1
  O  O11  1  0.279178  0.723361  0.279415  1
  O  O12  1  0.717049  0.723344  0.279804  1
  O  O13  1  0.970822  0.526639  0.531954  1
  O  O14  1  0.279178  0.723361  0.718046  1
  O  O15  1  0.255580  0.242354  0.251032  1
  O  O16  1  0.970822  0.526639  0.970585  1
  O  O17  1  0.530214  0.970348  0.529354  1
  O  O18  1  0.532951  0.526656  0.970196  1
  O  O19  1  0.970718  0.970795  0.529244  1
  O  O20  1  0.530214  0.970348  0.970084  1
  O  O21  1  0.279282  0.279205  0.720756  1
