# generated using pymatgen
data_La2Sc3Tc4(P4Ir5)3
_symmetry_space_group_name_H-M   'P 1'
_cell_length_a   12.72332757
_cell_length_b   12.62125467
_cell_length_c   3.96600000
_cell_angle_alpha   90.00000000
_cell_angle_beta   90.00000000
_cell_angle_gamma   119.84042954
_symmetry_Int_Tables_number   1
_chemical_formula_structural   La2Sc3Tc4(P4Ir5)3
_chemical_formula_sum   'La2 Sc3 Tc4 P12 Ir15'
_cell_volume   552.43686901
_cell_formula_units_Z   1
loop_
 _symmetry_equiv_pos_site_id
 _symmetry_equiv_pos_as_xyz
  1  'x, y, z'
loop_
 _atom_site_type_symbol
 _atom_site_label
 _atom_site_symmetry_multiplicity
 _atom_site_fract_x
 _atom_site_fract_y
 _atom_site_fract_z
 _atom_site_occupancy
  La  La0  1  0.815723  0.002566  0.500000  1
  La  La1  1  0.002184  0.815973  0.500000  1
  Sc  Sc2  1  0.330288  0.662498  0.000000  1
  Sc  Sc3  1  0.666926  0.332541  0.000000  1
  Sc  Sc4  1  0.192932  0.195628  0.500000  1
  Tc  Tc5  1  0.453129  0.002093  0.000000  1
  Tc  Tc6  1  0.997597  0.451072  0.000000  1
  Tc  Tc7  1  0.547237  0.541846  0.000000  1
  Tc  Tc8  1  0.180392  0.380034  0.000000  1
  P  P9  1  0.182640  0.007909  0.000000  1
  P  P10  1  0.010180  0.187085  0.000000  1
  P  P11  1  0.819507  0.820385  0.000000  1
  P  P12  1  0.175669  0.482561  0.500000  1
  P  P13  1  0.512939  0.685377  0.500000  1
  P  P14  1  0.311128  0.825582  0.500000  1
  P  P15  1  0.686130  0.512310  0.500000  1
  P  P16  1  0.827428  0.312326  0.500000  1
  P  P17  1  0.486008  0.171581  0.500000  1
  P  P18  1  0.632640  0.999090  0.000000  1
  P  P19  1  0.000864  0.633575  0.000000  1
  P  P20  1  0.357086  0.363229  0.000000  1
  Ir  Ir21  1  0.364432  0.491674  0.500000  1
  Ir  Ir22  1  0.504241  0.866138  0.500000  1
  Ir  Ir23  1  0.131851  0.637028  0.500000  1
  Ir  Ir24  1  0.866116  0.505905  0.500000  1
  Ir  Ir25  1  0.638623  0.131855  0.500000  1
  Ir  Ir26  1  0.495087  0.357455  0.500000  1
  Ir  Ir27  1  0.617532  0.797815  0.000000  1
  Ir  Ir28  1  0.202908  0.820818  0.000000  1
  Ir  Ir29  1  0.801105  0.620439  0.000000  1
  Ir  Ir30  1  0.816054  0.200197  0.000000  1
  Ir  Ir31  1  0.373695  0.182983  0.000000  1
  Ir  Ir32  1  0.290883  0.002982  0.500000  1
  Ir  Ir33  1  0.997560  0.288209  0.500000  1
  Ir  Ir34  1  0.708129  0.707831  0.500000  1
  Ir  Ir35  1  0.003160  0.003411  0.000000  1
