# generated using pymatgen
data_Nd2Lu(SnIr)3
_symmetry_space_group_name_H-M   'P 1'
_cell_length_a   7.64088100
_cell_length_b   7.31686658
_cell_length_c   4.16483000
_cell_angle_alpha   90.00000000
_cell_angle_beta   90.00000000
_cell_angle_gamma   121.47600264
_symmetry_Int_Tables_number   1
_chemical_formula_structural   Nd2Lu(SnIr)3
_chemical_formula_sum   'Nd2 Lu1 Sn3 Ir3'
_cell_volume   198.58345025
_cell_formula_units_Z   1
loop_
 _symmetry_equiv_pos_site_id
 _symmetry_equiv_pos_as_xyz
  1  'x, y, z'
loop_
 _atom_site_type_symbol
 _atom_site_label
 _atom_site_symmetry_multiplicity
 _atom_site_fract_x
 _atom_site_fract_y
 _atom_site_fract_z
 _atom_site_occupancy
  Nd  Nd0  1  0.998799  0.589112  0.000000  1
  Nd  Nd1  1  0.409687  0.410888  0.000000  1
  Lu  Lu2  1  0.603422  0.000000  0.000000  1
  Sn  Sn3  1  0.241984  0.000000  0.500000  1
  Sn  Sn4  1  0.004953  0.260569  0.500000  1
  Sn  Sn5  1  0.744385  0.739431  0.500000  1
  Ir  Ir6  1  0.356028  0.703192  0.500000  1
  Ir  Ir7  1  0.652837  0.296808  0.500000  1
  Ir  Ir8  1  0.987904  0.000000  0.000000  1
