# generated using pymatgen
data_Ho3Er5Re(B8Ru)3
_symmetry_space_group_name_H-M   'P 1'
_cell_length_a   3.64791600
_cell_length_b   9.10557982
_cell_length_c   11.48642346
_cell_angle_alpha   90.13007841
_cell_angle_beta   90.00000000
_cell_angle_gamma   90.00000000
_symmetry_Int_Tables_number   1
_chemical_formula_structural   Ho3Er5Re(B8Ru)3
_chemical_formula_sum   'Ho3 Er5 Re1 B24 Ru3'
_cell_volume   381.53654168
_cell_formula_units_Z   1
loop_
 _symmetry_equiv_pos_site_id
 _symmetry_equiv_pos_as_xyz
  1  'x, y, z'
loop_
 _atom_site_type_symbol
 _atom_site_label
 _atom_site_symmetry_multiplicity
 _atom_site_fract_x
 _atom_site_fract_y
 _atom_site_fract_z
 _atom_site_occupancy
  Ho  Ho0  1  0.000000  0.322328  0.415272  1
  Ho  Ho1  1  0.000000  0.680261  0.587681  1
  Ho  Ho2  1  0.000000  0.822342  0.083371  1
  Er  Er3  1  0.000000  0.176647  0.913680  1
  Er  Er4  1  0.000000  0.942834  0.370894  1
  Er  Er5  1  0.000000  0.056641  0.628075  1
  Er  Er6  1  0.000000  0.442398  0.128545  1
  Er  Er7  1  0.000000  0.556195  0.872226  1
  Re  Re8  1  0.000000  0.862736  0.821219  1
  B  B9  1  0.500000  0.554025  0.433296  1
  B  B10  1  0.500000  0.446001  0.566873  1
  B  B11  1  0.500000  0.054026  0.067195  1
  B  B12  1  0.500000  0.947320  0.933497  1
  B  B13  1  0.500000  0.748844  0.419282  1
  B  B14  1  0.500000  0.251288  0.580686  1
  B  B15  1  0.500000  0.248708  0.080575  1
  B  B16  1  0.500000  0.750790  0.919220  1
  B  B17  1  0.500000  0.790388  0.265363  1
  B  B18  1  0.500000  0.209203  0.733949  1
  B  B19  1  0.500000  0.290796  0.234531  1
  B  B20  1  0.500000  0.708370  0.765488  1
  B  B21  1  0.500000  0.630460  0.184787  1
  B  B22  1  0.500000  0.368867  0.814947  1
  B  B23  1  0.500000  0.131209  0.315289  1
  B  B24  1  0.500000  0.869437  0.685068  1
  B  B25  1  0.500000  0.983034  0.212351  1
  B  B26  1  0.500000  0.018659  0.787616  1
  B  B27  1  0.500000  0.482692  0.287935  1
  B  B28  1  0.500000  0.517086  0.712552  1
  B  B29  1  0.500000  0.603909  0.029440  1
  B  B30  1  0.500000  0.393941  0.971222  1
  B  B31  1  0.500000  0.105420  0.470477  1
  B  B32  1  0.500000  0.895250  0.528281  1
  Ru  Ru33  1  0.000000  0.637635  0.320907  1
  Ru  Ru34  1  0.000000  0.362316  0.678782  1
  Ru  Ru35  1  0.000000  0.137944  0.179428  1
