# generated using pymatgen
data_Tb3Yb(AlPt)4
_symmetry_space_group_name_H-M   'P 1'
_cell_length_a   4.43039700
_cell_length_b   6.91245981
_cell_length_c   7.79221880
_cell_angle_alpha   90.38213186
_cell_angle_beta   90.00000000
_cell_angle_gamma   90.00000000
_symmetry_Int_Tables_number   1
_chemical_formula_structural   Tb3Yb(AlPt)4
_chemical_formula_sum   'Tb3 Yb1 Al4 Pt4'
_cell_volume   238.63093525
_cell_formula_units_Z   1
loop_
 _symmetry_equiv_pos_site_id
 _symmetry_equiv_pos_as_xyz
  1  'x, y, z'
loop_
 _atom_site_type_symbol
 _atom_site_label
 _atom_site_symmetry_multiplicity
 _atom_site_fract_x
 _atom_site_fract_y
 _atom_site_fract_z
 _atom_site_occupancy
  Tb  Tb0  1  0.250000  0.031109  0.321177  1
  Tb  Tb1  1  0.250000  0.531685  0.175841  1
  Tb  Tb2  1  0.750000  0.967089  0.679025  1
  Yb  Yb3  1  0.750000  0.470134  0.822550  1
  Al  Al4  1  0.250000  0.143624  0.938794  1
  Al  Al5  1  0.250000  0.641235  0.561664  1
  Al  Al6  1  0.750000  0.856719  0.061772  1
  Al  Al7  1  0.750000  0.359503  0.438954  1
  Pt  Pt8  1  0.250000  0.272095  0.620697  1
  Pt  Pt9  1  0.250000  0.777795  0.878852  1
  Pt  Pt10  1  0.750000  0.725377  0.377755  1
  Pt  Pt11  1  0.750000  0.223635  0.122920  1
