# generated using pymatgen
data_Tb2Fe2P6Ir5Rh3
_symmetry_space_group_name_H-M   'P 1'
_cell_length_a   3.89768100
_cell_length_b   10.72728500
_cell_length_c   12.42856400
_cell_angle_alpha   90.00000000
_cell_angle_beta   90.00000000
_cell_angle_gamma   90.00000000
_symmetry_Int_Tables_number   1
_chemical_formula_structural   Tb2Fe2P6Ir5Rh3
_chemical_formula_sum   'Tb4 Fe4 P12 Ir10 Rh6'
_cell_volume   519.65733777
_cell_formula_units_Z   2
loop_
 _symmetry_equiv_pos_site_id
 _symmetry_equiv_pos_as_xyz
  1  'x, y, z'
loop_
 _atom_site_type_symbol
 _atom_site_label
 _atom_site_symmetry_multiplicity
 _atom_site_fract_x
 _atom_site_fract_y
 _atom_site_fract_z
 _atom_site_occupancy
  Tb  Tb0  1  0.250000  0.581082  0.710138  1
  Tb  Tb1  1  0.250000  0.918918  0.210138  1
  Tb  Tb2  1  0.750000  0.418167  0.289803  1
  Tb  Tb3  1  0.750000  0.081833  0.789803  1
  Fe  Fe4  1  0.250000  0.459090  0.933148  1
  Fe  Fe5  1  0.250000  0.040910  0.433148  1
  Fe  Fe6  1  0.750000  0.540015  0.067948  1
  Fe  Fe7  1  0.750000  0.959985  0.567948  1
  P  P8  1  0.250000  0.431586  0.105524  1
  P  P9  1  0.250000  0.068414  0.605524  1
  P  P10  1  0.750000  0.567793  0.895610  1
  P  P11  1  0.750000  0.932207  0.395610  1
  P  P12  1  0.250000  0.269357  0.868758  1
  P  P13  1  0.250000  0.230643  0.368758  1
  P  P14  1  0.750000  0.730562  0.131352  1
  P  P15  1  0.750000  0.769438  0.631352  1
  P  P16  1  0.250000  0.600286  0.388492  1
  P  P17  1  0.250000  0.899714  0.888492  1
  P  P18  1  0.750000  0.400129  0.611602  1
  P  P19  1  0.750000  0.099871  0.111602  1
  Ir  Ir20  1  0.750000  0.592190  0.521918  1
  Ir  Ir21  1  0.750000  0.907810  0.021918  1
  Ir  Ir22  1  0.250000  0.232998  0.175401  1
  Ir  Ir23  1  0.250000  0.267002  0.675401  1
  Ir  Ir24  1  0.750000  0.765693  0.824301  1
  Ir  Ir25  1  0.750000  0.734307  0.324301  1
  Ir  Ir26  1  0.250000  0.880851  0.700609  1
  Ir  Ir27  1  0.250000  0.619149  0.200609  1
  Ir  Ir28  1  0.750000  0.118535  0.299506  1
  Ir  Ir29  1  0.750000  0.381465  0.799506  1
  Rh  Rh30  1  0.250000  0.717256  0.986878  1
  Rh  Rh31  1  0.250000  0.782744  0.486878  1
  Rh  Rh32  1  0.750000  0.281535  0.011260  1
  Rh  Rh33  1  0.750000  0.218465  0.511260  1
  Rh  Rh34  1  0.250000  0.409011  0.477753  1
  Rh  Rh35  1  0.250000  0.090989  0.977753  1
