# generated using pymatgen
data_La17Lu(MgIr6)2
_symmetry_space_group_name_H-M   'P 1'
_cell_length_a   11.36509800
_cell_length_b   11.36509800
_cell_length_c   6.44332400
_cell_angle_alpha   90.00000000
_cell_angle_beta   90.00000000
_cell_angle_gamma   90.00000000
_symmetry_Int_Tables_number   1
_chemical_formula_structural   La17Lu(MgIr6)2
_chemical_formula_sum   'La17 Lu1 Mg2 Ir12'
_cell_volume   832.25486038
_cell_formula_units_Z   1
loop_
 _symmetry_equiv_pos_site_id
 _symmetry_equiv_pos_as_xyz
  1  'x, y, z'
loop_
 _atom_site_type_symbol
 _atom_site_label
 _atom_site_symmetry_multiplicity
 _atom_site_fract_x
 _atom_site_fract_y
 _atom_site_fract_z
 _atom_site_occupancy
  La  La0  1  0.280407  0.086385  0.389399  1
  La  La1  1  0.285090  0.912940  0.885461  1
  La  La2  1  0.714910  0.087060  0.885461  1
  La  La3  1  0.719593  0.913615  0.389399  1
  La  La4  1  0.587322  0.783271  0.889269  1
  La  La5  1  0.587858  0.208859  0.383849  1
  La  La6  1  0.412142  0.791141  0.383849  1
  La  La7  1  0.412678  0.216729  0.889269  1
  La  La8  1  0.208859  0.412142  0.616151  1
  La  La9  1  0.216729  0.587322  0.110731  1
  La  La10  1  0.783271  0.412678  0.110731  1
  La  La11  1  0.791141  0.587858  0.616151  1
  La  La12  1  0.912940  0.714910  0.114539  1
  La  La13  1  0.913615  0.280407  0.610601  1
  La  La14  1  0.086385  0.719593  0.610601  1
  La  La15  1  0.087060  0.285090  0.114539  1
  La  La16  1  0.500000  0.500000  0.500000  1
  Lu  Lu17  1  0.000000  0.000000  0.000000  1
  Mg  Mg18  1  0.000000  0.000000  0.500000  1
  Mg  Mg19  1  0.500000  0.500000  0.000000  1
  Ir  Ir20  1  0.852369  0.148365  0.243053  1
  Ir  Ir21  1  0.851635  0.852369  0.756947  1
  Ir  Ir22  1  0.148365  0.147631  0.756947  1
  Ir  Ir23  1  0.147631  0.851635  0.243053  1
  Ir  Ir24  1  0.654709  0.346159  0.746521  1
  Ir  Ir25  1  0.653841  0.654709  0.253479  1
  Ir  Ir26  1  0.346159  0.345291  0.253479  1
  Ir  Ir27  1  0.345291  0.653841  0.746521  1
  Ir  Ir28  1  0.500000  0.000000  0.116081  1
  Ir  Ir29  1  0.500000  0.000000  0.617660  1
  Ir  Ir30  1  0.000000  0.500000  0.883919  1
  Ir  Ir31  1  0.000000  0.500000  0.382340  1
