# generated using pymatgen
data_DyTm3(CuP)6
_symmetry_space_group_name_H-M   'P 1'
_cell_length_a   3.81976200
_cell_length_b   10.61325500
_cell_length_c   12.89079500
_cell_angle_alpha   90.00000000
_cell_angle_beta   90.00000000
_cell_angle_gamma   90.00000000
_symmetry_Int_Tables_number   1
_chemical_formula_structural   DyTm3(CuP)6
_chemical_formula_sum   'Dy2 Tm6 Cu12 P12'
_cell_volume   522.59422338
_cell_formula_units_Z   2
loop_
 _symmetry_equiv_pos_site_id
 _symmetry_equiv_pos_as_xyz
  1  'x, y, z'
loop_
 _atom_site_type_symbol
 _atom_site_label
 _atom_site_symmetry_multiplicity
 _atom_site_fract_x
 _atom_site_fract_y
 _atom_site_fract_z
 _atom_site_occupancy
  Dy  Dy0  1  0.250000  0.931331  0.792006  1
  Dy  Dy1  1  0.750000  0.431331  0.707994  1
  Tm  Tm2  1  0.250000  0.569131  0.291659  1
  Tm  Tm3  1  0.750000  0.069131  0.208341  1
  Tm  Tm4  1  0.250000  0.840471  0.503248  1
  Tm  Tm5  1  0.750000  0.340471  0.996752  1
  Tm  Tm6  1  0.250000  0.659264  0.003858  1
  Tm  Tm7  1  0.750000  0.159264  0.496142  1
  Cu  Cu8  1  0.250000  0.405781  0.513129  1
  Cu  Cu9  1  0.750000  0.905781  0.986871  1
  Cu  Cu10  1  0.250000  0.094229  0.013580  1
  Cu  Cu11  1  0.750000  0.594229  0.486420  1
  Cu  Cu12  1  0.250000  0.272072  0.331515  1
  Cu  Cu13  1  0.750000  0.772072  0.168485  1
  Cu  Cu14  1  0.250000  0.228143  0.831637  1
  Cu  Cu15  1  0.750000  0.728143  0.668363  1
  Cu  Cu16  1  0.250000  0.859782  0.282209  1
  Cu  Cu17  1  0.750000  0.359782  0.217791  1
  Cu  Cu18  1  0.250000  0.640397  0.782397  1
  Cu  Cu19  1  0.750000  0.140397  0.717603  1
  P  P20  1  0.250000  0.242361  0.640950  1
  P  P21  1  0.750000  0.742361  0.859050  1
  P  P22  1  0.250000  0.255952  0.141623  1
  P  P23  1  0.750000  0.755952  0.358377  1
  P  P24  1  0.250000  0.606193  0.602437  1
  P  P25  1  0.750000  0.106193  0.897563  1
  P  P26  1  0.250000  0.894791  0.102741  1
  P  P27  1  0.750000  0.394791  0.397259  1
  P  P28  1  0.250000  0.056437  0.369908  1
  P  P29  1  0.750000  0.556437  0.130092  1
  P  P30  1  0.250000  0.443664  0.871864  1
  P  P31  1  0.750000  0.943664  0.628136  1
