# generated using pymatgen
data_Ho5Tm3Sc12Ga7Si9
_symmetry_space_group_name_H-M   'P 1'
_cell_length_a   7.14044900
_cell_length_b   7.39577027
_cell_length_c   14.21073609
_cell_angle_alpha   89.98310899
_cell_angle_beta   89.94312522
_cell_angle_gamma   90.04068593
_symmetry_Int_Tables_number   1
_chemical_formula_structural   Ho5Tm3Sc12Ga7Si9
_chemical_formula_sum   'Ho5 Tm3 Sc12 Ga7 Si9'
_cell_volume   750.45588249
_cell_formula_units_Z   1
loop_
 _symmetry_equiv_pos_site_id
 _symmetry_equiv_pos_as_xyz
  1  'x, y, z'
loop_
 _atom_site_type_symbol
 _atom_site_label
 _atom_site_symmetry_multiplicity
 _atom_site_fract_x
 _atom_site_fract_y
 _atom_site_fract_z
 _atom_site_occupancy
  Ho  Ho0  1  0.012344  0.174488  0.098560  1
  Ho  Ho1  1  0.989870  0.823052  0.901723  1
  Ho  Ho2  1  0.488474  0.676922  0.901921  1
  Ho  Ho3  1  0.989549  0.823383  0.599227  1
  Ho  Ho4  1  0.510326  0.322398  0.098742  1
  Tm  Tm5  1  0.010184  0.176379  0.400388  1
  Tm  Tm6  1  0.510494  0.323029  0.400342  1
  Tm  Tm7  1  0.489617  0.676616  0.599284  1
  Sc  Sc8  1  0.163980  0.502960  0.749870  1
  Sc  Sc9  1  0.836880  0.497841  0.249997  1
  Sc  Sc10  1  0.335997  0.002979  0.249154  1
  Sc  Sc11  1  0.663290  0.997460  0.749632  1
  Sc  Sc12  1  0.330450  0.173622  0.625799  1
  Sc  Sc13  1  0.669213  0.826788  0.373914  1
  Sc  Sc14  1  0.169506  0.673766  0.373797  1
  Sc  Sc15  1  0.668051  0.825343  0.126283  1
  Sc  Sc16  1  0.830061  0.326454  0.626009  1
  Sc  Sc17  1  0.329825  0.174106  0.874887  1
  Sc  Sc18  1  0.829270  0.326545  0.874293  1
  Sc  Sc19  1  0.171903  0.675640  0.125180  1
  Ga  Ga20  1  0.161930  0.463776  0.539505  1
  Ga  Ga21  1  0.838085  0.535657  0.460168  1
  Ga  Ga22  1  0.338097  0.963757  0.460351  1
  Ga  Ga23  1  0.838606  0.537414  0.040153  1
  Ga  Ga24  1  0.661593  0.036316  0.539296  1
  Ga  Ga25  1  0.160829  0.462997  0.960711  1
  Ga  Ga26  1  0.660321  0.037051  0.961032  1
  Si  Si27  1  0.031903  0.112496  0.750764  1
  Si  Si28  1  0.967741  0.886849  0.249686  1
  Si  Si29  1  0.467543  0.612027  0.249673  1
  Si  Si30  1  0.532072  0.387346  0.750087  1
  Si  Si31  1  0.284557  0.872959  0.750448  1
  Si  Si32  1  0.716000  0.127458  0.249475  1
  Si  Si33  1  0.215210  0.372198  0.249837  1
  Si  Si34  1  0.784043  0.627403  0.750297  1
  Si  Si35  1  0.342185  0.964527  0.039518  1
