# generated using pymatgen
data_Tm6Sc4In5Sb
_symmetry_space_group_name_H-M   'P 1'
_cell_length_a   8.76277642
_cell_length_b   8.79784502
_cell_length_c   6.25148300
_cell_angle_alpha   90.00000000
_cell_angle_beta   90.00000000
_cell_angle_gamma   120.13247467
_symmetry_Int_Tables_number   1
_chemical_formula_structural   Tm6Sc4In5Sb
_chemical_formula_sum   'Tm6 Sc4 In5 Sb1'
_cell_volume   416.82180926
_cell_formula_units_Z   1
loop_
 _symmetry_equiv_pos_site_id
 _symmetry_equiv_pos_as_xyz
  1  'x, y, z'
loop_
 _atom_site_type_symbol
 _atom_site_label
 _atom_site_symmetry_multiplicity
 _atom_site_fract_x
 _atom_site_fract_y
 _atom_site_fract_z
 _atom_site_occupancy
  Tm  Tm0  1  0.234289  0.999779  0.250000  1
  Tm  Tm1  1  0.762154  0.996931  0.750000  1
  Tm  Tm2  1  0.000000  0.238334  0.250000  1
  Tm  Tm3  1  0.765711  0.765490  0.250000  1
  Tm  Tm4  1  0.237846  0.234777  0.750000  1
  Tm  Tm5  1  0.000000  0.764973  0.750000  1
  Sc  Sc6  1  0.331628  0.666094  0.002839  1
  Sc  Sc7  1  0.668372  0.334465  0.497161  1
  Sc  Sc8  1  0.668372  0.334465  0.002839  1
  Sc  Sc9  1  0.331628  0.666094  0.497161  1
  In  In10  1  0.594846  0.001779  0.250000  1
  In  In11  1  0.406939  0.999506  0.750000  1
  In  In12  1  0.000000  0.599623  0.250000  1
  In  In13  1  0.405154  0.406933  0.250000  1
  In  In14  1  0.593061  0.592568  0.750000  1
  Sb  Sb15  1  0.000000  0.398192  0.750000  1
