# generated using pymatgen
data_Rb5Th(MoH9)3
_symmetry_space_group_name_H-M   'P 1'
_cell_length_a   9.83940046
_cell_length_b   9.50885353
_cell_length_c   5.59430200
_cell_angle_alpha   90.00000000
_cell_angle_beta   90.00000000
_cell_angle_gamma   118.89480950
_symmetry_Int_Tables_number   1
_chemical_formula_structural   Rb5Th(MoH9)3
_chemical_formula_sum   'Rb5 Th1 Mo3 H27'
_cell_volume   458.25052542
_cell_formula_units_Z   1
loop_
 _symmetry_equiv_pos_site_id
 _symmetry_equiv_pos_as_xyz
  1  'x, y, z'
loop_
 _atom_site_type_symbol
 _atom_site_label
 _atom_site_symmetry_multiplicity
 _atom_site_fract_x
 _atom_site_fract_y
 _atom_site_fract_z
 _atom_site_occupancy
  Rb  Rb0  1  0.728545  0.741568  0.500000  1
  Rb  Rb1  1  0.271455  0.013022  0.500000  1
  Rb  Rb2  1  0.000000  0.618355  0.000000  1
  Rb  Rb3  1  0.438961  0.398476  0.000000  1
  Rb  Rb4  1  0.561039  0.959516  0.000000  1
  Th  Th5  1  0.000000  0.281497  0.500000  1
  Mo  Mo6  1  0.702961  0.319474  0.500000  1
  Mo  Mo7  1  0.297039  0.616514  0.500000  1
  Mo  Mo8  1  0.000000  0.061954  0.000000  1
  H  H9  1  0.809621  0.303795  0.747475  1
  H  H10  1  0.722433  0.466398  0.707038  1
  H  H11  1  0.561348  0.202988  0.715115  1
  H  H12  1  0.190379  0.494175  0.252525  1
  H  H13  1  0.561348  0.202988  0.284885  1
  H  H14  1  0.809621  0.303795  0.252525  1
  H  H15  1  0.722433  0.466398  0.292962  1
  H  H16  1  0.277567  0.743967  0.707038  1
  H  H17  1  0.438652  0.641641  0.715115  1
  H  H18  1  0.170253  0.053719  0.000000  1
  H  H19  1  0.829747  0.883466  0.000000  1
  H  H20  1  0.000000  0.251098  0.000000  1
  H  H21  1  0.873908  0.054756  0.236310  1
  H  H22  1  0.126092  0.180848  0.763690  1
  H  H23  1  0.000000  0.924006  0.794156  1
  H  H24  1  0.000000  0.924006  0.205844  1
  H  H25  1  0.126092  0.180848  0.236310  1
  H  H26  1  0.873908  0.054756  0.763690  1
  H  H27  1  0.106008  0.581683  0.500000  1
  H  H28  1  0.452602  0.807363  0.500000  1
  H  H29  1  0.293670  0.425189  0.500000  1
  H  H30  1  0.547398  0.354761  0.500000  1
  H  H31  1  0.893992  0.475675  0.500000  1
  H  H32  1  0.706330  0.131519  0.500000  1
  H  H33  1  0.190379  0.494175  0.747475  1
  H  H34  1  0.277567  0.743967  0.292962  1
  H  H35  1  0.438652  0.641641  0.284885  1
