# generated using pymatgen
data_Sr6Mn(FeO6)2
_symmetry_space_group_name_H-M   'P 1'
_cell_length_a   8.72429300
_cell_length_b   8.72429340
_cell_length_c   6.83435205
_cell_angle_alpha   67.47971929
_cell_angle_beta   67.47971647
_cell_angle_gamma   36.79740139
_symmetry_Int_Tables_number   1
_chemical_formula_structural   Sr6Mn(FeO6)2
_chemical_formula_sum   'Sr6 Mn1 Fe2 O12'
_cell_volume   285.07350543
_cell_formula_units_Z   1
loop_
 _symmetry_equiv_pos_site_id
 _symmetry_equiv_pos_as_xyz
  1  'x, y, z'
loop_
 _atom_site_type_symbol
 _atom_site_label
 _atom_site_symmetry_multiplicity
 _atom_site_fract_x
 _atom_site_fract_y
 _atom_site_fract_z
 _atom_site_occupancy
  Sr  Sr0  1  0.882256  0.882256  0.712682  1
  Sr  Sr1  1  0.213073  0.213073  0.715039  1
  Sr  Sr2  1  0.547465  0.547465  0.715034  1
  Sr  Sr3  1  0.452535  0.452535  0.284966  1
  Sr  Sr4  1  0.786927  0.786927  0.284961  1
  Sr  Sr5  1  0.117744  0.117744  0.287318  1
  Mn  Mn6  1  0.000000  0.000000  0.000000  1
  Fe  Fe7  1  0.666004  0.666004  0.999926  1
  Fe  Fe8  1  0.333996  0.333996  0.000074  1
  O  O9  1  0.947142  0.947142  0.316108  1
  O  O10  1  0.280874  0.280874  0.314866  1
  O  O11  1  0.614409  0.614409  0.314452  1
  O  O12  1  0.385591  0.385591  0.685548  1
  O  O13  1  0.719126  0.719126  0.685134  1
  O  O14  1  0.052858  0.052858  0.683892  1
  O  O15  1  0.500000  0.000000  0.000000  1
  O  O16  1  0.834768  0.330610  0.999804  1
  O  O17  1  0.165232  0.669390  0.000196  1
  O  O18  1  0.000000  0.500000  0.000000  1
  O  O19  1  0.330610  0.834768  0.999804  1
  O  O20  1  0.669390  0.165232  0.000196  1
