# generated using pymatgen
data_Pr2Al2Ga2PtAu3
_symmetry_space_group_name_H-M   'P 1'
_cell_length_a   4.41899000
_cell_length_b   4.41899000
_cell_length_c   10.54406800
_cell_angle_alpha   90.00000000
_cell_angle_beta   90.00000000
_cell_angle_gamma   90.00000000
_symmetry_Int_Tables_number   1
_chemical_formula_structural   Pr2Al2Ga2PtAu3
_chemical_formula_sum   'Pr2 Al2 Ga2 Pt1 Au3'
_cell_volume   205.89899917
_cell_formula_units_Z   1
loop_
 _symmetry_equiv_pos_site_id
 _symmetry_equiv_pos_as_xyz
  1  'x, y, z'
loop_
 _atom_site_type_symbol
 _atom_site_label
 _atom_site_symmetry_multiplicity
 _atom_site_fract_x
 _atom_site_fract_y
 _atom_site_fract_z
 _atom_site_occupancy
  Pr  Pr0  1  0.000000  0.500000  0.247223  1
  Pr  Pr1  1  0.500000  0.000000  0.753173  1
  Al  Al2  1  0.000000  0.000000  0.506420  1
  Al  Al3  1  0.500000  0.500000  0.506420  1
  Ga  Ga4  1  0.000000  0.500000  0.856011  1
  Ga  Ga5  1  0.500000  0.000000  0.136832  1
  Pt  Pt6  1  0.000000  0.500000  0.621648  1
  Au  Au7  1  0.000000  0.000000  0.998497  1
  Au  Au8  1  0.500000  0.500000  0.998497  1
  Au  Au9  1  0.500000  0.000000  0.375279  1
