# generated using pymatgen
data_Pr8BeSi7Br6
_symmetry_space_group_name_H-M   'P 1'
_cell_length_a   11.94992687
_cell_length_b   11.94992682
_cell_length_c   11.91795200
_cell_angle_alpha   82.15542723
_cell_angle_beta   82.15542727
_cell_angle_gamma   19.42414622
_symmetry_Int_Tables_number   1
_chemical_formula_structural   Pr8BeSi7Br6
_chemical_formula_sum   'Pr8 Be1 Si7 Br6'
_cell_volume   560.52664479
_cell_formula_units_Z   1
loop_
 _symmetry_equiv_pos_site_id
 _symmetry_equiv_pos_as_xyz
  1  'x, y, z'
loop_
 _atom_site_type_symbol
 _atom_site_label
 _atom_site_symmetry_multiplicity
 _atom_site_fract_x
 _atom_site_fract_y
 _atom_site_fract_z
 _atom_site_occupancy
  Pr  Pr0  1  0.496327  0.496327  0.167927  1
  Pr  Pr1  1  0.920076  0.920076  0.440678  1
  Pr  Pr2  1  0.348912  0.348912  0.034706  1
  Pr  Pr3  1  0.078791  0.078791  0.561092  1
  Pr  Pr4  1  0.651125  0.651125  0.967887  1
  Pr  Pr5  1  0.643881  0.643881  0.297858  1
  Pr  Pr6  1  0.356202  0.356202  0.701415  1
  Pr  Pr7  1  0.503393  0.503393  0.831094  1
  Be  Be8  1  0.526766  0.526766  0.406635  1
  Si  Si9  1  0.043501  0.043501  0.326682  1
  Si  Si10  1  0.052152  0.052152  0.982520  1
  Si  Si11  1  0.478889  0.478889  0.575518  1
  Si  Si12  1  0.898497  0.898497  0.861047  1
  Si  Si13  1  0.947760  0.947760  0.017830  1
  Si  Si14  1  0.955307  0.955307  0.678246  1
  Si  Si15  1  0.099210  0.099210  0.142192  1
  Br  Br16  1  0.245465  0.245465  0.872242  1
  Br  Br17  1  0.755021  0.755021  0.129867  1
  Br  Br18  1  0.797025  0.797025  0.572686  1
  Br  Br19  1  0.368223  0.368223  0.287449  1
  Br  Br20  1  0.201321  0.201321  0.428738  1
  Br  Br21  1  0.632156  0.632156  0.715689  1
