# generated using pymatgen
data_YTh3(MgNi2)2
_symmetry_space_group_name_H-M   'P 1'
_cell_length_a   7.59844788
_cell_length_b   7.59844788
_cell_length_c   3.68354200
_cell_angle_alpha   90.00000000
_cell_angle_beta   90.00000000
_cell_angle_gamma   88.97347352
_symmetry_Int_Tables_number   1
_chemical_formula_structural   YTh3(MgNi2)2
_chemical_formula_sum   'Y1 Th3 Mg2 Ni4'
_cell_volume   212.64035921
_cell_formula_units_Z   1
loop_
 _symmetry_equiv_pos_site_id
 _symmetry_equiv_pos_as_xyz
  1  'x, y, z'
loop_
 _atom_site_type_symbol
 _atom_site_label
 _atom_site_symmetry_multiplicity
 _atom_site_fract_x
 _atom_site_fract_y
 _atom_site_fract_z
 _atom_site_occupancy
  Y  Y0  1  0.828094  0.328094  0.500000  1
  Th  Th1  1  0.168221  0.668221  0.500000  1
  Th  Th2  1  0.673288  0.829376  0.500000  1
  Th  Th3  1  0.329376  0.173288  0.500000  1
  Mg  Mg4  1  0.506661  0.497687  0.000000  1
  Mg  Mg5  1  0.997687  0.006661  0.000000  1
  Ni  Ni6  1  0.876833  0.631041  0.000000  1
  Ni  Ni7  1  0.371821  0.871821  0.000000  1
  Ni  Ni8  1  0.616979  0.116979  0.000000  1
  Ni  Ni9  1  0.131041  0.376833  0.000000  1
