# generated using pymatgen
data_Tm2GaSi4Rh3
_symmetry_space_group_name_H-M   'P 1'
_cell_length_a   8.16045443
_cell_length_b   8.16045458
_cell_length_c   5.62730138
_cell_angle_alpha   71.71884092
_cell_angle_beta   71.71883875
_cell_angle_gamma   94.62676947
_symmetry_Int_Tables_number   1
_chemical_formula_structural   Tm2GaSi4Rh3
_chemical_formula_sum   'Tm4 Ga2 Si8 Rh6'
_cell_volume   331.13624641
_cell_formula_units_Z   2
loop_
 _symmetry_equiv_pos_site_id
 _symmetry_equiv_pos_as_xyz
  1  'x, y, z'
loop_
 _atom_site_type_symbol
 _atom_site_label
 _atom_site_symmetry_multiplicity
 _atom_site_fract_x
 _atom_site_fract_y
 _atom_site_fract_z
 _atom_site_occupancy
  Tm  Tm0  1  0.867092  0.598652  0.756375  1
  Tm  Tm1  1  0.132908  0.401348  0.243625  1
  Tm  Tm2  1  0.401348  0.132908  0.743625  1
  Tm  Tm3  1  0.598652  0.867092  0.256375  1
  Ga  Ga4  1  0.777354  0.222646  0.750000  1
  Ga  Ga5  1  0.222646  0.777354  0.250000  1
  Si  Si6  1  0.514451  0.485549  0.750000  1
  Si  Si7  1  0.485549  0.514451  0.250000  1
  Si  Si8  1  0.211675  0.788325  0.750000  1
  Si  Si9  1  0.788325  0.211675  0.250000  1
  Si  Si10  1  0.264922  0.063239  0.338344  1
  Si  Si11  1  0.735078  0.936761  0.661656  1
  Si  Si12  1  0.936761  0.735078  0.161656  1
  Si  Si13  1  0.063239  0.264922  0.838344  1
  Rh  Rh14  1  0.535309  0.261939  0.137120  1
  Rh  Rh15  1  0.738061  0.464691  0.362880  1
  Rh  Rh16  1  0.464691  0.738061  0.862880  1
  Rh  Rh17  1  0.261939  0.535309  0.637120  1
  Rh  Rh18  1  0.992569  0.007431  0.250000  1
  Rh  Rh19  1  0.007431  0.992569  0.750000  1
