# generated using pymatgen
data_Tb5Bi3S
_symmetry_space_group_name_H-M   'P 1'
_cell_length_a   9.24652400
_cell_length_b   9.24652478
_cell_length_c   6.55777900
_cell_angle_alpha   90.00000000
_cell_angle_beta   90.00000000
_cell_angle_gamma   120.00000438
_symmetry_Int_Tables_number   1
_chemical_formula_structural   Tb5Bi3S
_chemical_formula_sum   'Tb10 Bi6 S2'
_cell_volume   485.56170549
_cell_formula_units_Z   2
loop_
 _symmetry_equiv_pos_site_id
 _symmetry_equiv_pos_as_xyz
  1  'x, y, z'
loop_
 _atom_site_type_symbol
 _atom_site_label
 _atom_site_symmetry_multiplicity
 _atom_site_fract_x
 _atom_site_fract_y
 _atom_site_fract_z
 _atom_site_occupancy
  Tb  Tb0  1  0.666667  0.333333  0.500000  1
  Tb  Tb1  1  0.333333  0.666667  0.500000  1
  Tb  Tb2  1  0.333333  0.666667  0.000000  1
  Tb  Tb3  1  0.666667  0.333333  0.000000  1
  Tb  Tb4  1  0.754315  0.754315  0.250000  1
  Tb  Tb5  1  0.245685  0.000000  0.250000  1
  Tb  Tb6  1  0.000000  0.245685  0.250000  1
  Tb  Tb7  1  0.245685  0.245685  0.750000  1
  Tb  Tb8  1  0.754315  0.000000  0.750000  1
  Tb  Tb9  1  0.000000  0.754315  0.750000  1
  Bi  Bi10  1  0.396305  0.396305  0.250000  1
  Bi  Bi11  1  0.603695  0.000000  0.250000  1
  Bi  Bi12  1  0.000000  0.603695  0.250000  1
  Bi  Bi13  1  0.603695  0.603695  0.750000  1
  Bi  Bi14  1  0.396305  0.000000  0.750000  1
  Bi  Bi15  1  0.000000  0.396305  0.750000  1
  S  S16  1  0.000000  0.000000  0.500000  1
  S  S17  1  0.000000  0.000000  0.000000  1
