# generated using pymatgen
data_CaTmGaSe4
_symmetry_space_group_name_H-M   'P 1'
_cell_length_a   6.61376100
_cell_length_b   8.32816800
_cell_length_c   14.61209400
_cell_angle_alpha   90.00000000
_cell_angle_beta   90.00000000
_cell_angle_gamma   90.00000000
_symmetry_Int_Tables_number   1
_chemical_formula_structural   CaTmGaSe4
_chemical_formula_sum   'Ca4 Tm4 Ga4 Se16'
_cell_volume   804.84162943
_cell_formula_units_Z   4
loop_
 _symmetry_equiv_pos_site_id
 _symmetry_equiv_pos_as_xyz
  1  'x, y, z'
loop_
 _atom_site_type_symbol
 _atom_site_label
 _atom_site_symmetry_multiplicity
 _atom_site_fract_x
 _atom_site_fract_y
 _atom_site_fract_z
 _atom_site_occupancy
  Ca  Ca0  1  0.492748  0.500000  0.235845  1
  Ca  Ca1  1  0.992749  0.000000  0.264155  1
  Ca  Ca2  1  0.007253  0.500000  0.735845  1
  Ca  Ca3  1  0.507252  0.000000  0.764155  1
  Tm  Tm4  1  0.000000  0.250000  0.000000  1
  Tm  Tm5  1  0.000000  0.750001  0.000000  1
  Tm  Tm6  1  0.500001  0.250000  0.500000  1
  Tm  Tm7  1  0.500001  0.750001  0.500000  1
  Ga  Ga8  1  0.400039  0.000000  0.083233  1
  Ga  Ga9  1  0.900042  0.500000  0.416767  1
  Ga  Ga10  1  0.099960  0.000000  0.583233  1
  Ga  Ga11  1  0.599960  0.500000  0.916768  1
  Se  Se12  1  0.755196  0.500000  0.070552  1
  Se  Se13  1  0.766713  0.000000  0.085318  1
  Se  Se14  1  0.246530  0.232001  0.158068  1
  Se  Se15  1  0.246530  0.768000  0.158068  1
  Se  Se16  1  0.746531  0.267998  0.341931  1
  Se  Se17  1  0.746531  0.732002  0.341931  1
  Se  Se18  1  0.266714  0.500000  0.414682  1
  Se  Se19  1  0.255195  0.000000  0.429448  1
  Se  Se20  1  0.744805  0.500000  0.570552  1
  Se  Se21  1  0.733288  0.000000  0.585318  1
  Se  Se22  1  0.253471  0.232001  0.658068  1
  Se  Se23  1  0.253471  0.768000  0.658068  1
  Se  Se24  1  0.753470  0.267998  0.841931  1
  Se  Se25  1  0.753470  0.732002  0.841931  1
  Se  Se26  1  0.233287  0.500000  0.914682  1
  Se  Se27  1  0.244806  0.000000  0.929448  1
