# generated using pymatgen
data_Ce4Hg3Au10
_symmetry_space_group_name_H-M   'P 1'
_cell_length_a   8.76703500
_cell_length_b   8.76703648
_cell_length_c   10.43461600
_cell_angle_alpha   90.00000000
_cell_angle_beta   90.00000000
_cell_angle_gamma   108.55766741
_symmetry_Int_Tables_number   1
_chemical_formula_structural   Ce4Hg3Au10
_chemical_formula_sum   'Ce8 Hg6 Au20'
_cell_volume   760.31246209
_cell_formula_units_Z   2
loop_
 _symmetry_equiv_pos_site_id
 _symmetry_equiv_pos_as_xyz
  1  'x, y, z'
loop_
 _atom_site_type_symbol
 _atom_site_label
 _atom_site_symmetry_multiplicity
 _atom_site_fract_x
 _atom_site_fract_y
 _atom_site_fract_z
 _atom_site_occupancy
  Ce  Ce0  1  0.701929  0.298071  0.000000  1
  Ce  Ce1  1  0.201929  0.798071  0.500000  1
  Ce  Ce2  1  0.803477  0.803477  0.293313  1
  Ce  Ce3  1  0.303477  0.303477  0.206687  1
  Ce  Ce4  1  0.798071  0.201929  0.500000  1
  Ce  Ce5  1  0.298071  0.701929  0.000000  1
  Ce  Ce6  1  0.696523  0.696523  0.793313  1
  Ce  Ce7  1  0.196523  0.196523  0.706687  1
  Hg  Hg8  1  0.532479  0.032479  0.250000  1
  Hg  Hg9  1  0.967521  0.467521  0.750000  1
  Hg  Hg10  1  0.000000  0.000000  0.000000  1
  Hg  Hg11  1  0.032479  0.532479  0.250000  1
  Hg  Hg12  1  0.467521  0.967521  0.750000  1
  Hg  Hg13  1  0.500000  0.500000  0.500000  1
  Au  Au14  1  0.148633  0.425426  0.488981  1
  Au  Au15  1  0.902277  0.902277  0.593299  1
  Au  Au16  1  0.574574  0.851367  0.511019  1
  Au  Au17  1  0.896547  0.169738  0.211577  1
  Au  Au18  1  0.396547  0.669738  0.288423  1
  Au  Au19  1  0.669738  0.396547  0.288423  1
  Au  Au20  1  0.402277  0.402277  0.906701  1
  Au  Au21  1  0.925426  0.648633  0.011019  1
  Au  Au22  1  0.330262  0.603453  0.711577  1
  Au  Au23  1  0.351367  0.074574  0.988981  1
  Au  Au24  1  0.597723  0.597723  0.093299  1
  Au  Au25  1  0.648633  0.925426  0.011019  1
  Au  Au26  1  0.097723  0.097723  0.406701  1
  Au  Au27  1  0.603453  0.330262  0.711577  1
  Au  Au28  1  0.103453  0.830262  0.788423  1
  Au  Au29  1  0.074574  0.351367  0.988981  1
  Au  Au30  1  0.851367  0.574574  0.511019  1
  Au  Au31  1  0.169738  0.896547  0.211577  1
  Au  Au32  1  0.425426  0.148633  0.488981  1
  Au  Au33  1  0.830262  0.103453  0.788423  1
