# generated using pymatgen
data_Ho2Tm6Sc12Ga7Si9
_symmetry_space_group_name_H-M   'P 1'
_cell_length_a   7.12682829
_cell_length_b   7.38367188
_cell_length_c   14.18793187
_cell_angle_alpha   90.03409402
_cell_angle_beta   89.94138124
_cell_angle_gamma   90.05423987
_symmetry_Int_Tables_number   1
_chemical_formula_structural   Ho2Tm6Sc12Ga7Si9
_chemical_formula_sum   'Ho2 Tm6 Sc12 Ga7 Si9'
_cell_volume   746.59878801
_cell_formula_units_Z   1
loop_
 _symmetry_equiv_pos_site_id
 _symmetry_equiv_pos_as_xyz
  1  'x, y, z'
loop_
 _atom_site_type_symbol
 _atom_site_label
 _atom_site_symmetry_multiplicity
 _atom_site_fract_x
 _atom_site_fract_y
 _atom_site_fract_z
 _atom_site_occupancy
  Ho  Ho0  1  0.012409  0.174553  0.098553  1
  Ho  Ho1  1  0.989738  0.822983  0.901775  1
  Tm  Tm2  1  0.488538  0.677034  0.901836  1
  Tm  Tm3  1  0.989571  0.823241  0.599392  1
  Tm  Tm4  1  0.510262  0.322263  0.098790  1
  Tm  Tm5  1  0.010179  0.176322  0.400425  1
  Tm  Tm6  1  0.510521  0.323069  0.400418  1
  Tm  Tm7  1  0.489606  0.676683  0.599226  1
  Sc  Sc8  1  0.164064  0.503243  0.749864  1
  Sc  Sc9  1  0.836704  0.497739  0.249932  1
  Sc  Sc10  1  0.336078  0.003115  0.249070  1
  Sc  Sc11  1  0.663310  0.997208  0.749625  1
  Sc  Sc12  1  0.330299  0.173526  0.625787  1
  Sc  Sc13  1  0.669254  0.826761  0.373936  1
  Sc  Sc14  1  0.169454  0.673804  0.373856  1
  Sc  Sc15  1  0.667956  0.825202  0.126201  1
  Sc  Sc16  1  0.830139  0.326452  0.626003  1
  Sc  Sc17  1  0.329944  0.174193  0.874932  1
  Sc  Sc18  1  0.829138  0.326658  0.874351  1
  Sc  Sc19  1  0.172040  0.675510  0.125116  1
  Ga  Ga20  1  0.161847  0.464039  0.539567  1
  Ga  Ga21  1  0.838129  0.535900  0.460268  1
  Ga  Ga22  1  0.337916  0.963713  0.460399  1
  Ga  Ga23  1  0.838083  0.537232  0.040180  1
  Ga  Ga24  1  0.661962  0.036112  0.539379  1
  Ga  Ga25  1  0.161379  0.463155  0.960669  1
  Ga  Ga26  1  0.660150  0.037005  0.961055  1
  Si  Si27  1  0.031815  0.112267  0.750658  1
  Si  Si28  1  0.967775  0.886816  0.249689  1
  Si  Si29  1  0.467574  0.611846  0.249569  1
  Si  Si30  1  0.531984  0.387578  0.750192  1
  Si  Si31  1  0.284581  0.872667  0.750463  1
  Si  Si32  1  0.715732  0.127680  0.249334  1
  Si  Si33  1  0.215490  0.372087  0.249685  1
  Si  Si34  1  0.784022  0.627700  0.750293  1
  Si  Si35  1  0.342357  0.964645  0.039510  1
