# generated using pymatgen
data_Tb3YAlPd
_symmetry_space_group_name_H-M   'P 1'
_cell_length_a   9.64744572
_cell_length_b   9.65098120
_cell_length_c   9.65098065
_cell_angle_alpha   59.97577112
_cell_angle_beta   60.01211751
_cell_angle_gamma   60.01211869
_symmetry_Int_Tables_number   1
_chemical_formula_structural   Tb3YAlPd
_chemical_formula_sum   'Tb12 Y4 Al4 Pd4'
_cell_volume   635.38969670
_cell_formula_units_Z   4
loop_
 _symmetry_equiv_pos_site_id
 _symmetry_equiv_pos_as_xyz
  1  'x, y, z'
loop_
 _atom_site_type_symbol
 _atom_site_label
 _atom_site_symmetry_multiplicity
 _atom_site_fract_x
 _atom_site_fract_y
 _atom_site_fract_z
 _atom_site_occupancy
  Tb  Tb0  1  0.355375  0.355633  0.355633  1
  Tb  Tb1  1  0.355633  0.355375  0.933359  1
  Tb  Tb2  1  0.355633  0.933359  0.355375  1
  Tb  Tb3  1  0.933359  0.355633  0.355633  1
  Tb  Tb4  1  0.805975  0.194025  0.194025  1
  Tb  Tb5  1  0.194025  0.805975  0.805975  1
  Tb  Tb6  1  0.193876  0.806124  0.193876  1
  Tb  Tb7  1  0.806124  0.193876  0.806124  1
  Tb  Tb8  1  0.193876  0.193876  0.806124  1
  Tb  Tb9  1  0.806124  0.806124  0.193876  1
  Tb  Tb10  1  0.934658  0.565342  0.565342  1
  Tb  Tb11  1  0.565342  0.934658  0.934658  1
  Y  Y12  1  0.565355  0.934645  0.565355  1
  Y  Y13  1  0.934645  0.565355  0.934645  1
  Y  Y14  1  0.565355  0.565355  0.934645  1
  Y  Y15  1  0.934645  0.934645  0.565355  1
  Al  Al16  1  0.577430  0.577483  0.577483  1
  Al  Al17  1  0.577483  0.577430  0.267605  1
  Al  Al18  1  0.577483  0.267605  0.577430  1
  Al  Al19  1  0.267605  0.577483  0.577483  1
  Pd  Pd20  1  0.144140  0.144858  0.144858  1
  Pd  Pd21  1  0.144858  0.144140  0.566143  1
  Pd  Pd22  1  0.144858  0.566143  0.144140  1
  Pd  Pd23  1  0.566143  0.144858  0.144858  1
