# generated using pymatgen
data_Tb2PaOs2
_symmetry_space_group_name_H-M   'P 1'
_cell_length_a   5.91368413
_cell_length_b   5.91368405
_cell_length_c   5.91368471
_cell_angle_alpha   137.12063895
_cell_angle_beta   122.06630012
_cell_angle_gamma   74.71096045
_symmetry_Int_Tables_number   1
_chemical_formula_structural   Tb2PaOs2
_chemical_formula_sum   'Tb2 Pa1 Os2'
_cell_volume   116.40455283
_cell_formula_units_Z   1
loop_
 _symmetry_equiv_pos_site_id
 _symmetry_equiv_pos_as_xyz
  1  'x, y, z'
loop_
 _atom_site_type_symbol
 _atom_site_label
 _atom_site_symmetry_multiplicity
 _atom_site_fract_x
 _atom_site_fract_y
 _atom_site_fract_z
 _atom_site_occupancy
  Tb  Tb0  1  0.301132  0.801132  0.500000  1
  Tb  Tb1  1  0.698868  0.198868  0.500000  1
  Pa  Pa2  1  0.000000  0.000000  0.000000  1
  Os  Os3  1  0.266653  0.500000  0.766653  1
  Os  Os4  1  0.733347  0.500000  0.233347  1
