# generated using pymatgen
data_YLuFeAuO7
_symmetry_space_group_name_H-M   'P 1'
_cell_length_a   7.23702756
_cell_length_b   7.29907643
_cell_length_c   7.23697742
_cell_angle_alpha   59.71393484
_cell_angle_beta   59.54887794
_cell_angle_gamma   59.71319310
_symmetry_Int_Tables_number   1
_chemical_formula_structural   YLuFeAuO7
_chemical_formula_sum   'Y2 Lu2 Fe2 Au2 O14'
_cell_volume   268.21727231
_cell_formula_units_Z   2
loop_
 _symmetry_equiv_pos_site_id
 _symmetry_equiv_pos_as_xyz
  1  'x, y, z'
loop_
 _atom_site_type_symbol
 _atom_site_label
 _atom_site_symmetry_multiplicity
 _atom_site_fract_x
 _atom_site_fract_y
 _atom_site_fract_z
 _atom_site_occupancy
  Y  Y0  1  0.999943  0.500029  0.500011  1
  Y  Y1  1  0.500029  0.500028  0.999924  1
  Lu  Lu2  1  0.500019  0.999998  0.499997  1
  Lu  Lu3  1  0.499989  0.499980  0.500089  1
  Fe  Fe4  1  0.000005  0.499995  0.999998  1
  Fe  Fe5  1  0.999999  0.000004  0.999999  1
  Au  Au6  1  0.500008  0.000024  0.999971  1
  Au  Au7  1  0.000019  0.000018  0.499943  1
  O  O8  1  0.616353  0.633649  0.616342  1
  O  O9  1  0.383661  0.366337  0.383651  1
  O  O10  1  0.343169  0.914444  0.901770  1
  O  O11  1  0.098248  0.659358  0.656820  1
  O  O12  1  0.913222  0.336784  0.913220  1
  O  O13  1  0.901762  0.914447  0.343191  1
  O  O14  1  0.343187  0.340610  0.901749  1
  O  O15  1  0.342611  0.907378  0.342654  1
  O  O16  1  0.901771  0.340598  0.343200  1
  O  O17  1  0.656816  0.659372  0.098258  1
  O  O18  1  0.098244  0.085574  0.656808  1
  O  O19  1  0.656799  0.085568  0.098234  1
  O  O20  1  0.657351  0.092608  0.657382  1
  O  O21  1  0.086794  0.663205  0.086789  1
