# generated using pymatgen
data_Ta2NbGa2NiC
_symmetry_space_group_name_H-M   'P 1'
_cell_length_a   8.22823914
_cell_length_b   8.22935822
_cell_length_c   8.22762116
_cell_angle_alpha   59.99065918
_cell_angle_beta   60.01150292
_cell_angle_gamma   59.99322117
_symmetry_Int_Tables_number   1
_chemical_formula_structural   Ta2NbGa2NiC
_chemical_formula_sum   'Ta8 Nb4 Ga8 Ni4 C4'
_cell_volume   393.92811136
_cell_formula_units_Z   4
loop_
 _symmetry_equiv_pos_site_id
 _symmetry_equiv_pos_as_xyz
  1  'x, y, z'
loop_
 _atom_site_type_symbol
 _atom_site_label
 _atom_site_symmetry_multiplicity
 _atom_site_fract_x
 _atom_site_fract_y
 _atom_site_fract_z
 _atom_site_occupancy
  Ta  Ta0  1  0.686750  0.686443  0.313714  1
  Ta  Ta1  1  0.313700  0.313118  0.686754  1
  Ta  Ta2  1  0.563905  0.563492  0.936594  1
  Ta  Ta3  1  0.937733  0.562390  0.562747  1
  Ta  Ta4  1  0.562740  0.937131  0.937748  1
  Ta  Ta5  1  0.936562  0.936009  0.563941  1
  Ta  Ta6  1  0.687180  0.312818  0.687203  1
  Ta  Ta7  1  0.936911  0.563088  0.936933  1
  Nb  Nb8  1  0.562971  0.937028  0.562983  1
  Nb  Nb9  1  0.313281  0.686793  0.687190  1
  Nb  Nb10  1  0.687161  0.312756  0.313303  1
  Nb  Nb11  1  0.312696  0.687294  0.312717  1
  Ga  Ga12  1  0.917546  0.915508  0.915578  1
  Ga  Ga13  1  0.998608  0.333069  0.333264  1
  Ga  Ga14  1  0.333144  0.998762  0.334952  1
  Ga  Ga15  1  0.333212  0.335086  0.998593  1
  Ga  Ga16  1  0.915651  0.251388  0.917476  1
  Ga  Ga17  1  0.915775  0.917350  0.251322  1
  Ga  Ga18  1  0.251290  0.915604  0.915754  1
  Ga  Ga19  1  0.334893  0.333134  0.333207  1
  Ni  Ni20  1  0.127175  0.126355  0.121863  1
  Ni  Ni21  1  0.625928  0.124371  0.120050  1
  Ni  Ni22  1  0.121910  0.624576  0.127160  1
  Ni  Ni23  1  0.120245  0.129486  0.625845  1
  C  C24  1  0.627433  0.622820  0.625452  1
  C  C25  1  0.123548  0.623891  0.626637  1
  C  C26  1  0.625433  0.124305  0.627454  1
  C  C27  1  0.626618  0.625934  0.123567  1
