# generated using pymatgen
data_InGa(SeBr7)2
_symmetry_space_group_name_H-M   'P 1'
_cell_length_a   6.91707791
_cell_length_b   7.21633994
_cell_length_c   15.40175553
_cell_angle_alpha   74.50012622
_cell_angle_beta   90.07927760
_cell_angle_gamma   90.78017995
_symmetry_Int_Tables_number   1
_chemical_formula_structural   InGa(SeBr7)2
_chemical_formula_sum   'In1 Ga1 Se2 Br14'
_cell_volume   740.76286931
_cell_formula_units_Z   1
loop_
 _symmetry_equiv_pos_site_id
 _symmetry_equiv_pos_as_xyz
  1  'x, y, z'
loop_
 _atom_site_type_symbol
 _atom_site_label
 _atom_site_symmetry_multiplicity
 _atom_site_fract_x
 _atom_site_fract_y
 _atom_site_fract_z
 _atom_site_occupancy
  In  In0  1  0.003035  0.698390  0.663830  1
  Ga  Ga1  1  0.002791  0.696799  0.163200  1
  Se  Se2  1  0.599585  0.999638  0.501411  1
  Se  Se3  1  0.399343  0.997366  0.005436  1
  Br  Br4  1  0.402467  0.899086  0.396095  1
  Br  Br5  1  0.400104  0.238663  0.533720  1
  Br  Br6  1  0.173678  0.198452  0.905866  1
  Br  Br7  1  0.820675  0.206760  0.399010  1
  Br  Br8  1  0.125455  0.005885  0.165085  1
  Br  Br9  1  0.597567  0.241394  0.037695  1
  Br  Br10  1  0.131872  0.643332  0.028298  1
  Br  Br11  1  0.859134  0.650789  0.517218  1
  Br  Br12  1  0.664570  0.672425  0.165765  1
  Br  Br13  1  0.367074  0.670324  0.665925  1
  Br  Br14  1  0.132542  0.468954  0.289706  1
  Br  Br15  1  0.863058  0.451648  0.801191  1
  Br  Br16  1  0.591249  0.903884  0.897294  1
  Br  Br17  1  0.865798  0.026807  0.663052  1
