# generated using pymatgen
data_Dy20Ir5Au7
_symmetry_space_group_name_H-M   'P 1'
_cell_length_a   11.31623101
_cell_length_b   11.31623101
_cell_length_c   6.30767235
_cell_angle_alpha   89.83074056
_cell_angle_beta   89.83074056
_cell_angle_gamma   90.31252917
_symmetry_Int_Tables_number   1
_chemical_formula_structural   Dy20Ir5Au7
_chemical_formula_sum   'Dy20 Ir5 Au7'
_cell_volume   807.72302624
_cell_formula_units_Z   1
loop_
 _symmetry_equiv_pos_site_id
 _symmetry_equiv_pos_as_xyz
  1  'x, y, z'
loop_
 _atom_site_type_symbol
 _atom_site_label
 _atom_site_symmetry_multiplicity
 _atom_site_fract_x
 _atom_site_fract_y
 _atom_site_fract_z
 _atom_site_occupancy
  Dy  Dy0  1  0.299430  0.079997  0.358557  1
  Dy  Dy1  1  0.299227  0.904375  0.861120  1
  Dy  Dy2  1  0.700039  0.083178  0.856252  1
  Dy  Dy3  1  0.698185  0.914891  0.355579  1
  Dy  Dy4  1  0.576148  0.792913  0.858282  1
  Dy  Dy5  1  0.583492  0.202734  0.358911  1
  Dy  Dy6  1  0.410191  0.791449  0.371684  1
  Dy  Dy7  1  0.414763  0.198633  0.857488  1
  Dy  Dy8  1  0.207087  0.423852  0.641718  1
  Dy  Dy9  1  0.208551  0.589809  0.128316  1
  Dy  Dy10  1  0.797266  0.416508  0.141089  1
  Dy  Dy11  1  0.801367  0.585237  0.642512  1
  Dy  Dy12  1  0.920003  0.700570  0.141443  1
  Dy  Dy13  1  0.916822  0.299961  0.643748  1
  Dy  Dy14  1  0.095625  0.700773  0.638880  1
  Dy  Dy15  1  0.085109  0.301815  0.144421  1
  Dy  Dy16  1  0.999267  0.999852  0.501509  1
  Dy  Dy17  1  0.000148  0.000733  0.998491  1
  Dy  Dy18  1  0.493704  0.503762  0.999291  1
  Dy  Dy19  1  0.496238  0.506296  0.500709  1
  Ir  Ir20  1  0.347915  0.652085  0.750000  1
  Ir  Ir21  1  0.499559  0.999289  0.108705  1
  Ir  Ir22  1  0.499167  0.999946  0.607246  1
  Ir  Ir23  1  0.000054  0.500833  0.892754  1
  Ir  Ir24  1  0.000711  0.500441  0.391295  1
  Au  Au25  1  0.844450  0.155550  0.250000  1
  Au  Au26  1  0.840903  0.844410  0.751673  1
  Au  Au27  1  0.155590  0.159097  0.748327  1
  Au  Au28  1  0.154075  0.845925  0.250000  1
  Au  Au29  1  0.653021  0.346979  0.750000  1
  Au  Au30  1  0.657950  0.656056  0.248079  1
  Au  Au31  1  0.343944  0.342050  0.251921  1
