# generated using pymatgen
data_Ho3ErBi3Sb
_symmetry_space_group_name_H-M   'P 1'
_cell_length_a   7.68493491
_cell_length_b   7.68493476
_cell_length_c   7.68493402
_cell_angle_alpha   131.83581543
_cell_angle_beta   131.83580743
_cell_angle_gamma   70.48846748
_symmetry_Int_Tables_number   1
_chemical_formula_structural   Ho3ErBi3Sb
_chemical_formula_sum   'Ho3 Er1 Bi3 Sb1'
_cell_volume   246.86490369
_cell_formula_units_Z   1
loop_
 _symmetry_equiv_pos_site_id
 _symmetry_equiv_pos_as_xyz
  1  'x, y, z'
loop_
 _atom_site_type_symbol
 _atom_site_label
 _atom_site_symmetry_multiplicity
 _atom_site_fract_x
 _atom_site_fract_y
 _atom_site_fract_z
 _atom_site_occupancy
  Ho  Ho0  1  0.754030  0.754030  0.000000  1
  Ho  Ho1  1  0.500001  0.000001  0.500000  1
  Ho  Ho2  1  0.000001  0.500001  0.500000  1
  Er  Er3  1  0.245948  0.245948  0.000000  1
  Bi  Bi4  1  0.499877  0.499877  0.000000  1
  Bi  Bi5  1  0.749996  0.249996  0.500000  1
  Bi  Bi6  1  0.249996  0.749996  0.500000  1
  Sb  Sb7  1  0.000150  0.000150  0.000000  1
