# generated using pymatgen
data_Dy6TcRu
_symmetry_space_group_name_H-M   'P 1'
_cell_length_a   6.28787500
_cell_length_b   7.38970600
_cell_length_c   9.15432400
_cell_angle_alpha   90.00000000
_cell_angle_beta   90.00000000
_cell_angle_gamma   90.00000000
_symmetry_Int_Tables_number   1
_chemical_formula_structural   Dy6TcRu
_chemical_formula_sum   'Dy12 Tc2 Ru2'
_cell_volume   425.36067770
_cell_formula_units_Z   2
loop_
 _symmetry_equiv_pos_site_id
 _symmetry_equiv_pos_as_xyz
  1  'x, y, z'
loop_
 _atom_site_type_symbol
 _atom_site_label
 _atom_site_symmetry_multiplicity
 _atom_site_fract_x
 _atom_site_fract_y
 _atom_site_fract_z
 _atom_site_occupancy
  Dy  Dy0  1  0.334411  0.676394  0.064087  1
  Dy  Dy1  1  0.165589  0.176394  0.435913  1
  Dy  Dy2  1  0.664351  0.324228  0.562689  1
  Dy  Dy3  1  0.835649  0.824228  0.937311  1
  Dy  Dy4  1  0.664351  0.324228  0.937311  1
  Dy  Dy5  1  0.835649  0.824228  0.562689  1
  Dy  Dy6  1  0.334411  0.676394  0.435913  1
  Dy  Dy7  1  0.165589  0.176394  0.064087  1
  Dy  Dy8  1  0.875692  0.540790  0.250000  1
  Dy  Dy9  1  0.624308  0.040790  0.250000  1
  Dy  Dy10  1  0.132598  0.455826  0.750000  1
  Dy  Dy11  1  0.367402  0.955826  0.750000  1
  Tc  Tc12  1  0.037767  0.886731  0.250000  1
  Tc  Tc13  1  0.462233  0.386731  0.250000  1
  Ru  Ru14  1  0.960784  0.115407  0.750000  1
  Ru  Ru15  1  0.539216  0.615407  0.750000  1
