# generated using pymatgen
data_RbNa3In9Ga3Te20
_symmetry_space_group_name_H-M   'P 1'
_cell_length_a   11.04651308
_cell_length_b   11.04651287
_cell_length_c   11.04651330
_cell_angle_alpha   90.14210753
_cell_angle_beta   90.14210047
_cell_angle_gamma   90.14210271
_symmetry_Int_Tables_number   1
_chemical_formula_structural   RbNa3In9Ga3Te20
_chemical_formula_sum   'Rb1 Na3 In9 Ga3 Te20'
_cell_volume   1347.94328530
_cell_formula_units_Z   1
loop_
 _symmetry_equiv_pos_site_id
 _symmetry_equiv_pos_as_xyz
  1  'x, y, z'
loop_
 _atom_site_type_symbol
 _atom_site_label
 _atom_site_symmetry_multiplicity
 _atom_site_fract_x
 _atom_site_fract_y
 _atom_site_fract_z
 _atom_site_occupancy
  Rb  Rb0  1  0.499925  0.499925  0.499925  1
  Na  Na1  1  0.254675  0.998392  0.744565  1
  Na  Na2  1  0.744565  0.254675  0.998392  1
  Na  Na3  1  0.998392  0.744565  0.254675  1
  In  In4  1  0.841659  0.881169  0.572245  1
  In  In5  1  0.572245  0.841659  0.881169  1
  In  In6  1  0.881169  0.572245  0.841659  1
  In  In7  1  0.157907  0.426495  0.120191  1
  In  In8  1  0.120191  0.157907  0.426495  1
  In  In9  1  0.426495  0.120191  0.157907  1
  In  In10  1  0.746398  0.164405  0.342680  1
  In  In11  1  0.342680  0.746398  0.164405  1
  In  In12  1  0.164405  0.342680  0.746398  1
  Ga  Ga13  1  0.251299  0.658460  0.836120  1
  Ga  Ga14  1  0.836120  0.251299  0.658460  1
  Ga  Ga15  1  0.658460  0.836120  0.251299  1
  Te  Te16  1  0.170999  0.821579  0.991701  1
  Te  Te17  1  0.821579  0.991701  0.170999  1
  Te  Te18  1  0.168306  0.168306  0.168306  1
  Te  Te19  1  0.829141  0.829141  0.829141  1
  Te  Te20  1  0.991701  0.170999  0.821579  1
  Te  Te21  1  0.915351  0.498556  0.083923  1
  Te  Te22  1  0.083923  0.915351  0.498556  1
  Te  Te23  1  0.498556  0.083923  0.915351  1
  Te  Te24  1  0.755132  0.695854  0.418082  1
  Te  Te25  1  0.418082  0.755132  0.695854  1
  Te  Te26  1  0.695854  0.418082  0.755132  1
  Te  Te27  1  0.233335  0.574344  0.314895  1
  Te  Te28  1  0.314895  0.233335  0.574344  1
  Te  Te29  1  0.574344  0.314895  0.233335  1
  Te  Te30  1  0.675828  0.080061  0.579429  1
  Te  Te31  1  0.579429  0.675828  0.080061  1
  Te  Te32  1  0.080061  0.579429  0.675828  1
  Te  Te33  1  0.328472  0.442161  0.926269  1
  Te  Te34  1  0.926269  0.328472  0.442161  1
  Te  Te35  1  0.442161  0.926269  0.328472  1
