# generated using pymatgen
data_Nd4Sn2Sb4Rh7
_symmetry_space_group_name_H-M   'P 1'
_cell_length_a   7.74787553
_cell_length_b   7.74787826
_cell_length_c   7.74553878
_cell_angle_alpha   109.57717132
_cell_angle_beta   109.57715705
_cell_angle_gamma   109.27181991
_symmetry_Int_Tables_number   1
_chemical_formula_structural   Nd4Sn2Sb4Rh7
_chemical_formula_sum   'Nd4 Sn2 Sb4 Rh7'
_cell_volume   357.86987561
_cell_formula_units_Z   1
loop_
 _symmetry_equiv_pos_site_id
 _symmetry_equiv_pos_as_xyz
  1  'x, y, z'
loop_
 _atom_site_type_symbol
 _atom_site_label
 _atom_site_symmetry_multiplicity
 _atom_site_fract_x
 _atom_site_fract_y
 _atom_site_fract_z
 _atom_site_occupancy
  Nd  Nd0  1  0.495243  0.999831  0.000000  1
  Nd  Nd1  1  0.000169  0.504757  0.000000  1
  Nd  Nd2  1  0.999552  0.000448  0.500000  1
  Nd  Nd3  1  0.499552  0.500448  0.500000  1
  Sn  Sn4  1  0.997564  0.317797  0.315361  1
  Sn  Sn5  1  0.682203  0.002436  0.684639  1
  Sb  Sb6  1  0.677851  0.681581  0.000000  1
  Sb  Sb7  1  0.997931  0.673539  0.671469  1
  Sb  Sb8  1  0.326461  0.002069  0.328531  1
  Sb  Sb9  1  0.318419  0.322149  0.000000  1
  Rh  Rh10  1  0.005030  0.994970  0.000000  1
  Rh  Rh11  1  0.500842  0.750606  0.251449  1
  Rh  Rh12  1  0.747083  0.498992  0.246075  1
  Rh  Rh13  1  0.250847  0.749153  0.500000  1
  Rh  Rh14  1  0.249394  0.499158  0.748551  1
  Rh  Rh15  1  0.501008  0.252917  0.753925  1
  Rh  Rh16  1  0.750847  0.249153  0.500000  1
