# generated using pymatgen
data_K20Hf4(AsP3)3
_symmetry_space_group_name_H-M   'P 1'
_cell_length_a   8.34972512
_cell_length_b   9.03549197
_cell_length_c   17.55020201
_cell_angle_alpha   60.01110126
_cell_angle_beta   90.10220432
_cell_angle_gamma   90.14696735
_symmetry_Int_Tables_number   1
_chemical_formula_structural   K20Hf4(AsP3)3
_chemical_formula_sum   'K20 Hf4 As3 P9'
_cell_volume   1146.78975150
_cell_formula_units_Z   1
loop_
 _symmetry_equiv_pos_site_id
 _symmetry_equiv_pos_as_xyz
  1  'x, y, z'
loop_
 _atom_site_type_symbol
 _atom_site_label
 _atom_site_symmetry_multiplicity
 _atom_site_fract_x
 _atom_site_fract_y
 _atom_site_fract_z
 _atom_site_occupancy
  K  K0  1  0.164980  0.844405  0.743346  1
  K  K1  1  0.665643  0.155417  0.757167  1
  K  K2  1  0.835619  0.157194  0.256184  1
  K  K3  1  0.333813  0.842808  0.240297  1
  K  K4  1  0.171751  0.169600  0.415773  1
  K  K5  1  0.666121  0.830085  0.083905  1
  K  K6  1  0.828243  0.830519  0.584183  1
  K  K7  1  0.327162  0.162905  0.918752  1
  K  K8  1  0.010697  0.083300  0.092095  1
  K  K9  1  0.509429  0.918877  0.406530  1
  K  K10  1  0.991631  0.915407  0.909976  1
  K  K11  1  0.489785  0.082069  0.592233  1
  K  K12  1  0.518192  0.265967  0.078466  1
  K  K13  1  0.017081  0.736558  0.421373  1
  K  K14  1  0.482552  0.737101  0.922650  1
  K  K15  1  0.982706  0.263825  0.578384  1
  K  K16  1  0.979518  0.551408  0.256270  1
  K  K17  1  0.478154  0.452683  0.241133  1
  K  K18  1  0.021282  0.449862  0.742875  1
  K  K19  1  0.519719  0.548300  0.758843  1
  Hf  Hf20  1  0.370809  0.491424  0.580657  1
  Hf  Hf21  1  0.871228  0.508870  0.919895  1
  Hf  Hf22  1  0.629027  0.509283  0.418720  1
  Hf  Hf23  1  0.131914  0.494662  0.080716  1
  As  As24  1  0.752002  0.238459  0.421295  1
  As  As25  1  0.747775  0.236319  0.922897  1
  As  As26  1  0.248173  0.762165  0.578274  1
  P  P27  1  0.322908  0.489407  0.436431  1
  P  P28  1  0.824612  0.514625  0.063025  1
  P  P29  1  0.676777  0.511775  0.562703  1
  P  P30  1  0.177524  0.488599  0.937143  1
  P  P31  1  0.214841  0.218700  0.214592  1
  P  P32  1  0.712796  0.782491  0.283994  1
  P  P33  1  0.786645  0.781643  0.785678  1
  P  P34  1  0.287182  0.218171  0.715476  1
  P  P35  1  0.251709  0.755121  0.078067  1
