# generated using pymatgen
data_Tm6Al24IrRu6Au
_symmetry_space_group_name_H-M   'P 1'
_cell_length_a   8.80974430
_cell_length_b   8.80623481
_cell_length_c   9.50165170
_cell_angle_alpha   89.67328979
_cell_angle_beta   90.22166968
_cell_angle_gamma   119.88686495
_symmetry_Int_Tables_number   1
_chemical_formula_structural   Tm6Al24IrRu6Au
_chemical_formula_sum   'Tm6 Al24 Ir1 Ru6 Au1'
_cell_volume   639.10161509
_cell_formula_units_Z   1
loop_
 _symmetry_equiv_pos_site_id
 _symmetry_equiv_pos_as_xyz
  1  'x, y, z'
loop_
 _atom_site_type_symbol
 _atom_site_label
 _atom_site_symmetry_multiplicity
 _atom_site_fract_x
 _atom_site_fract_y
 _atom_site_fract_z
 _atom_site_occupancy
  Tm  Tm0  1  0.805511  0.195522  0.746141  1
  Tm  Tm1  1  0.194489  0.804478  0.253859  1
  Tm  Tm2  1  0.387841  0.192357  0.750143  1
  Tm  Tm3  1  0.612159  0.807643  0.249857  1
  Tm  Tm4  1  0.807860  0.611387  0.749609  1
  Tm  Tm5  1  0.192140  0.388613  0.250391  1
  Al  Al6  1  0.672149  0.328309  0.974396  1
  Al  Al7  1  0.327851  0.671691  0.025604  1
  Al  Al8  1  0.332790  0.664825  0.478086  1
  Al  Al9  1  0.667210  0.335175  0.521914  1
  Al  Al10  1  0.837911  0.163687  0.421781  1
  Al  Al11  1  0.162089  0.836313  0.578219  1
  Al  Al12  1  0.324585  0.163313  0.423122  1
  Al  Al13  1  0.162802  0.837368  0.921243  1
  Al  Al14  1  0.675415  0.836687  0.576878  1
  Al  Al15  1  0.837198  0.162632  0.078757  1
  Al  Al16  1  0.837364  0.675300  0.422825  1
  Al  Al17  1  0.678260  0.848941  0.918971  1
  Al  Al18  1  0.162636  0.324700  0.577175  1
  Al  Al19  1  0.321740  0.151059  0.081029  1
  Al  Al20  1  0.151367  0.322030  0.919221  1
  Al  Al21  1  0.848633  0.677970  0.080779  1
  Al  Al22  1  0.436531  0.563538  0.743289  1
  Al  Al23  1  0.563469  0.436462  0.256711  1
  Al  Al24  1  0.121304  0.560755  0.750679  1
  Al  Al25  1  0.878696  0.439245  0.249321  1
  Al  Al26  1  0.438891  0.877875  0.751911  1
  Al  Al27  1  0.561109  0.122125  0.248089  1
  Al  Al28  1  0.000750  0.999731  0.749719  1
  Al  Al29  1  0.999250  0.000269  0.250281  1
  Ir  Ir30  1  0.500000  0.000000  0.500000  1
  Ru  Ru31  1  0.000000  0.500000  0.000000  1
  Ru  Ru32  1  0.500000  0.500000  0.500000  1
  Ru  Ru33  1  0.500000  0.000000  0.000000  1
  Ru  Ru34  1  0.000000  0.500000  0.500000  1
  Ru  Ru35  1  0.000000  0.000000  0.000000  1
  Ru  Ru36  1  0.000000  0.000000  0.500000  1
  Au  Au37  1  0.500000  0.500000  0.000000  1
