# generated using pymatgen
data_YbEr3Tm4(B6Ru)4
_symmetry_space_group_name_H-M   'P 1'
_cell_length_a   3.62586500
_cell_length_b   9.08386403
_cell_length_c   11.46630400
_cell_angle_alpha   89.92225096
_cell_angle_beta   90.00000000
_cell_angle_gamma   90.00000000
_symmetry_Int_Tables_number   1
_chemical_formula_structural   YbEr3Tm4(B6Ru)4
_chemical_formula_sum   'Yb1 Er3 Tm4 B24 Ru4'
_cell_volume   377.66375547
_cell_formula_units_Z   1
loop_
 _symmetry_equiv_pos_site_id
 _symmetry_equiv_pos_as_xyz
  1  'x, y, z'
loop_
 _atom_site_type_symbol
 _atom_site_label
 _atom_site_symmetry_multiplicity
 _atom_site_fract_x
 _atom_site_fract_y
 _atom_site_fract_z
 _atom_site_occupancy
  Yb  Yb0  1  0.000000  0.323174  0.413754  1
  Er  Er1  1  0.000000  0.676273  0.584916  1
  Er  Er2  1  0.000000  0.822246  0.086289  1
  Er  Er3  1  0.000000  0.178304  0.914628  1
  Tm  Tm4  1  0.000000  0.944029  0.371414  1
  Tm  Tm5  1  0.000000  0.057813  0.627838  1
  Tm  Tm6  1  0.000000  0.443035  0.129349  1
  Tm  Tm7  1  0.000000  0.556146  0.872247  1
  B  B8  1  0.500000  0.554122  0.432745  1
  B  B9  1  0.500000  0.445915  0.567315  1
  B  B10  1  0.500000  0.053290  0.066358  1
  B  B11  1  0.500000  0.945950  0.932829  1
  B  B12  1  0.500000  0.748937  0.419422  1
  B  B13  1  0.500000  0.251432  0.580977  1
  B  B14  1  0.500000  0.248302  0.080356  1
  B  B15  1  0.500000  0.751088  0.919737  1
  B  B16  1  0.500000  0.792017  0.265770  1
  B  B17  1  0.500000  0.209023  0.734544  1
  B  B18  1  0.500000  0.290445  0.233799  1
  B  B19  1  0.500000  0.708667  0.765933  1
  B  B20  1  0.500000  0.631613  0.185269  1
  B  B21  1  0.500000  0.368875  0.815698  1
  B  B22  1  0.500000  0.130789  0.314458  1
  B  B23  1  0.500000  0.868844  0.684645  1
  B  B24  1  0.500000  0.982668  0.212039  1
  B  B25  1  0.500000  0.017263  0.787125  1
  B  B26  1  0.500000  0.483308  0.287443  1
  B  B27  1  0.500000  0.517163  0.712907  1
  B  B28  1  0.500000  0.606494  0.029543  1
  B  B29  1  0.500000  0.393703  0.971037  1
  B  B30  1  0.500000  0.103092  0.471487  1
  B  B31  1  0.500000  0.895488  0.528802  1
  Ru  Ru32  1  0.000000  0.639777  0.320052  1
  Ru  Ru33  1  0.000000  0.361825  0.680653  1
  Ru  Ru34  1  0.000000  0.136873  0.177794  1
  Ru  Ru35  1  0.000000  0.862021  0.820827  1
