# generated using pymatgen
data_Dy12Ni5Sn
_symmetry_space_group_name_H-M   'P 1'
_cell_length_a   8.31709681
_cell_length_b   8.31709642
_cell_length_c   8.31709613
_cell_angle_alpha   107.02632761
_cell_angle_beta   109.73967011
_cell_angle_gamma   111.68120246
_symmetry_Int_Tables_number   1
_chemical_formula_structural   Dy12Ni5Sn
_chemical_formula_sum   'Dy12 Ni5 Sn1'
_cell_volume   442.15286112
_cell_formula_units_Z   1
loop_
 _symmetry_equiv_pos_site_id
 _symmetry_equiv_pos_as_xyz
  1  'x, y, z'
loop_
 _atom_site_type_symbol
 _atom_site_label
 _atom_site_symmetry_multiplicity
 _atom_site_fract_x
 _atom_site_fract_y
 _atom_site_fract_z
 _atom_site_occupancy
  Dy  Dy0  1  0.477105  0.295274  0.181831  1
  Dy  Dy1  1  0.113443  0.295274  0.818169  1
  Dy  Dy2  1  0.886557  0.704726  0.181831  1
  Dy  Dy3  1  0.522895  0.704726  0.818169  1
  Dy  Dy4  1  0.305913  0.627088  0.321176  1
  Dy  Dy5  1  0.305913  0.984738  0.678824  1
  Dy  Dy6  1  0.694087  0.372912  0.678824  1
  Dy  Dy7  1  0.694087  0.015262  0.321176  1
  Dy  Dy8  1  0.190872  0.210409  0.401281  1
  Dy  Dy9  1  0.809128  0.789591  0.598719  1
  Dy  Dy10  1  0.190872  0.789591  0.980462  1
  Dy  Dy11  1  0.809128  0.210409  0.019538  1
  Ni  Ni12  1  0.500000  0.625074  0.125074  1
  Ni  Ni13  1  0.500000  0.374926  0.874926  1
  Ni  Ni14  1  0.366297  0.000000  0.366297  1
  Ni  Ni15  1  0.633703  0.000000  0.633703  1
  Ni  Ni16  1  0.000000  0.000000  0.000000  1
  Sn  Sn17  1  0.000000  0.500000  0.500000  1
