# generated using pymatgen
data_Pr8Cu(Si4Rh)3
_symmetry_space_group_name_H-M   'P 1'
_cell_length_a   8.24606100
_cell_length_b   8.24606235
_cell_length_c   8.56243400
_cell_angle_alpha   90.00000000
_cell_angle_beta   90.00000000
_cell_angle_gamma   120.00000662
_symmetry_Int_Tables_number   1
_chemical_formula_structural   Pr8Cu(Si4Rh)3
_chemical_formula_sum   'Pr8 Cu1 Si12 Rh3'
_cell_volume   504.22107859
_cell_formula_units_Z   1
loop_
 _symmetry_equiv_pos_site_id
 _symmetry_equiv_pos_as_xyz
  1  'x, y, z'
loop_
 _atom_site_type_symbol
 _atom_site_label
 _atom_site_symmetry_multiplicity
 _atom_site_fract_x
 _atom_site_fract_y
 _atom_site_fract_z
 _atom_site_occupancy
  Pr  Pr0  1  0.498127  0.501873  0.746982  1
  Pr  Pr1  1  0.498925  0.501075  0.253060  1
  Pr  Pr2  1  0.003747  0.501873  0.746982  1
  Pr  Pr3  1  0.002149  0.501075  0.253060  1
  Pr  Pr4  1  0.498127  0.996253  0.746982  1
  Pr  Pr5  1  0.498925  0.997851  0.253060  1
  Pr  Pr6  1  0.000000  0.000000  0.750641  1
  Pr  Pr7  1  0.000000  0.000000  0.249610  1
  Cu  Cu8  1  0.666667  0.333333  0.997736  1
  Si  Si9  1  0.833299  0.166701  0.000288  1
  Si  Si10  1  0.167408  0.832592  0.999727  1
  Si  Si11  1  0.333400  0.166701  0.000288  1
  Si  Si12  1  0.166446  0.833554  0.500422  1
  Si  Si13  1  0.665184  0.832592  0.999727  1
  Si  Si14  1  0.833195  0.166805  0.499651  1
  Si  Si15  1  0.833299  0.666600  0.000288  1
  Si  Si16  1  0.667109  0.833554  0.500422  1
  Si  Si17  1  0.167408  0.334816  0.999727  1
  Si  Si18  1  0.333608  0.166805  0.499651  1
  Si  Si19  1  0.166446  0.332891  0.500422  1
  Si  Si20  1  0.833195  0.666392  0.499651  1
  Rh  Rh21  1  0.333333  0.666667  0.001514  1
  Rh  Rh22  1  0.333333  0.666667  0.497793  1
  Rh  Rh23  1  0.666667  0.333333  0.502315  1
