# generated using pymatgen
data_Tb3Th(Al3Rh)6
_symmetry_space_group_name_H-M   'P 1'
_cell_length_a   7.58558718
_cell_length_b   7.60373423
_cell_length_c   9.48232000
_cell_angle_alpha   90.00000000
_cell_angle_beta   90.00000000
_cell_angle_gamma   119.32767900
_symmetry_Int_Tables_number   1
_chemical_formula_structural   Tb3Th(Al3Rh)6
_chemical_formula_sum   'Tb3 Th1 Al18 Rh6'
_cell_volume   476.83038489
_cell_formula_units_Z   1
loop_
 _symmetry_equiv_pos_site_id
 _symmetry_equiv_pos_as_xyz
  1  'x, y, z'
loop_
 _atom_site_type_symbol
 _atom_site_label
 _atom_site_symmetry_multiplicity
 _atom_site_fract_x
 _atom_site_fract_y
 _atom_site_fract_z
 _atom_site_occupancy
  Tb  Tb0  1  0.003904  0.327894  0.750000  1
  Tb  Tb1  1  0.672316  0.994057  0.250000  1
  Tb  Tb2  1  0.327875  0.004831  0.750000  1
  Th  Th3  1  0.994513  0.671925  0.250000  1
  Al  Al4  1  0.131990  0.133259  0.250000  1
  Al  Al5  1  0.871446  0.873741  0.750000  1
  Al  Al6  1  0.001870  0.331563  0.072445  1
  Al  Al7  1  0.998829  0.663958  0.918181  1
  Al  Al8  1  0.998829  0.663958  0.581819  1
  Al  Al9  1  0.339926  0.005367  0.427391  1
  Al  Al10  1  0.001870  0.331563  0.427555  1
  Al  Al11  1  0.664234  0.000266  0.576474  1
  Al  Al12  1  0.664234  0.000266  0.923526  1
  Al  Al13  1  0.339926  0.005367  0.072609  1
  Al  Al14  1  0.332250  0.332472  0.553997  1
  Al  Al15  1  0.663396  0.666313  0.457707  1
  Al  Al16  1  0.663396  0.666313  0.042293  1
  Al  Al17  1  0.332250  0.332472  0.946003  1
  Al  Al18  1  0.344088  0.548750  0.250000  1
  Al  Al19  1  0.657816  0.448178  0.750000  1
  Al  Al20  1  0.545622  0.336889  0.250000  1
  Al  Al21  1  0.448735  0.660796  0.750000  1
  Rh  Rh22  1  0.673305  0.329819  0.000247  1
  Rh  Rh23  1  0.326575  0.671495  0.000614  1
  Rh  Rh24  1  0.326575  0.671495  0.499386  1
  Rh  Rh25  1  0.673305  0.329819  0.499753  1
  Rh  Rh26  1  0.000465  0.998587  0.000769  1
  Rh  Rh27  1  0.000465  0.998587  0.499231  1
