# generated using pymatgen
data_LaTiP7Ru12
_symmetry_space_group_name_H-M   'P 1'
_cell_length_a   9.44718400
_cell_length_b   9.44718321
_cell_length_c   3.92068800
_cell_angle_alpha   90.00000000
_cell_angle_beta   90.00000000
_cell_angle_gamma   120.00000184
_symmetry_Int_Tables_number   1
_chemical_formula_structural   LaTiP7Ru12
_chemical_formula_sum   'La1 Ti1 P7 Ru12'
_cell_volume   303.03836822
_cell_formula_units_Z   1
loop_
 _symmetry_equiv_pos_site_id
 _symmetry_equiv_pos_as_xyz
  1  'x, y, z'
loop_
 _atom_site_type_symbol
 _atom_site_label
 _atom_site_symmetry_multiplicity
 _atom_site_fract_x
 _atom_site_fract_y
 _atom_site_fract_z
 _atom_site_occupancy
  La  La0  1  0.333333  0.666667  0.000000  1
  Ti  Ti1  1  0.666667  0.333333  0.500000  1
  P  P2  1  0.606115  0.718738  0.500000  1
  P  P3  1  0.000000  0.000000  0.000000  1
  P  P4  1  0.281262  0.887378  0.500000  1
  P  P5  1  0.112622  0.393885  0.500000  1
  P  P6  1  0.885616  0.569365  0.000000  1
  P  P7  1  0.430635  0.316251  0.000000  1
  P  P8  1  0.683749  0.114384  0.000000  1
  Ru  Ru9  1  0.561736  0.961972  0.500000  1
  Ru  Ru10  1  0.400236  0.438264  0.500000  1
  Ru  Ru11  1  0.913411  0.118946  0.500000  1
  Ru  Ru12  1  0.205535  0.086589  0.500000  1
  Ru  Ru13  1  0.881054  0.794465  0.500000  1
  Ru  Ru14  1  0.727078  0.889850  0.000000  1
  Ru  Ru15  1  0.110150  0.837226  0.000000  1
  Ru  Ru16  1  0.162774  0.272922  0.000000  1
  Ru  Ru17  1  0.427171  0.078140  0.000000  1
  Ru  Ru18  1  0.921860  0.349033  0.000000  1
  Ru  Ru19  1  0.650967  0.572829  0.000000  1
  Ru  Ru20  1  0.038028  0.599764  0.500000  1
