# generated using pymatgen
data_Ce4In2Co2CuRh
_symmetry_space_group_name_H-M   'P 1'
_cell_length_a   7.59855857
_cell_length_b   7.59855847
_cell_length_c   3.64512400
_cell_angle_alpha   90.00000000
_cell_angle_beta   90.00000000
_cell_angle_gamma   91.20600373
_symmetry_Int_Tables_number   1
_chemical_formula_structural   Ce4In2Co2CuRh
_chemical_formula_sum   'Ce4 In2 Co2 Cu1 Rh1'
_cell_volume   210.41588255
_cell_formula_units_Z   1
loop_
 _symmetry_equiv_pos_site_id
 _symmetry_equiv_pos_as_xyz
  1  'x, y, z'
loop_
 _atom_site_type_symbol
 _atom_site_label
 _atom_site_symmetry_multiplicity
 _atom_site_fract_x
 _atom_site_fract_y
 _atom_site_fract_z
 _atom_site_occupancy
  Ce  Ce0  1  0.675250  0.187172  0.500000  1
  Ce  Ce1  1  0.312828  0.824750  0.500000  1
  Ce  Ce2  1  0.166160  0.333840  0.500000  1
  Ce  Ce3  1  0.845744  0.654256  0.500000  1
  In  In4  1  0.994189  0.999842  0.000000  1
  In  In5  1  0.500158  0.505811  0.000000  1
  Co  Co6  1  0.133808  0.634590  0.000000  1
  Co  Co7  1  0.865410  0.366192  0.000000  1
  Cu  Cu8  1  0.629960  0.870040  0.000000  1
  Rh  Rh9  1  0.376495  0.123505  0.000000  1
