# generated using pymatgen
data_K2Pt(CO3)2
_symmetry_space_group_name_H-M   'P 1'
_cell_length_a   6.13012126
_cell_length_b   6.78643836
_cell_length_c   9.59261483
_cell_angle_alpha   98.29738244
_cell_angle_beta   71.36592353
_cell_angle_gamma   116.84927296
_symmetry_Int_Tables_number   1
_chemical_formula_structural   K2Pt(CO3)2
_chemical_formula_sum   'K4 Pt2 C4 O12'
_cell_volume   337.38387299
_cell_formula_units_Z   2
loop_
 _symmetry_equiv_pos_site_id
 _symmetry_equiv_pos_as_xyz
  1  'x, y, z'
loop_
 _atom_site_type_symbol
 _atom_site_label
 _atom_site_symmetry_multiplicity
 _atom_site_fract_x
 _atom_site_fract_y
 _atom_site_fract_z
 _atom_site_occupancy
  K  K0  1  0.659093  0.308391  0.088450  1
  K  K1  1  0.997545  0.808390  0.411550  1
  K  K2  1  0.600703  0.191610  0.588450  1
  K  K3  1  0.439153  0.691611  0.911551  1
  Pt  Pt4  1  0.008124  0.000000  0.000000  1
  Pt  Pt5  1  0.258125  0.500001  0.500000  1
  C  C6  1  0.094507  0.340174  0.237435  1
  C  C7  1  0.581944  0.840175  0.262566  1
  C  C8  1  0.004333  0.159825  0.737435  1
  C  C9  1  0.991767  0.659825  0.762565  1
  O  O10  1  0.153120  0.308483  0.091568  1
  O  O11  1  0.452336  0.857968  0.190969  1
  O  O12  1  0.818871  0.861852  0.205347  1
  O  O13  1  0.274217  0.361851  0.294653  1
  O  O14  1  0.893302  0.357967  0.309031  1
  O  O15  1  0.494687  0.808484  0.408432  1
  O  O16  1  0.094635  0.191517  0.591568  1
  O  O17  1  0.844367  0.642033  0.690969  1
  O  O18  1  0.207018  0.638149  0.705347  1
  O  O19  1  0.162366  0.138148  0.794653  1
  O  O20  1  0.785336  0.142032  0.809032  1
  O  O21  1  0.936203  0.691516  0.908432  1
