# generated using pymatgen
data_Li8Be4Si3Ge
_symmetry_space_group_name_H-M   'P 1'
_cell_length_a   3.95393200
_cell_length_b   3.95393238
_cell_length_c   16.39342600
_cell_angle_alpha   90.00000000
_cell_angle_beta   90.00000000
_cell_angle_gamma   119.99999679
_symmetry_Int_Tables_number   1
_chemical_formula_structural   Li8Be4Si3Ge
_chemical_formula_sum   'Li8 Be4 Si3 Ge1'
_cell_volume   221.95186802
_cell_formula_units_Z   1
loop_
 _symmetry_equiv_pos_site_id
 _symmetry_equiv_pos_as_xyz
  1  'x, y, z'
loop_
 _atom_site_type_symbol
 _atom_site_label
 _atom_site_symmetry_multiplicity
 _atom_site_fract_x
 _atom_site_fract_y
 _atom_site_fract_z
 _atom_site_occupancy
  Li  Li0  1  0.666667  0.333333  0.791562  1
  Li  Li1  1  0.333333  0.666667  0.207503  1
  Li  Li2  1  0.666667  0.333333  0.457067  1
  Li  Li3  1  0.666667  0.333333  0.293937  1
  Li  Li4  1  0.333333  0.666667  0.044663  1
  Li  Li5  1  0.666667  0.333333  0.957613  1
  Li  Li6  1  0.333333  0.666667  0.705209  1
  Li  Li7  1  0.333333  0.666667  0.542590  1
  Be  Be8  1  0.000000  0.000000  0.873709  1
  Be  Be9  1  0.000000  0.000000  0.376278  1
  Be  Be10  1  0.000000  0.000000  0.623687  1
  Be  Be11  1  0.000000  0.000000  0.126152  1
  Si  Si12  1  0.666667  0.333333  0.624328  1
  Si  Si13  1  0.333333  0.666667  0.375581  1
  Si  Si14  1  0.666667  0.333333  0.125598  1
  Ge  Ge15  1  0.333333  0.666667  0.874523  1
