# generated using pymatgen
data_TbYTm2(Al3Rh)6
_symmetry_space_group_name_H-M   'P 1'
_cell_length_a   7.54159042
_cell_length_b   7.54414446
_cell_length_c   9.44557400
_cell_angle_alpha   90.00000000
_cell_angle_beta   90.00000000
_cell_angle_gamma   119.27067660
_symmetry_Int_Tables_number   1
_chemical_formula_structural   TbYTm2(Al3Rh)6
_chemical_formula_sum   'Tb1 Y1 Tm2 Al18 Rh6'
_cell_volume   468.78848305
_cell_formula_units_Z   1
loop_
 _symmetry_equiv_pos_site_id
 _symmetry_equiv_pos_as_xyz
  1  'x, y, z'
loop_
 _atom_site_type_symbol
 _atom_site_label
 _atom_site_symmetry_multiplicity
 _atom_site_fract_x
 _atom_site_fract_y
 _atom_site_fract_z
 _atom_site_occupancy
  Tb  Tb0  1  0.672441  0.994165  0.250000  1
  Y  Y1  1  0.994093  0.672175  0.250000  1
  Tm  Tm2  1  0.005541  0.327135  0.750000  1
  Tm  Tm3  1  0.327313  0.005837  0.750000  1
  Al  Al4  1  0.129127  0.129459  0.250000  1
  Al  Al5  1  0.871517  0.871979  0.750000  1
  Al  Al6  1  0.001098  0.335804  0.074315  1
  Al  Al7  1  0.999727  0.663876  0.923109  1
  Al  Al8  1  0.999727  0.663876  0.576891  1
  Al  Al9  1  0.335952  0.001069  0.425616  1
  Al  Al10  1  0.001098  0.335804  0.425685  1
  Al  Al11  1  0.663828  0.999783  0.576280  1
  Al  Al12  1  0.663828  0.999783  0.923720  1
  Al  Al13  1  0.335952  0.001069  0.074384  1
  Al  Al14  1  0.332371  0.332384  0.550736  1
  Al  Al15  1  0.667172  0.667211  0.452699  1
  Al  Al16  1  0.667172  0.667211  0.047301  1
  Al  Al17  1  0.332371  0.332384  0.949264  1
  Al  Al18  1  0.340618  0.550674  0.250000  1
  Al  Al19  1  0.659473  0.448508  0.750000  1
  Al  Al20  1  0.550379  0.339320  0.250000  1
  Al  Al21  1  0.448451  0.660038  0.750000  1
  Rh  Rh22  1  0.672149  0.327717  0.999265  1
  Rh  Rh23  1  0.327486  0.671980  0.999438  1
  Rh  Rh24  1  0.327486  0.671980  0.500562  1
  Rh  Rh25  1  0.672149  0.327717  0.500735  1
  Rh  Rh26  1  0.000738  0.000531  0.998928  1
  Rh  Rh27  1  0.000738  0.000531  0.501072  1
