# generated using pymatgen
data_Cd3Ir3RhPbO14
_symmetry_space_group_name_H-M   'P 1'
_cell_length_a   7.28469761
_cell_length_b   7.25021197
_cell_length_c   7.24791467
_cell_angle_alpha   59.98951307
_cell_angle_beta   60.18000240
_cell_angle_gamma   60.15646851
_symmetry_Int_Tables_number   1
_chemical_formula_structural   Cd3Ir3RhPbO14
_chemical_formula_sum   'Cd3 Ir3 Rh1 Pb1 O14'
_cell_volume   271.34720616
_cell_formula_units_Z   1
loop_
 _symmetry_equiv_pos_site_id
 _symmetry_equiv_pos_as_xyz
  1  'x, y, z'
loop_
 _atom_site_type_symbol
 _atom_site_label
 _atom_site_symmetry_multiplicity
 _atom_site_fract_x
 _atom_site_fract_y
 _atom_site_fract_z
 _atom_site_occupancy
  Cd  Cd0  1  0.125000  0.625000  0.125000  1
  Cd  Cd1  1  0.125000  0.125000  0.625000  1
  Cd  Cd2  1  0.125000  0.125000  0.125000  1
  Ir  Ir3  1  0.125000  0.625000  0.625000  1
  Ir  Ir4  1  0.625000  0.125000  0.625000  1
  Ir  Ir5  1  0.625000  0.625000  0.625000  1
  Rh  Rh6  1  0.625000  0.625000  0.125000  1
  Pb  Pb7  1  0.625000  0.125000  0.125000  1
  O  O8  1  0.696701  0.710958  0.298809  1
  O  O9  1  0.305775  0.301898  0.690796  1
  O  O10  1  0.693738  0.299344  0.707573  1
  O  O11  1  0.296778  0.700342  0.302538  1
  O  O12  1  0.305775  0.701531  0.690796  1
  O  O13  1  0.696701  0.293533  0.298809  1
  O  O14  1  0.553299  0.539042  0.951191  1
  O  O15  1  0.944225  0.948102  0.559204  1
  O  O16  1  0.556262  0.950656  0.542427  1
  O  O17  1  0.953222  0.549658  0.947462  1
  O  O18  1  0.944225  0.548469  0.559204  1
  O  O19  1  0.553299  0.956467  0.951191  1
  O  O20  1  0.238906  0.253543  0.254008  1
  O  O21  1  0.011094  0.996457  0.995992  1
