# generated using pymatgen
data_LiCe2(NdIr)6
_symmetry_space_group_name_H-M   'P 1'
_cell_length_a   7.65432966
_cell_length_b   7.65433059
_cell_length_c   7.65433100
_cell_angle_alpha   68.36347733
_cell_angle_beta   68.36347457
_cell_angle_gamma   68.36346808
_symmetry_Int_Tables_number   1
_chemical_formula_structural   LiCe2(NdIr)6
_chemical_formula_sum   'Li1 Ce2 Nd6 Ir6'
_cell_volume   373.16402789
_cell_formula_units_Z   1
loop_
 _symmetry_equiv_pos_site_id
 _symmetry_equiv_pos_as_xyz
  1  'x, y, z'
loop_
 _atom_site_type_symbol
 _atom_site_label
 _atom_site_symmetry_multiplicity
 _atom_site_fract_x
 _atom_site_fract_y
 _atom_site_fract_z
 _atom_site_occupancy
  Li  Li0  1  0.000000  0.000000  0.000000  1
  Ce  Ce1  1  0.812557  0.812557  0.812557  1
  Ce  Ce2  1  0.187443  0.187443  0.187443  1
  Nd  Nd3  1  0.142740  0.382332  0.676232  1
  Nd  Nd4  1  0.676232  0.142740  0.382332  1
  Nd  Nd5  1  0.382332  0.676232  0.142740  1
  Nd  Nd6  1  0.857260  0.617668  0.323768  1
  Nd  Nd7  1  0.323768  0.857260  0.617668  1
  Nd  Nd8  1  0.617668  0.323768  0.857260  1
  Ir  Ir9  1  0.954984  0.179593  0.561443  1
  Ir  Ir10  1  0.561443  0.954984  0.179593  1
  Ir  Ir11  1  0.179593  0.561443  0.954984  1
  Ir  Ir12  1  0.045016  0.820407  0.438557  1
  Ir  Ir13  1  0.438557  0.045016  0.820407  1
  Ir  Ir14  1  0.820407  0.438557  0.045016  1
