# generated using pymatgen
data_Ho4Al24NiPt8
_symmetry_space_group_name_H-M   'P 1'
_cell_length_a   7.50664602
_cell_length_b   7.50245762
_cell_length_c   13.12643543
_cell_angle_alpha   84.35863835
_cell_angle_beta   78.98193362
_cell_angle_gamma   60.09467133
_symmetry_Int_Tables_number   1
_chemical_formula_structural   Ho4Al24NiPt8
_chemical_formula_sum   'Ho4 Al24 Ni1 Pt8'
_cell_volume   629.01014252
_cell_formula_units_Z   1
loop_
 _symmetry_equiv_pos_site_id
 _symmetry_equiv_pos_as_xyz
  1  'x, y, z'
loop_
 _atom_site_type_symbol
 _atom_site_label
 _atom_site_symmetry_multiplicity
 _atom_site_fract_x
 _atom_site_fract_y
 _atom_site_fract_z
 _atom_site_occupancy
  Ho  Ho0  1  0.396143  0.165071  0.808257  1
  Ho  Ho1  1  0.603857  0.834929  0.191743  1
  Ho  Ho2  1  0.730936  0.497832  0.808362  1
  Ho  Ho3  1  0.269064  0.502168  0.191638  1
  Al  Al4  1  0.689647  0.826786  0.946381  1
  Al  Al5  1  0.310353  0.173214  0.053619  1
  Al  Al6  1  0.146408  0.832882  0.561424  1
  Al  Al7  1  0.853592  0.167118  0.438576  1
  Al  Al8  1  0.479351  0.167291  0.558687  1
  Al  Al9  1  0.520649  0.832709  0.441313  1
  Al  Al10  1  0.216254  0.166696  0.329076  1
  Al  Al11  1  0.783746  0.833304  0.670924  1
  Al  Al12  1  0.436039  0.506148  0.670947  1
  Al  Al13  1  0.563961  0.493852  0.329053  1
  Al  Al14  1  0.109134  0.159553  0.670396  1
  Al  Al15  1  0.890866  0.840447  0.329604  1
  Al  Al16  1  0.346282  0.498295  0.946458  1
  Al  Al17  1  0.653718  0.501705  0.053542  1
  Al  Al18  1  0.015016  0.174942  0.954669  1
  Al  Al19  1  0.984984  0.825058  0.045331  1
  Al  Al20  1  0.186684  0.498883  0.441182  1
  Al  Al21  1  0.813316  0.501117  0.558818  1
  Al  Al22  1  0.736290  0.165727  0.182541  1
  Al  Al23  1  0.263710  0.834273  0.817459  1
  Al  Al24  1  0.059781  0.623039  0.820088  1
  Al  Al25  1  0.940219  0.376961  0.179912  1
  Al  Al26  1  0.856762  0.038414  0.817126  1
  Al  Al27  1  0.143238  0.961586  0.182874  1
  Ni  Ni28  1  0.000000  0.500000  0.000000  1
  Pt  Pt29  1  0.119457  0.492190  0.639482  1
  Pt  Pt30  1  0.880543  0.507810  0.360518  1
  Pt  Pt31  1  0.657008  0.171598  0.999997  1
  Pt  Pt32  1  0.342992  0.828402  0.000003  1
  Pt  Pt33  1  0.537733  0.166823  0.360521  1
  Pt  Pt34  1  0.462267  0.833177  0.639479  1
  Pt  Pt35  1  0.778118  0.175265  0.638116  1
  Pt  Pt36  1  0.221882  0.824735  0.361884  1
