# generated using pymatgen
data_Pa6Al11Pt
_symmetry_space_group_name_H-M   'P 1'
_cell_length_a   9.71435000
_cell_length_b   9.71434960
_cell_length_c   8.60441700
_cell_angle_alpha   90.00000000
_cell_angle_beta   90.00000000
_cell_angle_gamma   119.99999454
_symmetry_Int_Tables_number   1
_chemical_formula_structural   Pa6Al11Pt
_chemical_formula_sum   'Pa12 Al22 Pt2'
_cell_volume   703.20116385
_cell_formula_units_Z   2
loop_
 _symmetry_equiv_pos_site_id
 _symmetry_equiv_pos_as_xyz
  1  'x, y, z'
loop_
 _atom_site_type_symbol
 _atom_site_label
 _atom_site_symmetry_multiplicity
 _atom_site_fract_x
 _atom_site_fract_y
 _atom_site_fract_z
 _atom_site_occupancy
  Pa  Pa0  1  0.335515  0.000000  0.088742  1
  Pa  Pa1  1  0.664485  0.000000  0.911258  1
  Pa  Pa2  1  0.000000  0.335515  0.088742  1
  Pa  Pa3  1  0.664485  0.000000  0.588742  1
  Pa  Pa4  1  0.000000  0.335515  0.411258  1
  Pa  Pa5  1  0.000000  0.664485  0.911258  1
  Pa  Pa6  1  0.335515  0.000000  0.411258  1
  Pa  Pa7  1  0.000000  0.664485  0.588742  1
  Pa  Pa8  1  0.664485  0.664485  0.088742  1
  Pa  Pa9  1  0.335515  0.335515  0.911258  1
  Pa  Pa10  1  0.335515  0.335515  0.588742  1
  Pa  Pa11  1  0.664485  0.664485  0.411258  1
  Al  Al12  1  0.158501  0.489875  0.750000  1
  Al  Al13  1  0.841499  0.510125  0.250000  1
  Al  Al14  1  0.510125  0.668626  0.750000  1
  Al  Al15  1  0.489875  0.158501  0.750000  1
  Al  Al16  1  0.489875  0.331374  0.250000  1
  Al  Al17  1  0.510125  0.841499  0.250000  1
  Al  Al18  1  0.331374  0.841499  0.750000  1
  Al  Al19  1  0.668626  0.510125  0.750000  1
  Al  Al20  1  0.668626  0.158501  0.250000  1
  Al  Al21  1  0.331374  0.489875  0.250000  1
  Al  Al22  1  0.841499  0.331374  0.750000  1
  Al  Al23  1  0.158501  0.668626  0.250000  1
  Al  Al24  1  0.333333  0.666667  0.500000  1
  Al  Al25  1  0.666667  0.333333  0.500000  1
  Al  Al26  1  0.666667  0.333333  0.000000  1
  Al  Al27  1  0.333333  0.666667  0.000000  1
  Al  Al28  1  0.164558  0.000000  0.750000  1
  Al  Al29  1  0.835442  0.000000  0.250000  1
  Al  Al30  1  0.000000  0.164558  0.750000  1
  Al  Al31  1  0.000000  0.835442  0.250000  1
  Al  Al32  1  0.835442  0.835442  0.750000  1
  Al  Al33  1  0.164558  0.164558  0.250000  1
  Pt  Pt34  1  0.000000  0.000000  0.500000  1
  Pt  Pt35  1  0.000000  0.000000  0.000000  1
