# generated using pymatgen
data_Ce4Al6ZnPd
_symmetry_space_group_name_H-M   'P 1'
_cell_length_a   5.72085900
_cell_length_b   5.72086079
_cell_length_c   8.63805300
_cell_angle_alpha   90.00000000
_cell_angle_beta   90.00000000
_cell_angle_gamma   119.99999545
_symmetry_Int_Tables_number   1
_chemical_formula_structural   Ce4Al6ZnPd
_chemical_formula_sum   'Ce4 Al6 Zn1 Pd1'
_cell_volume   244.83254083
_cell_formula_units_Z   1
loop_
 _symmetry_equiv_pos_site_id
 _symmetry_equiv_pos_as_xyz
  1  'x, y, z'
loop_
 _atom_site_type_symbol
 _atom_site_label
 _atom_site_symmetry_multiplicity
 _atom_site_fract_x
 _atom_site_fract_y
 _atom_site_fract_z
 _atom_site_occupancy
  Ce  Ce0  1  0.333333  0.666667  0.911922  1
  Ce  Ce1  1  0.666667  0.333333  0.088078  1
  Ce  Ce2  1  0.666667  0.333333  0.410589  1
  Ce  Ce3  1  0.333333  0.666667  0.589411  1
  Al  Al4  1  0.831354  0.168646  0.743737  1
  Al  Al5  1  0.831354  0.662707  0.743737  1
  Al  Al6  1  0.337293  0.168646  0.743737  1
  Al  Al7  1  0.168646  0.831354  0.256263  1
  Al  Al8  1  0.168646  0.337293  0.256263  1
  Al  Al9  1  0.662707  0.831354  0.256263  1
  Zn  Zn10  1  0.000000  0.000000  0.000000  1
  Pd  Pd11  1  0.000000  0.000000  0.500000  1
