# generated using pymatgen
data_YbY(B4Ru)2
_symmetry_space_group_name_H-M   'P 1'
_cell_length_a   3.54456400
_cell_length_b   5.95748514
_cell_length_c   11.52319604
_cell_angle_alpha   89.99153305
_cell_angle_beta   90.00000000
_cell_angle_gamma   90.00000000
_symmetry_Int_Tables_number   1
_chemical_formula_structural   YbY(B4Ru)2
_chemical_formula_sum   'Yb2 Y2 B16 Ru4'
_cell_volume   243.33172543
_cell_formula_units_Z   2
loop_
 _symmetry_equiv_pos_site_id
 _symmetry_equiv_pos_as_xyz
  1  'x, y, z'
loop_
 _atom_site_type_symbol
 _atom_site_label
 _atom_site_symmetry_multiplicity
 _atom_site_fract_x
 _atom_site_fract_y
 _atom_site_fract_z
 _atom_site_occupancy
  Yb  Yb0  1  0.500000  0.128336  0.351117  1
  Yb  Yb1  1  0.500000  0.871664  0.648883  1
  Y  Y2  1  0.500000  0.629414  0.151038  1
  Y  Y3  1  0.500000  0.370586  0.848962  1
  B  B4  1  0.000000  0.975289  0.192750  1
  B  B5  1  0.000000  0.024711  0.807250  1
  B  B6  1  0.000000  0.475676  0.309137  1
  B  B7  1  0.000000  0.524324  0.690863  1
  B  B8  1  0.000000  0.788269  0.316068  1
  B  B9  1  0.000000  0.211731  0.683932  1
  B  B10  1  0.000000  0.286480  0.186597  1
  B  B11  1  0.000000  0.713520  0.813403  1
  B  B12  1  0.000000  0.864565  0.469121  1
  B  B13  1  0.000000  0.135435  0.530879  1
  B  B14  1  0.000000  0.363585  0.030772  1
  B  B15  1  0.000000  0.636415  0.969228  1
  B  B16  1  0.000000  0.888579  0.047297  1
  B  B17  1  0.000000  0.111421  0.952703  1
  B  B18  1  0.000000  0.386402  0.453560  1
  B  B19  1  0.000000  0.613598  0.546440  1
  Ru  Ru20  1  0.500000  0.635954  0.410862  1
  Ru  Ru21  1  0.500000  0.364046  0.589138  1
  Ru  Ru22  1  0.500000  0.139598  0.091281  1
  Ru  Ru23  1  0.500000  0.860402  0.908719  1
