# generated using pymatgen
data_Rb4U2Si8O23
_symmetry_space_group_name_H-M   'P 1'
_cell_length_a   7.00229526
_cell_length_b   8.05096371
_cell_length_c   11.60900779
_cell_angle_alpha   104.24864335
_cell_angle_beta   89.48863838
_cell_angle_gamma   106.34586499
_symmetry_Int_Tables_number   1
_chemical_formula_structural   Rb4U2Si8O23
_chemical_formula_sum   'Rb4 U2 Si8 O23'
_cell_volume   607.40521819
_cell_formula_units_Z   1
loop_
 _symmetry_equiv_pos_site_id
 _symmetry_equiv_pos_as_xyz
  1  'x, y, z'
loop_
 _atom_site_type_symbol
 _atom_site_label
 _atom_site_symmetry_multiplicity
 _atom_site_fract_x
 _atom_site_fract_y
 _atom_site_fract_z
 _atom_site_occupancy
  Rb  Rb0  1  0.323409  0.281184  0.646316  1
  Rb  Rb1  1  0.676591  0.718816  0.353684  1
  Rb  Rb2  1  0.299945  0.231271  0.994369  1
  Rb  Rb3  1  0.700055  0.768729  0.005631  1
  U  U4  1  0.790069  0.250429  0.815482  1
  U  U5  1  0.209931  0.749571  0.184518  1
  Si  Si6  1  0.506418  0.198364  0.303038  1
  Si  Si7  1  0.493582  0.801636  0.696962  1
  Si  Si8  1  0.945916  0.858934  0.712607  1
  Si  Si9  1  0.054084  0.141066  0.287393  1
  Si  Si10  1  0.845066  0.304814  0.497648  1
  Si  Si11  1  0.154934  0.695186  0.502352  1
  Si  Si12  1  0.174619  0.678184  0.866097  1
  Si  Si13  1  0.825381  0.321816  0.133903  1
  O  O14  1  0.479865  0.987294  0.253689  1
  O  O15  1  0.520135  0.012706  0.746311  1
  O  O16  1  0.621571  0.311519  0.209844  1
  O  O17  1  0.378429  0.688481  0.790156  1
  O  O18  1  0.627612  0.289020  0.435207  1
  O  O19  1  0.372388  0.710980  0.564793  1
  O  O20  1  0.291993  0.244530  0.322904  1
  O  O21  1  0.708007  0.755470  0.677096  1
  O  O22  1  0.980826  0.069059  0.778551  1
  O  O23  1  0.019174  0.930941  0.221449  1
  O  O24  1  0.025068  0.758033  0.799533  1
  O  O25  1  0.974932  0.241967  0.200467  1
  O  O26  1  0.062616  0.846729  0.588503  1
  O  O27  1  0.937384  0.153271  0.411497  1
  O  O28  1  0.000000  0.500000  0.500000  1
  O  O29  1  0.816808  0.270168  0.627242  1
  O  O30  1  0.183192  0.729832  0.372758  1
  O  O31  1  0.072530  0.468074  0.859150  1
  O  O32  1  0.927470  0.531926  0.140850  1
  O  O33  1  0.229792  0.801403  0.001363  1
  O  O34  1  0.770208  0.198597  0.998637  1
  O  O35  1  0.617180  0.399583  0.852703  1
  O  O36  1  0.382820  0.600417  0.147297  1
