# generated using pymatgen
data_K4Zr(PS3)4
_symmetry_space_group_name_H-M   'P 1'
_cell_length_a   7.39448933
_cell_length_b   7.39448922
_cell_length_c   23.62218400
_cell_angle_alpha   81.38863279
_cell_angle_beta   81.38863293
_cell_angle_gamma   65.79184628
_symmetry_Int_Tables_number   1
_chemical_formula_structural   K4Zr(PS3)4
_chemical_formula_sum   'K8 Zr2 P8 S24'
_cell_volume   1159.15978999
_cell_formula_units_Z   2
loop_
 _symmetry_equiv_pos_site_id
 _symmetry_equiv_pos_as_xyz
  1  'x, y, z'
loop_
 _atom_site_type_symbol
 _atom_site_label
 _atom_site_symmetry_multiplicity
 _atom_site_fract_x
 _atom_site_fract_y
 _atom_site_fract_z
 _atom_site_occupancy
  K  K0  1  0.840506  0.787348  0.546916  1
  K  K1  1  0.212652  0.159494  0.953084  1
  K  K2  1  0.159494  0.212652  0.453084  1
  K  K3  1  0.787348  0.840506  0.046916  1
  K  K4  1  0.679760  0.514218  0.830022  1
  K  K5  1  0.485782  0.320240  0.669978  1
  K  K6  1  0.320240  0.485782  0.169978  1
  K  K7  1  0.514218  0.679760  0.330022  1
  Zr  Zr8  1  0.082242  0.917758  0.750000  1
  Zr  Zr9  1  0.917758  0.082242  0.250000  1
  P  P10  1  0.121592  0.740448  0.876387  1
  P  P11  1  0.259552  0.878408  0.623613  1
  P  P12  1  0.878408  0.259552  0.123613  1
  P  P13  1  0.740448  0.121592  0.376387  1
  P  P14  1  0.053503  0.203141  0.608705  1
  P  P15  1  0.796859  0.946497  0.891295  1
  P  P16  1  0.946497  0.796859  0.391295  1
  P  P17  1  0.203141  0.053503  0.108705  1
  S  S18  1  0.240382  0.588979  0.946421  1
  S  S19  1  0.411021  0.759618  0.553579  1
  S  S20  1  0.759618  0.411021  0.053579  1
  S  S21  1  0.588979  0.240382  0.446421  1
  S  S22  1  0.124232  0.578690  0.810862  1
  S  S23  1  0.421310  0.875768  0.689138  1
  S  S24  1  0.875768  0.421310  0.189138  1
  S  S25  1  0.578690  0.124232  0.310862  1
  S  S26  1  0.066785  0.746769  0.665943  1
  S  S27  1  0.253231  0.933215  0.834057  1
  S  S28  1  0.933215  0.253231  0.334057  1
  S  S29  1  0.746769  0.066785  0.165943  1
  S  S30  1  0.222858  0.348388  0.573056  1
  S  S31  1  0.651612  0.777142  0.926944  1
  S  S32  1  0.777142  0.651612  0.426944  1
  S  S33  1  0.348388  0.222858  0.073056  1
  S  S34  1  0.837248  0.223943  0.563792  1
  S  S35  1  0.776057  0.162752  0.936208  1
  S  S36  1  0.162752  0.776057  0.436208  1
  S  S37  1  0.223943  0.837248  0.063792  1
  S  S38  1  0.934275  0.263598  0.694970  1
  S  S39  1  0.736402  0.065725  0.805030  1
  S  S40  1  0.065725  0.736402  0.305030  1
  S  S41  1  0.263598  0.934275  0.194970  1
