# generated using pymatgen
data_Y8AlCdPd23
_symmetry_space_group_name_H-M   'P 1'
_cell_length_a   8.32911200
_cell_length_b   8.42671300
_cell_length_c   8.43266200
_cell_angle_alpha   90.00000000
_cell_angle_beta   90.00000000
_cell_angle_gamma   90.00000000
_symmetry_Int_Tables_number   1
_chemical_formula_structural   Y8AlCdPd23
_chemical_formula_sum   'Y8 Al1 Cd1 Pd23'
_cell_volume   591.86355448
_cell_formula_units_Z   1
loop_
 _symmetry_equiv_pos_site_id
 _symmetry_equiv_pos_as_xyz
  1  'x, y, z'
loop_
 _atom_site_type_symbol
 _atom_site_label
 _atom_site_symmetry_multiplicity
 _atom_site_fract_x
 _atom_site_fract_y
 _atom_site_fract_z
 _atom_site_occupancy
  Y  Y0  1  0.251353  0.243208  0.262283  1
  Y  Y1  1  0.747747  0.746716  0.748280  1
  Y  Y2  1  0.747747  0.746716  0.251720  1
  Y  Y3  1  0.747747  0.253284  0.748280  1
  Y  Y4  1  0.251353  0.243208  0.737717  1
  Y  Y5  1  0.251353  0.756792  0.262283  1
  Y  Y6  1  0.251353  0.756792  0.737717  1
  Y  Y7  1  0.747747  0.253284  0.251720  1
  Al  Al8  1  0.999332  0.000000  0.000000  1
  Cd  Cd9  1  0.264502  0.500000  0.000000  1
  Pd  Pd10  1  0.740951  0.500000  0.000000  1
  Pd  Pd11  1  0.997720  0.259212  0.500000  1
  Pd  Pd12  1  0.496989  0.258738  0.000000  1
  Pd  Pd13  1  0.997720  0.740788  0.500000  1
  Pd  Pd14  1  0.496989  0.741262  0.000000  1
  Pd  Pd15  1  0.501832  0.000000  0.260243  1
  Pd  Pd16  1  0.259019  0.000000  0.500000  1
  Pd  Pd17  1  0.501832  0.000000  0.739757  1
  Pd  Pd18  1  0.740092  0.000000  0.500000  1
  Pd  Pd19  1  0.003166  0.500000  0.259957  1
  Pd  Pd20  1  0.003166  0.500000  0.740043  1
  Pd  Pd21  1  0.252433  0.500000  0.500000  1
  Pd  Pd22  1  0.747841  0.500000  0.500000  1
  Pd  Pd23  1  0.502044  0.253259  0.500000  1
  Pd  Pd24  1  0.502044  0.746741  0.500000  1
  Pd  Pd25  1  0.497009  0.500000  0.255613  1
  Pd  Pd26  1  0.497009  0.500000  0.744387  1
  Pd  Pd27  1  0.289195  0.000000  0.000000  1
  Pd  Pd28  1  0.709988  0.000000  0.000000  1
  Pd  Pd29  1  0.004513  0.287844  0.000000  1
  Pd  Pd30  1  0.004513  0.712156  0.000000  1
  Pd  Pd31  1  0.996851  0.000000  0.288073  1
  Pd  Pd32  1  0.996851  0.000000  0.711927  1
