# generated using pymatgen
data_SmHgPd3Au
_symmetry_space_group_name_H-M   'P 1'
_cell_length_a   5.49873594
_cell_length_b   5.49873578
_cell_length_c   5.44831719
_cell_angle_alpha   59.69340550
_cell_angle_beta   59.69340394
_cell_angle_gamma   60.00000226
_symmetry_Int_Tables_number   1
_chemical_formula_structural   SmHgPd3Au
_chemical_formula_sum   'Sm1 Hg1 Pd3 Au1'
_cell_volume   115.94309411
_cell_formula_units_Z   1
loop_
 _symmetry_equiv_pos_site_id
 _symmetry_equiv_pos_as_xyz
  1  'x, y, z'
loop_
 _atom_site_type_symbol
 _atom_site_label
 _atom_site_symmetry_multiplicity
 _atom_site_fract_x
 _atom_site_fract_y
 _atom_site_fract_z
 _atom_site_occupancy
  Sm  Sm0  1  0.249235  0.249235  0.252296  1
  Hg  Hg1  1  0.000626  0.000626  0.998121  1
  Pd  Pd2  1  0.625621  0.123809  0.624948  1
  Pd  Pd3  1  0.123809  0.625621  0.624948  1
  Pd  Pd4  1  0.625621  0.625621  0.624948  1
  Au  Au5  1  0.625087  0.625087  0.124739  1
