# generated using pymatgen
data_PrNb(FeSi)2
_symmetry_space_group_name_H-M   'P 1'
_cell_length_a   4.10275300
_cell_length_b   4.10275284
_cell_length_c   13.83709100
_cell_angle_alpha   90.00000000
_cell_angle_beta   90.00000000
_cell_angle_gamma   119.99997713
_symmetry_Int_Tables_number   1
_chemical_formula_structural   PrNb(FeSi)2
_chemical_formula_sum   'Pr2 Nb2 Fe4 Si4'
_cell_volume   201.70945452
_cell_formula_units_Z   2
loop_
 _symmetry_equiv_pos_site_id
 _symmetry_equiv_pos_as_xyz
  1  'x, y, z'
loop_
 _atom_site_type_symbol
 _atom_site_label
 _atom_site_symmetry_multiplicity
 _atom_site_fract_x
 _atom_site_fract_y
 _atom_site_fract_z
 _atom_site_occupancy
  Pr  Pr0  1  0.000000  0.000000  0.250000  1
  Pr  Pr1  1  0.000000  0.000000  0.750000  1
  Nb  Nb2  1  0.000000  0.000000  0.000000  1
  Nb  Nb3  1  0.000000  0.000000  0.500000  1
  Fe  Fe4  1  0.666667  0.333334  0.062608  1
  Fe  Fe5  1  0.666667  0.333334  0.437393  1
  Fe  Fe6  1  0.333334  0.666667  0.562608  1
  Fe  Fe7  1  0.333334  0.666667  0.937392  1
  Si  Si8  1  0.333334  0.666667  0.109726  1
  Si  Si9  1  0.333334  0.666667  0.390274  1
  Si  Si10  1  0.666667  0.333334  0.609726  1
  Si  Si11  1  0.666667  0.333334  0.890274  1
