# generated using pymatgen
data_Yb3Tm5In4
_symmetry_space_group_name_H-M   'P 1'
_cell_length_a   6.83821326
_cell_length_b   5.26415700
_cell_length_c   9.45908221
_cell_angle_alpha   90.00000000
_cell_angle_beta   89.50611627
_cell_angle_gamma   90.00000000
_symmetry_Int_Tables_number   1
_chemical_formula_structural   Yb3Tm5In4
_chemical_formula_sum   'Yb3 Tm5 In4'
_cell_volume   340.48998242
_cell_formula_units_Z   1
loop_
 _symmetry_equiv_pos_site_id
 _symmetry_equiv_pos_as_xyz
  1  'x, y, z'
loop_
 _atom_site_type_symbol
 _atom_site_label
 _atom_site_symmetry_multiplicity
 _atom_site_fract_x
 _atom_site_fract_y
 _atom_site_fract_z
 _atom_site_occupancy
  Yb  Yb0  1  0.978571  0.250000  0.716072  1
  Yb  Yb1  1  0.481242  0.250000  0.784299  1
  Yb  Yb2  1  0.198968  0.750001  0.924385  1
  Tm  Tm3  1  0.806190  0.250000  0.075358  1
  Tm  Tm4  1  0.520093  0.750001  0.218982  1
  Tm  Tm5  1  0.017251  0.750001  0.282959  1
  Tm  Tm6  1  0.308198  0.250000  0.425237  1
  Tm  Tm7  1  0.689970  0.750001  0.573060  1
  In  In8  1  0.273961  0.250000  0.104628  1
  In  In9  1  0.775901  0.250000  0.401910  1
  In  In10  1  0.225719  0.750001  0.584908  1
  In  In11  1  0.723936  0.750001  0.908201  1
