# generated using pymatgen
data_Ho2USn3Ir2Rh
_symmetry_space_group_name_H-M   'P 1'
_cell_length_a   7.47457331
_cell_length_b   7.47457276
_cell_length_c   3.89047500
_cell_angle_alpha   90.00000000
_cell_angle_beta   90.00000000
_cell_angle_gamma   118.83633101
_symmetry_Int_Tables_number   1
_chemical_formula_structural   Ho2USn3Ir2Rh
_chemical_formula_sum   'Ho2 U1 Sn3 Ir2 Rh1'
_cell_volume   190.40573420
_cell_formula_units_Z   1
loop_
 _symmetry_equiv_pos_site_id
 _symmetry_equiv_pos_as_xyz
  1  'x, y, z'
loop_
 _atom_site_type_symbol
 _atom_site_label
 _atom_site_symmetry_multiplicity
 _atom_site_fract_x
 _atom_site_fract_y
 _atom_site_fract_z
 _atom_site_occupancy
  Ho  Ho0  1  0.593582  0.001429  0.500000  1
  Ho  Ho1  1  0.001429  0.593582  0.500000  1
  U  U2  1  0.417289  0.417289  0.500000  1
  Sn  Sn3  1  0.756790  0.756790  0.000000  1
  Sn  Sn4  1  0.257127  0.986240  0.000000  1
  Sn  Sn5  1  0.986240  0.257127  0.000000  1
  Ir  Ir6  1  0.636262  0.336670  0.000000  1
  Ir  Ir7  1  0.336670  0.636262  0.000000  1
  Rh  Rh8  1  0.014610  0.014610  0.500000  1
