# generated using pymatgen
data_CsGaI4
_symmetry_space_group_name_H-M   'P 1'
_cell_length_a   18.84364000
_cell_length_b   7.48695389
_cell_length_c   8.63980193
_cell_angle_alpha   73.04978214
_cell_angle_beta   90.00000000
_cell_angle_gamma   90.00000000
_symmetry_Int_Tables_number   1
_chemical_formula_structural   CsGaI4
_chemical_formula_sum   'Cs4 Ga4 I16'
_cell_volume   1165.96427705
_cell_formula_units_Z   4
loop_
 _symmetry_equiv_pos_site_id
 _symmetry_equiv_pos_as_xyz
  1  'x, y, z'
loop_
 _atom_site_type_symbol
 _atom_site_label
 _atom_site_symmetry_multiplicity
 _atom_site_fract_x
 _atom_site_fract_y
 _atom_site_fract_z
 _atom_site_occupancy
  Cs  Cs0  1  0.869416  0.185921  0.708892  1
  Cs  Cs1  1  0.630584  0.185921  0.208892  1
  Cs  Cs2  1  0.369416  0.814079  0.791108  1
  Cs  Cs3  1  0.130584  0.814079  0.291108  1
  Ga  Ga4  1  0.871982  0.810009  0.297147  1
  Ga  Ga5  1  0.371982  0.189991  0.202853  1
  Ga  Ga6  1  0.628018  0.810009  0.797147  1
  Ga  Ga7  1  0.128018  0.189991  0.702853  1
  I  I8  1  0.247150  0.363055  0.642354  1
  I  I9  1  0.053813  0.269682  0.437386  1
  I  I10  1  0.752850  0.636945  0.357646  1
  I  I11  1  0.553813  0.730318  0.062614  1
  I  I12  1  0.655304  0.166944  0.709041  1
  I  I13  1  0.844696  0.166944  0.209041  1
  I  I14  1  0.446187  0.269682  0.937386  1
  I  I15  1  0.252850  0.363055  0.142354  1
  I  I16  1  0.747150  0.636945  0.857646  1
  I  I17  1  0.946187  0.730318  0.562614  1
  I  I18  1  0.445832  0.272495  0.425163  1
  I  I19  1  0.945832  0.727505  0.074837  1
  I  I20  1  0.344696  0.833056  0.290959  1
  I  I21  1  0.155304  0.833056  0.790959  1
  I  I22  1  0.554168  0.727505  0.574837  1
  I  I23  1  0.054168  0.272495  0.925163  1
