# generated using pymatgen
data_Sc2Fe5Co4P6Ru
_symmetry_space_group_name_H-M   'P 1'
_cell_length_a   3.61812100
_cell_length_b   10.12988500
_cell_length_c   11.69113300
_cell_angle_alpha   90.00000000
_cell_angle_beta   90.00000000
_cell_angle_gamma   90.00000000
_symmetry_Int_Tables_number   1
_chemical_formula_structural   Sc2Fe5Co4P6Ru
_chemical_formula_sum   'Sc4 Fe10 Co8 P12 Ru2'
_cell_volume   428.49346512
_cell_formula_units_Z   2
loop_
 _symmetry_equiv_pos_site_id
 _symmetry_equiv_pos_as_xyz
  1  'x, y, z'
loop_
 _atom_site_type_symbol
 _atom_site_label
 _atom_site_symmetry_multiplicity
 _atom_site_fract_x
 _atom_site_fract_y
 _atom_site_fract_z
 _atom_site_occupancy
  Sc  Sc0  1  0.250000  0.579850  0.703755  1
  Sc  Sc1  1  0.250000  0.920150  0.203755  1
  Sc  Sc2  1  0.750000  0.417198  0.294344  1
  Sc  Sc3  1  0.750000  0.082802  0.794344  1
  Fe  Fe4  1  0.750000  0.288571  0.009088  1
  Fe  Fe5  1  0.750000  0.211429  0.509088  1
  Fe  Fe6  1  0.250000  0.405217  0.487294  1
  Fe  Fe7  1  0.250000  0.094783  0.987294  1
  Fe  Fe8  1  0.250000  0.221462  0.174062  1
  Fe  Fe9  1  0.250000  0.278539  0.674062  1
  Fe  Fe10  1  0.250000  0.882045  0.701924  1
  Fe  Fe11  1  0.250000  0.617955  0.201924  1
  Fe  Fe12  1  0.250000  0.461694  0.933190  1
  Fe  Fe13  1  0.250000  0.038306  0.433190  1
  Co  Co14  1  0.750000  0.591863  0.516101  1
  Co  Co15  1  0.750000  0.908137  0.016101  1
  Co  Co16  1  0.750000  0.776125  0.826200  1
  Co  Co17  1  0.750000  0.723875  0.326200  1
  Co  Co18  1  0.750000  0.119081  0.298232  1
  Co  Co19  1  0.750000  0.380919  0.798232  1
  Co  Co20  1  0.750000  0.536037  0.067283  1
  Co  Co21  1  0.750000  0.963963  0.567283  1
  P  P22  1  0.250000  0.420778  0.116096  1
  P  P23  1  0.250000  0.079222  0.616096  1
  P  P24  1  0.750000  0.574006  0.883112  1
  P  P25  1  0.750000  0.925994  0.383112  1
  P  P26  1  0.250000  0.263290  0.865064  1
  P  P27  1  0.250000  0.236710  0.365064  1
  P  P28  1  0.750000  0.733981  0.138578  1
  P  P29  1  0.750000  0.766019  0.638578  1
  P  P30  1  0.250000  0.590838  0.388256  1
  P  P31  1  0.250000  0.909162  0.888256  1
  P  P32  1  0.750000  0.397707  0.608513  1
  P  P33  1  0.750000  0.102293  0.108513  1
  Ru  Ru34  1  0.250000  0.712363  0.988908  1
  Ru  Ru35  1  0.250000  0.787637  0.488908  1
