# generated using pymatgen
data_Tb9Tm7(ScSn4)4
_symmetry_space_group_name_H-M   'P 1'
_cell_length_a   7.87709064
_cell_length_b   8.07275181
_cell_length_c   15.26707821
_cell_angle_alpha   90.01547334
_cell_angle_beta   90.04928282
_cell_angle_gamma   90.04967980
_symmetry_Int_Tables_number   1
_chemical_formula_structural   Tb9Tm7(ScSn4)4
_chemical_formula_sum   'Tb9 Tm7 Sc4 Sn16'
_cell_volume   970.82965502
_cell_formula_units_Z   1
loop_
 _symmetry_equiv_pos_site_id
 _symmetry_equiv_pos_as_xyz
  1  'x, y, z'
loop_
 _atom_site_type_symbol
 _atom_site_label
 _atom_site_symmetry_multiplicity
 _atom_site_fract_x
 _atom_site_fract_y
 _atom_site_fract_z
 _atom_site_occupancy
  Tb  Tb0  1  0.860686  0.662297  0.876844  1
  Tb  Tb1  1  0.518509  0.321232  0.904279  1
  Tb  Tb2  1  0.017422  0.178678  0.594589  1
  Tb  Tb3  1  0.482388  0.678340  0.404631  1
  Tb  Tb4  1  0.981742  0.822030  0.097149  1
  Tb  Tb5  1  0.482881  0.678252  0.096241  1
  Tb  Tb6  1  0.982506  0.821595  0.404164  1
  Tb  Tb7  1  0.516821  0.321045  0.594744  1
  Tb  Tb8  1  0.017706  0.178527  0.904107  1
  Tm  Tm9  1  0.359110  0.838168  0.874685  1
  Tm  Tm10  1  0.858884  0.661335  0.624094  1
  Tm  Tm11  1  0.640659  0.161245  0.375245  1
  Tm  Tm12  1  0.140373  0.338714  0.124687  1
  Tm  Tm13  1  0.639110  0.161257  0.126338  1
  Tm  Tm14  1  0.140688  0.338528  0.375335  1
  Tm  Tm15  1  0.359710  0.838956  0.623631  1
  Sc  Sc16  1  0.191585  0.503537  0.749432  1
  Sc  Sc17  1  0.690651  0.996546  0.749214  1
  Sc  Sc18  1  0.809035  0.495812  0.250647  1
  Sc  Sc19  1  0.308696  0.003582  0.249983  1
  Sn  Sn20  1  0.301217  0.038551  0.043142  1
  Sn  Sn21  1  0.801899  0.460809  0.456605  1
  Sn  Sn22  1  0.698982  0.960778  0.542584  1
  Sn  Sn23  1  0.203611  0.537794  0.957209  1
  Sn  Sn24  1  0.696152  0.964187  0.957771  1
  Sn  Sn25  1  0.197607  0.539098  0.542815  1
  Sn  Sn26  1  0.301495  0.039154  0.456026  1
  Sn  Sn27  1  0.800433  0.459609  0.045414  1
  Sn  Sn28  1  0.552535  0.618814  0.748732  1
  Sn  Sn29  1  0.053567  0.882448  0.748835  1
  Sn  Sn30  1  0.446582  0.381262  0.250813  1
  Sn  Sn31  1  0.947361  0.119241  0.250295  1
  Sn  Sn32  1  0.327374  0.152637  0.749282  1
  Sn  Sn33  1  0.826930  0.346835  0.749044  1
  Sn  Sn34  1  0.672505  0.846678  0.250842  1
  Sn  Sn35  1  0.172586  0.652430  0.250552  1
