# generated using pymatgen
data_ZrPaCo2Pt
_symmetry_space_group_name_H-M   'P 1'
_cell_length_a   7.01737300
_cell_length_b   6.88654700
_cell_length_c   3.42129300
_cell_angle_alpha   90.00000000
_cell_angle_beta   90.00000000
_cell_angle_gamma   90.00000000
_symmetry_Int_Tables_number   1
_chemical_formula_structural   ZrPaCo2Pt
_chemical_formula_sum   'Zr2 Pa2 Co4 Pt2'
_cell_volume   165.33558875
_cell_formula_units_Z   2
loop_
 _symmetry_equiv_pos_site_id
 _symmetry_equiv_pos_as_xyz
  1  'x, y, z'
loop_
 _atom_site_type_symbol
 _atom_site_label
 _atom_site_symmetry_multiplicity
 _atom_site_fract_x
 _atom_site_fract_y
 _atom_site_fract_z
 _atom_site_occupancy
  Zr  Zr0  1  0.822153  0.674685  0.500000  1
  Zr  Zr1  1  0.322153  0.825315  0.500000  1
  Pa  Pa2  1  0.688059  0.167968  0.500000  1
  Pa  Pa3  1  0.188059  0.332032  0.500000  1
  Co  Co4  1  0.355254  0.139516  0.000000  1
  Co  Co5  1  0.127375  0.599469  0.000000  1
  Co  Co6  1  0.627375  0.900531  0.000000  1
  Co  Co7  1  0.855254  0.360484  0.000000  1
  Pt  Pt8  1  0.007159  0.976439  0.000000  1
  Pt  Pt9  1  0.507159  0.523561  0.000000  1
