# generated using pymatgen
data_Ho16InHg3(RuRh)2
_symmetry_space_group_name_H-M   'P 1'
_cell_length_a   9.58706087
_cell_length_b   9.60010729
_cell_length_c   9.58706170
_cell_angle_alpha   59.64480870
_cell_angle_beta   59.56166424
_cell_angle_gamma   59.64481349
_symmetry_Int_Tables_number   1
_chemical_formula_structural   Ho16InHg3(RuRh)2
_chemical_formula_sum   'Ho16 In1 Hg3 Ru2 Rh2'
_cell_volume   618.49427076
_cell_formula_units_Z   1
loop_
 _symmetry_equiv_pos_site_id
 _symmetry_equiv_pos_as_xyz
  1  'x, y, z'
loop_
 _atom_site_type_symbol
 _atom_site_label
 _atom_site_symmetry_multiplicity
 _atom_site_fract_x
 _atom_site_fract_y
 _atom_site_fract_z
 _atom_site_occupancy
  Ho  Ho0  1  0.189825  0.185828  0.809837  1
  Ho  Ho1  1  0.599577  0.599193  0.202064  1
  Ho  Ho2  1  0.438959  0.060355  0.438959  1
  Ho  Ho3  1  0.440825  0.439104  0.060925  1
  Ho  Ho4  1  0.813317  0.186210  0.813317  1
  Ho  Ho5  1  0.190001  0.807754  0.190001  1
  Ho  Ho6  1  0.437261  0.058930  0.061879  1
  Ho  Ho7  1  0.189639  0.811920  0.808176  1
  Ho  Ho8  1  0.058276  0.439693  0.058276  1
  Ho  Ho9  1  0.808176  0.811920  0.189639  1
  Ho  Ho10  1  0.202064  0.599193  0.599577  1
  Ho  Ho11  1  0.060925  0.439104  0.440825  1
  Ho  Ho12  1  0.061879  0.058930  0.437261  1
  Ho  Ho13  1  0.809837  0.185828  0.189825  1
  Ho  Ho14  1  0.601347  0.199079  0.601347  1
  Ho  Ho15  1  0.600447  0.600265  0.600447  1
  In  In16  1  0.829678  0.507986  0.829678  1
  Hg  Hg17  1  0.833946  0.836795  0.833946  1
  Hg  Hg18  1  0.834801  0.835770  0.493625  1
  Hg  Hg19  1  0.493625  0.835770  0.834801  1
  Ru  Ru20  1  0.395111  0.824417  0.395111  1
  Ru  Ru21  1  0.391465  0.390187  0.391465  1
  Rh  Rh22  1  0.825596  0.392888  0.393426  1
  Rh  Rh23  1  0.393426  0.392888  0.825596  1
