# generated using pymatgen
data_Tb9Sc(Si3O)2
_symmetry_space_group_name_H-M   'P 1'
_cell_length_a   8.41167100
_cell_length_b   8.41167058
_cell_length_c   6.19182900
_cell_angle_alpha   90.00000000
_cell_angle_beta   90.00000000
_cell_angle_gamma   120.00000559
_symmetry_Int_Tables_number   1
_chemical_formula_structural   Tb9Sc(Si3O)2
_chemical_formula_sum   'Tb9 Sc1 Si6 O2'
_cell_volume   379.41464974
_cell_formula_units_Z   1
loop_
 _symmetry_equiv_pos_site_id
 _symmetry_equiv_pos_as_xyz
  1  'x, y, z'
loop_
 _atom_site_type_symbol
 _atom_site_label
 _atom_site_symmetry_multiplicity
 _atom_site_fract_x
 _atom_site_fract_y
 _atom_site_fract_z
 _atom_site_occupancy
  Tb  Tb0  1  0.333333  0.666667  0.000000  1
  Tb  Tb1  1  0.333333  0.666667  0.500000  1
  Tb  Tb2  1  0.666667  0.333333  0.500000  1
  Tb  Tb3  1  0.767867  0.766791  0.751674  1
  Tb  Tb4  1  0.233209  0.001076  0.751674  1
  Tb  Tb5  1  0.998924  0.232133  0.751674  1
  Tb  Tb6  1  0.233209  0.232133  0.248326  1
  Tb  Tb7  1  0.767867  0.001076  0.248326  1
  Tb  Tb8  1  0.998924  0.766791  0.248326  1
  Sc  Sc9  1  0.666667  0.333333  0.000000  1
  Si  Si10  1  0.403663  0.398394  0.758611  1
  Si  Si11  1  0.601606  0.005269  0.758611  1
  Si  Si12  1  0.994731  0.596337  0.758611  1
  Si  Si13  1  0.601606  0.596337  0.241389  1
  Si  Si14  1  0.403663  0.005269  0.241389  1
  Si  Si15  1  0.994731  0.398394  0.241389  1
  O  O16  1  0.000000  0.000000  0.000000  1
  O  O17  1  0.000000  0.000000  0.500000  1
