# generated using pymatgen
data_Y5Lu15(Cd3Ru)2
_symmetry_space_group_name_H-M   'P 1'
_cell_length_a   9.45917875
_cell_length_b   9.45906985
_cell_length_c   9.67292700
_cell_angle_alpha   90.00000000
_cell_angle_beta   90.00000000
_cell_angle_gamma   119.91303618
_symmetry_Int_Tables_number   1
_chemical_formula_structural   Y5Lu15(Cd3Ru)2
_chemical_formula_sum   'Y5 Lu15 Cd6 Ru2'
_cell_volume   750.18834838
_cell_formula_units_Z   1
loop_
 _symmetry_equiv_pos_site_id
 _symmetry_equiv_pos_as_xyz
  1  'x, y, z'
loop_
 _atom_site_type_symbol
 _atom_site_label
 _atom_site_symmetry_multiplicity
 _atom_site_fract_x
 _atom_site_fract_y
 _atom_site_fract_z
 _atom_site_occupancy
  Y  Y0  1  0.540129  0.080949  0.250000  1
  Y  Y1  1  0.918995  0.459867  0.250000  1
  Y  Y2  1  0.459900  0.540120  0.750000  1
  Y  Y3  1  0.459939  0.920085  0.750000  1
  Y  Y4  1  0.079884  0.540061  0.750000  1
  Lu  Lu5  1  0.000143  0.999864  0.500062  1
  Lu  Lu6  1  0.000143  0.999864  0.999938  1
  Lu  Lu7  1  0.210041  0.789951  0.440009  1
  Lu  Lu8  1  0.210840  0.419889  0.439665  1
  Lu  Lu9  1  0.580112  0.789156  0.439666  1
  Lu  Lu10  1  0.790028  0.209964  0.559889  1
  Lu  Lu11  1  0.789293  0.579791  0.559325  1
  Lu  Lu12  1  0.420209  0.210699  0.559324  1
  Lu  Lu13  1  0.790028  0.209964  0.940111  1
  Lu  Lu14  1  0.789293  0.579791  0.940675  1
  Lu  Lu15  1  0.420209  0.210699  0.940676  1
  Lu  Lu16  1  0.210041  0.789951  0.059991  1
  Lu  Lu17  1  0.210840  0.419889  0.060335  1
  Lu  Lu18  1  0.580112  0.789156  0.060334  1
  Lu  Lu19  1  0.539691  0.460315  0.250000  1
  Cd  Cd20  1  0.886156  0.113846  0.250000  1
  Cd  Cd21  1  0.884583  0.771222  0.250000  1
  Cd  Cd22  1  0.228767  0.115470  0.250000  1
  Cd  Cd23  1  0.113733  0.886344  0.750000  1
  Cd  Cd24  1  0.113928  0.227285  0.750000  1
  Cd  Cd25  1  0.772723  0.886107  0.750000  1
  Ru  Ru26  1  0.333539  0.666458  0.250000  1
  Ru  Ru27  1  0.666704  0.333244  0.750000  1
