# generated using pymatgen
data_Y19Ho(Cd3Tc)2
_symmetry_space_group_name_H-M   'P 1'
_cell_length_a   9.60666733
_cell_length_b   9.60666584
_cell_length_c   9.94792555
_cell_angle_alpha   90.07080965
_cell_angle_beta   89.92919122
_cell_angle_gamma   119.90210531
_symmetry_Int_Tables_number   1
_chemical_formula_structural   Y19Ho(Cd3Tc)2
_chemical_formula_sum   'Y19 Ho1 Cd6 Tc2'
_cell_volume   795.85824043
_cell_formula_units_Z   1
loop_
 _symmetry_equiv_pos_site_id
 _symmetry_equiv_pos_as_xyz
  1  'x, y, z'
loop_
 _atom_site_type_symbol
 _atom_site_label
 _atom_site_symmetry_multiplicity
 _atom_site_fract_x
 _atom_site_fract_y
 _atom_site_fract_z
 _atom_site_occupancy
  Y  Y0  1  0.000449  0.999551  0.499788  1
  Y  Y1  1  0.000035  0.999965  0.000016  1
  Y  Y2  1  0.209902  0.420249  0.441545  1
  Y  Y3  1  0.579751  0.790098  0.441545  1
  Y  Y4  1  0.790000  0.210000  0.558527  1
  Y  Y5  1  0.790476  0.580245  0.558446  1
  Y  Y6  1  0.419755  0.209524  0.558446  1
  Y  Y7  1  0.790092  0.209908  0.941567  1
  Y  Y8  1  0.790208  0.580251  0.941520  1
  Y  Y9  1  0.419749  0.209792  0.941520  1
  Y  Y10  1  0.209921  0.790079  0.058788  1
  Y  Y11  1  0.209929  0.419801  0.058385  1
  Y  Y12  1  0.580199  0.790071  0.058385  1
  Y  Y13  1  0.540037  0.459963  0.249889  1
  Y  Y14  1  0.539488  0.079470  0.250271  1
  Y  Y15  1  0.920530  0.460512  0.250271  1
  Y  Y16  1  0.460087  0.539913  0.750020  1
  Y  Y17  1  0.459734  0.919884  0.749660  1
  Y  Y18  1  0.080116  0.540266  0.749660  1
  Ho  Ho19  1  0.210674  0.789326  0.440490  1
  Cd  Cd20  1  0.885821  0.114179  0.250055  1
  Cd  Cd21  1  0.885712  0.771606  0.249960  1
  Cd  Cd22  1  0.228394  0.114288  0.249960  1
  Cd  Cd23  1  0.114211  0.885789  0.750080  1
  Cd  Cd24  1  0.114250  0.228466  0.750002  1
  Cd  Cd25  1  0.771534  0.885750  0.750002  1
  Tc  Tc26  1  0.332319  0.667681  0.251333  1
  Tc  Tc27  1  0.666628  0.333372  0.749870  1
