# generated using pymatgen
data_Tb3YbHo4(B6Ru)4
_symmetry_space_group_name_H-M   'P 1'
_cell_length_a   3.66106300
_cell_length_b   9.14233619
_cell_length_c   11.53168700
_cell_angle_alpha   89.91016573
_cell_angle_beta   90.00000000
_cell_angle_gamma   90.00000000
_symmetry_Int_Tables_number   1
_chemical_formula_structural   Tb3YbHo4(B6Ru)4
_chemical_formula_sum   'Tb3 Yb1 Ho4 B24 Ru4'
_cell_volume   385.97280119
_cell_formula_units_Z   1
loop_
 _symmetry_equiv_pos_site_id
 _symmetry_equiv_pos_as_xyz
  1  'x, y, z'
loop_
 _atom_site_type_symbol
 _atom_site_label
 _atom_site_symmetry_multiplicity
 _atom_site_fract_x
 _atom_site_fract_y
 _atom_site_fract_z
 _atom_site_occupancy
  Tb  Tb0  1  0.000000  0.675627  0.584966  1
  Tb  Tb1  1  0.000000  0.822813  0.086467  1
  Tb  Tb2  1  0.000000  0.177645  0.914457  1
  Yb  Yb3  1  0.000000  0.323642  0.413715  1
  Ho  Ho4  1  0.000000  0.944114  0.371204  1
  Ho  Ho5  1  0.000000  0.058154  0.627879  1
  Ho  Ho6  1  0.000000  0.442859  0.129847  1
  Ho  Ho7  1  0.000000  0.556119  0.871953  1
  B  B8  1  0.500000  0.553839  0.432217  1
  B  B9  1  0.500000  0.445405  0.567401  1
  B  B10  1  0.500000  0.053704  0.067173  1
  B  B11  1  0.500000  0.945641  0.932132  1
  B  B12  1  0.500000  0.748263  0.418891  1
  B  B13  1  0.500000  0.252172  0.580758  1
  B  B14  1  0.500000  0.247789  0.081041  1
  B  B15  1  0.500000  0.751558  0.919221  1
  B  B16  1  0.500000  0.791126  0.266409  1
  B  B17  1  0.500000  0.209918  0.733685  1
  B  B18  1  0.500000  0.289972  0.233836  1
  B  B19  1  0.500000  0.709416  0.766392  1
  B  B20  1  0.500000  0.631578  0.186074  1
  B  B21  1  0.500000  0.368672  0.814956  1
  B  B22  1  0.500000  0.131422  0.314243  1
  B  B23  1  0.500000  0.868784  0.685151  1
  B  B24  1  0.500000  0.983886  0.212227  1
  B  B25  1  0.500000  0.016256  0.786987  1
  B  B26  1  0.500000  0.483751  0.287827  1
  B  B27  1  0.500000  0.515943  0.712732  1
  B  B28  1  0.500000  0.607065  0.029858  1
  B  B29  1  0.500000  0.392984  0.970864  1
  B  B30  1  0.500000  0.104615  0.471003  1
  B  B31  1  0.500000  0.894975  0.528965  1
  Ru  Ru32  1  0.000000  0.639318  0.320488  1
  Ru  Ru33  1  0.000000  0.361838  0.680108  1
  Ru  Ru34  1  0.000000  0.137143  0.178163  1
  Ru  Ru35  1  0.000000  0.861996  0.820711  1
