# generated using pymatgen
data_Nd2Tm4Al24Os7Au
_symmetry_space_group_name_H-M   'P 1'
_cell_length_a   8.85739549
_cell_length_b   8.83061427
_cell_length_c   9.59586081
_cell_angle_alpha   90.04947905
_cell_angle_beta   89.89104275
_cell_angle_gamma   119.71996907
_symmetry_Int_Tables_number   1
_chemical_formula_structural   Nd2Tm4Al24Os7Au
_chemical_formula_sum   'Nd2 Tm4 Al24 Os7 Au1'
_cell_volume   651.82245181
_cell_formula_units_Z   1
loop_
 _symmetry_equiv_pos_site_id
 _symmetry_equiv_pos_as_xyz
  1  'x, y, z'
loop_
 _atom_site_type_symbol
 _atom_site_label
 _atom_site_symmetry_multiplicity
 _atom_site_fract_x
 _atom_site_fract_y
 _atom_site_fract_z
 _atom_site_occupancy
  Nd  Nd0  1  0.187623  0.380440  0.249651  1
  Nd  Nd1  1  0.812377  0.619560  0.750349  1
  Tm  Tm2  1  0.608852  0.808209  0.251694  1
  Tm  Tm3  1  0.391148  0.191791  0.748306  1
  Tm  Tm4  1  0.195933  0.804052  0.253500  1
  Tm  Tm5  1  0.804067  0.195948  0.746500  1
  Al  Al6  1  0.328586  0.671784  0.023788  1
  Al  Al7  1  0.671414  0.328216  0.976212  1
  Al  Al8  1  0.666888  0.333084  0.520475  1
  Al  Al9  1  0.333112  0.666916  0.479525  1
  Al  Al10  1  0.163548  0.326840  0.576456  1
  Al  Al11  1  0.836452  0.673160  0.423544  1
  Al  Al12  1  0.672087  0.837456  0.573574  1
  Al  Al13  1  0.849085  0.677437  0.081474  1
  Al  Al14  1  0.327913  0.162544  0.426426  1
  Al  Al15  1  0.150915  0.322563  0.918526  1
  Al  Al16  1  0.165484  0.837503  0.574693  1
  Al  Al17  1  0.323005  0.150164  0.078531  1
  Al  Al18  1  0.834516  0.162497  0.425307  1
  Al  Al19  1  0.676995  0.849836  0.921469  1
  Al  Al20  1  0.834053  0.162656  0.074254  1
  Al  Al21  1  0.165947  0.837344  0.925746  1
  Al  Al22  1  0.559791  0.121258  0.249343  1
  Al  Al23  1  0.440209  0.878742  0.750657  1
  Al  Al24  1  0.876299  0.439572  0.249459  1
  Al  Al25  1  0.123701  0.560428  0.750541  1
  Al  Al26  1  0.565534  0.436232  0.255609  1
  Al  Al27  1  0.434466  0.563768  0.744391  1
  Al  Al28  1  0.994033  0.992530  0.250260  1
  Al  Al29  1  0.005967  0.007470  0.749740  1
  Os  Os30  1  0.500000  0.000000  0.000000  1
  Os  Os31  1  0.000000  0.500000  0.000000  1
  Os  Os32  1  0.500000  0.000000  0.500000  1
  Os  Os33  1  0.000000  0.500000  0.500000  1
  Os  Os34  1  0.500000  0.500000  0.500000  1
  Os  Os35  1  0.000000  0.000000  0.000000  1
  Os  Os36  1  0.000000  0.000000  0.500000  1
  Au  Au37  1  0.500000  0.500000  0.000000  1
