# generated using pymatgen
data_Ta4Mn3NiP4
_symmetry_space_group_name_H-M   'P 1'
_cell_length_a   3.62507400
_cell_length_b   6.14237110
_cell_length_c   7.01525324
_cell_angle_alpha   89.43480491
_cell_angle_beta   90.00000000
_cell_angle_gamma   90.00000000
_symmetry_Int_Tables_number   1
_chemical_formula_structural   Ta4Mn3NiP4
_chemical_formula_sum   'Ta4 Mn3 Ni1 P4'
_cell_volume   156.19788552
_cell_formula_units_Z   1
loop_
 _symmetry_equiv_pos_site_id
 _symmetry_equiv_pos_as_xyz
  1  'x, y, z'
loop_
 _atom_site_type_symbol
 _atom_site_label
 _atom_site_symmetry_multiplicity
 _atom_site_fract_x
 _atom_site_fract_y
 _atom_site_fract_z
 _atom_site_occupancy
  Ta  Ta0  1  0.750000  0.975930  0.821523  1
  Ta  Ta1  1  0.250000  0.529442  0.326800  1
  Ta  Ta2  1  0.250000  0.022101  0.178374  1
  Ta  Ta3  1  0.750000  0.481147  0.672403  1
  Mn  Mn4  1  0.250000  0.637795  0.941837  1
  Mn  Mn5  1  0.750000  0.851672  0.436614  1
  Mn  Mn6  1  0.250000  0.144245  0.558532  1
  Ni  Ni7  1  0.750000  0.350825  0.066695  1
  P  P8  1  0.250000  0.780307  0.623135  1
  P  P9  1  0.750000  0.222645  0.384576  1
  P  P10  1  0.250000  0.275200  0.869949  1
  P  P11  1  0.750000  0.728691  0.119562  1
