# generated using pymatgen
data_Tm3NpS6
_symmetry_space_group_name_H-M   'P 1'
_cell_length_a   3.99420000
_cell_length_b   10.15273720
_cell_length_c   17.52643743
_cell_angle_alpha   82.05775159
_cell_angle_beta   90.00000000
_cell_angle_gamma   90.00000000
_symmetry_Int_Tables_number   1
_chemical_formula_structural   Tm3NpS6
_chemical_formula_sum   'Tm9 Np3 S18'
_cell_volume   703.91573083
_cell_formula_units_Z   3
loop_
 _symmetry_equiv_pos_site_id
 _symmetry_equiv_pos_as_xyz
  1  'x, y, z'
loop_
 _atom_site_type_symbol
 _atom_site_label
 _atom_site_symmetry_multiplicity
 _atom_site_fract_x
 _atom_site_fract_y
 _atom_site_fract_z
 _atom_site_occupancy
  Tm  Tm0  1  0.750000  0.190629  0.776495  1
  Tm  Tm1  1  0.250000  0.811118  0.521571  1
  Tm  Tm2  1  0.750000  0.187839  0.479129  1
  Tm  Tm3  1  0.250000  0.515046  0.900304  1
  Tm  Tm4  1  0.750000  0.487265  0.099385  1
  Tm  Tm5  1  0.250000  0.452329  0.614322  1
  Tm  Tm6  1  0.750000  0.544508  0.387534  1
  Tm  Tm7  1  0.250000  0.170380  0.282242  1
  Tm  Tm8  1  0.750000  0.830034  0.717348  1
  Np  Np9  1  0.250000  0.876141  0.926249  1
  Np  Np10  1  0.750000  0.125966  0.071364  1
  Np  Np11  1  0.250000  0.812903  0.221568  1
  S  S12  1  0.250000  0.996075  0.764073  1
  S  S13  1  0.750000  0.008067  0.233658  1
  S  S14  1  0.250000  0.942253  0.073777  1
  S  S15  1  0.750000  0.061047  0.921588  1
  S  S16  1  0.250000  0.725895  0.375601  1
  S  S17  1  0.750000  0.271538  0.625717  1
  S  S18  1  0.250000  0.682812  0.680378  1
  S  S19  1  0.750000  0.315664  0.321128  1
  S  S20  1  0.250000  0.630457  0.032951  1
  S  S21  1  0.750000  0.370223  0.968140  1
  S  S22  1  0.250000  0.383658  0.468248  1
  S  S23  1  0.750000  0.615552  0.532942  1
  S  S24  1  0.250000  0.363593  0.781635  1
  S  S25  1  0.750000  0.628921  0.221521  1
  S  S26  1  0.250000  0.293107  0.133896  1
  S  S27  1  0.750000  0.708016  0.866906  1
  S  S28  1  0.250000  0.047449  0.424226  1
  S  S29  1  0.750000  0.951518  0.576105  1
