# generated using pymatgen
data_Pr5ZnTe4
_symmetry_space_group_name_H-M   'P 1'
_cell_length_a   7.87658685
_cell_length_b   7.87658748
_cell_length_c   11.20674650
_cell_angle_alpha   60.96067034
_cell_angle_beta   60.96066869
_cell_angle_gamma   32.38338103
_symmetry_Int_Tables_number   1
_chemical_formula_structural   Pr5ZnTe4
_chemical_formula_sum   'Pr5 Zn1 Te4'
_cell_volume   321.30470993
_cell_formula_units_Z   1
loop_
 _symmetry_equiv_pos_site_id
 _symmetry_equiv_pos_as_xyz
  1  'x, y, z'
loop_
 _atom_site_type_symbol
 _atom_site_label
 _atom_site_symmetry_multiplicity
 _atom_site_fract_x
 _atom_site_fract_y
 _atom_site_fract_z
 _atom_site_occupancy
  Pr  Pr0  1  0.000000  0.000000  0.500000  1
  Pr  Pr1  1  0.593603  0.593603  0.096373  1
  Pr  Pr2  1  0.191869  0.191869  0.716704  1
  Pr  Pr3  1  0.808131  0.808131  0.283296  1
  Pr  Pr4  1  0.406397  0.406397  0.903627  1
  Zn  Zn5  1  0.000000  0.000000  0.000000  1
  Te  Te6  1  0.606638  0.606638  0.592158  1
  Te  Te7  1  0.196805  0.196805  0.196380  1
  Te  Te8  1  0.803195  0.803195  0.803620  1
  Te  Te9  1  0.393362  0.393362  0.407842  1
