# generated using pymatgen
data_MnF15
_symmetry_space_group_name_H-M   'P 1'
_cell_length_a   9.23325979
_cell_length_b   9.23325871
_cell_length_c   7.22547700
_cell_angle_alpha   90.00000000
_cell_angle_beta   90.00000000
_cell_angle_gamma   91.65501795
_symmetry_Int_Tables_number   1
_chemical_formula_structural   MnF15
_chemical_formula_sum   'Mn2 F30'
_cell_volume   615.73717589
_cell_formula_units_Z   2
loop_
 _symmetry_equiv_pos_site_id
 _symmetry_equiv_pos_as_xyz
  1  'x, y, z'
loop_
 _atom_site_type_symbol
 _atom_site_label
 _atom_site_symmetry_multiplicity
 _atom_site_fract_x
 _atom_site_fract_y
 _atom_site_fract_z
 _atom_site_occupancy
  Mn  Mn0  1  0.865968  0.134032  0.035214  1
  Mn  Mn1  1  0.134032  0.865968  0.535214  1
  F  F2  1  0.295985  0.282957  0.202445  1
  F  F3  1  0.282957  0.295985  0.702445  1
  F  F4  1  0.342468  0.657532  0.071897  1
  F  F5  1  0.657532  0.342468  0.571897  1
  F  F6  1  0.717043  0.704015  0.202445  1
  F  F7  1  0.704015  0.717043  0.702445  1
  F  F8  1  0.050743  0.138293  0.098623  1
  F  F9  1  0.138293  0.050743  0.598623  1
  F  F10  1  0.074931  0.402849  0.389782  1
  F  F11  1  0.402849  0.074931  0.889782  1
  F  F12  1  0.329190  0.432683  0.777162  1
  F  F13  1  0.432683  0.329190  0.277162  1
  F  F14  1  0.067107  0.572006  0.958315  1
  F  F15  1  0.572006  0.067107  0.458315  1
  F  F16  1  0.646601  0.353399  0.768014  1
  F  F17  1  0.353399  0.646601  0.268014  1
  F  F18  1  0.932893  0.427994  0.458315  1
  F  F19  1  0.427994  0.932893  0.958315  1
  F  F20  1  0.670810  0.567317  0.277162  1
  F  F21  1  0.567317  0.670810  0.777162  1
  F  F22  1  0.925069  0.597151  0.889782  1
  F  F23  1  0.597151  0.925069  0.389782  1
  F  F24  1  0.861707  0.949257  0.098623  1
  F  F25  1  0.949257  0.861707  0.598623  1
  F  F26  1  0.133393  0.678497  0.576928  1
  F  F27  1  0.678497  0.133393  0.076928  1
  F  F28  1  0.874173  0.125827  0.799727  1
  F  F29  1  0.125827  0.874173  0.299727  1
  F  F30  1  0.866607  0.321503  0.076928  1
  F  F31  1  0.321503  0.866607  0.576928  1
