# generated using pymatgen
data_Ho15Tm5(Sn3Pb5)2
_symmetry_space_group_name_H-M   'P 1'
_cell_length_a   8.09718104
_cell_length_b   15.49118501
_cell_length_c   8.17173205
_cell_angle_alpha   90.00420416
_cell_angle_beta   90.01191772
_cell_angle_gamma   90.00158010
_symmetry_Int_Tables_number   1
_chemical_formula_structural   Ho15Tm5(Sn3Pb5)2
_chemical_formula_sum   'Ho15 Tm5 Sn6 Pb10'
_cell_volume   1025.02060934
_cell_formula_units_Z   1
loop_
 _symmetry_equiv_pos_site_id
 _symmetry_equiv_pos_as_xyz
  1  'x, y, z'
loop_
 _atom_site_type_symbol
 _atom_site_label
 _atom_site_symmetry_multiplicity
 _atom_site_fract_x
 _atom_site_fract_y
 _atom_site_fract_z
 _atom_site_occupancy
  Ho  Ho0  1  0.122206  0.876802  0.340065  1
  Ho  Ho1  1  0.377629  0.122177  0.838700  1
  Ho  Ho2  1  0.877618  0.377869  0.661304  1
  Ho  Ho3  1  0.377606  0.377799  0.838626  1
  Ho  Ho4  1  0.877639  0.122180  0.661326  1
  Ho  Ho5  1  0.622172  0.876773  0.159946  1
  Ho  Ho6  1  0.122144  0.623166  0.340096  1
  Ho  Ho7  1  0.465412  0.603281  0.676511  1
  Ho  Ho8  1  0.965395  0.896700  0.823575  1
  Ho  Ho9  1  0.534297  0.100405  0.325188  1
  Ho  Ho10  1  0.034338  0.399570  0.174868  1
  Ho  Ho11  1  0.534337  0.399680  0.325141  1
  Ho  Ho12  1  0.034305  0.100410  0.174812  1
  Ho  Ho13  1  0.465422  0.896696  0.676447  1
  Ho  Ho14  1  0.965350  0.603312  0.823605  1
  Tm  Tm15  1  0.622239  0.623298  0.159867  1
  Tm  Tm16  1  0.790405  0.749932  0.496495  1
  Tm  Tm17  1  0.290608  0.749942  0.003414  1
  Tm  Tm18  1  0.210062  0.249987  0.507069  1
  Tm  Tm19  1  0.710060  0.249995  0.992939  1
  Sn  Sn20  1  0.426124  0.749891  0.375948  1
  Sn  Sn21  1  0.925714  0.749909  0.123889  1
  Sn  Sn22  1  0.573419  0.249996  0.625107  1
  Sn  Sn23  1  0.073394  0.250003  0.874904  1
  Sn  Sn24  1  0.657201  0.749918  0.851201  1
  Sn  Sn25  1  0.157217  0.749999  0.649015  1
  Pb  Pb26  1  0.717608  0.458263  0.966932  1
  Pb  Pb27  1  0.217720  0.041942  0.533301  1
  Pb  Pb28  1  0.282053  0.957800  0.033580  1
  Pb  Pb29  1  0.781849  0.542260  0.466041  1
  Pb  Pb30  1  0.282426  0.542255  0.033664  1
  Pb  Pb31  1  0.782065  0.957801  0.466405  1
  Pb  Pb32  1  0.717730  0.041948  0.966694  1
  Pb  Pb33  1  0.217746  0.458048  0.533302  1
  Pb  Pb34  1  0.344227  0.249997  0.151541  1
  Pb  Pb35  1  0.844263  0.249994  0.348479  1
