# generated using pymatgen
data_Pr5Hf3(P3Ir4)4
_symmetry_space_group_name_H-M   'P 1'
_cell_length_a   12.95949200
_cell_length_b   12.95949175
_cell_length_c   4.03675000
_cell_angle_alpha   90.00000000
_cell_angle_beta   90.00000000
_cell_angle_gamma   120.00000065
_symmetry_Int_Tables_number   1
_chemical_formula_structural   Pr5Hf3(P3Ir4)4
_chemical_formula_sum   'Pr5 Hf3 P12 Ir16'
_cell_volume   587.13562202
_cell_formula_units_Z   1
loop_
 _symmetry_equiv_pos_site_id
 _symmetry_equiv_pos_as_xyz
  1  'x, y, z'
loop_
 _atom_site_type_symbol
 _atom_site_label
 _atom_site_symmetry_multiplicity
 _atom_site_fract_x
 _atom_site_fract_y
 _atom_site_fract_z
 _atom_site_occupancy
  Pr  Pr0  1  0.333333  0.666667  0.000000  1
  Pr  Pr1  1  0.666667  0.333333  0.000000  1
  Pr  Pr2  1  0.814171  0.000000  0.500000  1
  Pr  Pr3  1  0.000000  0.814171  0.500000  1
  Pr  Pr4  1  0.185829  0.185829  0.500000  1
  Hf  Hf5  1  0.447923  0.000000  0.000000  1
  Hf  Hf6  1  0.000000  0.447923  0.000000  1
  Hf  Hf7  1  0.552077  0.552077  0.000000  1
  P  P8  1  0.177446  0.000000  0.000000  1
  P  P9  1  0.000000  0.177446  0.000000  1
  P  P10  1  0.822554  0.822554  0.000000  1
  P  P11  1  0.168064  0.481285  0.500000  1
  P  P12  1  0.518715  0.686777  0.500000  1
  P  P13  1  0.313223  0.831936  0.500000  1
  P  P14  1  0.686777  0.518715  0.500000  1
  P  P15  1  0.831936  0.313223  0.500000  1
  P  P16  1  0.481285  0.168064  0.500000  1
  P  P17  1  0.646198  0.000000  0.000000  1
  P  P18  1  0.000000  0.646198  0.000000  1
  P  P19  1  0.353802  0.353802  0.000000  1
  Ir  Ir20  1  0.357964  0.490070  0.500000  1
  Ir  Ir21  1  0.509930  0.867894  0.500000  1
  Ir  Ir22  1  0.132106  0.642036  0.500000  1
  Ir  Ir23  1  0.867894  0.509930  0.500000  1
  Ir  Ir24  1  0.642036  0.132106  0.500000  1
  Ir  Ir25  1  0.490070  0.357964  0.500000  1
  Ir  Ir26  1  0.177148  0.374199  0.000000  1
  Ir  Ir27  1  0.625801  0.802951  0.000000  1
  Ir  Ir28  1  0.197049  0.822852  0.000000  1
  Ir  Ir29  1  0.802951  0.625801  0.000000  1
  Ir  Ir30  1  0.822852  0.197049  0.000000  1
  Ir  Ir31  1  0.374199  0.177148  0.000000  1
  Ir  Ir32  1  0.283920  0.000000  0.500000  1
  Ir  Ir33  1  0.000000  0.283920  0.500000  1
  Ir  Ir34  1  0.716080  0.716080  0.500000  1
  Ir  Ir35  1  0.000000  0.000000  0.000000  1
