# generated using pymatgen
data_Zr4Sn2IrRh9
_symmetry_space_group_name_H-M   'P 1'
_cell_length_a   5.68265601
_cell_length_b   5.68265512
_cell_length_c   8.25061700
_cell_angle_alpha   90.00000000
_cell_angle_beta   90.00000000
_cell_angle_gamma   96.77814465
_symmetry_Int_Tables_number   1
_chemical_formula_structural   Zr4Sn2IrRh9
_chemical_formula_sum   'Zr4 Sn2 Ir1 Rh9'
_cell_volume   264.57145107
_cell_formula_units_Z   1
loop_
 _symmetry_equiv_pos_site_id
 _symmetry_equiv_pos_as_xyz
  1  'x, y, z'
loop_
 _atom_site_type_symbol
 _atom_site_label
 _atom_site_symmetry_multiplicity
 _atom_site_fract_x
 _atom_site_fract_y
 _atom_site_fract_z
 _atom_site_occupancy
  Zr  Zr0  1  0.782899  0.217121  0.500788  1
  Zr  Zr1  1  0.217121  0.782899  0.999212  1
  Zr  Zr2  1  0.217121  0.782899  0.500788  1
  Zr  Zr3  1  0.782899  0.217121  0.999212  1
  Sn  Sn4  1  0.502051  0.502051  0.750000  1
  Sn  Sn5  1  0.497968  0.497968  0.250000  1
  Ir  Ir6  1  0.000285  0.000285  0.250000  1
  Rh  Rh7  1  0.729813  0.729813  0.002084  1
  Rh  Rh8  1  0.729813  0.729813  0.497916  1
  Rh  Rh9  1  0.270181  0.270181  0.999967  1
  Rh  Rh10  1  0.270181  0.270181  0.500033  1
  Rh  Rh11  1  0.500020  0.000534  0.750000  1
  Rh  Rh12  1  0.499931  0.999487  0.250000  1
  Rh  Rh13  1  0.999698  0.999698  0.750000  1
  Rh  Rh14  1  0.000534  0.500020  0.750000  1
  Rh  Rh15  1  0.999487  0.499931  0.250000  1
