# generated using pymatgen
data_Pr3NdHo2(RuI3)2
_symmetry_space_group_name_H-M   'P 1'
_cell_length_a   4.33978300
_cell_length_b   9.03784171
_cell_length_c   12.56975850
_cell_angle_alpha   85.37559897
_cell_angle_beta   90.00000000
_cell_angle_gamma   90.00000000
_symmetry_Int_Tables_number   1
_chemical_formula_structural   Pr3NdHo2(RuI3)2
_chemical_formula_sum   'Pr3 Nd1 Ho2 Ru2 I6'
_cell_volume   491.40954137
_cell_formula_units_Z   1
loop_
 _symmetry_equiv_pos_site_id
 _symmetry_equiv_pos_as_xyz
  1  'x, y, z'
loop_
 _atom_site_type_symbol
 _atom_site_label
 _atom_site_symmetry_multiplicity
 _atom_site_fract_x
 _atom_site_fract_y
 _atom_site_fract_z
 _atom_site_occupancy
  Pr  Pr0  1  0.750000  0.094014  0.680319  1
  Pr  Pr1  1  0.250000  0.903240  0.319434  1
  Pr  Pr2  1  0.250000  0.273241  0.900126  1
  Nd  Nd3  1  0.750000  0.729757  0.100060  1
  Ho  Ho4  1  0.750000  0.122032  0.120581  1
  Ho  Ho5  1  0.250000  0.878662  0.880522  1
  Ru  Ru6  1  0.750000  0.055157  0.907588  1
  Ru  Ru7  1  0.250000  0.945763  0.092998  1
  I  I8  1  0.250000  0.355564  0.637918  1
  I  I9  1  0.750000  0.641029  0.359329  1
  I  I10  1  0.750000  0.151674  0.385797  1
  I  I11  1  0.250000  0.845146  0.613858  1
  I  I12  1  0.250000  0.421071  0.135303  1
  I  I13  1  0.750000  0.583653  0.866168  1
