# generated using pymatgen
data_Be15Nb6(FeCu3)2
_symmetry_space_group_name_H-M   'P 1'
_cell_length_a   7.67735755
_cell_length_b   7.67735764
_cell_length_c   7.67735744
_cell_angle_alpha   59.61056877
_cell_angle_beta   59.61056885
_cell_angle_gamma   59.61056944
_symmetry_Int_Tables_number   1
_chemical_formula_structural   Be15Nb6(FeCu3)2
_chemical_formula_sum   'Be15 Nb6 Fe2 Cu6'
_cell_volume   317.14609067
_cell_formula_units_Z   1
loop_
 _symmetry_equiv_pos_site_id
 _symmetry_equiv_pos_as_xyz
  1  'x, y, z'
loop_
 _atom_site_type_symbol
 _atom_site_label
 _atom_site_symmetry_multiplicity
 _atom_site_fract_x
 _atom_site_fract_y
 _atom_site_fract_z
 _atom_site_occupancy
  Be  Be0  1  0.327631  0.327631  0.327631  1
  Be  Be1  1  0.672369  0.672369  0.672369  1
  Be  Be2  1  0.322661  0.322661  0.024361  1
  Be  Be3  1  0.322661  0.024361  0.322661  1
  Be  Be4  1  0.677339  0.677339  0.975639  1
  Be  Be5  1  0.677339  0.975639  0.677339  1
  Be  Be6  1  0.024361  0.322661  0.322661  1
  Be  Be7  1  0.975639  0.677339  0.677339  1
  Be  Be8  1  0.500000  0.000000  0.000000  1
  Be  Be9  1  0.000000  0.500000  0.500000  1
  Be  Be10  1  0.000000  0.500000  0.000000  1
  Be  Be11  1  0.500000  0.000000  0.500000  1
  Be  Be12  1  0.000000  0.000000  0.500000  1
  Be  Be13  1  0.500000  0.500000  0.000000  1
  Be  Be14  1  0.000000  0.000000  0.000000  1
  Nb  Nb15  1  0.709951  0.300543  0.300543  1
  Nb  Nb16  1  0.290049  0.699457  0.699457  1
  Nb  Nb17  1  0.300543  0.709951  0.300543  1
  Nb  Nb18  1  0.699457  0.290049  0.699457  1
  Nb  Nb19  1  0.300543  0.300543  0.709951  1
  Nb  Nb20  1  0.699457  0.699457  0.290049  1
  Fe  Fe21  1  0.122242  0.122242  0.122242  1
  Fe  Fe22  1  0.877758  0.877758  0.877758  1
  Cu  Cu23  1  0.123428  0.123428  0.632337  1
  Cu  Cu24  1  0.123428  0.632337  0.123428  1
  Cu  Cu25  1  0.876572  0.876572  0.367663  1
  Cu  Cu26  1  0.876572  0.367663  0.876572  1
  Cu  Cu27  1  0.632337  0.123428  0.123428  1
  Cu  Cu28  1  0.367663  0.876572  0.876572  1
