# generated using pymatgen
data_LaPrRh2O7
_symmetry_space_group_name_H-M   'P 1'
_cell_length_a   7.43908032
_cell_length_b   7.43908055
_cell_length_c   7.44501400
_cell_angle_alpha   59.97360302
_cell_angle_beta   59.97360200
_cell_angle_gamma   59.97544019
_symmetry_Int_Tables_number   1
_chemical_formula_structural   LaPrRh2O7
_chemical_formula_sum   'La2 Pr2 Rh4 O14'
_cell_volume   291.16221991
_cell_formula_units_Z   2
loop_
 _symmetry_equiv_pos_site_id
 _symmetry_equiv_pos_as_xyz
  1  'x, y, z'
loop_
 _atom_site_type_symbol
 _atom_site_label
 _atom_site_symmetry_multiplicity
 _atom_site_fract_x
 _atom_site_fract_y
 _atom_site_fract_z
 _atom_site_occupancy
  La  La0  1  0.125000  0.625000  0.125000  1
  La  La1  1  0.625000  0.125000  0.125000  1
  Pr  Pr2  1  0.125000  0.125000  0.125000  1
  Pr  Pr3  1  0.125000  0.125000  0.625000  1
  Rh  Rh4  1  0.625000  0.625000  0.625000  1
  Rh  Rh5  1  0.625000  0.625000  0.125000  1
  Rh  Rh6  1  0.125000  0.625000  0.625000  1
  Rh  Rh7  1  0.625000  0.125000  0.625000  1
  O  O8  1  0.250924  0.250924  0.249076  1
  O  O9  1  0.294463  0.707959  0.295005  1
  O  O10  1  0.955867  0.955867  0.544133  1
  O  O11  1  0.542041  0.955537  0.547427  1
  O  O12  1  0.704283  0.704283  0.295717  1
  O  O13  1  0.955537  0.542041  0.547427  1
  O  O14  1  0.707959  0.294463  0.702573  1
  O  O15  1  0.294133  0.294133  0.705867  1
  O  O16  1  0.707959  0.294463  0.295005  1
  O  O17  1  0.294463  0.707959  0.702573  1
  O  O18  1  0.955537  0.542041  0.954995  1
  O  O19  1  0.545717  0.545717  0.954283  1
  O  O20  1  0.999076  0.999076  0.000924  1
  O  O21  1  0.542041  0.955537  0.954995  1
