# generated using pymatgen
data_Li8Nd5Sm3SnSb7
_symmetry_space_group_name_H-M   'P 1'
_cell_length_a   9.55711300
_cell_length_b   9.55711392
_cell_length_c   7.37160900
_cell_angle_alpha   90.00000000
_cell_angle_beta   90.00000000
_cell_angle_gamma   119.99999334
_symmetry_Int_Tables_number   1
_chemical_formula_structural   Li8Nd5Sm3SnSb7
_chemical_formula_sum   'Li8 Nd5 Sm3 Sn1 Sb7'
_cell_volume   583.10455821
_cell_formula_units_Z   1
loop_
 _symmetry_equiv_pos_site_id
 _symmetry_equiv_pos_as_xyz
  1  'x, y, z'
loop_
 _atom_site_type_symbol
 _atom_site_label
 _atom_site_symmetry_multiplicity
 _atom_site_fract_x
 _atom_site_fract_y
 _atom_site_fract_z
 _atom_site_occupancy
  Li  Li0  1  0.167072  0.334146  0.268874  1
  Li  Li1  1  0.167072  0.832928  0.268874  1
  Li  Li2  1  0.665854  0.832928  0.268874  1
  Li  Li3  1  0.832978  0.665956  0.768070  1
  Li  Li4  1  0.832978  0.167022  0.768070  1
  Li  Li5  1  0.334044  0.167022  0.768070  1
  Li  Li6  1  0.333333  0.666667  0.692650  1
  Li  Li7  1  0.666667  0.333333  0.197099  1
  Nd  Nd8  1  0.493260  0.986518  0.994504  1
  Nd  Nd9  1  0.493260  0.506740  0.994504  1
  Nd  Nd10  1  0.013482  0.506740  0.994504  1
  Nd  Nd11  1  0.000000  0.000000  0.502058  1
  Nd  Nd12  1  0.000000  0.000000  0.000623  1
  Sm  Sm13  1  0.508509  0.017019  0.496616  1
  Sm  Sm14  1  0.508509  0.491491  0.496616  1
  Sm  Sm15  1  0.982981  0.491491  0.496616  1
  Sn  Sn16  1  0.666667  0.333333  0.756170  1
  Sb  Sb17  1  0.167297  0.334594  0.738473  1
  Sb  Sb18  1  0.167297  0.832703  0.738473  1
  Sb  Sb19  1  0.665406  0.832703  0.738473  1
  Sb  Sb20  1  0.832755  0.665510  0.243521  1
  Sb  Sb21  1  0.832755  0.167245  0.243521  1
  Sb  Sb22  1  0.334490  0.167245  0.243521  1
  Sb  Sb23  1  0.333333  0.666667  0.263198  1
