# generated using pymatgen
data_La2Cl5
_symmetry_space_group_name_H-M   'P 1'
_cell_length_a   4.18560800
_cell_length_b   7.47570583
_cell_length_c   13.00337845
_cell_angle_alpha   88.62456122
_cell_angle_beta   90.00000000
_cell_angle_gamma   90.00000000
_symmetry_Int_Tables_number   1
_chemical_formula_structural   La2Cl5
_chemical_formula_sum   'La4 Cl10'
_cell_volume   406.76334253
_cell_formula_units_Z   2
loop_
 _symmetry_equiv_pos_site_id
 _symmetry_equiv_pos_as_xyz
  1  'x, y, z'
loop_
 _atom_site_type_symbol
 _atom_site_label
 _atom_site_symmetry_multiplicity
 _atom_site_fract_x
 _atom_site_fract_y
 _atom_site_fract_z
 _atom_site_occupancy
  La  La0  1  0.750000  0.567950  0.660758  1
  La  La1  1  0.250000  0.432050  0.339242  1
  La  La2  1  0.250000  0.937722  0.837961  1
  La  La3  1  0.750000  0.062278  0.162039  1
  Cl  Cl4  1  0.750000  0.952369  0.680211  1
  Cl  Cl5  1  0.250000  0.853750  0.065854  1
  Cl  Cl6  1  0.250000  0.680280  0.517664  1
  Cl  Cl7  1  0.750000  0.664294  0.875229  1
  Cl  Cl8  1  0.750000  0.673387  0.268699  1
  Cl  Cl9  1  0.250000  0.326613  0.731301  1
  Cl  Cl10  1  0.250000  0.335706  0.124771  1
  Cl  Cl11  1  0.750000  0.319720  0.482336  1
  Cl  Cl12  1  0.750000  0.146250  0.934146  1
  Cl  Cl13  1  0.250000  0.047631  0.319789  1
