# generated using pymatgen
data_Yb2ZnCuRu2
_symmetry_space_group_name_H-M   'P 1'
_cell_length_a   5.31495814
_cell_length_b   5.34190682
_cell_length_c   5.34190772
_cell_angle_alpha   57.03821093
_cell_angle_beta   59.08340801
_cell_angle_gamma   59.08340569
_symmetry_Int_Tables_number   1
_chemical_formula_structural   Yb2ZnCuRu2
_chemical_formula_sum   'Yb2 Zn1 Cu1 Ru2'
_cell_volume   103.23085237
_cell_formula_units_Z   1
loop_
 _symmetry_equiv_pos_site_id
 _symmetry_equiv_pos_as_xyz
  1  'x, y, z'
loop_
 _atom_site_type_symbol
 _atom_site_label
 _atom_site_symmetry_multiplicity
 _atom_site_fract_x
 _atom_site_fract_y
 _atom_site_fract_z
 _atom_site_occupancy
  Yb  Yb0  1  0.134037  0.118016  0.118016  1
  Yb  Yb1  1  0.865963  0.881984  0.881984  1
  Zn  Zn2  1  0.000000  0.500000  0.500000  1
  Cu  Cu3  1  0.500000  0.500000  0.500000  1
  Ru  Ru4  1  0.500000  0.000000  0.500000  1
  Ru  Ru5  1  0.500000  0.500000  0.000000  1
