# generated using pymatgen
data_Ho3LuSc3AlPt4
_symmetry_space_group_name_H-M   'P 1'
_cell_length_a   4.50133400
_cell_length_b   6.98737329
_cell_length_c   8.26267807
_cell_angle_alpha   86.85548266
_cell_angle_beta   90.00000000
_cell_angle_gamma   90.00000000
_symmetry_Int_Tables_number   1
_chemical_formula_structural   Ho3LuSc3AlPt4
_chemical_formula_sum   'Ho3 Lu1 Sc3 Al1 Pt4'
_cell_volume   259.49059903
_cell_formula_units_Z   1
loop_
 _symmetry_equiv_pos_site_id
 _symmetry_equiv_pos_as_xyz
  1  'x, y, z'
loop_
 _atom_site_type_symbol
 _atom_site_label
 _atom_site_symmetry_multiplicity
 _atom_site_fract_x
 _atom_site_fract_y
 _atom_site_fract_z
 _atom_site_occupancy
  Ho  Ho0  1  0.250000  0.040500  0.671959  1
  Ho  Ho1  1  0.250000  0.519836  0.815034  1
  Ho  Ho2  1  0.750000  0.990594  0.340781  1
  Lu  Lu3  1  0.750000  0.466604  0.182616  1
  Sc  Sc4  1  0.250000  0.132724  0.071057  1
  Sc  Sc5  1  0.250000  0.642081  0.433895  1
  Sc  Sc6  1  0.750000  0.859671  0.930650  1
  Al  Al7  1  0.750000  0.362747  0.566483  1
  Pt  Pt8  1  0.250000  0.265968  0.382618  1
  Pt  Pt9  1  0.250000  0.740689  0.101734  1
  Pt  Pt10  1  0.750000  0.733292  0.615714  1
  Pt  Pt11  1  0.750000  0.245298  0.887459  1
