# generated using pymatgen
data_AlV6Zn3N2
_symmetry_space_group_name_H-M   'P 1'
_cell_length_a   6.58618322
_cell_length_b   6.58789822
_cell_length_c   6.58701700
_cell_angle_alpha   90.00000000
_cell_angle_beta   90.00000000
_cell_angle_gamma   90.02938272
_symmetry_Int_Tables_number   1
_chemical_formula_structural   AlV6Zn3N2
_chemical_formula_sum   'Al2 V12 Zn6 N4'
_cell_volume   285.80473247
_cell_formula_units_Z   2
loop_
 _symmetry_equiv_pos_site_id
 _symmetry_equiv_pos_as_xyz
  1  'x, y, z'
loop_
 _atom_site_type_symbol
 _atom_site_label
 _atom_site_symmetry_multiplicity
 _atom_site_fract_x
 _atom_site_fract_y
 _atom_site_fract_z
 _atom_site_occupancy
  Al  Al0  1  0.176340  0.822372  0.323524  1
  Al  Al1  1  0.323660  0.177628  0.823524  1
  V  V2  1  0.789835  0.961128  0.374868  1
  V  V3  1  0.710165  0.038872  0.874868  1
  V  V4  1  0.211416  0.461925  0.123900  1
  V  V5  1  0.288584  0.538075  0.623900  1
  V  V6  1  0.962073  0.373471  0.789358  1
  V  V7  1  0.038582  0.877307  0.710891  1
  V  V8  1  0.461418  0.122693  0.210891  1
  V  V9  1  0.537927  0.626529  0.289358  1
  V  V10  1  0.374023  0.789247  0.962503  1
  V  V11  1  0.876954  0.711213  0.039058  1
  V  V12  1  0.125977  0.210753  0.462503  1
  V  V13  1  0.623046  0.288787  0.539058  1
  Zn  Zn14  1  0.821445  0.322666  0.178378  1
  Zn  Zn15  1  0.678555  0.677334  0.678378  1
  Zn  Zn16  1  0.574593  0.430010  0.928510  1
  Zn  Zn17  1  0.430739  0.926297  0.572482  1
  Zn  Zn18  1  0.925407  0.569990  0.428510  1
  Zn  Zn19  1  0.069261  0.073703  0.072482  1
  N  N20  1  0.872331  0.126499  0.624253  1
  N  N21  1  0.627669  0.873501  0.124253  1
  N  N22  1  0.124263  0.625436  0.872276  1
  N  N23  1  0.375737  0.374564  0.372276  1
