# generated using pymatgen
data_CaSb14
_symmetry_space_group_name_H-M   'P 1'
_cell_length_a   4.52678676
_cell_length_b   4.52678736
_cell_length_c   28.03583000
_cell_angle_alpha   93.98814035
_cell_angle_beta   93.98814088
_cell_angle_gamma   56.62439204
_symmetry_Int_Tables_number   1
_chemical_formula_structural   CaSb14
_chemical_formula_sum   'Ca1 Sb14'
_cell_volume   478.25913289
_cell_formula_units_Z   1
loop_
 _symmetry_equiv_pos_site_id
 _symmetry_equiv_pos_as_xyz
  1  'x, y, z'
loop_
 _atom_site_type_symbol
 _atom_site_label
 _atom_site_symmetry_multiplicity
 _atom_site_fract_x
 _atom_site_fract_y
 _atom_site_fract_z
 _atom_site_occupancy
  Ca  Ca0  1  0.000000  0.000000  0.800000  1
  Sb  Sb1  1  0.613659  0.613659  0.068892  1
  Sb  Sb2  1  0.688809  0.688809  0.266706  1
  Sb  Sb3  1  0.660486  0.660486  0.465356  1
  Sb  Sb4  1  0.725599  0.725599  0.662887  1
  Sb  Sb5  1  0.681694  0.681694  0.870581  1
  Sb  Sb6  1  0.339514  0.339514  0.134644  1
  Sb  Sb7  1  0.311191  0.311191  0.333294  1
  Sb  Sb8  1  0.386341  0.386341  0.531108  1
  Sb  Sb9  1  0.318306  0.318306  0.729419  1
  Sb  Sb10  1  0.274401  0.274401  0.937113  1
  Sb  Sb11  1  0.993717  0.993717  0.002715  1
  Sb  Sb12  1  0.962548  0.962548  0.201040  1
  Sb  Sb13  1  0.037452  0.037452  0.398960  1
  Sb  Sb14  1  0.006283  0.006283  0.597285  1
