# generated using pymatgen
data_La7Y13Sn16
_symmetry_space_group_name_H-M   'P 1'
_cell_length_a   8.18332833
_cell_length_b   8.34969632
_cell_length_c   15.76044130
_cell_angle_alpha   90.02638367
_cell_angle_beta   90.27042998
_cell_angle_gamma   89.68875745
_symmetry_Int_Tables_number   1
_chemical_formula_structural   La7Y13Sn16
_chemical_formula_sum   'La7 Y13 Sn16'
_cell_volume   1076.85627751
_cell_formula_units_Z   1
loop_
 _symmetry_equiv_pos_site_id
 _symmetry_equiv_pos_as_xyz
  1  'x, y, z'
loop_
 _atom_site_type_symbol
 _atom_site_label
 _atom_site_symmetry_multiplicity
 _atom_site_fract_x
 _atom_site_fract_y
 _atom_site_fract_z
 _atom_site_occupancy
  La  La0  1  0.014057  0.179294  0.598261  1
  La  La1  1  0.486573  0.678359  0.404021  1
  La  La2  1  0.986274  0.820841  0.095445  1
  La  La3  1  0.484863  0.677204  0.095500  1
  La  La4  1  0.986610  0.821797  0.403969  1
  La  La5  1  0.512701  0.322412  0.595995  1
  La  La6  1  0.013940  0.180071  0.903356  1
  Y  Y7  1  0.360056  0.835929  0.876467  1
  Y  Y8  1  0.857994  0.663599  0.623786  1
  Y  Y9  1  0.641543  0.164052  0.376638  1
  Y  Y10  1  0.138592  0.337171  0.121258  1
  Y  Y11  1  0.638896  0.164071  0.122425  1
  Y  Y12  1  0.141331  0.336025  0.377275  1
  Y  Y13  1  0.358637  0.836799  0.625198  1
  Y  Y14  1  0.860616  0.662017  0.878074  1
  Y  Y15  1  0.519083  0.321659  0.901216  1
  Y  Y16  1  0.194838  0.501350  0.751433  1
  Y  Y17  1  0.693179  0.997772  0.751147  1
  Y  Y18  1  0.805089  0.497634  0.249368  1
  Y  Y19  1  0.306147  0.003007  0.249602  1
  Sn  Sn20  1  0.306141  0.041414  0.041316  1
  Sn  Sn21  1  0.806212  0.458738  0.457697  1
  Sn  Sn22  1  0.693349  0.959797  0.543176  1
  Sn  Sn23  1  0.204236  0.535446  0.955466  1
  Sn  Sn24  1  0.692615  0.962615  0.956751  1
  Sn  Sn25  1  0.193120  0.542493  0.542955  1
  Sn  Sn26  1  0.306932  0.040580  0.458293  1
  Sn  Sn27  1  0.797816  0.455995  0.039916  1
  Sn  Sn28  1  0.559426  0.622712  0.750838  1
  Sn  Sn29  1  0.057889  0.874631  0.750901  1
  Sn  Sn30  1  0.439973  0.375510  0.249504  1
  Sn  Sn31  1  0.941102  0.125738  0.249102  1
  Sn  Sn32  1  0.327287  0.144628  0.752859  1
  Sn  Sn33  1  0.819646  0.359566  0.751225  1
  Sn  Sn34  1  0.676662  0.858926  0.249731  1
  Sn  Sn35  1  0.176576  0.640148  0.249838  1
