# generated using pymatgen
data_SmDy(Lu2Rh9)2
_symmetry_space_group_name_H-M   'P 1'
_cell_length_a   5.23957700
_cell_length_b   5.23957830
_cell_length_c   17.48936100
_cell_angle_alpha   90.00000000
_cell_angle_beta   90.00000000
_cell_angle_gamma   119.99999810
_symmetry_Int_Tables_number   1
_chemical_formula_structural   SmDy(Lu2Rh9)2
_chemical_formula_sum   'Sm1 Dy1 Lu4 Rh18'
_cell_volume   415.81212017
_cell_formula_units_Z   1
loop_
 _symmetry_equiv_pos_site_id
 _symmetry_equiv_pos_as_xyz
  1  'x, y, z'
loop_
 _atom_site_type_symbol
 _atom_site_label
 _atom_site_symmetry_multiplicity
 _atom_site_fract_x
 _atom_site_fract_y
 _atom_site_fract_z
 _atom_site_occupancy
  Sm  Sm0  1  0.666667  0.333333  0.250000  1
  Dy  Dy1  1  0.333333  0.666667  0.750000  1
  Lu  Lu2  1  0.333333  0.666667  0.958596  1
  Lu  Lu3  1  0.666667  0.333333  0.040774  1
  Lu  Lu4  1  0.666667  0.333333  0.459226  1
  Lu  Lu5  1  0.333333  0.666667  0.541404  1
  Rh  Rh6  1  0.167616  0.832384  0.375878  1
  Rh  Rh7  1  0.167616  0.335232  0.375878  1
  Rh  Rh8  1  0.664768  0.832384  0.375878  1
  Rh  Rh9  1  0.832354  0.167646  0.624669  1
  Rh  Rh10  1  0.832354  0.664708  0.624669  1
  Rh  Rh11  1  0.335292  0.167646  0.624669  1
  Rh  Rh12  1  0.832354  0.167646  0.875331  1
  Rh  Rh13  1  0.832354  0.664708  0.875331  1
  Rh  Rh14  1  0.335292  0.167646  0.875331  1
  Rh  Rh15  1  0.167616  0.832384  0.124122  1
  Rh  Rh16  1  0.167616  0.335232  0.124122  1
  Rh  Rh17  1  0.664768  0.832384  0.124122  1
  Rh  Rh18  1  0.333333  0.666667  0.250000  1
  Rh  Rh19  1  0.666667  0.333333  0.750000  1
  Rh  Rh20  1  0.000000  0.000000  0.250000  1
  Rh  Rh21  1  0.000000  0.000000  0.750000  1
  Rh  Rh22  1  0.000000  0.000000  0.500211  1
  Rh  Rh23  1  0.000000  0.000000  0.999789  1
