# generated using pymatgen
data_Tb2Tm2ScSi4
_symmetry_space_group_name_H-M   'P 1'
_cell_length_a   7.23909400
_cell_length_b   7.60483000
_cell_length_c   14.35326300
_cell_angle_alpha   90.00000000
_cell_angle_beta   90.00000000
_cell_angle_gamma   90.00000000
_symmetry_Int_Tables_number   1
_chemical_formula_structural   Tb2Tm2ScSi4
_chemical_formula_sum   'Tb8 Tm8 Sc4 Si16'
_cell_volume   790.17697180
_cell_formula_units_Z   4
loop_
 _symmetry_equiv_pos_site_id
 _symmetry_equiv_pos_as_xyz
  1  'x, y, z'
loop_
 _atom_site_type_symbol
 _atom_site_label
 _atom_site_symmetry_multiplicity
 _atom_site_fract_x
 _atom_site_fract_y
 _atom_site_fract_z
 _atom_site_occupancy
  Tb  Tb0  1  0.017467  0.180900  0.097485  1
  Tb  Tb1  1  0.982533  0.819100  0.902515  1
  Tb  Tb2  1  0.482533  0.680900  0.902515  1
  Tb  Tb3  1  0.982533  0.819100  0.597485  1
  Tb  Tb4  1  0.517467  0.319100  0.097485  1
  Tb  Tb5  1  0.017467  0.180900  0.402515  1
  Tb  Tb6  1  0.517467  0.319100  0.402515  1
  Tb  Tb7  1  0.482533  0.680900  0.597485  1
  Tm  Tm8  1  0.323773  0.177730  0.625692  1
  Tm  Tm9  1  0.676227  0.822270  0.374308  1
  Tm  Tm10  1  0.176227  0.677730  0.374308  1
  Tm  Tm11  1  0.676227  0.822270  0.125692  1
  Tm  Tm12  1  0.823773  0.322270  0.625692  1
  Tm  Tm13  1  0.323773  0.177730  0.874308  1
  Tm  Tm14  1  0.823773  0.322270  0.874308  1
  Tm  Tm15  1  0.176227  0.677730  0.125692  1
  Sc  Sc16  1  0.156085  0.512252  0.750000  1
  Sc  Sc17  1  0.843915  0.487748  0.250000  1
  Sc  Sc18  1  0.343915  0.012252  0.250000  1
  Sc  Sc19  1  0.656085  0.987748  0.750000  1
  Si  Si20  1  0.021614  0.099331  0.750000  1
  Si  Si21  1  0.978386  0.900669  0.250000  1
  Si  Si22  1  0.478386  0.599331  0.250000  1
  Si  Si23  1  0.521614  0.400669  0.750000  1
  Si  Si24  1  0.280009  0.867570  0.750000  1
  Si  Si25  1  0.719991  0.132430  0.250000  1
  Si  Si26  1  0.219991  0.367570  0.250000  1
  Si  Si27  1  0.780009  0.632430  0.750000  1
  Si  Si28  1  0.152320  0.469349  0.539824  1
  Si  Si29  1  0.847680  0.530651  0.460176  1
  Si  Si30  1  0.347680  0.969349  0.460176  1
  Si  Si31  1  0.847680  0.530651  0.039824  1
  Si  Si32  1  0.652320  0.030651  0.539824  1
  Si  Si33  1  0.152320  0.469349  0.960176  1
  Si  Si34  1  0.652320  0.030651  0.960176  1
  Si  Si35  1  0.347680  0.969349  0.039824  1
