# generated using pymatgen
data_Sr2CaLaRhO6
_symmetry_space_group_name_H-M   'P 1'
_cell_length_a   6.77883789
_cell_length_b   6.77883795
_cell_length_c   6.87160845
_cell_angle_alpha   90.97965572
_cell_angle_beta   90.97966971
_cell_angle_gamma   91.52398865
_symmetry_Int_Tables_number   1
_chemical_formula_structural   Sr2CaLaRhO6
_chemical_formula_sum   'Sr4 Ca2 La2 Rh2 O12'
_cell_volume   315.56206937
_cell_formula_units_Z   2
loop_
 _symmetry_equiv_pos_site_id
 _symmetry_equiv_pos_as_xyz
  1  'x, y, z'
loop_
 _atom_site_type_symbol
 _atom_site_label
 _atom_site_symmetry_multiplicity
 _atom_site_fract_x
 _atom_site_fract_y
 _atom_site_fract_z
 _atom_site_occupancy
  Sr  Sr0  1  0.252595  0.883909  0.616354  1
  Sr  Sr1  1  0.616091  0.247405  0.883646  1
  Sr  Sr2  1  0.383909  0.752595  0.116354  1
  Sr  Sr3  1  0.747405  0.116091  0.383646  1
  Ca  Ca4  1  0.745908  0.754092  0.750000  1
  Ca  Ca5  1  0.254092  0.245908  0.250000  1
  La  La6  1  0.881268  0.618732  0.250000  1
  La  La7  1  0.118732  0.381268  0.750000  1
  Rh  Rh8  1  0.000000  0.000000  0.000000  1
  Rh  Rh9  1  0.500000  0.500000  0.500000  1
  O  O10  1  0.441733  0.578033  0.790439  1
  O  O11  1  0.591352  0.790405  0.446649  1
  O  O12  1  0.956151  0.300009  0.079107  1
  O  O13  1  0.558267  0.421967  0.209561  1
  O  O14  1  0.199991  0.543849  0.420893  1
  O  O15  1  0.043849  0.699991  0.920893  1
  O  O16  1  0.800009  0.456151  0.579107  1
  O  O17  1  0.709595  0.908648  0.053351  1
  O  O18  1  0.078033  0.941733  0.290439  1
  O  O19  1  0.921967  0.058267  0.709561  1
  O  O20  1  0.408648  0.209595  0.553351  1
  O  O21  1  0.290405  0.091352  0.946649  1
