# generated using pymatgen
data_Er2Tm5Sn23Rh6
_symmetry_space_group_name_H-M   'P 1'
_cell_length_a   9.82698801
_cell_length_b   9.82781126
_cell_length_c   10.08435000
_cell_angle_alpha   90.00000227
_cell_angle_beta   90.00103593
_cell_angle_gamma   120.00277779
_symmetry_Int_Tables_number   1
_chemical_formula_structural   Er2Tm5Sn23Rh6
_chemical_formula_sum   'Er2 Tm5 Sn23 Rh6'
_cell_volume   843.41946303
_cell_formula_units_Z   1
loop_
 _symmetry_equiv_pos_site_id
 _symmetry_equiv_pos_as_xyz
  1  'x, y, z'
loop_
 _atom_site_type_symbol
 _atom_site_label
 _atom_site_symmetry_multiplicity
 _atom_site_fract_x
 _atom_site_fract_y
 _atom_site_fract_z
 _atom_site_occupancy
  Er  Er0  1  0.960116  0.480057  0.692391  1
  Er  Er1  1  0.000004  0.000002  0.000023  1
  Tm  Tm2  1  0.480138  0.519861  0.307567  1
  Tm  Tm3  1  0.519876  0.480142  0.692428  1
  Tm  Tm4  1  0.480138  0.960279  0.307567  1
  Tm  Tm5  1  0.519876  0.039733  0.692428  1
  Tm  Tm6  1  0.039720  0.519861  0.307528  1
  Sn  Sn7  1  0.120273  0.879747  0.281886  1
  Sn  Sn8  1  0.879714  0.120145  0.718133  1
  Sn  Sn9  1  0.120273  0.240524  0.281886  1
  Sn  Sn10  1  0.879714  0.759569  0.718133  1
  Sn  Sn11  1  0.759455  0.879727  0.281895  1
  Sn  Sn12  1  0.240535  0.120268  0.718107  1
  Sn  Sn13  1  0.777307  0.222566  0.456116  1
  Sn  Sn14  1  0.222750  0.777501  0.543746  1
  Sn  Sn15  1  0.777307  0.554739  0.456116  1
  Sn  Sn16  1  0.222750  0.445250  0.543746  1
  Sn  Sn17  1  0.445262  0.222631  0.456180  1
  Sn  Sn18  1  0.554745  0.777373  0.543805  1
  Sn  Sn19  1  0.351194  0.000021  0.000014  1
  Sn  Sn20  1  0.648815  0.999990  0.000004  1
  Sn  Sn21  1  0.000006  0.351149  0.000029  1
  Sn  Sn22  1  0.000006  0.648857  0.000029  1
  Sn  Sn23  1  0.648815  0.648825  0.000004  1
  Sn  Sn24  1  0.351194  0.351173  0.000014  1
  Sn  Sn25  1  0.333343  0.666672  0.124866  1
  Sn  Sn26  1  0.666452  0.333226  0.875250  1
  Sn  Sn27  1  0.333367  0.666684  0.820904  1
  Sn  Sn28  1  0.666654  0.333327  0.179090  1
  Sn  Sn29  1  0.000005  0.000002  0.499998  1
  Rh  Rh30  1  0.831144  0.168862  0.198722  1
  Rh  Rh31  1  0.168967  0.831315  0.801329  1
  Rh  Rh32  1  0.831144  0.662284  0.198722  1
  Rh  Rh33  1  0.168967  0.337650  0.801329  1
  Rh  Rh34  1  0.337709  0.168855  0.198732  1
  Rh  Rh35  1  0.662267  0.831132  0.801283  1
