# generated using pymatgen
data_Tb2HoEr9Os4
_symmetry_space_group_name_H-M   'P 1'
_cell_length_a   6.29267030
_cell_length_b   7.38831129
_cell_length_c   8.98841000
_cell_angle_alpha   90.00000000
_cell_angle_beta   90.00000000
_cell_angle_gamma   89.97258769
_symmetry_Int_Tables_number   1
_chemical_formula_structural   Tb2HoEr9Os4
_chemical_formula_sum   'Tb2 Ho1 Er9 Os4'
_cell_volume   417.89097101
_cell_formula_units_Z   1
loop_
 _symmetry_equiv_pos_site_id
 _symmetry_equiv_pos_as_xyz
  1  'x, y, z'
loop_
 _atom_site_type_symbol
 _atom_site_label
 _atom_site_symmetry_multiplicity
 _atom_site_fract_x
 _atom_site_fract_y
 _atom_site_fract_z
 _atom_site_occupancy
  Tb  Tb0  1  0.870761  0.538704  0.250000  1
  Tb  Tb1  1  0.629359  0.038827  0.250000  1
  Ho  Ho2  1  0.130262  0.461064  0.750000  1
  Er  Er3  1  0.333314  0.675222  0.062612  1
  Er  Er4  1  0.167132  0.174432  0.437470  1
  Er  Er5  1  0.666607  0.324795  0.563616  1
  Er  Er6  1  0.832555  0.825220  0.936307  1
  Er  Er7  1  0.666607  0.324795  0.936384  1
  Er  Er8  1  0.832555  0.825220  0.563693  1
  Er  Er9  1  0.333314  0.675222  0.437388  1
  Er  Er10  1  0.167132  0.174432  0.062530  1
  Er  Er11  1  0.369722  0.960711  0.750000  1
  Os  Os12  1  0.042774  0.883025  0.250000  1
  Os  Os13  1  0.457215  0.382999  0.250000  1
  Os  Os14  1  0.960164  0.117470  0.750000  1
  Os  Os15  1  0.540527  0.617861  0.750000  1
