# generated using pymatgen
data_Yb6Te3N2
_symmetry_space_group_name_H-M   'P 1'
_cell_length_a   8.15249677
_cell_length_b   8.15249669
_cell_length_c   8.15249724
_cell_angle_alpha   94.49543779
_cell_angle_beta   94.49543489
_cell_angle_gamma   94.49543421
_symmetry_Int_Tables_number   1
_chemical_formula_structural   Yb6Te3N2
_chemical_formula_sum   'Yb12 Te6 N4'
_cell_volume   536.56135193
_cell_formula_units_Z   2
loop_
 _symmetry_equiv_pos_site_id
 _symmetry_equiv_pos_as_xyz
  1  'x, y, z'
loop_
 _atom_site_type_symbol
 _atom_site_label
 _atom_site_symmetry_multiplicity
 _atom_site_fract_x
 _atom_site_fract_y
 _atom_site_fract_z
 _atom_site_occupancy
  Yb  Yb0  1  0.403678  0.222134  0.515993  1
  Yb  Yb1  1  0.515993  0.403678  0.222134  1
  Yb  Yb2  1  0.222134  0.515993  0.403678  1
  Yb  Yb3  1  0.722134  0.903678  0.015993  1
  Yb  Yb4  1  0.015993  0.722134  0.903678  1
  Yb  Yb5  1  0.903678  0.015993  0.722134  1
  Yb  Yb6  1  0.596322  0.777866  0.484007  1
  Yb  Yb7  1  0.484007  0.596322  0.777866  1
  Yb  Yb8  1  0.777866  0.484007  0.596322  1
  Yb  Yb9  1  0.277866  0.096322  0.984007  1
  Yb  Yb10  1  0.984007  0.277866  0.096322  1
  Yb  Yb11  1  0.096322  0.984007  0.277866  1
  Te  Te12  1  0.750000  0.127511  0.372489  1
  Te  Te13  1  0.372489  0.750000  0.127511  1
  Te  Te14  1  0.127511  0.372489  0.750000  1
  Te  Te15  1  0.627511  0.250000  0.872489  1
  Te  Te16  1  0.872489  0.627511  0.250000  1
  Te  Te17  1  0.250000  0.872489  0.627511  1
  N  N18  1  0.500000  0.500000  0.500000  1
  N  N19  1  0.000000  0.000000  0.000000  1
  N  N20  1  0.250000  0.250000  0.250000  1
  N  N21  1  0.750000  0.750000  0.750000  1
