# generated using pymatgen
data_Ba8YLu3(GaO5)4
_symmetry_space_group_name_H-M   'P 1'
_cell_length_a   6.07897409
_cell_length_b   7.80387281
_cell_length_c   12.66512321
_cell_angle_alpha   92.05547808
_cell_angle_beta   90.01375654
_cell_angle_gamma   90.01416593
_symmetry_Int_Tables_number   1
_chemical_formula_structural   Ba8YLu3(GaO5)4
_chemical_formula_sum   'Ba8 Y1 Lu3 Ga4 O20'
_cell_volume   600.44099722
_cell_formula_units_Z   1
loop_
 _symmetry_equiv_pos_site_id
 _symmetry_equiv_pos_as_xyz
  1  'x, y, z'
loop_
 _atom_site_type_symbol
 _atom_site_label
 _atom_site_symmetry_multiplicity
 _atom_site_fract_x
 _atom_site_fract_y
 _atom_site_fract_z
 _atom_site_occupancy
  Ba  Ba0  1  0.759562  0.485733  0.349319  1
  Ba  Ba1  1  0.739073  0.982363  0.847749  1
  Ba  Ba2  1  0.240121  0.516687  0.650017  1
  Ba  Ba3  1  0.260851  0.014397  0.152897  1
  Ba  Ba4  1  0.756074  0.993271  0.380800  1
  Ba  Ba5  1  0.742622  0.494641  0.880452  1
  Ba  Ba6  1  0.244001  0.005708  0.617299  1
  Ba  Ba7  1  0.256709  0.507823  0.121043  1
  Y  Y8  1  0.249043  0.233976  0.870167  1
  Lu  Lu9  1  0.749079  0.264716  0.628958  1
  Lu  Lu10  1  0.750187  0.764794  0.130778  1
  Lu  Lu11  1  0.250402  0.735419  0.369637  1
  Ga  Ga12  1  0.736966  0.741934  0.580413  1
  Ga  Ga13  1  0.764770  0.242037  0.083081  1
  Ga  Ga14  1  0.263802  0.258371  0.419057  1
  Ga  Ga15  1  0.236472  0.758534  0.919836  1
  O  O16  1  0.758985  0.972555  0.628926  1
  O  O17  1  0.739456  0.473575  0.130724  1
  O  O18  1  0.240792  0.027193  0.370863  1
  O  O19  1  0.259990  0.530502  0.869270  1
  O  O20  1  0.732885  0.062438  0.174870  1
  O  O21  1  0.765449  0.563154  0.672633  1
  O  O22  1  0.266944  0.931289  0.823850  1
  O  O23  1  0.234314  0.437559  0.327157  1
  O  O24  1  0.533489  0.746366  0.267672  1
  O  O25  1  0.955795  0.246082  0.767939  1
  O  O26  1  0.463217  0.254284  0.727606  1
  O  O27  1  0.034138  0.753706  0.232701  1
  O  O28  1  0.548567  0.222506  0.977038  1
  O  O29  1  0.960480  0.723741  0.476703  1
  O  O30  1  0.459685  0.777195  0.023754  1
  O  O31  1  0.041299  0.276384  0.523092  1
  O  O32  1  0.042835  0.229530  0.019590  1
  O  O33  1  0.460894  0.728952  0.512842  1
  O  O34  1  0.959756  0.771831  0.986652  1
  O  O35  1  0.541296  0.270754  0.484618  1
