# generated using pymatgen
data_AcNd11(Si2Ni)4
_symmetry_space_group_name_H-M   'P 1'
_cell_length_a   4.23090600
_cell_length_b   11.67861506
_cell_length_c   11.79960792
_cell_angle_alpha   90.31681221
_cell_angle_beta   90.00000000
_cell_angle_gamma   90.00000000
_symmetry_Int_Tables_number   1
_chemical_formula_structural   AcNd11(Si2Ni)4
_chemical_formula_sum   'Ac1 Nd11 Si8 Ni4'
_cell_volume   583.02295957
_cell_formula_units_Z   1
loop_
 _symmetry_equiv_pos_site_id
 _symmetry_equiv_pos_as_xyz
  1  'x, y, z'
loop_
 _atom_site_type_symbol
 _atom_site_label
 _atom_site_symmetry_multiplicity
 _atom_site_fract_x
 _atom_site_fract_y
 _atom_site_fract_z
 _atom_site_occupancy
  Ac  Ac0  1  0.750000  0.297364  0.790869  1
  Nd  Nd1  1  0.250000  0.054569  0.885881  1
  Nd  Nd2  1  0.250000  0.441454  0.382062  1
  Nd  Nd3  1  0.750000  0.939096  0.118352  1
  Nd  Nd4  1  0.750000  0.558881  0.614024  1
  Nd  Nd5  1  0.250000  0.122373  0.558354  1
  Nd  Nd6  1  0.250000  0.376055  0.062319  1
  Nd  Nd7  1  0.750000  0.876990  0.439206  1
  Nd  Nd8  1  0.750000  0.625552  0.941652  1
  Nd  Nd9  1  0.250000  0.799592  0.711619  1
  Nd  Nd10  1  0.250000  0.697712  0.210967  1
  Nd  Nd11  1  0.750000  0.195685  0.291642  1
  Si  Si12  1  0.250000  0.814336  0.969569  1
  Si  Si13  1  0.250000  0.687259  0.468742  1
  Si  Si14  1  0.750000  0.182437  0.037275  1
  Si  Si15  1  0.750000  0.314329  0.525570  1
  Si  Si16  1  0.250000  0.503454  0.796109  1
  Si  Si17  1  0.250000  0.008328  0.300454  1
  Si  Si18  1  0.750000  0.509640  0.199659  1
  Si  Si19  1  0.750000  0.988807  0.698445  1
  Ni  Ni20  1  0.250000  0.368953  0.625315  1
  Ni  Ni21  1  0.250000  0.134615  0.132796  1
  Ni  Ni22  1  0.750000  0.636580  0.368886  1
  Ni  Ni23  1  0.750000  0.865939  0.870227  1
