# generated using pymatgen
data_La3SmTe7Pd
_symmetry_space_group_name_H-M   'P 1'
_cell_length_a   4.35919415
_cell_length_b   8.91828600
_cell_length_c   9.42754063
_cell_angle_alpha   90.00000000
_cell_angle_beta   90.03628069
_cell_angle_gamma   90.00000000
_symmetry_Int_Tables_number   1
_chemical_formula_structural   La3SmTe7Pd
_chemical_formula_sum   'La3 Sm1 Te7 Pd1'
_cell_volume   366.51008850
_cell_formula_units_Z   1
loop_
 _symmetry_equiv_pos_site_id
 _symmetry_equiv_pos_as_xyz
  1  'x, y, z'
loop_
 _atom_site_type_symbol
 _atom_site_label
 _atom_site_symmetry_multiplicity
 _atom_site_fract_x
 _atom_site_fract_y
 _atom_site_fract_z
 _atom_site_occupancy
  La  La0  1  0.003075  0.250000  0.741014  1
  La  La1  1  0.499301  0.002068  0.269937  1
  La  La2  1  0.499301  0.497932  0.269937  1
  Sm  Sm3  1  0.000881  0.750000  0.709318  1
  Te  Te4  1  0.997571  0.939296  0.997938  1
  Te  Te5  1  0.997571  0.560704  0.997938  1
  Te  Te6  1  0.503283  0.250000  0.000991  1
  Te  Te7  1  0.999685  0.750000  0.371191  1
  Te  Te8  1  0.999925  0.250000  0.374403  1
  Te  Te9  1  0.501280  0.996232  0.632184  1
  Te  Te10  1  0.501280  0.503768  0.632184  1
  Pd  Pd11  1  0.496849  0.750000  0.003891  1
