# generated using pymatgen
data_Er6Ga7Co16
_symmetry_space_group_name_H-M   'P 1'
_cell_length_a   8.44654574
_cell_length_b   8.44672129
_cell_length_c   8.44393202
_cell_angle_alpha   60.00456186
_cell_angle_beta   60.00373556
_cell_angle_gamma   60.01479493
_symmetry_Int_Tables_number   1
_chemical_formula_structural   Er6Ga7Co16
_chemical_formula_sum   'Er6 Ga7 Co16'
_cell_volume   426.06200429
_cell_formula_units_Z   1
loop_
 _symmetry_equiv_pos_site_id
 _symmetry_equiv_pos_as_xyz
  1  'x, y, z'
loop_
 _atom_site_type_symbol
 _atom_site_label
 _atom_site_symmetry_multiplicity
 _atom_site_fract_x
 _atom_site_fract_y
 _atom_site_fract_z
 _atom_site_occupancy
  Er  Er0  1  0.719362  0.719308  0.280733  1
  Er  Er1  1  0.280456  0.719451  0.280870  1
  Er  Er2  1  0.719478  0.280483  0.280846  1
  Er  Er3  1  0.280638  0.280692  0.719267  1
  Er  Er4  1  0.719544  0.280549  0.719130  1
  Er  Er5  1  0.280522  0.719517  0.719154  1
  Ga  Ga6  1  0.000000  0.000000  0.000000  1
  Ga  Ga7  1  0.000000  0.000000  0.500000  1
  Ga  Ga8  1  0.500000  0.000000  0.500000  1
  Ga  Ga9  1  0.000000  0.500000  0.500000  1
  Ga  Ga10  1  0.500000  0.500000  0.000000  1
  Ga  Ga11  1  0.000000  0.500000  0.000000  1
  Ga  Ga12  1  0.500000  0.000000  0.000000  1
  Co  Co13  1  0.874024  0.873992  0.378013  1
  Co  Co14  1  0.873979  0.378177  0.873916  1
  Co  Co15  1  0.378183  0.873957  0.873923  1
  Co  Co16  1  0.874019  0.873986  0.873955  1
  Co  Co17  1  0.125976  0.126008  0.621987  1
  Co  Co18  1  0.126021  0.621823  0.126084  1
  Co  Co19  1  0.621817  0.126043  0.126077  1
  Co  Co20  1  0.125981  0.126014  0.126045  1
  Co  Co21  1  0.678455  0.678434  0.964781  1
  Co  Co22  1  0.678476  0.964893  0.678280  1
  Co  Co23  1  0.964878  0.678468  0.678291  1
  Co  Co24  1  0.678458  0.678438  0.678261  1
  Co  Co25  1  0.321545  0.321566  0.035219  1
  Co  Co26  1  0.321524  0.035107  0.321720  1
  Co  Co27  1  0.035122  0.321532  0.321709  1
  Co  Co28  1  0.321542  0.321562  0.321739  1
