# generated using pymatgen
data_Nd16Hg4IrRh3
_symmetry_space_group_name_H-M   'P 1'
_cell_length_a   9.93081667
_cell_length_b   9.90699443
_cell_length_c   9.90699300
_cell_angle_alpha   59.99999476
_cell_angle_beta   60.07931543
_cell_angle_gamma   60.07931999
_symmetry_Int_Tables_number   1
_chemical_formula_structural   Nd16Hg4IrRh3
_chemical_formula_sum   'Nd16 Hg4 Ir1 Rh3'
_cell_volume   690.03855256
_cell_formula_units_Z   1
loop_
 _symmetry_equiv_pos_site_id
 _symmetry_equiv_pos_as_xyz
  1  'x, y, z'
loop_
 _atom_site_type_symbol
 _atom_site_label
 _atom_site_symmetry_multiplicity
 _atom_site_fract_x
 _atom_site_fract_y
 _atom_site_fract_z
 _atom_site_occupancy
  Nd  Nd0  1  0.598849  0.599658  0.599658  1
  Nd  Nd1  1  0.598849  0.599658  0.201837  1
  Nd  Nd2  1  0.598849  0.201837  0.599658  1
  Nd  Nd3  1  0.200327  0.599891  0.599891  1
  Nd  Nd4  1  0.060150  0.439562  0.439562  1
  Nd  Nd5  1  0.441021  0.059856  0.059856  1
  Nd  Nd6  1  0.441021  0.059856  0.439267  1
  Nd  Nd7  1  0.060150  0.439562  0.060726  1
  Nd  Nd8  1  0.441021  0.439267  0.059856  1
  Nd  Nd9  1  0.060150  0.060726  0.439562  1
  Nd  Nd10  1  0.187089  0.813153  0.813153  1
  Nd  Nd11  1  0.813408  0.187593  0.187593  1
  Nd  Nd12  1  0.813408  0.187593  0.811405  1
  Nd  Nd13  1  0.187089  0.813153  0.186605  1
  Nd  Nd14  1  0.813408  0.811405  0.187593  1
  Nd  Nd15  1  0.187089  0.186605  0.813153  1
  Hg  Hg16  1  0.834130  0.833133  0.833133  1
  Hg  Hg17  1  0.834130  0.833133  0.499602  1
  Hg  Hg18  1  0.834130  0.499602  0.833133  1
  Hg  Hg19  1  0.499890  0.833370  0.833370  1
  Ir  Ir20  1  0.822703  0.392432  0.392432  1
  Rh  Rh21  1  0.391043  0.392249  0.392249  1
  Rh  Rh22  1  0.391043  0.392249  0.824458  1
  Rh  Rh23  1  0.391043  0.824458  0.392249  1
