# generated using pymatgen
data_CeHo(HgRh)2
_symmetry_space_group_name_H-M   'P 1'
_cell_length_a   3.88122100
_cell_length_b   7.24407173
_cell_length_c   9.25918400
_cell_angle_alpha   92.76410957
_cell_angle_beta   90.00000000
_cell_angle_gamma   90.00000000
_symmetry_Int_Tables_number   1
_chemical_formula_structural   CeHo(HgRh)2
_chemical_formula_sum   'Ce2 Ho2 Hg4 Rh4'
_cell_volume   260.02688344
_cell_formula_units_Z   2
loop_
 _symmetry_equiv_pos_site_id
 _symmetry_equiv_pos_as_xyz
  1  'x, y, z'
loop_
 _atom_site_type_symbol
 _atom_site_label
 _atom_site_symmetry_multiplicity
 _atom_site_fract_x
 _atom_site_fract_y
 _atom_site_fract_z
 _atom_site_occupancy
  Ce  Ce0  1  0.250000  0.538667  0.194442  1
  Ce  Ce1  1  0.750000  0.461333  0.805558  1
  Ho  Ho2  1  0.250000  0.044305  0.313881  1
  Ho  Ho3  1  0.750000  0.955695  0.686119  1
  Hg  Hg4  1  0.250000  0.137839  0.941082  1
  Hg  Hg5  1  0.750000  0.862161  0.058918  1
  Hg  Hg6  1  0.250000  0.653638  0.552467  1
  Hg  Hg7  1  0.750000  0.346362  0.447533  1
  Rh  Rh8  1  0.750000  0.755935  0.343190  1
  Rh  Rh9  1  0.250000  0.244065  0.656810  1
  Rh  Rh10  1  0.750000  0.279267  0.148610  1
  Rh  Rh11  1  0.250000  0.720733  0.851390  1
