# generated using pymatgen
data_SmEr11Si12PdAu11
_symmetry_space_group_name_H-M   'P 1'
_cell_length_a   4.33817600
_cell_length_b   7.49317500
_cell_length_c   22.20561966
_cell_angle_alpha   90.00804598
_cell_angle_beta   90.00000000
_cell_angle_gamma   90.00000000
_symmetry_Int_Tables_number   1
_chemical_formula_structural   SmEr11Si12PdAu11
_chemical_formula_sum   'Sm1 Er11 Si12 Pd1 Au11'
_cell_volume   721.83167515
_cell_formula_units_Z   1
loop_
 _symmetry_equiv_pos_site_id
 _symmetry_equiv_pos_as_xyz
  1  'x, y, z'
loop_
 _atom_site_type_symbol
 _atom_site_label
 _atom_site_symmetry_multiplicity
 _atom_site_fract_x
 _atom_site_fract_y
 _atom_site_fract_z
 _atom_site_occupancy
  Sm  Sm0  1  0.750000  0.246160  0.503082  1
  Er  Er1  1  0.250000  0.750828  0.333176  1
  Er  Er2  1  0.750000  0.244513  0.666328  1
  Er  Er3  1  0.750000  0.250497  0.166558  1
  Er  Er4  1  0.250000  0.748546  0.832299  1
  Er  Er5  1  0.250000  0.749747  0.166287  1
  Er  Er6  1  0.750000  0.251201  0.832146  1
  Er  Er7  1  0.750000  0.249136  0.332893  1
  Er  Er8  1  0.250000  0.755940  0.665591  1
  Er  Er9  1  0.250000  0.751958  0.999127  1
  Er  Er10  1  0.750000  0.248364  0.999109  1
  Er  Er11  1  0.250000  0.754781  0.503168  1
  Si  Si12  1  0.250000  0.083897  0.080468  1
  Si  Si13  1  0.750000  0.916474  0.915732  1
  Si  Si14  1  0.750000  0.583912  0.419104  1
  Si  Si15  1  0.250000  0.410639  0.589505  1
  Si  Si16  1  0.250000  0.083750  0.249108  1
  Si  Si17  1  0.750000  0.915206  0.749741  1
  Si  Si18  1  0.750000  0.584160  0.250429  1
  Si  Si19  1  0.250000  0.417165  0.746933  1
  Si  Si20  1  0.250000  0.083315  0.416186  1
  Si  Si21  1  0.750000  0.920428  0.586965  1
  Si  Si22  1  0.750000  0.583299  0.080214  1
  Si  Si23  1  0.250000  0.416520  0.914647  1
  Pd  Pd24  1  0.250000  0.079588  0.587005  1
  Au  Au25  1  0.250000  0.417418  0.249894  1
  Au  Au26  1  0.750000  0.582415  0.749391  1
  Au  Au27  1  0.750000  0.917181  0.249327  1
  Au  Au28  1  0.250000  0.083485  0.750754  1
  Au  Au29  1  0.250000  0.419404  0.414574  1
  Au  Au30  1  0.750000  0.585173  0.585728  1
  Au  Au31  1  0.750000  0.917096  0.085443  1
  Au  Au32  1  0.250000  0.082763  0.913334  1
  Au  Au33  1  0.250000  0.417383  0.085110  1
  Au  Au34  1  0.750000  0.582672  0.915217  1
  Au  Au35  1  0.750000  0.914987  0.415427  1
