# generated using pymatgen
data_Li2Y3Tm(Co3P2)6
_symmetry_space_group_name_H-M   'P 1'
_cell_length_a   3.67942800
_cell_length_b   10.28614672
_cell_length_c   11.86274280
_cell_angle_alpha   90.04242854
_cell_angle_beta   90.00000000
_cell_angle_gamma   90.00000000
_symmetry_Int_Tables_number   1
_chemical_formula_structural   Li2Y3Tm(Co3P2)6
_chemical_formula_sum   'Li2 Y3 Tm1 Co18 P12'
_cell_volume   448.97071984
_cell_formula_units_Z   1
loop_
 _symmetry_equiv_pos_site_id
 _symmetry_equiv_pos_as_xyz
  1  'x, y, z'
loop_
 _atom_site_type_symbol
 _atom_site_label
 _atom_site_symmetry_multiplicity
 _atom_site_fract_x
 _atom_site_fract_y
 _atom_site_fract_z
 _atom_site_occupancy
  Li  Li0  1  0.250000  0.702772  0.990488  1
  Li  Li1  1  0.250000  0.797978  0.491239  1
  Y  Y2  1  0.250000  0.579663  0.702047  1
  Y  Y3  1  0.250000  0.920491  0.202305  1
  Y  Y4  1  0.750000  0.419628  0.297489  1
  Tm  Tm5  1  0.750000  0.080030  0.797783  1
  Co  Co6  1  0.750000  0.288519  0.008435  1
  Co  Co7  1  0.750000  0.211062  0.508945  1
  Co  Co8  1  0.250000  0.403507  0.487730  1
  Co  Co9  1  0.250000  0.096566  0.985858  1
  Co  Co10  1  0.750000  0.591013  0.513963  1
  Co  Co11  1  0.750000  0.909870  0.013458  1
  Co  Co12  1  0.250000  0.223574  0.174505  1
  Co  Co13  1  0.250000  0.275145  0.675078  1
  Co  Co14  1  0.750000  0.780322  0.825959  1
  Co  Co15  1  0.750000  0.720279  0.326103  1
  Co  Co16  1  0.250000  0.882457  0.699389  1
  Co  Co17  1  0.250000  0.618711  0.198469  1
  Co  Co18  1  0.750000  0.120835  0.300316  1
  Co  Co19  1  0.750000  0.378123  0.799768  1
  Co  Co20  1  0.250000  0.462610  0.931341  1
  Co  Co21  1  0.250000  0.036659  0.432619  1
  Co  Co22  1  0.750000  0.532710  0.065995  1
  Co  Co23  1  0.750000  0.967701  0.567330  1
  P  P24  1  0.250000  0.421917  0.111487  1
  P  P25  1  0.250000  0.077810  0.613246  1
  P  P26  1  0.750000  0.576717  0.884289  1
  P  P27  1  0.750000  0.923138  0.385055  1
  P  P28  1  0.250000  0.267131  0.866121  1
  P  P29  1  0.250000  0.231238  0.367075  1
  P  P30  1  0.750000  0.728841  0.138054  1
  P  P31  1  0.750000  0.771374  0.638304  1
  P  P32  1  0.250000  0.601653  0.393373  1
  P  P33  1  0.250000  0.899943  0.892581  1
  P  P34  1  0.750000  0.395226  0.606886  1
  P  P35  1  0.750000  0.104787  0.106912  1
