# generated using pymatgen
data_Dy12Si12OsRh3
_symmetry_space_group_name_H-M   'P 1'
_cell_length_a   4.22878900
_cell_length_b   10.70341239
_cell_length_c   12.35784000
_cell_angle_alpha   90.07480977
_cell_angle_beta   90.00000000
_cell_angle_gamma   90.00000000
_symmetry_Int_Tables_number   1
_chemical_formula_structural   Dy12Si12OsRh3
_chemical_formula_sum   'Dy12 Si12 Os1 Rh3'
_cell_volume   559.34591737
_cell_formula_units_Z   1
loop_
 _symmetry_equiv_pos_site_id
 _symmetry_equiv_pos_as_xyz
  1  'x, y, z'
loop_
 _atom_site_type_symbol
 _atom_site_label
 _atom_site_symmetry_multiplicity
 _atom_site_fract_x
 _atom_site_fract_y
 _atom_site_fract_z
 _atom_site_occupancy
  Dy  Dy0  1  0.250000  0.878849  0.020038  1
  Dy  Dy1  1  0.250000  0.619252  0.521206  1
  Dy  Dy2  1  0.750000  0.120277  0.979458  1
  Dy  Dy3  1  0.750000  0.379791  0.480122  1
  Dy  Dy4  1  0.250000  0.920420  0.604252  1
  Dy  Dy5  1  0.250000  0.580011  0.105279  1
  Dy  Dy6  1  0.750000  0.080324  0.395872  1
  Dy  Dy7  1  0.750000  0.420534  0.895534  1
  Dy  Dy8  1  0.250000  0.661809  0.799896  1
  Dy  Dy9  1  0.250000  0.839257  0.301065  1
  Dy  Dy10  1  0.750000  0.339277  0.198295  1
  Dy  Dy11  1  0.750000  0.158816  0.699110  1
  Si  Si12  1  0.250000  0.013593  0.822831  1
  Si  Si13  1  0.250000  0.486314  0.321918  1
  Si  Si14  1  0.750000  0.986633  0.177730  1
  Si  Si15  1  0.750000  0.508645  0.679693  1
  Si  Si16  1  0.250000  0.248658  0.839039  1
  Si  Si17  1  0.250000  0.252974  0.341818  1
  Si  Si18  1  0.750000  0.752783  0.158471  1
  Si  Si19  1  0.750000  0.747958  0.657521  1
  Si  Si20  1  0.250000  0.204890  0.544695  1
  Si  Si21  1  0.250000  0.299808  0.040497  1
  Si  Si22  1  0.750000  0.799912  0.458416  1
  Si  Si23  1  0.750000  0.698733  0.958236  1
  Os  Os24  1  0.250000  0.391348  0.680817  1
  Rh  Rh25  1  0.250000  0.109481  0.182889  1
  Rh  Rh26  1  0.750000  0.609762  0.317933  1
  Rh  Rh27  1  0.750000  0.889891  0.817370  1
