# generated using pymatgen
data_Y8Hf11Si16Hg
_symmetry_space_group_name_H-M   'P 1'
_cell_length_a   7.30112700
_cell_length_b   7.30112709
_cell_length_c   13.29866201
_cell_angle_alpha   89.78455274
_cell_angle_beta   90.21544860
_cell_angle_gamma   89.80922708
_symmetry_Int_Tables_number   1
_chemical_formula_structural   Y8Hf11Si16Hg
_chemical_formula_sum   'Y8 Hf11 Si16 Hg1'
_cell_volume   708.89055635
_cell_formula_units_Z   1
loop_
 _symmetry_equiv_pos_site_id
 _symmetry_equiv_pos_as_xyz
  1  'x, y, z'
loop_
 _atom_site_type_symbol
 _atom_site_label
 _atom_site_symmetry_multiplicity
 _atom_site_fract_x
 _atom_site_fract_y
 _atom_site_fract_z
 _atom_site_occupancy
  Y  Y0  1  0.997525  0.345975  0.211678  1
  Y  Y1  1  0.004203  0.656711  0.715977  1
  Y  Y2  1  0.154999  0.495921  0.465124  1
  Y  Y3  1  0.499262  0.846882  0.032960  1
  Y  Y4  1  0.846882  0.499262  0.967040  1
  Y  Y5  1  0.495921  0.154999  0.534876  1
  Y  Y6  1  0.345975  0.997525  0.788322  1
  Y  Y7  1  0.656711  0.004203  0.284023  1
  Hf  Hf8  1  0.824603  0.824603  0.500000  1
  Hf  Hf9  1  0.323578  0.676385  0.250018  1
  Hf  Hf10  1  0.676385  0.323578  0.749982  1
  Hf  Hf11  1  0.145320  0.996865  0.375118  1
  Hf  Hf12  1  0.855986  0.002706  0.877915  1
  Hf  Hf13  1  0.504685  0.647200  0.626140  1
  Hf  Hf14  1  0.355489  0.491325  0.877560  1
  Hf  Hf15  1  0.491325  0.355489  0.122440  1
  Hf  Hf16  1  0.647200  0.504685  0.373860  1
  Hf  Hf17  1  0.996865  0.145320  0.624882  1
  Hf  Hf18  1  0.002706  0.855986  0.122085  1
  Si  Si19  1  0.360391  0.295810  0.317029  1
  Si  Si20  1  0.639671  0.703770  0.819121  1
  Si  Si21  1  0.206979  0.861149  0.568529  1
  Si  Si22  1  0.130853  0.772889  0.926718  1
  Si  Si23  1  0.772889  0.130853  0.073282  1
  Si  Si24  1  0.861149  0.206979  0.431471  1
  Si  Si25  1  0.295810  0.360391  0.682971  1
  Si  Si26  1  0.703770  0.639671  0.180879  1
  Si  Si27  1  0.298513  0.048049  0.192733  1
  Si  Si28  1  0.705148  0.950879  0.686293  1
  Si  Si29  1  0.450180  0.794851  0.436034  1
  Si  Si30  1  0.211123  0.569755  0.065119  1
  Si  Si31  1  0.569755  0.211123  0.934881  1
  Si  Si32  1  0.794851  0.450180  0.563966  1
  Si  Si33  1  0.048049  0.298513  0.807267  1
  Si  Si34  1  0.950879  0.705148  0.313707  1
  Hg  Hg35  1  0.174366  0.174366  0.000000  1
