# generated using pymatgen
data_Zr6Zn20GePt3
_symmetry_space_group_name_H-M   'P 1'
_cell_length_a   8.81363236
_cell_length_b   8.81363125
_cell_length_c   8.82541500
_cell_angle_alpha   59.95577408
_cell_angle_beta   59.95577824
_cell_angle_gamma   60.08845871
_symmetry_Int_Tables_number   1
_chemical_formula_structural   Zr6Zn20GePt3
_chemical_formula_sum   'Zr6 Zn20 Ge1 Pt3'
_cell_volume   484.76184307
_cell_formula_units_Z   1
loop_
 _symmetry_equiv_pos_site_id
 _symmetry_equiv_pos_as_xyz
  1  'x, y, z'
loop_
 _atom_site_type_symbol
 _atom_site_label
 _atom_site_symmetry_multiplicity
 _atom_site_fract_x
 _atom_site_fract_y
 _atom_site_fract_z
 _atom_site_occupancy
  Zr  Zr0  1  0.711002  0.288998  0.288998  1
  Zr  Zr1  1  0.288998  0.711002  0.711002  1
  Zr  Zr2  1  0.288998  0.711002  0.288998  1
  Zr  Zr3  1  0.711002  0.288998  0.711002  1
  Zr  Zr4  1  0.282510  0.282510  0.717490  1
  Zr  Zr5  1  0.717490  0.717490  0.282510  1
  Zn  Zn6  1  0.120586  0.120586  0.127859  1
  Zn  Zn7  1  0.879414  0.879414  0.872141  1
  Zn  Zn8  1  0.120586  0.120586  0.630969  1
  Zn  Zn9  1  0.127859  0.630969  0.120586  1
  Zn  Zn10  1  0.879414  0.879414  0.369031  1
  Zn  Zn11  1  0.872141  0.369031  0.879414  1
  Zn  Zn12  1  0.630969  0.127859  0.120586  1
  Zn  Zn13  1  0.369031  0.872141  0.879414  1
  Zn  Zn14  1  0.500000  0.000000  0.000000  1
  Zn  Zn15  1  0.000000  0.500000  0.500000  1
  Zn  Zn16  1  0.000000  0.500000  0.000000  1
  Zn  Zn17  1  0.500000  0.000000  0.500000  1
  Zn  Zn18  1  0.336445  0.336445  0.340955  1
  Zn  Zn19  1  0.663555  0.663555  0.659045  1
  Zn  Zn20  1  0.336445  0.336445  0.986157  1
  Zn  Zn21  1  0.340955  0.986157  0.336445  1
  Zn  Zn22  1  0.663555  0.663555  0.013843  1
  Zn  Zn23  1  0.659045  0.013843  0.663555  1
  Zn  Zn24  1  0.986157  0.340955  0.336445  1
  Zn  Zn25  1  0.013843  0.659045  0.663555  1
  Ge  Ge26  1  0.500000  0.500000  0.500000  1
  Pt  Pt27  1  0.000000  0.000000  0.500000  1
  Pt  Pt28  1  0.500000  0.500000  0.000000  1
  Pt  Pt29  1  0.000000  0.000000  0.000000  1
