# generated using pymatgen
data_Sr21Ga8AgSn5Pb
_symmetry_space_group_name_H-M   'P 1'
_cell_length_a   12.15397906
_cell_length_b   12.15563909
_cell_length_c   12.15397811
_cell_angle_alpha   59.99548332
_cell_angle_beta   60.00904110
_cell_angle_gamma   59.99548058
_symmetry_Int_Tables_number   1
_chemical_formula_structural   Sr21Ga8AgSn5Pb
_chemical_formula_sum   'Sr21 Ga8 Ag1 Sn5 Pb1'
_cell_volume   1269.69594656
_cell_formula_units_Z   1
loop_
 _symmetry_equiv_pos_site_id
 _symmetry_equiv_pos_as_xyz
  1  'x, y, z'
loop_
 _atom_site_type_symbol
 _atom_site_label
 _atom_site_symmetry_multiplicity
 _atom_site_fract_x
 _atom_site_fract_y
 _atom_site_fract_z
 _atom_site_occupancy
  Sr  Sr0  1  0.869350  0.869206  0.392237  1
  Sr  Sr1  1  0.607443  0.130584  0.131390  1
  Sr  Sr2  1  0.869416  0.392557  0.869416  1
  Sr  Sr3  1  0.130794  0.130650  0.130794  1
  Sr  Sr4  1  0.392237  0.869206  0.869350  1
  Sr  Sr5  1  0.869416  0.868610  0.869416  1
  Sr  Sr6  1  0.172973  0.827027  0.500056  1
  Sr  Sr7  1  0.827054  0.500620  0.499380  1
  Sr  Sr8  1  0.131390  0.130584  0.607443  1
  Sr  Sr9  1  0.827054  0.172946  0.499380  1
  Sr  Sr10  1  0.172973  0.499944  0.500056  1
  Sr  Sr11  1  0.130794  0.607763  0.130794  1
  Sr  Sr12  1  0.500056  0.499944  0.172973  1
  Sr  Sr13  1  0.499380  0.172946  0.827054  1
  Sr  Sr14  1  0.500056  0.827027  0.172973  1
  Sr  Sr15  1  0.499380  0.500620  0.827054  1
  Sr  Sr16  1  0.499965  0.173170  0.499965  1
  Sr  Sr17  1  0.173101  0.500035  0.826830  1
  Sr  Sr18  1  0.000410  0.999590  0.000410  1
  Sr  Sr19  1  0.499965  0.826899  0.499965  1
  Sr  Sr20  1  0.826830  0.500035  0.173101  1
  Ga  Ga21  1  0.693300  0.920261  0.693300  1
  Ga  Ga22  1  0.693252  0.693259  0.920231  1
  Ga  Ga23  1  0.693300  0.693140  0.693300  1
  Ga  Ga24  1  0.306741  0.079769  0.306741  1
  Ga  Ga25  1  0.920231  0.693259  0.693252  1
  Ga  Ga26  1  0.306860  0.306700  0.079739  1
  Ga  Ga27  1  0.079739  0.306700  0.306860  1
  Ga  Ga28  1  0.306741  0.306748  0.306741  1
  Ag  Ag29  1  0.500015  0.499985  0.500015  1
  Sn  Sn30  1  0.784531  0.215469  0.215347  1
  Sn  Sn31  1  0.215451  0.784549  0.215451  1
  Sn  Sn32  1  0.215347  0.784653  0.784531  1
  Sn  Sn33  1  0.784531  0.784653  0.215347  1
  Sn  Sn34  1  0.215347  0.215469  0.784531  1
  Pb  Pb35  1  0.784577  0.215423  0.784577  1
