# generated using pymatgen
data_Nb6Co4ReWC2
_symmetry_space_group_name_H-M   'P 1'
_cell_length_a   8.18676612
_cell_length_b   8.16436622
_cell_length_c   8.18676668
_cell_angle_alpha   60.09047243
_cell_angle_beta   60.18520031
_cell_angle_gamma   60.09046925
_symmetry_Int_Tables_number   1
_chemical_formula_structural   Nb6Co4ReWC2
_chemical_formula_sum   'Nb12 Co8 Re2 W2 C4'
_cell_volume   387.99903561
_cell_formula_units_Z   2
loop_
 _symmetry_equiv_pos_site_id
 _symmetry_equiv_pos_as_xyz
  1  'x, y, z'
loop_
 _atom_site_type_symbol
 _atom_site_label
 _atom_site_symmetry_multiplicity
 _atom_site_fract_x
 _atom_site_fract_y
 _atom_site_fract_z
 _atom_site_occupancy
  Nb  Nb0  1  0.693883  0.306117  0.693883  1
  Nb  Nb1  1  0.942025  0.556617  0.559321  1
  Nb  Nb2  1  0.559321  0.942037  0.942025  1
  Nb  Nb3  1  0.940094  0.559906  0.940094  1
  Nb  Nb4  1  0.559321  0.556617  0.942025  1
  Nb  Nb5  1  0.942025  0.942037  0.559321  1
  Nb  Nb6  1  0.690679  0.693383  0.307975  1
  Nb  Nb7  1  0.307975  0.693383  0.690679  1
  Nb  Nb8  1  0.690679  0.307963  0.307975  1
  Nb  Nb9  1  0.307975  0.307963  0.690679  1
  Nb  Nb10  1  0.556117  0.943883  0.556117  1
  Nb  Nb11  1  0.309906  0.690094  0.309906  1
  Co  Co12  1  0.326474  0.325338  0.326474  1
  Co  Co13  1  0.230521  0.923496  0.922485  1
  Co  Co14  1  0.923526  0.228284  0.923526  1
  Co  Co15  1  0.922485  0.923496  0.230521  1
  Co  Co16  1  0.326474  0.021716  0.326474  1
  Co  Co17  1  0.327515  0.326504  0.019479  1
  Co  Co18  1  0.019479  0.326504  0.327515  1
  Co  Co19  1  0.923526  0.924662  0.923526  1
  Re  Re20  1  0.625000  0.125000  0.125000  1
  Re  Re21  1  0.125000  0.125000  0.625000  1
  W  W22  1  0.125000  0.125000  0.125000  1
  W  W23  1  0.125000  0.625000  0.125000  1
  C  C24  1  0.625000  0.625000  0.625000  1
  C  C25  1  0.125000  0.625000  0.625000  1
  C  C26  1  0.625000  0.125000  0.625000  1
  C  C27  1  0.625000  0.625000  0.125000  1
