# generated using pymatgen
data_Tm2IrRuF14
_symmetry_space_group_name_H-M   'P 1'
_cell_length_a   5.59433581
_cell_length_b   5.88164290
_cell_length_c   8.19974736
_cell_angle_alpha   102.99330090
_cell_angle_beta   90.14262388
_cell_angle_gamma   89.79358653
_symmetry_Int_Tables_number   1
_chemical_formula_structural   Tm2IrRuF14
_chemical_formula_sum   'Tm2 Ir1 Ru1 F14'
_cell_volume   262.89349901
_cell_formula_units_Z   1
loop_
 _symmetry_equiv_pos_site_id
 _symmetry_equiv_pos_as_xyz
  1  'x, y, z'
loop_
 _atom_site_type_symbol
 _atom_site_label
 _atom_site_symmetry_multiplicity
 _atom_site_fract_x
 _atom_site_fract_y
 _atom_site_fract_z
 _atom_site_occupancy
  Tm  Tm0  1  0.702190  0.651499  0.688803  1
  Tm  Tm1  1  0.201158  0.351351  0.310821  1
  Ir  Ir2  1  0.706487  0.816878  0.224999  1
  Ru  Ru3  1  0.206911  0.183184  0.775757  1
  F  F4  1  0.922248  0.475853  0.488482  1
  F  F5  1  0.421319  0.523109  0.511908  1
  F  F6  1  0.423105  0.918034  0.763982  1
  F  F7  1  0.921249  0.082528  0.236029  1
  F  F8  1  0.938106  0.963751  0.760333  1
  F  F9  1  0.432400  0.040829  0.241839  1
  F  F10  1  0.989446  0.449807  0.794593  1
  F  F11  1  0.491463  0.548132  0.204040  1
  F  F12  1  0.703112  0.767907  0.981137  1
  F  F13  1  0.203749  0.230202  0.014156  1
  F  F14  1  0.705378  0.875452  0.468751  1
  F  F15  1  0.206057  0.126569  0.537778  1
  F  F16  1  0.486487  0.388952  0.790679  1
  F  F17  1  0.991853  0.605960  0.205912  1
