# generated using pymatgen
data_Tb4Gd6Si6H
_symmetry_space_group_name_H-M   'P 1'
_cell_length_a   8.47404700
_cell_length_b   8.47404814
_cell_length_c   6.32965700
_cell_angle_alpha   90.00000000
_cell_angle_beta   90.00000000
_cell_angle_gamma   119.99999946
_symmetry_Int_Tables_number   1
_chemical_formula_structural   Tb4Gd6Si6H
_chemical_formula_sum   'Tb4 Gd6 Si6 H1'
_cell_volume   393.63400209
_cell_formula_units_Z   1
loop_
 _symmetry_equiv_pos_site_id
 _symmetry_equiv_pos_as_xyz
  1  'x, y, z'
loop_
 _atom_site_type_symbol
 _atom_site_label
 _atom_site_symmetry_multiplicity
 _atom_site_fract_x
 _atom_site_fract_y
 _atom_site_fract_z
 _atom_site_occupancy
  Tb  Tb0  1  0.333333  0.666667  0.500000  1
  Tb  Tb1  1  0.666667  0.333333  0.500000  1
  Tb  Tb2  1  0.666667  0.333333  0.000000  1
  Tb  Tb3  1  0.333333  0.666667  0.000000  1
  Gd  Gd4  1  0.000000  0.750397  0.247958  1
  Gd  Gd5  1  0.249603  0.249603  0.247958  1
  Gd  Gd6  1  0.750397  0.000000  0.247958  1
  Gd  Gd7  1  0.000000  0.249603  0.752042  1
  Gd  Gd8  1  0.750397  0.750397  0.752042  1
  Gd  Gd9  1  0.249603  0.000000  0.752042  1
  Si  Si10  1  0.000000  0.392119  0.249489  1
  Si  Si11  1  0.607881  0.607881  0.249489  1
  Si  Si12  1  0.392119  0.000000  0.249489  1
  Si  Si13  1  0.000000  0.607881  0.750511  1
  Si  Si14  1  0.392119  0.392119  0.750511  1
  Si  Si15  1  0.607881  0.000000  0.750511  1
  H  H16  1  0.000000  0.000000  0.500000  1
