# generated using pymatgen
data_Ti4Cu2Si3GeRh2
_symmetry_space_group_name_H-M   'P 1'
_cell_length_a   3.74152300
_cell_length_b   6.31472179
_cell_length_c   7.33081621
_cell_angle_alpha   90.30077608
_cell_angle_beta   90.00000000
_cell_angle_gamma   90.00000000
_symmetry_Int_Tables_number   1
_chemical_formula_structural   Ti4Cu2Si3GeRh2
_chemical_formula_sum   'Ti4 Cu2 Si3 Ge1 Rh2'
_cell_volume   173.20043884
_cell_formula_units_Z   1
loop_
 _symmetry_equiv_pos_site_id
 _symmetry_equiv_pos_as_xyz
  1  'x, y, z'
loop_
 _atom_site_type_symbol
 _atom_site_label
 _atom_site_symmetry_multiplicity
 _atom_site_fract_x
 _atom_site_fract_y
 _atom_site_fract_z
 _atom_site_occupancy
  Ti  Ti0  1  0.750000  0.473251  0.326888  1
  Ti  Ti1  1  0.250000  0.030898  0.816761  1
  Ti  Ti2  1  0.750000  0.965665  0.178202  1
  Ti  Ti3  1  0.250000  0.534097  0.679342  1
  Cu  Cu4  1  0.750000  0.849985  0.561385  1
  Cu  Cu5  1  0.750000  0.356512  0.932616  1
  Si  Si6  1  0.250000  0.759691  0.373251  1
  Si  Si7  1  0.750000  0.746404  0.872168  1
  Si  Si8  1  0.750000  0.246243  0.626171  1
  Ge  Ge9  1  0.250000  0.255802  0.126900  1
  Rh  Rh10  1  0.250000  0.646282  0.055705  1
  Rh  Rh11  1  0.250000  0.135169  0.450611  1
