# generated using pymatgen
data_La5Pr11Cd4RuPt3
_symmetry_space_group_name_H-M   'P 1'
_cell_length_a   10.10261215
_cell_length_b   10.14037596
_cell_length_c   10.14100174
_cell_angle_alpha   59.79969678
_cell_angle_beta   59.77472184
_cell_angle_gamma   59.77196330
_symmetry_Int_Tables_number   1
_chemical_formula_structural   La5Pr11Cd4RuPt3
_chemical_formula_sum   'La5 Pr11 Cd4 Ru1 Pt3'
_cell_volume   730.97073508
_cell_formula_units_Z   1
loop_
 _symmetry_equiv_pos_site_id
 _symmetry_equiv_pos_as_xyz
  1  'x, y, z'
loop_
 _atom_site_type_symbol
 _atom_site_label
 _atom_site_symmetry_multiplicity
 _atom_site_fract_x
 _atom_site_fract_y
 _atom_site_fract_z
 _atom_site_occupancy
  La  La0  1  0.350369  0.350945  0.350909  1
  La  La1  1  0.345964  0.345606  0.954623  1
  La  La2  1  0.345981  0.954623  0.345607  1
  La  La3  1  0.954359  0.346699  0.346744  1
  La  La4  1  0.820582  0.187202  0.187164  1
  Pr  Pr5  1  0.188884  0.808647  0.808634  1
  Pr  Pr6  1  0.190151  0.814700  0.188592  1
  Pr  Pr7  1  0.808077  0.189245  0.807650  1
  Pr  Pr8  1  0.190112  0.188612  0.814714  1
  Pr  Pr9  1  0.808101  0.807643  0.189262  1
  Pr  Pr10  1  0.935869  0.564727  0.564736  1
  Pr  Pr11  1  0.560239  0.935846  0.935827  1
  Pr  Pr12  1  0.564049  0.936156  0.564638  1
  Pr  Pr13  1  0.936791  0.560241  0.935831  1
  Pr  Pr14  1  0.564071  0.564643  0.936149  1
  Pr  Pr15  1  0.936770  0.935843  0.560229  1
  Cd  Cd16  1  0.579772  0.579786  0.579782  1
  Cd  Cd17  1  0.580196  0.581996  0.257746  1
  Cd  Cd18  1  0.580203  0.257748  0.581978  1
  Cd  Cd19  1  0.257892  0.580724  0.580693  1
  Ru  Ru20  1  0.136976  0.145932  0.146037  1
  Pt  Pt21  1  0.145461  0.144417  0.572379  1
  Pt  Pt22  1  0.145452  0.572352  0.144418  1
  Pt  Pt23  1  0.573676  0.145670  0.145651  1
