# generated using pymatgen
data_Dy16Er3ThPb16
_symmetry_space_group_name_H-M   'P 1'
_cell_length_a   8.21445840
_cell_length_b   8.28778332
_cell_length_c   15.67018400
_cell_angle_alpha   90.01034918
_cell_angle_beta   89.69498217
_cell_angle_gamma   89.94983081
_symmetry_Int_Tables_number   1
_chemical_formula_structural   Dy16Er3ThPb16
_chemical_formula_sum   'Dy16 Er3 Th1 Pb16'
_cell_volume   1066.80511834
_cell_formula_units_Z   1
loop_
 _symmetry_equiv_pos_site_id
 _symmetry_equiv_pos_as_xyz
  1  'x, y, z'
loop_
 _atom_site_type_symbol
 _atom_site_label
 _atom_site_symmetry_multiplicity
 _atom_site_fract_x
 _atom_site_fract_y
 _atom_site_fract_z
 _atom_site_occupancy
  Dy  Dy0  1  0.624472  0.158756  0.621335  1
  Dy  Dy1  1  0.121760  0.340663  0.880074  1
  Dy  Dy2  1  0.378102  0.842533  0.120850  1
  Dy  Dy3  1  0.875498  0.657817  0.377692  1
  Dy  Dy4  1  0.375274  0.842736  0.378320  1
  Dy  Dy5  1  0.878447  0.657529  0.120836  1
  Dy  Dy6  1  0.620801  0.157899  0.879330  1
  Dy  Dy7  1  0.123728  0.342068  0.621080  1
  Dy  Dy8  1  0.462369  0.675040  0.599825  1
  Dy  Dy9  1  0.959610  0.825148  0.898580  1
  Dy  Dy10  1  0.539050  0.325193  0.101156  1
  Dy  Dy11  1  0.036737  0.176228  0.399275  1
  Dy  Dy12  1  0.535220  0.324843  0.399897  1
  Dy  Dy13  1  0.038774  0.175209  0.100985  1
  Dy  Dy14  1  0.461735  0.673937  0.900315  1
  Dy  Dy15  1  0.790647  0.497405  0.750747  1
  Er  Er16  1  0.291152  0.004670  0.751272  1
  Er  Er17  1  0.209161  0.503511  0.249490  1
  Er  Er18  1  0.708957  0.996454  0.249243  1
  Th  Th19  1  0.968460  0.821761  0.598293  1
  Pb  Pb20  1  0.717391  0.968709  0.455105  1
  Pb  Pb21  1  0.220722  0.531407  0.044088  1
  Pb  Pb22  1  0.278558  0.029626  0.956287  1
  Pb  Pb23  1  0.779852  0.466654  0.543152  1
  Pb  Pb24  1  0.286083  0.036895  0.542873  1
  Pb  Pb25  1  0.779561  0.467269  0.956968  1
  Pb  Pb26  1  0.720152  0.967979  0.043466  1
  Pb  Pb27  1  0.216816  0.535499  0.456900  1
  Pb  Pb28  1  0.427795  0.372313  0.750219  1
  Pb  Pb29  1  0.928027  0.126697  0.749455  1
  Pb  Pb30  1  0.571495  0.626428  0.250019  1
  Pb  Pb31  1  0.071877  0.873817  0.249636  1
  Pb  Pb32  1  0.648727  0.845971  0.749877  1
  Pb  Pb33  1  0.154915  0.651021  0.752720  1
  Pb  Pb34  1  0.348982  0.155281  0.250369  1
  Pb  Pb35  1  0.849094  0.345034  0.250266  1
