# generated using pymatgen
data_La3YCoBr5
_symmetry_space_group_name_H-M   'P 1'
_cell_length_a   9.38110190
_cell_length_b   9.38110295
_cell_length_c   8.86086500
_cell_angle_alpha   76.64425271
_cell_angle_beta   76.64425119
_cell_angle_gamma   25.36157551
_symmetry_Int_Tables_number   1
_chemical_formula_structural   La3YCoBr5
_chemical_formula_sum   'La3 Y1 Co1 Br5'
_cell_volume   324.51410485
_cell_formula_units_Z   1
loop_
 _symmetry_equiv_pos_site_id
 _symmetry_equiv_pos_as_xyz
  1  'x, y, z'
loop_
 _atom_site_type_symbol
 _atom_site_label
 _atom_site_symmetry_multiplicity
 _atom_site_fract_x
 _atom_site_fract_y
 _atom_site_fract_z
 _atom_site_occupancy
  La  La0  1  0.860471  0.860471  0.067907  1
  La  La1  1  0.140159  0.140159  0.920499  1
  La  La2  1  0.500692  0.500692  0.236380  1
  Y  Y3  1  0.499750  0.499750  0.782838  1
  Co  Co4  1  0.000385  0.000385  0.000723  1
  Br  Br5  1  0.674750  0.674750  0.163766  1
  Br  Br6  1  0.332862  0.332862  0.819265  1
  Br  Br7  1  0.660410  0.660410  0.654173  1
  Br  Br8  1  0.331503  0.331503  0.336318  1
  Br  Br9  1  0.999018  0.999018  0.518129  1
