# generated using pymatgen
data_K2Pr10Co2Br17
_symmetry_space_group_name_H-M   'P 1'
_cell_length_a   9.55417530
_cell_length_b   11.25262891
_cell_length_c   11.25335200
_cell_angle_alpha   107.61355711
_cell_angle_beta   93.40043561
_cell_angle_gamma   93.40716139
_symmetry_Int_Tables_number   1
_chemical_formula_structural   K2Pr10Co2Br17
_chemical_formula_sum   'K2 Pr10 Co2 Br17'
_cell_volume   1147.28131361
_cell_formula_units_Z   1
loop_
 _symmetry_equiv_pos_site_id
 _symmetry_equiv_pos_as_xyz
  1  'x, y, z'
loop_
 _atom_site_type_symbol
 _atom_site_label
 _atom_site_symmetry_multiplicity
 _atom_site_fract_x
 _atom_site_fract_y
 _atom_site_fract_z
 _atom_site_occupancy
  K  K0  1  0.999841  0.761049  0.236367  1
  K  K1  1  0.999515  0.236353  0.761269  1
  Pr  Pr2  1  0.433707  0.168645  0.168661  1
  Pr  Pr3  1  0.571129  0.510076  0.200362  1
  Pr  Pr4  1  0.822050  0.290528  0.290546  1
  Pr  Pr5  1  0.312679  0.437139  0.437179  1
  Pr  Pr6  1  0.428434  0.799723  0.490009  1
  Pr  Pr7  1  0.571071  0.200357  0.510055  1
  Pr  Pr8  1  0.685405  0.562928  0.562893  1
  Pr  Pr9  1  0.178997  0.710290  0.710293  1
  Pr  Pr10  1  0.428432  0.490002  0.799714  1
  Pr  Pr11  1  0.568570  0.832217  0.832216  1
  Co  Co12  1  0.568166  0.356721  0.356737  1
  Co  Co13  1  0.431666  0.643772  0.643748  1
  Br  Br14  1  0.584121  0.684931  0.019905  1
  Br  Br15  1  0.705751  0.069569  0.069575  1
  Br  Br16  1  0.859289  0.455395  0.124203  1
  Br  Br17  1  0.133368  0.220836  0.220889  1
  Br  Br18  1  0.282950  0.605957  0.257354  1
  Br  Br19  1  0.415747  0.980424  0.314888  1
  Br  Br20  1  0.717028  0.743226  0.394345  1
  Br  Br21  1  0.859306  0.124325  0.455548  1
  Br  Br22  1  0.999802  0.500454  0.500378  1
  Br  Br23  1  0.139981  0.874793  0.543666  1
  Br  Br24  1  0.282932  0.257333  0.606093  1
  Br  Br25  1  0.584023  0.019967  0.684985  1
  Br  Br26  1  0.717001  0.394347  0.743199  1
  Br  Br27  1  0.867381  0.779063  0.778627  1
  Br  Br28  1  0.139984  0.543688  0.874856  1
  Br  Br29  1  0.295843  0.930993  0.930976  1
  Br  Br30  1  0.415836  0.314895  0.980467  1
