# generated using pymatgen
data_MoRh8
_symmetry_space_group_name_H-M   'P 1'
_cell_length_a   6.10817205
_cell_length_b   6.10817169
_cell_length_c   6.10817254
_cell_angle_alpha   95.74169455
_cell_angle_beta   95.74169515
_cell_angle_gamma   143.12172282
_symmetry_Int_Tables_number   1
_chemical_formula_structural   MoRh8
_chemical_formula_sum   'Mo1 Rh8'
_cell_volume   129.74194559
_cell_formula_units_Z   1
loop_
 _symmetry_equiv_pos_site_id
 _symmetry_equiv_pos_as_xyz
  1  'x, y, z'
loop_
 _atom_site_type_symbol
 _atom_site_label
 _atom_site_symmetry_multiplicity
 _atom_site_fract_x
 _atom_site_fract_y
 _atom_site_fract_z
 _atom_site_occupancy
  Mo  Mo0  1  0.000000  0.000000  0.000000  1
  Rh  Rh1  1  0.663089  0.336910  0.000000  1
  Rh  Rh2  1  0.336910  0.663089  0.000000  1
  Rh  Rh3  1  0.663089  0.663089  0.326180  1
  Rh  Rh4  1  0.330967  0.000000  0.330967  1
  Rh  Rh5  1  0.000000  0.330967  0.330967  1
  Rh  Rh6  1  0.669033  0.000000  0.669033  1
  Rh  Rh7  1  0.000000  0.669033  0.669033  1
  Rh  Rh8  1  0.336911  0.336911  0.673820  1
