# generated using pymatgen
data_Eu6MgCd22Sb
_symmetry_space_group_name_H-M   'P 1'
_cell_length_a   10.37209632
_cell_length_b   10.37209682
_cell_length_c   10.37209600
_cell_angle_alpha   60.00000262
_cell_angle_beta   60.00000103
_cell_angle_gamma   60.00000411
_symmetry_Int_Tables_number   1
_chemical_formula_structural   Eu6MgCd22Sb
_chemical_formula_sum   'Eu6 Mg1 Cd22 Sb1'
_cell_volume   789.01390848
_cell_formula_units_Z   1
loop_
 _symmetry_equiv_pos_site_id
 _symmetry_equiv_pos_as_xyz
  1  'x, y, z'
loop_
 _atom_site_type_symbol
 _atom_site_label
 _atom_site_symmetry_multiplicity
 _atom_site_fract_x
 _atom_site_fract_y
 _atom_site_fract_z
 _atom_site_occupancy
  Eu  Eu0  1  0.782484  0.782484  0.217516  1
  Eu  Eu1  1  0.217516  0.782484  0.217516  1
  Eu  Eu2  1  0.782484  0.217516  0.217516  1
  Eu  Eu3  1  0.217516  0.217516  0.782484  1
  Eu  Eu4  1  0.782484  0.217516  0.782484  1
  Eu  Eu5  1  0.217516  0.782484  0.782484  1
  Mg  Mg6  1  0.500000  0.500000  0.500000  1
  Cd  Cd7  1  0.833889  0.833889  0.498331  1
  Cd  Cd8  1  0.833889  0.498331  0.833889  1
  Cd  Cd9  1  0.498331  0.833889  0.833889  1
  Cd  Cd10  1  0.833889  0.833889  0.833889  1
  Cd  Cd11  1  0.166111  0.166111  0.501669  1
  Cd  Cd12  1  0.166111  0.501669  0.166111  1
  Cd  Cd13  1  0.501669  0.166111  0.166111  1
  Cd  Cd14  1  0.166111  0.166111  0.166111  1
  Cd  Cd15  1  0.621736  0.621736  0.134794  1
  Cd  Cd16  1  0.621736  0.134794  0.621736  1
  Cd  Cd17  1  0.134794  0.621736  0.621736  1
  Cd  Cd18  1  0.621736  0.621736  0.621736  1
  Cd  Cd19  1  0.378264  0.378264  0.865206  1
  Cd  Cd20  1  0.378264  0.865206  0.378264  1
  Cd  Cd21  1  0.865206  0.378264  0.378264  1
  Cd  Cd22  1  0.378264  0.378264  0.378264  1
  Cd  Cd23  1  0.000000  0.000000  0.500000  1
  Cd  Cd24  1  0.500000  0.000000  0.500000  1
  Cd  Cd25  1  0.000000  0.500000  0.500000  1
  Cd  Cd26  1  0.500000  0.500000  0.000000  1
  Cd  Cd27  1  0.000000  0.500000  0.000000  1
  Cd  Cd28  1  0.500000  0.000000  0.000000  1
  Sb  Sb29  1  0.000000  0.000000  0.000000  1
