# generated using pymatgen
data_Tb7Ho9Cd4FePt3
_symmetry_space_group_name_H-M   'P 1'
_cell_length_a   9.63447394
_cell_length_b   9.63447375
_cell_length_c   9.63241301
_cell_angle_alpha   59.87734163
_cell_angle_beta   59.87734344
_cell_angle_gamma   59.89896011
_symmetry_Int_Tables_number   1
_chemical_formula_structural   Tb7Ho9Cd4FePt3
_chemical_formula_sum   'Tb7 Ho9 Cd4 Fe1 Pt3'
_cell_volume   630.57528641
_cell_formula_units_Z   1
loop_
 _symmetry_equiv_pos_site_id
 _symmetry_equiv_pos_as_xyz
  1  'x, y, z'
loop_
 _atom_site_type_symbol
 _atom_site_label
 _atom_site_symmetry_multiplicity
 _atom_site_fract_x
 _atom_site_fract_y
 _atom_site_fract_z
 _atom_site_occupancy
  Tb  Tb0  1  0.809915  0.809915  0.188887  1
  Tb  Tb1  1  0.936561  0.563764  0.564003  1
  Tb  Tb2  1  0.560052  0.937126  0.937000  1
  Tb  Tb3  1  0.563764  0.936561  0.564003  1
  Tb  Tb4  1  0.937126  0.560052  0.937000  1
  Tb  Tb5  1  0.563895  0.563895  0.936429  1
  Tb  Tb6  1  0.937059  0.937059  0.560153  1
  Ho  Ho7  1  0.352002  0.352002  0.352034  1
  Ho  Ho8  1  0.346497  0.346497  0.951133  1
  Ho  Ho9  1  0.346260  0.951222  0.346600  1
  Ho  Ho10  1  0.951222  0.346260  0.346600  1
  Ho  Ho11  1  0.819959  0.188550  0.188356  1
  Ho  Ho12  1  0.188967  0.810001  0.809789  1
  Ho  Ho13  1  0.188550  0.819959  0.188356  1
  Ho  Ho14  1  0.810001  0.188967  0.809789  1
  Ho  Ho15  1  0.188360  0.188360  0.819936  1
  Cd  Cd16  1  0.579757  0.579757  0.579932  1
  Cd  Cd17  1  0.581225  0.581225  0.254987  1
  Cd  Cd18  1  0.581281  0.254978  0.581289  1
  Cd  Cd19  1  0.254978  0.581281  0.581289  1
  Fe  Fe20  1  0.142670  0.142670  0.142692  1
  Pt  Pt21  1  0.143707  0.143707  0.572411  1
  Pt  Pt22  1  0.144287  0.571908  0.143668  1
  Pt  Pt23  1  0.571908  0.144287  0.143668  1
