# generated using pymatgen
data_YbYZr2(Al8Pt3)3
_symmetry_space_group_name_H-M   'P 1'
_cell_length_a   7.50748935
_cell_length_b   7.50587397
_cell_length_c   13.08193497
_cell_angle_alpha   84.52799050
_cell_angle_beta   100.97514196
_cell_angle_gamma   119.97506642
_symmetry_Int_Tables_number   1
_chemical_formula_structural   YbYZr2(Al8Pt3)3
_chemical_formula_sum   'Yb1 Y1 Zr2 Al24 Pt9'
_cell_volume   626.88923564
_cell_formula_units_Z   1
loop_
 _symmetry_equiv_pos_site_id
 _symmetry_equiv_pos_as_xyz
  1  'x, y, z'
loop_
 _atom_site_type_symbol
 _atom_site_label
 _atom_site_symmetry_multiplicity
 _atom_site_fract_x
 _atom_site_fract_y
 _atom_site_fract_z
 _atom_site_occupancy
  Yb  Yb0  1  0.232185  0.498160  0.192134  1
  Y  Y1  1  0.768488  0.501833  0.808689  1
  Zr  Zr2  1  0.438046  0.831391  0.809634  1
  Zr  Zr3  1  0.561858  0.168260  0.190641  1
  Al  Al4  1  0.482739  0.164102  0.943701  1
  Al  Al5  1  0.516832  0.835337  0.056846  1
  Al  Al6  1  0.020388  0.167376  0.562121  1
  Al  Al7  1  0.979642  0.832945  0.437783  1
  Al  Al8  1  0.353516  0.833158  0.560359  1
  Al  Al9  1  0.646562  0.166592  0.439241  1
  Al  Al10  1  0.614723  0.835669  0.326628  1
  Al  Al11  1  0.383840  0.163679  0.672962  1
  Al  Al12  1  0.059044  0.495456  0.673248  1
  Al  Al13  1  0.941680  0.504118  0.326339  1
  Al  Al14  1  0.729012  0.840000  0.672288  1
  Al  Al15  1  0.271077  0.161282  0.327211  1
  Al  Al16  1  0.149891  0.502355  0.944168  1
  Al  Al17  1  0.851198  0.497193  0.057665  1
  Al  Al18  1  0.814059  0.832453  0.951651  1
  Al  Al19  1  0.186254  0.168120  0.049122  1
  Al  Al20  1  0.313839  0.500686  0.440092  1
  Al  Al21  1  0.685544  0.499125  0.559017  1
  Al  Al22  1  0.109061  0.843413  0.183379  1
  Al  Al23  1  0.891863  0.158037  0.816425  1
  Al  Al24  1  0.306921  0.373921  0.815309  1
  Al  Al25  1  0.693318  0.625170  0.184437  1
  Al  Al26  1  0.109549  0.960302  0.815931  1
  Al  Al27  1  0.889547  0.039993  0.183878  1
  Pt  Pt28  1  0.388359  0.508988  0.638976  1
  Pt  Pt29  1  0.612871  0.491880  0.361513  1
  Pt  Pt30  1  0.170458  0.828046  0.998804  1
  Pt  Pt31  1  0.828534  0.171640  0.999602  1
  Pt  Pt32  1  0.295481  0.833387  0.361928  1
  Pt  Pt33  1  0.703852  0.166571  0.638726  1
  Pt  Pt34  1  0.045686  0.824377  0.637679  1
  Pt  Pt35  1  0.953937  0.174605  0.362774  1
  Pt  Pt36  1  0.500146  0.500381  0.999099  1
