# generated using pymatgen
data_Ti18VSi16Pd
_symmetry_space_group_name_H-M   'P 1'
_cell_length_a   6.68922243
_cell_length_b   6.68699802
_cell_length_c   12.13843475
_cell_angle_alpha   89.89812246
_cell_angle_beta   90.39308786
_cell_angle_gamma   89.90000120
_symmetry_Int_Tables_number   1
_chemical_formula_structural   Ti18VSi16Pd
_chemical_formula_sum   'Ti18 V1 Si16 Pd1'
_cell_volume   542.94763062
_cell_formula_units_Z   1
loop_
 _symmetry_equiv_pos_site_id
 _symmetry_equiv_pos_as_xyz
  1  'x, y, z'
loop_
 _atom_site_type_symbol
 _atom_site_label
 _atom_site_symmetry_multiplicity
 _atom_site_fract_x
 _atom_site_fract_y
 _atom_site_fract_z
 _atom_site_occupancy
  Ti  Ti0  1  0.353942  0.497093  0.868251  1
  Ti  Ti1  1  0.649676  0.503192  0.371505  1
  Ti  Ti2  1  0.498159  0.354831  0.131012  1
  Ti  Ti3  1  0.503051  0.648219  0.629089  1
  Ti  Ti4  1  0.003869  0.849792  0.120194  1
  Ti  Ti5  1  0.148537  0.996199  0.376504  1
  Ti  Ti6  1  0.849769  0.003292  0.880204  1
  Ti  Ti7  1  0.001057  0.347992  0.218754  1
  Ti  Ti8  1  0.154014  0.502198  0.468881  1
  Ti  Ti9  1  0.840693  0.496585  0.968987  1
  Ti  Ti10  1  0.501541  0.154825  0.531893  1
  Ti  Ti11  1  0.497908  0.840061  0.030087  1
  Ti  Ti12  1  0.998134  0.656574  0.719448  1
  Ti  Ti13  1  0.348159  0.000980  0.780238  1
  Ti  Ti14  1  0.655958  0.998050  0.281615  1
  Ti  Ti15  1  0.327831  0.672345  0.248479  1
  Ti  Ti16  1  0.672218  0.326130  0.750782  1
  Ti  Ti17  1  0.830554  0.830294  0.500914  1
  V  V18  1  0.992370  0.148157  0.623745  1
  Si  Si19  1  0.046587  0.298397  0.811997  1
  Si  Si20  1  0.202719  0.547159  0.061344  1
  Si  Si21  1  0.802073  0.452101  0.564564  1
  Si  Si22  1  0.547565  0.202822  0.938189  1
  Si  Si23  1  0.454250  0.801055  0.436697  1
  Si  Si24  1  0.955809  0.699321  0.313648  1
  Si  Si25  1  0.300959  0.046792  0.185564  1
  Si  Si26  1  0.702758  0.956141  0.686279  1
  Si  Si27  1  0.289426  0.354660  0.671168  1
  Si  Si28  1  0.137751  0.785867  0.920033  1
  Si  Si29  1  0.858962  0.205462  0.425176  1
  Si  Si30  1  0.785643  0.137286  0.080009  1
  Si  Si31  1  0.204065  0.863651  0.578115  1
  Si  Si32  1  0.705787  0.645362  0.173143  1
  Si  Si33  1  0.356482  0.294696  0.327299  1
  Si  Si34  1  0.644865  0.705671  0.826799  1
  Pd  Pd35  1  0.176855  0.176746  0.999396  1
