# generated using pymatgen
data_La5ThZn4Pt13
_symmetry_space_group_name_H-M   'P 1'
_cell_length_a   8.46869800
_cell_length_b   8.46869934
_cell_length_c   8.46869908
_cell_angle_alpha   109.73906844
_cell_angle_beta   109.73907210
_cell_angle_gamma   108.93684432
_symmetry_Int_Tables_number   1
_chemical_formula_structural   La5ThZn4Pt13
_chemical_formula_sum   'La5 Th1 Zn4 Pt13'
_cell_volume   467.51962049
_cell_formula_units_Z   1
loop_
 _symmetry_equiv_pos_site_id
 _symmetry_equiv_pos_as_xyz
  1  'x, y, z'
loop_
 _atom_site_type_symbol
 _atom_site_label
 _atom_site_symmetry_multiplicity
 _atom_site_fract_x
 _atom_site_fract_y
 _atom_site_fract_z
 _atom_site_occupancy
  La  La0  1  0.302296  0.999597  0.302699  1
  La  La1  1  0.999597  0.302296  0.302699  1
  La  La2  1  0.299820  0.299820  0.000000  1
  La  La3  1  0.696897  0.999597  0.697301  1
  La  La4  1  0.999597  0.696897  0.697301  1
  Th  Th5  1  0.692228  0.692228  0.000000  1
  Zn  Zn6  1  0.001176  0.001176  0.500321  1
  Zn  Zn7  1  0.001176  0.500855  0.000000  1
  Zn  Zn8  1  0.500855  0.001176  0.000000  1
  Zn  Zn9  1  0.500855  0.500855  0.499679  1
  Pt  Pt10  1  0.331282  0.331282  0.660896  1
  Pt  Pt11  1  0.675754  0.999741  0.323987  1
  Pt  Pt12  1  0.999741  0.675754  0.323987  1
  Pt  Pt13  1  0.670387  0.331282  0.000000  1
  Pt  Pt14  1  0.326774  0.654324  0.327549  1
  Pt  Pt15  1  0.999226  0.326774  0.672451  1
  Pt  Pt16  1  0.331282  0.670387  0.000000  1
  Pt  Pt17  1  0.326774  0.999226  0.672451  1
  Pt  Pt18  1  0.654324  0.326774  0.327549  1
  Pt  Pt19  1  0.670387  0.670387  0.339104  1
  Pt  Pt20  1  0.675754  0.351765  0.676013  1
  Pt  Pt21  1  0.351765  0.675754  0.676013  1
  Pt  Pt22  1  0.992055  0.992055  0.000000  1
