# generated using pymatgen
data_Nd3(Sn3Pt2)2
_symmetry_space_group_name_H-M   'P 1'
_cell_length_a   4.68973600
_cell_length_b   9.39296800
_cell_length_c   27.58642500
_cell_angle_alpha   90.00000000
_cell_angle_beta   90.00000000
_cell_angle_gamma   90.00000000
_symmetry_Int_Tables_number   1
_chemical_formula_structural   Nd3(Sn3Pt2)2
_chemical_formula_sum   'Nd12 Sn24 Pt16'
_cell_volume   1215.19692279
_cell_formula_units_Z   4
loop_
 _symmetry_equiv_pos_site_id
 _symmetry_equiv_pos_as_xyz
  1  'x, y, z'
loop_
 _atom_site_type_symbol
 _atom_site_label
 _atom_site_symmetry_multiplicity
 _atom_site_fract_x
 _atom_site_fract_y
 _atom_site_fract_z
 _atom_site_occupancy
  Nd  Nd0  1  0.250000  0.374467  0.279623  1
  Nd  Nd1  1  0.750000  0.625533  0.720377  1
  Nd  Nd2  1  0.750000  0.874467  0.220377  1
  Nd  Nd3  1  0.250000  0.125533  0.779623  1
  Nd  Nd4  1  0.250000  0.135567  0.407107  1
  Nd  Nd5  1  0.750000  0.864433  0.592893  1
  Nd  Nd6  1  0.750000  0.635567  0.092893  1
  Nd  Nd7  1  0.250000  0.364433  0.907107  1
  Nd  Nd8  1  0.250000  0.613296  0.407233  1
  Nd  Nd9  1  0.750000  0.386704  0.592767  1
  Nd  Nd10  1  0.750000  0.113296  0.092767  1
  Nd  Nd11  1  0.250000  0.886704  0.907233  1
  Sn  Sn12  1  0.250000  0.719219  0.285150  1
  Sn  Sn13  1  0.750000  0.280781  0.714850  1
  Sn  Sn14  1  0.750000  0.219219  0.214850  1
  Sn  Sn15  1  0.250000  0.780781  0.785150  1
  Sn  Sn16  1  0.250000  0.374352  0.143780  1
  Sn  Sn17  1  0.750000  0.625648  0.856220  1
  Sn  Sn18  1  0.750000  0.874352  0.356220  1
  Sn  Sn19  1  0.250000  0.125648  0.643780  1
  Sn  Sn20  1  0.250000  0.029725  0.285273  1
  Sn  Sn21  1  0.750000  0.970275  0.714727  1
  Sn  Sn22  1  0.750000  0.529725  0.214727  1
  Sn  Sn23  1  0.250000  0.470275  0.785273  1
  Sn  Sn24  1  0.250000  0.875003  0.138259  1
  Sn  Sn25  1  0.750000  0.124997  0.861741  1
  Sn  Sn26  1  0.750000  0.375003  0.361741  1
  Sn  Sn27  1  0.250000  0.624997  0.638259  1
  Sn  Sn28  1  0.250000  0.127423  0.002873  1
  Sn  Sn29  1  0.750000  0.872577  0.997127  1
  Sn  Sn30  1  0.750000  0.627423  0.497127  1
  Sn  Sn31  1  0.250000  0.372577  0.502873  1
  Sn  Sn32  1  0.250000  0.878074  0.498057  1
  Sn  Sn33  1  0.750000  0.121926  0.501943  1
  Sn  Sn34  1  0.750000  0.378074  0.001943  1
  Sn  Sn35  1  0.250000  0.621926  0.998057  1
  Pt  Pt36  1  0.250000  0.631639  0.187307  1
  Pt  Pt37  1  0.750000  0.368361  0.812693  1
  Pt  Pt38  1  0.750000  0.131639  0.312693  1
  Pt  Pt39  1  0.250000  0.868361  0.687307  1
  Pt  Pt40  1  0.250000  0.629425  0.544407  1
  Pt  Pt41  1  0.750000  0.370575  0.455593  1
  Pt  Pt42  1  0.750000  0.129425  0.955593  1
  Pt  Pt43  1  0.250000  0.870575  0.044407  1
  Pt  Pt44  1  0.250000  0.117892  0.187633  1
  Pt  Pt45  1  0.750000  0.882108  0.812367  1
  Pt  Pt46  1  0.750000  0.617892  0.312367  1
  Pt  Pt47  1  0.250000  0.382108  0.687633  1
  Pt  Pt48  1  0.250000  0.378649  0.050107  1
  Pt  Pt49  1  0.750000  0.621351  0.949893  1
  Pt  Pt50  1  0.750000  0.878649  0.449893  1
  Pt  Pt51  1  0.250000  0.121351  0.550107  1
