# generated using pymatgen
data_TmHf3Si4Mo
_symmetry_space_group_name_H-M   'P 1'
_cell_length_a   7.04323600
_cell_length_b   7.04323600
_cell_length_c   12.84148400
_cell_angle_alpha   90.00000000
_cell_angle_beta   90.00000000
_cell_angle_gamma   90.00000000
_symmetry_Int_Tables_number   1
_chemical_formula_structural   TmHf3Si4Mo
_chemical_formula_sum   'Tm4 Hf12 Si16 Mo4'
_cell_volume   637.02972288
_cell_formula_units_Z   4
loop_
 _symmetry_equiv_pos_site_id
 _symmetry_equiv_pos_as_xyz
  1  'x, y, z'
loop_
 _atom_site_type_symbol
 _atom_site_label
 _atom_site_symmetry_multiplicity
 _atom_site_fract_x
 _atom_site_fract_y
 _atom_site_fract_z
 _atom_site_occupancy
  Tm  Tm0  1  0.495187  0.156893  0.532065  1
  Tm  Tm1  1  0.504813  0.843107  0.032065  1
  Tm  Tm2  1  0.656893  0.004813  0.282065  1
  Tm  Tm3  1  0.343107  0.995187  0.782065  1
  Hf  Hf4  1  0.846703  0.499821  0.968826  1
  Hf  Hf5  1  0.153297  0.500179  0.468826  1
  Hf  Hf6  1  0.999821  0.653297  0.718826  1
  Hf  Hf7  1  0.000179  0.346703  0.218826  1
  Hf  Hf8  1  0.493946  0.356601  0.125185  1
  Hf  Hf9  1  0.506054  0.643399  0.625185  1
  Hf  Hf10  1  0.856601  0.006054  0.875185  1
  Hf  Hf11  1  0.143399  0.993946  0.375185  1
  Hf  Hf12  1  0.644936  0.503092  0.374706  1
  Hf  Hf13  1  0.355064  0.496908  0.874706  1
  Hf  Hf14  1  0.003092  0.855064  0.124706  1
  Hf  Hf15  1  0.996908  0.144936  0.624706  1
  Si  Si16  1  0.802492  0.150705  0.070362  1
  Si  Si17  1  0.197508  0.849295  0.570362  1
  Si  Si18  1  0.650705  0.697508  0.820362  1
  Si  Si19  1  0.349295  0.302492  0.320362  1
  Si  Si20  1  0.862101  0.209386  0.429028  1
  Si  Si21  1  0.137899  0.790614  0.929028  1
  Si  Si22  1  0.709386  0.637899  0.179028  1
  Si  Si23  1  0.290614  0.362101  0.679028  1
  Si  Si24  1  0.552377  0.204409  0.933364  1
  Si  Si25  1  0.447623  0.795591  0.433364  1
  Si  Si26  1  0.704409  0.947623  0.683364  1
  Si  Si27  1  0.295591  0.052377  0.183364  1
  Si  Si28  1  0.805229  0.454302  0.566459  1
  Si  Si29  1  0.194771  0.545698  0.066459  1
  Si  Si30  1  0.954302  0.694771  0.316459  1
  Si  Si31  1  0.045698  0.305229  0.816459  1
  Mo  Mo32  1  0.679639  0.329097  0.750006  1
  Mo  Mo33  1  0.320361  0.670903  0.250006  1
  Mo  Mo34  1  0.829097  0.820361  0.500006  1
  Mo  Mo35  1  0.170903  0.179639  0.000006  1
