# generated using pymatgen
data_YEr3(SiPd14)2
_symmetry_space_group_name_H-M   'P 1'
_cell_length_a   8.91838000
_cell_length_b   8.91838000
_cell_length_c   7.07648300
_cell_angle_alpha   90.00000000
_cell_angle_beta   90.00000000
_cell_angle_gamma   90.00000000
_symmetry_Int_Tables_number   1
_chemical_formula_structural   YEr3(SiPd14)2
_chemical_formula_sum   'Y1 Er3 Si2 Pd28'
_cell_volume   562.84577952
_cell_formula_units_Z   1
loop_
 _symmetry_equiv_pos_site_id
 _symmetry_equiv_pos_as_xyz
  1  'x, y, z'
loop_
 _atom_site_type_symbol
 _atom_site_label
 _atom_site_symmetry_multiplicity
 _atom_site_fract_x
 _atom_site_fract_y
 _atom_site_fract_z
 _atom_site_occupancy
  Y  Y0  1  0.500000  0.000000  0.934580  1
  Er  Er1  1  0.000000  0.500000  0.065703  1
  Er  Er2  1  0.000000  0.000000  0.500073  1
  Er  Er3  1  0.500000  0.500000  0.500073  1
  Si  Si4  1  0.500000  0.000000  0.448038  1
  Si  Si5  1  0.000000  0.500000  0.552102  1
  Pd  Pd6  1  0.334330  0.834330  0.615694  1
  Pd  Pd7  1  0.334330  0.165670  0.615694  1
  Pd  Pd8  1  0.665670  0.834330  0.615694  1
  Pd  Pd9  1  0.665670  0.165670  0.615694  1
  Pd  Pd10  1  0.165420  0.665420  0.383822  1
  Pd  Pd11  1  0.165420  0.334580  0.383822  1
  Pd  Pd12  1  0.834580  0.665420  0.383822  1
  Pd  Pd13  1  0.834580  0.334580  0.383822  1
  Pd  Pd14  1  0.500000  0.769635  0.256804  1
  Pd  Pd15  1  0.500000  0.230365  0.256804  1
  Pd  Pd16  1  0.269635  0.000000  0.256804  1
  Pd  Pd17  1  0.730365  0.000000  0.256804  1
  Pd  Pd18  1  0.000000  0.730055  0.743686  1
  Pd  Pd19  1  0.000000  0.269945  0.743686  1
  Pd  Pd20  1  0.230055  0.500000  0.743686  1
  Pd  Pd21  1  0.769945  0.500000  0.743686  1
  Pd  Pd22  1  0.500000  0.349430  0.851919  1
  Pd  Pd23  1  0.500000  0.650570  0.851919  1
  Pd  Pd24  1  0.849430  0.000000  0.851919  1
  Pd  Pd25  1  0.150570  0.000000  0.851919  1
  Pd  Pd26  1  0.000000  0.150822  0.147873  1
  Pd  Pd27  1  0.000000  0.849178  0.147873  1
  Pd  Pd28  1  0.650822  0.500000  0.147873  1
  Pd  Pd29  1  0.349178  0.500000  0.147873  1
  Pd  Pd30  1  0.249794  0.749794  0.000059  1
  Pd  Pd31  1  0.249794  0.250206  0.000059  1
  Pd  Pd32  1  0.750206  0.749794  0.000059  1
  Pd  Pd33  1  0.750206  0.250206  0.000059  1
