# generated using pymatgen
data_TbY(H3Rh)2
_symmetry_space_group_name_H-M   'P 1'
_cell_length_a   5.98979625
_cell_length_b   5.98979541
_cell_length_c   4.72324700
_cell_angle_alpha   90.00000000
_cell_angle_beta   90.00000000
_cell_angle_gamma   143.03110250
_symmetry_Int_Tables_number   1
_chemical_formula_structural   TbY(H3Rh)2
_chemical_formula_sum   'Tb1 Y1 H6 Rh2'
_cell_volume   101.90950432
_cell_formula_units_Z   1
loop_
 _symmetry_equiv_pos_site_id
 _symmetry_equiv_pos_as_xyz
  1  'x, y, z'
loop_
 _atom_site_type_symbol
 _atom_site_label
 _atom_site_symmetry_multiplicity
 _atom_site_fract_x
 _atom_site_fract_y
 _atom_site_fract_z
 _atom_site_occupancy
  Tb  Tb0  1  0.631879  0.368120  0.750001  1
  Y  Y1  1  0.367815  0.632184  0.250000  1
  H  H2  1  0.812792  0.187206  0.007745  1
  H  H3  1  0.579732  0.420266  0.250000  1
  H  H4  1  0.812792  0.187206  0.492256  1
  H  H5  1  0.187403  0.812595  0.507276  1
  H  H6  1  0.420094  0.579904  0.750001  1
  H  H7  1  0.187403  0.812595  0.992724  1
  Rh  Rh8  1  0.082922  0.917076  0.250000  1
  Rh  Rh9  1  0.917157  0.082841  0.750001  1
