# generated using pymatgen
data_PrNd9Bi2(Pb2Br)2
_symmetry_space_group_name_H-M   'P 1'
_cell_length_a   9.65602341
_cell_length_b   9.65602331
_cell_length_c   6.80585200
_cell_angle_alpha   90.00000000
_cell_angle_beta   90.00000000
_cell_angle_gamma   120.27934921
_symmetry_Int_Tables_number   1
_chemical_formula_structural   PrNd9Bi2(Pb2Br)2
_chemical_formula_sum   'Pr1 Nd9 Bi2 Pb4 Br2'
_cell_volume   547.99974146
_cell_formula_units_Z   1
loop_
 _symmetry_equiv_pos_site_id
 _symmetry_equiv_pos_as_xyz
  1  'x, y, z'
loop_
 _atom_site_type_symbol
 _atom_site_label
 _atom_site_symmetry_multiplicity
 _atom_site_fract_x
 _atom_site_fract_y
 _atom_site_fract_z
 _atom_site_occupancy
  Pr  Pr0  1  0.266307  0.266307  0.250000  1
  Nd  Nd1  1  0.267072  0.997126  0.750000  1
  Nd  Nd2  1  0.733283  0.003063  0.250000  1
  Nd  Nd3  1  0.997126  0.267072  0.750000  1
  Nd  Nd4  1  0.003063  0.733283  0.250000  1
  Nd  Nd5  1  0.733505  0.733505  0.750000  1
  Nd  Nd6  1  0.332019  0.668134  0.500148  1
  Nd  Nd7  1  0.668134  0.332019  0.500148  1
  Nd  Nd8  1  0.668134  0.332019  0.999852  1
  Nd  Nd9  1  0.332019  0.668134  0.999852  1
  Bi  Bi10  1  0.385316  0.385316  0.750000  1
  Bi  Bi11  1  0.615694  0.615694  0.250000  1
  Pb  Pb12  1  0.613273  0.999183  0.750000  1
  Pb  Pb13  1  0.387091  0.000263  0.250000  1
  Pb  Pb14  1  0.999183  0.613273  0.750000  1
  Pb  Pb15  1  0.000263  0.387091  0.250000  1
  Br  Br16  1  0.999259  0.999259  0.500624  1
  Br  Br17  1  0.999259  0.999259  0.999376  1
