# generated using pymatgen
data_Rb12Li8Hf4As11P
_symmetry_space_group_name_H-M   'P 1'
_cell_length_a   10.54106725
_cell_length_b   10.54106681
_cell_length_c   15.98342100
_cell_angle_alpha   90.01244725
_cell_angle_beta   90.01244725
_cell_angle_gamma   142.74155983
_symmetry_Int_Tables_number   1
_chemical_formula_structural   Rb12Li8Hf4As11P
_chemical_formula_sum   'Rb12 Li8 Hf4 As11 P1'
_cell_volume   1075.20003013
_cell_formula_units_Z   1
loop_
 _symmetry_equiv_pos_site_id
 _symmetry_equiv_pos_as_xyz
  1  'x, y, z'
loop_
 _atom_site_type_symbol
 _atom_site_label
 _atom_site_symmetry_multiplicity
 _atom_site_fract_x
 _atom_site_fract_y
 _atom_site_fract_z
 _atom_site_occupancy
  Rb  Rb0  1  0.950891  0.607063  0.827562  1
  Rb  Rb1  1  0.548731  0.891795  0.328287  1
  Rb  Rb2  1  0.392940  0.048859  0.172172  1
  Rb  Rb3  1  0.048859  0.392940  0.172172  1
  Rb  Rb4  1  0.891795  0.548731  0.328287  1
  Rb  Rb5  1  0.449963  0.106775  0.671124  1
  Rb  Rb6  1  0.607063  0.950891  0.827562  1
  Rb  Rb7  1  0.289748  0.289748  0.319760  1
  Rb  Rb8  1  0.788445  0.788445  0.182940  1
  Rb  Rb9  1  0.211838  0.211838  0.818895  1
  Rb  Rb10  1  0.711952  0.711952  0.680690  1
  Rb  Rb11  1  0.106775  0.449963  0.671124  1
  Li  Li12  1  0.917175  0.082509  0.000172  1
  Li  Li13  1  0.583908  0.420493  0.499469  1
  Li  Li14  1  0.082509  0.917175  0.000172  1
  Li  Li15  1  0.420493  0.583908  0.499469  1
  Li  Li16  1  0.750278  0.250020  0.999993  1
  Li  Li17  1  0.750095  0.249792  0.499612  1
  Li  Li18  1  0.250020  0.750278  0.999993  1
  Li  Li19  1  0.249792  0.750095  0.499612  1
  Hf  Hf20  1  0.586891  0.413153  0.000171  1
  Hf  Hf21  1  0.911171  0.083074  0.498828  1
  Hf  Hf22  1  0.413153  0.586891  0.000171  1
  Hf  Hf23  1  0.083074  0.911171  0.498828  1
  As  As24  1  0.894115  0.570718  0.088318  1
  As  As25  1  0.429749  0.106009  0.912037  1
  As  As26  1  0.605433  0.928722  0.587120  1
  As  As27  1  0.928722  0.605433  0.587120  1
  As  As28  1  0.106009  0.429749  0.912037  1
  As  As29  1  0.570718  0.894115  0.088318  1
  As  As30  1  0.391851  0.069710  0.410978  1
  As  As31  1  0.225617  0.225617  0.584094  1
  As  As32  1  0.724911  0.724911  0.915449  1
  As  As33  1  0.275132  0.275132  0.085015  1
  As  As34  1  0.069710  0.391851  0.410978  1
  P  P35  1  0.780473  0.780473  0.421470  1
