# generated using pymatgen
data_TbErMgNi7B2
_symmetry_space_group_name_H-M   'P 1'
_cell_length_a   4.98246300
_cell_length_b   4.98246279
_cell_length_c   14.20420100
_cell_angle_alpha   90.00000000
_cell_angle_beta   90.00000000
_cell_angle_gamma   120.00000803
_symmetry_Int_Tables_number   1
_chemical_formula_structural   TbErMgNi7B2
_chemical_formula_sum   'Tb2 Er2 Mg2 Ni14 B4'
_cell_volume   305.37645699
_cell_formula_units_Z   2
loop_
 _symmetry_equiv_pos_site_id
 _symmetry_equiv_pos_as_xyz
  1  'x, y, z'
loop_
 _atom_site_type_symbol
 _atom_site_label
 _atom_site_symmetry_multiplicity
 _atom_site_fract_x
 _atom_site_fract_y
 _atom_site_fract_z
 _atom_site_occupancy
  Tb  Tb0  1  0.666667  0.333333  0.530165  1
  Tb  Tb1  1  0.333333  0.666667  0.030165  1
  Er  Er2  1  0.666667  0.333333  0.755367  1
  Er  Er3  1  0.333333  0.666667  0.255367  1
  Mg  Mg4  1  0.333333  0.666667  0.466729  1
  Mg  Mg5  1  0.666667  0.333333  0.966729  1
  Ni  Ni6  1  0.834548  0.165452  0.352735  1
  Ni  Ni7  1  0.834548  0.669097  0.352735  1
  Ni  Ni8  1  0.000000  0.000000  0.999016  1
  Ni  Ni9  1  0.000000  0.000000  0.499016  1
  Ni  Ni10  1  0.833695  0.667391  0.147591  1
  Ni  Ni11  1  0.166305  0.833695  0.647591  1
  Ni  Ni12  1  0.667391  0.833695  0.647591  1
  Ni  Ni13  1  0.332609  0.166305  0.147591  1
  Ni  Ni14  1  0.833695  0.166305  0.147591  1
  Ni  Ni15  1  0.165452  0.330903  0.852735  1
  Ni  Ni16  1  0.165452  0.834548  0.852735  1
  Ni  Ni17  1  0.166305  0.332609  0.647591  1
  Ni  Ni18  1  0.669097  0.834548  0.852735  1
  Ni  Ni19  1  0.330903  0.165452  0.352735  1
  B  B20  1  0.666667  0.333333  0.249928  1
  B  B21  1  0.333333  0.666667  0.749928  1
  B  B22  1  0.000000  0.000000  0.747817  1
  B  B23  1  0.000000  0.000000  0.247817  1
