# generated using pymatgen
data_Dy12NiRh6
_symmetry_space_group_name_H-M   'P 1'
_cell_length_a   11.27567100
_cell_length_b   8.27174814
_cell_length_c   11.30953139
_cell_angle_alpha   57.23781903
_cell_angle_beta   90.00000000
_cell_angle_gamma   90.00000000
_symmetry_Int_Tables_number   1
_chemical_formula_structural   Dy12NiRh6
_chemical_formula_sum   'Dy24 Ni2 Rh12'
_cell_volume   887.03559390
_cell_formula_units_Z   2
loop_
 _symmetry_equiv_pos_site_id
 _symmetry_equiv_pos_as_xyz
  1  'x, y, z'
loop_
 _atom_site_type_symbol
 _atom_site_label
 _atom_site_symmetry_multiplicity
 _atom_site_fract_x
 _atom_site_fract_y
 _atom_site_fract_z
 _atom_site_occupancy
  Dy  Dy0  1  0.701832  0.236023  0.531169  1
  Dy  Dy1  1  0.201832  0.763977  0.968831  1
  Dy  Dy2  1  0.846015  0.506784  0.657303  1
  Dy  Dy3  1  0.346015  0.493216  0.842697  1
  Dy  Dy4  1  0.155034  0.492375  0.339787  1
  Dy  Dy5  1  0.655034  0.507625  0.160213  1
  Dy  Dy6  1  0.007258  0.845505  0.362336  1
  Dy  Dy7  1  0.507258  0.154495  0.137664  1
  Dy  Dy8  1  0.996202  0.155122  0.634024  1
  Dy  Dy9  1  0.496202  0.844878  0.865976  1
  Dy  Dy10  1  0.799763  0.236956  0.027751  1
  Dy  Dy11  1  0.299763  0.763044  0.472249  1
  Dy  Dy12  1  0.925163  0.775712  0.093092  1
  Dy  Dy13  1  0.425163  0.224288  0.406908  1
  Dy  Dy14  1  0.075327  0.223777  0.905444  1
  Dy  Dy15  1  0.575327  0.776223  0.594556  1
  Dy  Dy16  1  0.305425  0.242502  0.672105  1
  Dy  Dy17  1  0.805425  0.757498  0.827895  1
  Dy  Dy18  1  0.696736  0.757801  0.332204  1
  Dy  Dy19  1  0.196736  0.242199  0.167796  1
  Dy  Dy20  1  0.918054  0.271969  0.290958  1
  Dy  Dy21  1  0.418054  0.728031  0.209042  1
  Dy  Dy22  1  0.080665  0.726859  0.706124  1
  Dy  Dy23  1  0.580665  0.273141  0.793876  1
  Ni  Ni24  1  0.173825  0.890491  0.154210  1
  Ni  Ni25  1  0.673825  0.109509  0.345790  1
  Rh  Rh26  1  0.500125  0.499857  0.501814  1
  Rh  Rh27  1  0.000125  0.500143  0.998186  1
  Rh  Rh28  1  0.643035  0.912301  0.055789  1
  Rh  Rh29  1  0.143035  0.087699  0.444211  1
  Rh  Rh30  1  0.348735  0.086660  0.955105  1
  Rh  Rh31  1  0.848735  0.913340  0.544895  1
  Rh  Rh32  1  0.396654  0.489245  0.104627  1
  Rh  Rh33  1  0.896654  0.510755  0.395373  1
  Rh  Rh34  1  0.605035  0.509190  0.899973  1
  Rh  Rh35  1  0.105035  0.490810  0.600027  1
  Rh  Rh36  1  0.825115  0.108885  0.837740  1
  Rh  Rh37  1  0.325115  0.891115  0.662260  1
