# generated using pymatgen
data_MgPPd3PtAu
_symmetry_space_group_name_H-M   'P 1'
_cell_length_a   4.03892200
_cell_length_b   3.95722600
_cell_length_c   6.95884200
_cell_angle_alpha   90.00000000
_cell_angle_beta   90.00000000
_cell_angle_gamma   90.00000000
_symmetry_Int_Tables_number   1
_chemical_formula_structural   MgPPd3PtAu
_chemical_formula_sum   'Mg1 P1 Pd3 Pt1 Au1'
_cell_volume   111.22266474
_cell_formula_units_Z   1
loop_
 _symmetry_equiv_pos_site_id
 _symmetry_equiv_pos_as_xyz
  1  'x, y, z'
loop_
 _atom_site_type_symbol
 _atom_site_label
 _atom_site_symmetry_multiplicity
 _atom_site_fract_x
 _atom_site_fract_y
 _atom_site_fract_z
 _atom_site_occupancy
  Mg  Mg0  1  0.000000  0.000000  0.998271  1
  P  P1  1  0.500000  0.500000  0.502020  1
  Pd  Pd2  1  0.000000  0.500000  0.703677  1
  Pd  Pd3  1  0.500000  0.000000  0.294743  1
  Pd  Pd4  1  0.000000  0.500000  0.298053  1
  Pt  Pt5  1  0.500000  0.000000  0.702133  1
  Au  Au6  1  0.500000  0.500000  0.001103  1
