# generated using pymatgen
data_Dy3Sc3FeBi2
_symmetry_space_group_name_H-M   'P 1'
_cell_length_a   7.98434214
_cell_length_b   7.98350417
_cell_length_c   4.19193800
_cell_angle_alpha   90.00000000
_cell_angle_beta   90.00000000
_cell_angle_gamma   119.98203574
_symmetry_Int_Tables_number   1
_chemical_formula_structural   Dy3Sc3FeBi2
_chemical_formula_sum   'Dy3 Sc3 Fe1 Bi2'
_cell_volume   231.44977609
_cell_formula_units_Z   1
loop_
 _symmetry_equiv_pos_site_id
 _symmetry_equiv_pos_as_xyz
  1  'x, y, z'
loop_
 _atom_site_type_symbol
 _atom_site_label
 _atom_site_symmetry_multiplicity
 _atom_site_fract_x
 _atom_site_fract_y
 _atom_site_fract_z
 _atom_site_occupancy
  Dy  Dy0  1  0.614588  0.999977  0.000000  1
  Dy  Dy1  1  0.999985  0.614545  0.000000  1
  Dy  Dy2  1  0.385301  0.385295  0.000000  1
  Sc  Sc3  1  0.219686  0.000076  0.500000  1
  Sc  Sc4  1  0.000057  0.219686  0.500000  1
  Sc  Sc5  1  0.780421  0.780426  0.500000  1
  Fe  Fe6  1  0.999973  0.999989  0.000000  1
  Bi  Bi7  1  0.333349  0.666650  0.500000  1
  Bi  Bi8  1  0.666642  0.333356  0.500000  1
