# generated using pymatgen
data_Rb2MgCd(H6Ir)2
_symmetry_space_group_name_H-M   'P 1'
_cell_length_a   7.50620900
_cell_length_b   7.58646000
_cell_length_c   7.58646000
_cell_angle_alpha   90.00000000
_cell_angle_beta   90.00000000
_cell_angle_gamma   90.00000000
_symmetry_Int_Tables_number   1
_chemical_formula_structural   Rb2MgCd(H6Ir)2
_chemical_formula_sum   'Rb4 Mg2 Cd2 H24 Ir4'
_cell_volume   432.01517010
_cell_formula_units_Z   2
loop_
 _symmetry_equiv_pos_site_id
 _symmetry_equiv_pos_as_xyz
  1  'x, y, z'
loop_
 _atom_site_type_symbol
 _atom_site_label
 _atom_site_symmetry_multiplicity
 _atom_site_fract_x
 _atom_site_fract_y
 _atom_site_fract_z
 _atom_site_occupancy
  Rb  Rb0  1  0.000000  0.000000  0.500000  1
  Rb  Rb1  1  0.000000  0.500000  0.000000  1
  Rb  Rb2  1  0.500000  0.000000  0.000000  1
  Rb  Rb3  1  0.000000  0.000000  0.000000  1
  Mg  Mg4  1  0.500000  0.500000  0.500000  1
  Mg  Mg5  1  0.000000  0.500000  0.500000  1
  Cd  Cd6  1  0.500000  0.000000  0.500000  1
  Cd  Cd7  1  0.500000  0.500000  0.000000  1
  H  H8  1  0.728078  0.713424  0.506980  1
  H  H9  1  0.271922  0.286576  0.506980  1
  H  H10  1  0.056901  0.708656  0.708656  1
  H  H11  1  0.283266  0.935390  0.715797  1
  H  H12  1  0.716734  0.064610  0.715797  1
  H  H13  1  0.943099  0.291344  0.708656  1
  H  H14  1  0.728078  0.506980  0.713424  1
  H  H15  1  0.504662  0.716038  0.716038  1
  H  H16  1  0.495338  0.283962  0.716038  1
  H  H17  1  0.271922  0.493020  0.713424  1
  H  H18  1  0.283266  0.715797  0.935390  1
  H  H19  1  0.716734  0.284203  0.935390  1
  H  H20  1  0.716734  0.715797  0.064610  1
  H  H21  1  0.283266  0.284203  0.064610  1
  H  H22  1  0.271922  0.506980  0.286576  1
  H  H23  1  0.495338  0.716038  0.283962  1
  H  H24  1  0.504662  0.283962  0.283962  1
  H  H25  1  0.728078  0.493020  0.286576  1
  H  H26  1  0.943099  0.708656  0.291344  1
  H  H27  1  0.716734  0.935390  0.284203  1
  H  H28  1  0.283266  0.064610  0.284203  1
  H  H29  1  0.056901  0.291344  0.291344  1
  H  H30  1  0.271922  0.713424  0.493020  1
  H  H31  1  0.728078  0.286576  0.493020  1
  Ir  Ir32  1  0.284721  0.710440  0.710440  1
  Ir  Ir33  1  0.715279  0.289560  0.710440  1
  Ir  Ir34  1  0.715279  0.710440  0.289560  1
  Ir  Ir35  1  0.284721  0.289560  0.289560  1
