# generated using pymatgen
data_Dy8Si12Pt3Au
_symmetry_space_group_name_H-M   'P 1'
_cell_length_a   8.15283100
_cell_length_b   8.15283182
_cell_length_c   8.20361700
_cell_angle_alpha   90.00000000
_cell_angle_beta   90.00000000
_cell_angle_gamma   119.99999260
_symmetry_Int_Tables_number   1
_chemical_formula_structural   Dy8Si12Pt3Au
_chemical_formula_sum   'Dy8 Si12 Pt3 Au1'
_cell_volume   472.22933742
_cell_formula_units_Z   1
loop_
 _symmetry_equiv_pos_site_id
 _symmetry_equiv_pos_as_xyz
  1  'x, y, z'
loop_
 _atom_site_type_symbol
 _atom_site_label
 _atom_site_symmetry_multiplicity
 _atom_site_fract_x
 _atom_site_fract_y
 _atom_site_fract_z
 _atom_site_occupancy
  Dy  Dy0  1  0.000000  0.000000  0.248989  1
  Dy  Dy1  1  0.000000  0.000000  0.751604  1
  Dy  Dy2  1  0.006066  0.503033  0.247333  1
  Dy  Dy3  1  0.496967  0.503033  0.247333  1
  Dy  Dy4  1  0.499776  0.999550  0.752450  1
  Dy  Dy5  1  0.496967  0.993934  0.247333  1
  Dy  Dy6  1  0.499776  0.500224  0.752450  1
  Dy  Dy7  1  0.000450  0.500224  0.752450  1
  Si  Si8  1  0.165237  0.330473  0.998456  1
  Si  Si9  1  0.669527  0.834763  0.998456  1
  Si  Si10  1  0.166535  0.333069  0.500830  1
  Si  Si11  1  0.331581  0.165791  0.001519  1
  Si  Si12  1  0.165237  0.834763  0.998456  1
  Si  Si13  1  0.666931  0.833465  0.500830  1
  Si  Si14  1  0.834209  0.668419  0.001519  1
  Si  Si15  1  0.324459  0.162230  0.500018  1
  Si  Si16  1  0.166535  0.833465  0.500830  1
  Si  Si17  1  0.837770  0.675541  0.500018  1
  Si  Si18  1  0.834209  0.165791  0.001519  1
  Si  Si19  1  0.837770  0.162230  0.500018  1
  Pt  Pt20  1  0.333333  0.666667  0.996900  1
  Pt  Pt21  1  0.333333  0.666667  0.502875  1
  Pt  Pt22  1  0.666667  0.333333  0.003138  1
  Au  Au23  1  0.666667  0.333333  0.494673  1
