# generated using pymatgen
data_Pr9Sm6Tm5Sn16
_symmetry_space_group_name_H-M   'P 1'
_cell_length_a   8.17518052
_cell_length_b   8.36658778
_cell_length_c   15.82653299
_cell_angle_alpha   89.98178572
_cell_angle_beta   90.09235472
_cell_angle_gamma   90.08689814
_symmetry_Int_Tables_number   1
_chemical_formula_structural   Pr9Sm6Tm5Sn16
_chemical_formula_sum   'Pr9 Sm6 Tm5 Sn16'
_cell_volume   1082.50628249
_cell_formula_units_Z   1
loop_
 _symmetry_equiv_pos_site_id
 _symmetry_equiv_pos_as_xyz
  1  'x, y, z'
loop_
 _atom_site_type_symbol
 _atom_site_label
 _atom_site_symmetry_multiplicity
 _atom_site_fract_x
 _atom_site_fract_y
 _atom_site_fract_z
 _atom_site_occupancy
  Pr  Pr0  1  0.861915  0.664137  0.878558  1
  Pr  Pr1  1  0.515051  0.320224  0.901701  1
  Pr  Pr2  1  0.013832  0.178889  0.596173  1
  Pr  Pr3  1  0.485887  0.679504  0.404418  1
  Pr  Pr4  1  0.985448  0.821056  0.098356  1
  Pr  Pr5  1  0.485564  0.679345  0.097706  1
  Pr  Pr6  1  0.985752  0.820443  0.403045  1
  Pr  Pr7  1  0.513363  0.320536  0.596240  1
  Pr  Pr8  1  0.014640  0.179149  0.902154  1
  Sm  Sm9  1  0.360882  0.836271  0.876460  1
  Sm  Sm10  1  0.861469  0.663256  0.621261  1
  Sm  Sm11  1  0.639669  0.163624  0.377609  1
  Sm  Sm12  1  0.138724  0.336917  0.122159  1
  Sm  Sm13  1  0.637693  0.163133  0.123902  1
  Sm  Sm14  1  0.140012  0.336218  0.379370  1
  Tm  Tm15  1  0.360123  0.837797  0.622964  1
  Tm  Tm16  1  0.196276  0.502220  0.748553  1
  Tm  Tm17  1  0.693724  0.997900  0.748725  1
  Tm  Tm18  1  0.805213  0.498088  0.250789  1
  Tm  Tm19  1  0.304848  0.001192  0.250481  1
  Sn  Sn20  1  0.300415  0.037952  0.043054  1
  Sn  Sn21  1  0.801008  0.461632  0.456509  1
  Sn  Sn22  1  0.693130  0.960209  0.543615  1
  Sn  Sn23  1  0.204880  0.536538  0.956709  1
  Sn  Sn24  1  0.696683  0.965033  0.957310  1
  Sn  Sn25  1  0.202107  0.542873  0.543878  1
  Sn  Sn26  1  0.302055  0.036129  0.458977  1
  Sn  Sn27  1  0.799135  0.460480  0.045513  1
  Sn  Sn28  1  0.556908  0.621556  0.747086  1
  Sn  Sn29  1  0.061320  0.881882  0.747217  1
  Sn  Sn30  1  0.440369  0.380825  0.250956  1
  Sn  Sn31  1  0.941855  0.119649  0.250620  1
  Sn  Sn32  1  0.322974  0.143799  0.748007  1
  Sn  Sn33  1  0.822227  0.353224  0.748381  1
  Sn  Sn34  1  0.677492  0.853470  0.250895  1
  Sn  Sn35  1  0.177356  0.644853  0.250647  1
