# generated using pymatgen
data_Tm2Sc3(In2Rh)2
_symmetry_space_group_name_H-M   'P 1'
_cell_length_a   3.47734400
_cell_length_b   7.77749600
_cell_length_c   17.79130100
_cell_angle_alpha   90.00000000
_cell_angle_beta   90.00000000
_cell_angle_gamma   90.00000000
_symmetry_Int_Tables_number   1
_chemical_formula_structural   Tm2Sc3(In2Rh)2
_chemical_formula_sum   'Tm4 Sc6 In8 Rh4'
_cell_volume   481.16625239
_cell_formula_units_Z   2
loop_
 _symmetry_equiv_pos_site_id
 _symmetry_equiv_pos_as_xyz
  1  'x, y, z'
loop_
 _atom_site_type_symbol
 _atom_site_label
 _atom_site_symmetry_multiplicity
 _atom_site_fract_x
 _atom_site_fract_y
 _atom_site_fract_z
 _atom_site_occupancy
  Tm  Tm0  1  0.000000  0.746430  0.779472  1
  Tm  Tm1  1  0.000000  0.253570  0.220528  1
  Tm  Tm2  1  0.000000  0.246430  0.720528  1
  Tm  Tm3  1  0.000000  0.753570  0.279472  1
  Sc  Sc4  1  0.000000  0.000000  0.000000  1
  Sc  Sc5  1  0.000000  0.500000  0.500000  1
  Sc  Sc6  1  0.000000  0.877196  0.585844  1
  Sc  Sc7  1  0.000000  0.122804  0.414156  1
  Sc  Sc8  1  0.000000  0.377196  0.914156  1
  Sc  Sc9  1  0.000000  0.622804  0.085844  1
  In  In10  1  0.500000  0.797799  0.436311  1
  In  In11  1  0.500000  0.202201  0.563689  1
  In  In12  1  0.500000  0.297799  0.063689  1
  In  In13  1  0.500000  0.702201  0.936311  1
  In  In14  1  0.500000  0.929867  0.146591  1
  In  In15  1  0.500000  0.070133  0.853409  1
  In  In16  1  0.500000  0.429867  0.353409  1
  In  In17  1  0.500000  0.570133  0.646591  1
  Rh  Rh18  1  0.500000  0.961683  0.692211  1
  Rh  Rh19  1  0.500000  0.038317  0.307789  1
  Rh  Rh20  1  0.500000  0.461683  0.807789  1
  Rh  Rh21  1  0.500000  0.538317  0.192211  1
