# generated using pymatgen
data_Er20Ir5Os3Rh4
_symmetry_space_group_name_H-M   'P 1'
_cell_length_a   10.76932104
_cell_length_b   10.77169103
_cell_length_c   6.36764901
_cell_angle_alpha   89.99821581
_cell_angle_beta   90.00583610
_cell_angle_gamma   89.99135023
_symmetry_Int_Tables_number   1
_chemical_formula_structural   Er20Ir5Os3Rh4
_chemical_formula_sum   'Er20 Ir5 Os3 Rh4'
_cell_volume   738.67146261
_cell_formula_units_Z   1
loop_
 _symmetry_equiv_pos_site_id
 _symmetry_equiv_pos_as_xyz
  1  'x, y, z'
loop_
 _atom_site_type_symbol
 _atom_site_label
 _atom_site_symmetry_multiplicity
 _atom_site_fract_x
 _atom_site_fract_y
 _atom_site_fract_z
 _atom_site_occupancy
  Er  Er0  1  0.294084  0.085896  0.375759  1
  Er  Er1  1  0.294032  0.912923  0.876943  1
  Er  Er2  1  0.705470  0.086635  0.876405  1
  Er  Er3  1  0.705452  0.912982  0.375962  1
  Er  Er4  1  0.585153  0.793457  0.877157  1
  Er  Er5  1  0.585534  0.206552  0.377005  1
  Er  Er6  1  0.413479  0.793565  0.376696  1
  Er  Er7  1  0.414888  0.206410  0.877091  1
  Er  Er8  1  0.208618  0.414128  0.625185  1
  Er  Er9  1  0.207882  0.587366  0.120077  1
  Er  Er10  1  0.791900  0.413773  0.119714  1
  Er  Er11  1  0.791386  0.586044  0.625418  1
  Er  Er12  1  0.913198  0.707598  0.120969  1
  Er  Er13  1  0.912353  0.292441  0.626160  1
  Er  Er14  1  0.087987  0.708101  0.625487  1
  Er  Er15  1  0.087932  0.292950  0.120748  1
  Er  Er16  1  0.000272  0.999783  0.499222  1
  Er  Er17  1  0.000201  0.999713  0.000134  1
  Er  Er18  1  0.500040  0.500057  0.999859  1
  Er  Er19  1  0.499960  0.500037  0.499443  1
  Ir  Ir20  1  0.151003  0.846922  0.250597  1
  Ir  Ir21  1  0.653562  0.347750  0.749695  1
  Ir  Ir22  1  0.654081  0.651842  0.250668  1
  Ir  Ir23  1  0.346032  0.348049  0.250282  1
  Ir  Ir24  1  0.346744  0.651928  0.749703  1
  Os  Os25  1  0.500415  0.000250  0.123766  1
  Os  Os26  1  0.500313  0.000250  0.623603  1
  Os  Os27  1  0.999776  0.499530  0.876716  1
  Rh  Rh28  1  0.848826  0.153101  0.250577  1
  Rh  Rh29  1  0.848131  0.847197  0.749640  1
  Rh  Rh30  1  0.151483  0.153142  0.750001  1
  Rh  Rh31  1  0.999811  0.499629  0.379316  1
