# generated using pymatgen
data_Sr3Si2Pt7
_symmetry_space_group_name_H-M   'P 1'
_cell_length_a   8.92186876
_cell_length_b   8.92186915
_cell_length_c   8.92186900
_cell_angle_alpha   37.28820137
_cell_angle_beta   37.28819878
_cell_angle_gamma   37.28819901
_symmetry_Int_Tables_number   1
_chemical_formula_structural   Sr3Si2Pt7
_chemical_formula_sum   'Sr3 Si2 Pt7'
_cell_volume   233.66962848
_cell_formula_units_Z   1
loop_
 _symmetry_equiv_pos_site_id
 _symmetry_equiv_pos_as_xyz
  1  'x, y, z'
loop_
 _atom_site_type_symbol
 _atom_site_label
 _atom_site_symmetry_multiplicity
 _atom_site_fract_x
 _atom_site_fract_y
 _atom_site_fract_z
 _atom_site_occupancy
  Sr  Sr0  1  0.357759  0.357759  0.357759  1
  Sr  Sr1  1  0.500000  0.500000  0.500000  1
  Sr  Sr2  1  0.642240  0.642240  0.642240  1
  Si  Si3  1  0.168509  0.168509  0.168509  1
  Si  Si4  1  0.831491  0.831491  0.831491  1
  Pt  Pt5  1  0.000000  0.000000  0.000000  1
  Pt  Pt6  1  0.576035  0.070550  0.070551  1
  Pt  Pt7  1  0.070550  0.576035  0.070551  1
  Pt  Pt8  1  0.929450  0.929450  0.423964  1
  Pt  Pt9  1  0.070550  0.070550  0.576036  1
  Pt  Pt10  1  0.929450  0.423965  0.929449  1
  Pt  Pt11  1  0.423965  0.929450  0.929449  1
