# generated using pymatgen
data_Ba3ErLuSe6
_symmetry_space_group_name_H-M   'P 1'
_cell_length_a   8.73233421
_cell_length_b   8.73233431
_cell_length_c   8.73233500
_cell_angle_alpha   93.00562379
_cell_angle_beta   93.00561725
_cell_angle_gamma   93.00561900
_symmetry_Int_Tables_number   1
_chemical_formula_structural   Ba3ErLuSe6
_chemical_formula_sum   'Ba6 Er2 Lu2 Se12'
_cell_volume   663.02439681
_cell_formula_units_Z   2
loop_
 _symmetry_equiv_pos_site_id
 _symmetry_equiv_pos_as_xyz
  1  'x, y, z'
loop_
 _atom_site_type_symbol
 _atom_site_label
 _atom_site_symmetry_multiplicity
 _atom_site_fract_x
 _atom_site_fract_y
 _atom_site_fract_z
 _atom_site_occupancy
  Ba  Ba0  1  0.367851  0.750000  0.132149  1
  Ba  Ba1  1  0.132149  0.367851  0.750000  1
  Ba  Ba2  1  0.750000  0.132149  0.367851  1
  Ba  Ba3  1  0.632149  0.250000  0.867851  1
  Ba  Ba4  1  0.867851  0.632149  0.250000  1
  Ba  Ba5  1  0.250000  0.867851  0.632149  1
  Er  Er6  1  0.250000  0.250000  0.250000  1
  Er  Er7  1  0.750000  0.750000  0.750000  1
  Lu  Lu8  1  0.500000  0.500000  0.500000  1
  Lu  Lu9  1  0.000000  0.000000  0.000000  1
  Se  Se10  1  0.538056  0.408392  0.196027  1
  Se  Se11  1  0.196027  0.538056  0.408392  1
  Se  Se12  1  0.408392  0.196027  0.538056  1
  Se  Se13  1  0.961944  0.303973  0.091608  1
  Se  Se14  1  0.091608  0.961944  0.303973  1
  Se  Se15  1  0.303973  0.091608  0.961944  1
  Se  Se16  1  0.461944  0.591608  0.803973  1
  Se  Se17  1  0.803973  0.461944  0.591608  1
  Se  Se18  1  0.591608  0.803973  0.461944  1
  Se  Se19  1  0.038056  0.696027  0.908392  1
  Se  Se20  1  0.696027  0.908392  0.038056  1
  Se  Se21  1  0.908392  0.038056  0.696027  1
