# generated using pymatgen
data_Np3Al12(OsPt)2
_symmetry_space_group_name_H-M   'P 1'
_cell_length_a   8.87467973
_cell_length_b   8.87467968
_cell_length_c   9.55427571
_cell_angle_alpha   90.40664961
_cell_angle_beta   89.59335020
_cell_angle_gamma   119.66403012
_symmetry_Int_Tables_number   1
_chemical_formula_structural   Np3Al12(OsPt)2
_chemical_formula_sum   'Np6 Al24 Os4 Pt4'
_cell_volume   653.85205691
_cell_formula_units_Z   2
loop_
 _symmetry_equiv_pos_site_id
 _symmetry_equiv_pos_as_xyz
  1  'x, y, z'
loop_
 _atom_site_type_symbol
 _atom_site_label
 _atom_site_symmetry_multiplicity
 _atom_site_fract_x
 _atom_site_fract_y
 _atom_site_fract_z
 _atom_site_occupancy
  Np  Np0  1  0.184066  0.382607  0.256349  1
  Np  Np1  1  0.815934  0.617393  0.743651  1
  Np  Np2  1  0.617393  0.815934  0.256349  1
  Np  Np3  1  0.382607  0.184066  0.743651  1
  Np  Np4  1  0.194001  0.805999  0.261903  1
  Np  Np5  1  0.805999  0.194001  0.738097  1
  Al  Al6  1  0.333508  0.666492  0.035903  1
  Al  Al7  1  0.666492  0.333508  0.964097  1
  Al  Al8  1  0.666900  0.333100  0.518968  1
  Al  Al9  1  0.333100  0.666900  0.481032  1
  Al  Al10  1  0.158841  0.321179  0.577360  1
  Al  Al11  1  0.841159  0.678821  0.422640  1
  Al  Al12  1  0.678821  0.841159  0.577360  1
  Al  Al13  1  0.838713  0.679199  0.076750  1
  Al  Al14  1  0.321179  0.158841  0.422640  1
  Al  Al15  1  0.161287  0.320801  0.923250  1
  Al  Al16  1  0.162009  0.837991  0.578900  1
  Al  Al17  1  0.320801  0.161287  0.076750  1
  Al  Al18  1  0.837991  0.162009  0.421100  1
  Al  Al19  1  0.679199  0.838713  0.923250  1
  Al  Al20  1  0.838151  0.161849  0.075676  1
  Al  Al21  1  0.161849  0.838151  0.924324  1
  Al  Al22  1  0.561676  0.128063  0.250583  1
  Al  Al23  1  0.438324  0.871937  0.749417  1
  Al  Al24  1  0.871937  0.438324  0.250583  1
  Al  Al25  1  0.128063  0.561676  0.749417  1
  Al  Al26  1  0.561398  0.438602  0.248298  1
  Al  Al27  1  0.438602  0.561398  0.751702  1
  Al  Al28  1  0.999686  0.000314  0.249949  1
  Al  Al29  1  0.000314  0.999686  0.750051  1
  Os  Os30  1  0.500000  0.000000  0.500000  1
  Os  Os31  1  0.000000  0.500000  0.500000  1
  Os  Os32  1  0.000000  0.000000  0.000000  1
  Os  Os33  1  0.000000  0.000000  0.500000  1
  Pt  Pt34  1  0.500000  0.000000  0.000000  1
  Pt  Pt35  1  0.000000  0.500000  0.000000  1
  Pt  Pt36  1  0.500000  0.500000  0.000000  1
  Pt  Pt37  1  0.500000  0.500000  0.500000  1
