# generated using pymatgen
data_Dy11YAl4(SiRh2)4
_symmetry_space_group_name_H-M   'P 1'
_cell_length_a   5.55934501
_cell_length_b   7.92806601
_cell_length_c   13.28105900
_cell_angle_alpha   90.00000000
_cell_angle_beta   90.00000000
_cell_angle_gamma   90.00588172
_symmetry_Int_Tables_number   1
_chemical_formula_structural   Dy11YAl4(SiRh2)4
_chemical_formula_sum   'Dy11 Y1 Al4 Si4 Rh8'
_cell_volume   585.36073587
_cell_formula_units_Z   1
loop_
 _symmetry_equiv_pos_site_id
 _symmetry_equiv_pos_as_xyz
  1  'x, y, z'
loop_
 _atom_site_type_symbol
 _atom_site_label
 _atom_site_symmetry_multiplicity
 _atom_site_fract_x
 _atom_site_fract_y
 _atom_site_fract_z
 _atom_site_occupancy
  Dy  Dy0  1  0.142683  0.602957  0.103399  1
  Dy  Dy1  1  0.142666  0.897121  0.896662  1
  Dy  Dy2  1  0.857380  0.102937  0.396610  1
  Dy  Dy3  1  0.857275  0.397034  0.603293  1
  Dy  Dy4  1  0.857275  0.397034  0.896707  1
  Dy  Dy5  1  0.857380  0.102937  0.103390  1
  Dy  Dy6  1  0.142666  0.897121  0.603338  1
  Dy  Dy7  1  0.142683  0.602957  0.396601  1
  Dy  Dy8  1  0.367994  0.244475  0.250000  1
  Dy  Dy9  1  0.368109  0.255527  0.750000  1
  Dy  Dy10  1  0.631876  0.744513  0.250000  1
  Y  Y11  1  0.632211  0.755127  0.750000  1
  Al  Al12  1  0.377653  0.249997  0.000026  1
  Al  Al13  1  0.622313  0.750019  0.500041  1
  Al  Al14  1  0.622313  0.750019  0.999959  1
  Al  Al15  1  0.377653  0.249997  0.499974  1
  Si  Si16  1  0.863212  0.390401  0.250000  1
  Si  Si17  1  0.863069  0.109409  0.750000  1
  Si  Si18  1  0.136793  0.890445  0.250000  1
  Si  Si19  1  0.137110  0.609535  0.750000  1
  Rh  Rh20  1  0.642718  0.470839  0.093899  1
  Rh  Rh21  1  0.642807  0.029630  0.906407  1
  Rh  Rh22  1  0.357268  0.970915  0.406102  1
  Rh  Rh23  1  0.357050  0.528836  0.593667  1
  Rh  Rh24  1  0.357050  0.528836  0.906333  1
  Rh  Rh25  1  0.357268  0.970915  0.093898  1
  Rh  Rh26  1  0.642807  0.029630  0.593593  1
  Rh  Rh27  1  0.642718  0.470839  0.406101  1
