# generated using pymatgen
data_La19Ho(Ir2Ru)4
_symmetry_space_group_name_H-M   'P 1'
_cell_length_a   11.35901900
_cell_length_b   11.35901900
_cell_length_c   6.66026900
_cell_angle_alpha   90.00000000
_cell_angle_beta   90.00000000
_cell_angle_gamma   90.00000000
_symmetry_Int_Tables_number   1
_chemical_formula_structural   La19Ho(Ir2Ru)4
_chemical_formula_sum   'La19 Ho1 Ir8 Ru4'
_cell_volume   859.35661055
_cell_formula_units_Z   1
loop_
 _symmetry_equiv_pos_site_id
 _symmetry_equiv_pos_as_xyz
  1  'x, y, z'
loop_
 _atom_site_type_symbol
 _atom_site_label
 _atom_site_symmetry_multiplicity
 _atom_site_fract_x
 _atom_site_fract_y
 _atom_site_fract_z
 _atom_site_occupancy
  La  La0  1  0.295269  0.089495  0.387081  1
  La  La1  1  0.295062  0.910974  0.887789  1
  La  La2  1  0.704938  0.089026  0.887789  1
  La  La3  1  0.704731  0.910505  0.387081  1
  La  La4  1  0.588884  0.792602  0.887373  1
  La  La5  1  0.589574  0.208956  0.389932  1
  La  La6  1  0.410426  0.791044  0.389932  1
  La  La7  1  0.411116  0.207398  0.887373  1
  La  La8  1  0.208956  0.410426  0.610068  1
  La  La9  1  0.207398  0.588884  0.112627  1
  La  La10  1  0.792602  0.411116  0.112627  1
  La  La11  1  0.791044  0.589574  0.610068  1
  La  La12  1  0.910974  0.704938  0.112211  1
  La  La13  1  0.910505  0.295269  0.612919  1
  La  La14  1  0.089495  0.704731  0.612919  1
  La  La15  1  0.089026  0.295062  0.112211  1
  La  La16  1  0.000000  0.000000  0.500000  1
  La  La17  1  0.000000  0.000000  0.000000  1
  La  La18  1  0.500000  0.500000  0.000000  1
  Ho  Ho19  1  0.500000  0.500000  0.500000  1
  Ir  Ir20  1  0.847310  0.153408  0.249483  1
  Ir  Ir21  1  0.846592  0.847310  0.750517  1
  Ir  Ir22  1  0.153408  0.152690  0.750517  1
  Ir  Ir23  1  0.152690  0.846592  0.249483  1
  Ir  Ir24  1  0.649934  0.351394  0.743480  1
  Ir  Ir25  1  0.648606  0.649934  0.256520  1
  Ir  Ir26  1  0.351394  0.350066  0.256520  1
  Ir  Ir27  1  0.350066  0.648606  0.743480  1
  Ru  Ru28  1  0.500000  0.000000  0.120240  1
  Ru  Ru29  1  0.500000  0.000000  0.621057  1
  Ru  Ru30  1  0.000000  0.500000  0.879760  1
  Ru  Ru31  1  0.000000  0.500000  0.378943  1
