# generated using pymatgen
data_Zn22FeIr2
_symmetry_space_group_name_H-M   'P 1'
_cell_length_a   7.75504483
_cell_length_b   7.75504604
_cell_length_c   7.76633273
_cell_angle_alpha   72.12329418
_cell_angle_beta   72.12329129
_cell_angle_gamma   58.28343725
_symmetry_Int_Tables_number   1
_chemical_formula_structural   Zn22FeIr2
_chemical_formula_sum   'Zn22 Fe1 Ir2'
_cell_volume   371.97229894
_cell_formula_units_Z   1
loop_
 _symmetry_equiv_pos_site_id
 _symmetry_equiv_pos_as_xyz
  1  'x, y, z'
loop_
 _atom_site_type_symbol
 _atom_site_label
 _atom_site_symmetry_multiplicity
 _atom_site_fract_x
 _atom_site_fract_y
 _atom_site_fract_z
 _atom_site_occupancy
  Zn  Zn0  1  0.335967  0.747088  0.315730  1
  Zn  Zn1  1  0.664033  0.252912  0.684270  1
  Zn  Zn2  1  0.252912  0.664033  0.684270  1
  Zn  Zn3  1  0.747088  0.335967  0.315730  1
  Zn  Zn4  1  0.678243  0.321757  0.000000  1
  Zn  Zn5  1  0.321757  0.678243  0.000000  1
  Zn  Zn6  1  0.833243  0.833243  0.777793  1
  Zn  Zn7  1  0.166757  0.166757  0.222207  1
  Zn  Zn8  1  0.976188  0.976188  0.175921  1
  Zn  Zn9  1  0.023812  0.023812  0.824079  1
  Zn  Zn10  1  0.350841  0.350841  0.278773  1
  Zn  Zn11  1  0.649159  0.649159  0.721227  1
  Zn  Zn12  1  0.686314  0.686314  0.378493  1
  Zn  Zn13  1  0.313686  0.313686  0.621507  1
  Zn  Zn14  1  0.662482  0.023796  0.462573  1
  Zn  Zn15  1  0.337518  0.976204  0.537427  1
  Zn  Zn16  1  0.976204  0.337518  0.537427  1
  Zn  Zn17  1  0.023796  0.662482  0.462573  1
  Zn  Zn18  1  0.621462  0.997307  0.101251  1
  Zn  Zn19  1  0.378538  0.002693  0.898749  1
  Zn  Zn20  1  0.002693  0.378538  0.898749  1
  Zn  Zn21  1  0.997307  0.621462  0.101251  1
  Fe  Fe22  1  0.000000  0.000000  0.500000  1
  Ir  Ir23  1  0.656930  0.656930  0.055806  1
  Ir  Ir24  1  0.343070  0.343070  0.944194  1
