# generated using pymatgen
data_Gd2TmSi3Ru2
_symmetry_space_group_name_H-M   'P 1'
_cell_length_a   5.70898918
_cell_length_b   5.70898933
_cell_length_c   13.70420800
_cell_angle_alpha   90.18629978
_cell_angle_beta   89.81370022
_cell_angle_gamma   137.25582298
_symmetry_Int_Tables_number   1
_chemical_formula_structural   Gd2TmSi3Ru2
_chemical_formula_sum   'Gd4 Tm2 Si6 Ru4'
_cell_volume   303.15469861
_cell_formula_units_Z   2
loop_
 _symmetry_equiv_pos_site_id
 _symmetry_equiv_pos_as_xyz
  1  'x, y, z'
loop_
 _atom_site_type_symbol
 _atom_site_label
 _atom_site_symmetry_multiplicity
 _atom_site_fract_x
 _atom_site_fract_y
 _atom_site_fract_z
 _atom_site_occupancy
  Gd  Gd0  1  0.925235  0.074765  0.382697  1
  Gd  Gd1  1  0.074765  0.925235  0.617303  1
  Gd  Gd2  1  0.638620  0.361380  0.248184  1
  Gd  Gd3  1  0.361380  0.638620  0.751816  1
  Tm  Tm4  1  0.922500  0.077500  0.113047  1
  Tm  Tm5  1  0.077500  0.922500  0.886953  1
  Si  Si6  1  0.617781  0.382219  0.461405  1
  Si  Si7  1  0.382219  0.617781  0.538595  1
  Si  Si8  1  0.615103  0.384897  0.036640  1
  Si  Si9  1  0.384897  0.615103  0.963360  1
  Si  Si10  1  0.328383  0.671617  0.246702  1
  Si  Si11  1  0.671617  0.328383  0.753298  1
  Ru  Ru12  1  0.788424  0.211576  0.920160  1
  Ru  Ru13  1  0.211576  0.788424  0.079840  1
  Ru  Ru14  1  0.784889  0.215111  0.581182  1
  Ru  Ru15  1  0.215111  0.784889  0.418818  1
