# generated using pymatgen
data_Ho3Er(GaNi)4
_symmetry_space_group_name_H-M   'P 1'
_cell_length_a   4.26616500
_cell_length_b   6.77786414
_cell_length_c   7.35458762
_cell_angle_alpha   88.90274153
_cell_angle_beta   90.00000000
_cell_angle_gamma   90.00000000
_symmetry_Int_Tables_number   1
_chemical_formula_structural   Ho3Er(GaNi)4
_chemical_formula_sum   'Ho3 Er1 Ga4 Ni4'
_cell_volume   212.62248536
_cell_formula_units_Z   1
loop_
 _symmetry_equiv_pos_site_id
 _symmetry_equiv_pos_as_xyz
  1  'x, y, z'
loop_
 _atom_site_type_symbol
 _atom_site_label
 _atom_site_symmetry_multiplicity
 _atom_site_fract_x
 _atom_site_fract_y
 _atom_site_fract_z
 _atom_site_occupancy
  Ho  Ho0  1  0.250000  0.978775  0.307406  1
  Ho  Ho1  1  0.250000  0.479970  0.192816  1
  Ho  Ho2  1  0.750000  0.021346  0.692968  1
  Er  Er3  1  0.750000  0.520510  0.806430  1
  Ga  Ga4  1  0.250000  0.328440  0.574021  1
  Ga  Ga5  1  0.250000  0.828087  0.926156  1
  Ga  Ga6  1  0.750000  0.671663  0.426645  1
  Ga  Ga7  1  0.750000  0.172502  0.073636  1
  Ni  Ni8  1  0.250000  0.215166  0.900675  1
  Ni  Ni9  1  0.250000  0.713136  0.602484  1
  Ni  Ni10  1  0.750000  0.784608  0.098432  1
  Ni  Ni11  1  0.750000  0.285798  0.398332  1
