# generated using pymatgen
data_Rb4CoO3
_symmetry_space_group_name_H-M   'P 1'
_cell_length_a   7.16673829
_cell_length_b   11.91003860
_cell_length_c   9.81745507
_cell_angle_alpha   109.85880636
_cell_angle_beta   101.76477507
_cell_angle_gamma   89.40277031
_symmetry_Int_Tables_number   1
_chemical_formula_structural   Rb4CoO3
_chemical_formula_sum   'Rb16 Co4 O12'
_cell_volume   770.01377354
_cell_formula_units_Z   4
loop_
 _symmetry_equiv_pos_site_id
 _symmetry_equiv_pos_as_xyz
  1  'x, y, z'
loop_
 _atom_site_type_symbol
 _atom_site_label
 _atom_site_symmetry_multiplicity
 _atom_site_fract_x
 _atom_site_fract_y
 _atom_site_fract_z
 _atom_site_occupancy
  Rb  Rb0  1  0.412855  0.165822  0.598034  1
  Rb  Rb1  1  0.912827  0.665961  0.598053  1
  Rb  Rb2  1  0.087283  0.335270  0.402500  1
  Rb  Rb3  1  0.587302  0.835018  0.402448  1
  Rb  Rb4  1  0.490290  0.290600  0.993270  1
  Rb  Rb5  1  0.990158  0.790696  0.993246  1
  Rb  Rb6  1  0.008789  0.209108  0.007494  1
  Rb  Rb7  1  0.508940  0.709049  0.007352  1
  Rb  Rb8  1  0.615790  0.970515  0.856538  1
  Rb  Rb9  1  0.115324  0.470533  0.856464  1
  Rb  Rb10  1  0.885280  0.529223  0.143303  1
  Rb  Rb11  1  0.385737  0.029218  0.143290  1
  Rb  Rb12  1  0.070666  0.867089  0.379965  1
  Rb  Rb13  1  0.571204  0.367039  0.379807  1
  Rb  Rb14  1  0.428676  0.632577  0.620095  1
  Rb  Rb15  1  0.928130  0.132633  0.620229  1
  Co  Co16  1  0.638115  0.431902  0.763120  1
  Co  Co17  1  0.864878  0.068344  0.237758  1
  Co  Co18  1  0.139113  0.932048  0.763246  1
  Co  Co19  1  0.363541  0.568329  0.237459  1
  O  O20  1  0.120312  0.086162  0.338716  1
  O  O21  1  0.619955  0.585837  0.338650  1
  O  O22  1  0.380586  0.414214  0.660763  1
  O  O23  1  0.880855  0.914360  0.660680  1
  O  O24  1  0.260167  0.084840  0.794312  1
  O  O25  1  0.760671  0.584678  0.794679  1
  O  O26  1  0.238383  0.415462  0.204844  1
  O  O27  1  0.737492  0.915686  0.204396  1
  O  O28  1  0.272270  0.821398  0.828112  1
  O  O29  1  0.772565  0.321806  0.828619  1
  O  O30  1  0.226093  0.677602  0.171569  1
  O  O31  1  0.725755  0.176981  0.170989  1
