# generated using pymatgen
data_Dy10Ru3Rh2Au
_symmetry_space_group_name_H-M   'P 1'
_cell_length_a   10.94441560
_cell_length_b   10.86892700
_cell_length_c   6.45945200
_cell_angle_alpha   90.00000000
_cell_angle_beta   89.91306488
_cell_angle_gamma   90.00000000
_symmetry_Int_Tables_number   1
_chemical_formula_structural   Dy10Ru3Rh2Au
_chemical_formula_sum   'Dy20 Ru6 Rh4 Au2'
_cell_volume   768.37711879
_cell_formula_units_Z   2
loop_
 _symmetry_equiv_pos_site_id
 _symmetry_equiv_pos_as_xyz
  1  'x, y, z'
loop_
 _atom_site_type_symbol
 _atom_site_label
 _atom_site_symmetry_multiplicity
 _atom_site_fract_x
 _atom_site_fract_y
 _atom_site_fract_z
 _atom_site_occupancy
  Dy  Dy0  1  0.303746  0.090365  0.368542  1
  Dy  Dy1  1  0.303746  0.909635  0.868542  1
  Dy  Dy2  1  0.708979  0.085935  0.876601  1
  Dy  Dy3  1  0.708979  0.914065  0.376601  1
  Dy  Dy4  1  0.592270  0.793778  0.879590  1
  Dy  Dy5  1  0.592270  0.206222  0.379590  1
  Dy  Dy6  1  0.422094  0.793204  0.376099  1
  Dy  Dy7  1  0.422094  0.206796  0.876099  1
  Dy  Dy8  1  0.204896  0.421626  0.620157  1
  Dy  Dy9  1  0.204896  0.578374  0.120157  1
  Dy  Dy10  1  0.791770  0.410535  0.120431  1
  Dy  Dy11  1  0.791770  0.589465  0.620431  1
  Dy  Dy12  1  0.906307  0.702572  0.119319  1
  Dy  Dy13  1  0.906307  0.297428  0.619319  1
  Dy  Dy14  1  0.078754  0.705703  0.638121  1
  Dy  Dy15  1  0.078754  0.294297  0.138121  1
  Dy  Dy16  1  0.991224  0.003107  0.500776  1
  Dy  Dy17  1  0.991224  0.996893  0.000776  1
  Dy  Dy18  1  0.499763  0.501439  0.001093  1
  Dy  Dy19  1  0.499763  0.498561  0.501093  1
  Ru  Ru20  1  0.847895  0.152707  0.248441  1
  Ru  Ru21  1  0.847895  0.847293  0.748441  1
  Ru  Ru22  1  0.501217  0.999824  0.122373  1
  Ru  Ru23  1  0.501217  0.000176  0.622373  1
  Ru  Ru24  1  0.997566  0.499585  0.877348  1
  Ru  Ru25  1  0.997566  0.500415  0.377348  1
  Rh  Rh26  1  0.650281  0.349613  0.750428  1
  Rh  Rh27  1  0.650281  0.650387  0.250428  1
  Rh  Rh28  1  0.347290  0.347724  0.248048  1
  Rh  Rh29  1  0.347290  0.652276  0.748048  1
  Au  Au30  1  0.155945  0.156163  0.752633  1
  Au  Au31  1  0.155945  0.843837  0.252633  1
