# generated using pymatgen
data_Pr2ThSn3Ir2Rh
_symmetry_space_group_name_H-M   'P 1'
_cell_length_a   7.58163206
_cell_length_b   7.66348302
_cell_length_c   4.12024100
_cell_angle_alpha   90.00000000
_cell_angle_beta   90.00000000
_cell_angle_gamma   120.35776797
_symmetry_Int_Tables_number   1
_chemical_formula_structural   Pr2ThSn3Ir2Rh
_chemical_formula_sum   'Pr2 Th1 Sn3 Ir2 Rh1'
_cell_volume   206.56900639
_cell_formula_units_Z   1
loop_
 _symmetry_equiv_pos_site_id
 _symmetry_equiv_pos_as_xyz
  1  'x, y, z'
loop_
 _atom_site_type_symbol
 _atom_site_label
 _atom_site_symmetry_multiplicity
 _atom_site_fract_x
 _atom_site_fract_y
 _atom_site_fract_z
 _atom_site_occupancy
  Pr  Pr0  1  0.411160  0.411473  0.500000  1
  Pr  Pr1  1  0.588840  0.000312  0.500000  1
  Th  Th2  1  0.000000  0.584349  0.500000  1
  Sn  Sn3  1  0.742800  0.749363  0.000000  1
  Sn  Sn4  1  0.257200  0.006563  0.000000  1
  Sn  Sn5  1  0.000000  0.243057  0.000000  1
  Ir  Ir6  1  0.688652  0.352274  0.000000  1
  Ir  Ir7  1  0.311348  0.663623  0.000000  1
  Rh  Rh8  1  0.000000  0.988987  0.500000  1
