# generated using pymatgen
data_Zr3SiNiGeRu3
_symmetry_space_group_name_H-M   'P 1'
_cell_length_a   7.09362400
_cell_length_b   7.09362436
_cell_length_c   3.32272000
_cell_angle_alpha   90.00000000
_cell_angle_beta   90.00000000
_cell_angle_gamma   119.99999834
_symmetry_Int_Tables_number   1
_chemical_formula_structural   Zr3SiNiGeRu3
_chemical_formula_sum   'Zr3 Si1 Ni1 Ge1 Ru3'
_cell_volume   144.79739075
_cell_formula_units_Z   1
loop_
 _symmetry_equiv_pos_site_id
 _symmetry_equiv_pos_as_xyz
  1  'x, y, z'
loop_
 _atom_site_type_symbol
 _atom_site_label
 _atom_site_symmetry_multiplicity
 _atom_site_fract_x
 _atom_site_fract_y
 _atom_site_fract_z
 _atom_site_occupancy
  Zr  Zr0  1  0.414736  0.395750  0.500000  1
  Zr  Zr1  1  0.604250  0.018987  0.500000  1
  Zr  Zr2  1  0.981013  0.585264  0.500000  1
  Si  Si3  1  0.000000  0.000000  0.500000  1
  Ni  Ni4  1  0.666667  0.333333  0.000000  1
  Ge  Ge5  1  0.333333  0.666667  0.000000  1
  Ru  Ru6  1  0.011412  0.252768  0.000000  1
  Ru  Ru7  1  0.241356  0.988588  0.000000  1
  Ru  Ru8  1  0.747232  0.758644  0.000000  1
