# generated using pymatgen
data_Ca3TbBi6Rh7
_symmetry_space_group_name_H-M   'P 1'
_cell_length_a   7.79234921
_cell_length_b   7.79235032
_cell_length_c   7.79234982
_cell_angle_alpha   109.31445504
_cell_angle_beta   109.31444566
_cell_angle_gamma   109.31445620
_symmetry_Int_Tables_number   1
_chemical_formula_structural   Ca3TbBi6Rh7
_chemical_formula_sum   'Ca3 Tb1 Bi6 Rh7'
_cell_volume   366.33531551
_cell_formula_units_Z   1
loop_
 _symmetry_equiv_pos_site_id
 _symmetry_equiv_pos_as_xyz
  1  'x, y, z'
loop_
 _atom_site_type_symbol
 _atom_site_label
 _atom_site_symmetry_multiplicity
 _atom_site_fract_x
 _atom_site_fract_y
 _atom_site_fract_z
 _atom_site_occupancy
  Ca  Ca0  1  0.500000  0.000000  0.000000  1
  Ca  Ca1  1  0.000000  0.500000  0.000000  1
  Ca  Ca2  1  0.000000  0.000000  0.500000  1
  Tb  Tb3  1  0.500000  0.500000  0.500000  1
  Bi  Bi4  1  0.996068  0.313682  0.313682  1
  Bi  Bi5  1  0.686318  0.003932  0.686318  1
  Bi  Bi6  1  0.686318  0.686318  0.003932  1
  Bi  Bi7  1  0.003932  0.686318  0.686318  1
  Bi  Bi8  1  0.313682  0.996068  0.313682  1
  Bi  Bi9  1  0.313682  0.313682  0.996068  1
  Rh  Rh10  1  0.000000  0.000000  0.000000  1
  Rh  Rh11  1  0.500000  0.746185  0.253815  1
  Rh  Rh12  1  0.746185  0.500000  0.253815  1
  Rh  Rh13  1  0.253815  0.746185  0.500000  1
  Rh  Rh14  1  0.253815  0.500000  0.746185  1
  Rh  Rh15  1  0.500000  0.253815  0.746185  1
  Rh  Rh16  1  0.746185  0.253815  0.500000  1
