# generated using pymatgen
data_Tb8SiPI12
_symmetry_space_group_name_H-M   'P 1'
_cell_length_a   4.21977700
_cell_length_b   13.99960600
_cell_length_c   14.78661905
_cell_angle_alpha   89.95670274
_cell_angle_beta   90.00000000
_cell_angle_gamma   90.00000000
_symmetry_Int_Tables_number   1
_chemical_formula_structural   Tb8SiPI12
_chemical_formula_sum   'Tb8 Si1 P1 I12'
_cell_volume   873.52245640
_cell_formula_units_Z   1
loop_
 _symmetry_equiv_pos_site_id
 _symmetry_equiv_pos_as_xyz
  1  'x, y, z'
loop_
 _atom_site_type_symbol
 _atom_site_label
 _atom_site_symmetry_multiplicity
 _atom_site_fract_x
 _atom_site_fract_y
 _atom_site_fract_z
 _atom_site_occupancy
  Tb  Tb0  1  0.500000  0.115353  0.347435  1
  Tb  Tb1  1  0.500000  0.884647  0.652565  1
  Tb  Tb2  1  0.500000  0.612331  0.148787  1
  Tb  Tb3  1  0.500000  0.387669  0.851213  1
  Tb  Tb4  1  0.000000  0.111679  0.575246  1
  Tb  Tb5  1  0.000000  0.888321  0.424754  1
  Tb  Tb6  1  0.000000  0.605981  0.928754  1
  Tb  Tb7  1  0.000000  0.394019  0.071246  1
  Si  Si8  1  0.500000  0.000000  0.500000  1
  P  P9  1  0.500000  0.500000  0.000000  1
  I  I10  1  0.500000  0.248744  0.160371  1
  I  I11  1  0.500000  0.751256  0.839629  1
  I  I12  1  0.500000  0.745441  0.336607  1
  I  I13  1  0.500000  0.254559  0.663393  1
  I  I14  1  0.000000  0.259846  0.415209  1
  I  I15  1  0.000000  0.740154  0.584791  1
  I  I16  1  0.000000  0.757788  0.084272  1
  I  I17  1  0.000000  0.242212  0.915728  1
  I  I18  1  0.000000  0.000032  0.239928  1
  I  I19  1  0.000000  0.999968  0.760072  1
  I  I20  1  0.000000  0.499800  0.257950  1
  I  I21  1  0.000000  0.500200  0.742050  1
