# generated using pymatgen
data_SmDyYV(Co4P3)2
_symmetry_space_group_name_H-M   'P 1'
_cell_length_a   3.71158900
_cell_length_b   10.53705100
_cell_length_c   12.21230500
_cell_angle_alpha   90.00000000
_cell_angle_beta   90.00000000
_cell_angle_gamma   90.00000000
_symmetry_Int_Tables_number   1
_chemical_formula_structural   SmDyYV(Co4P3)2
_chemical_formula_sum   'Sm2 Dy2 Y2 V2 Co16 P12'
_cell_volume   477.61351026
_cell_formula_units_Z   2
loop_
 _symmetry_equiv_pos_site_id
 _symmetry_equiv_pos_as_xyz
  1  'x, y, z'
loop_
 _atom_site_type_symbol
 _atom_site_label
 _atom_site_symmetry_multiplicity
 _atom_site_fract_x
 _atom_site_fract_y
 _atom_site_fract_z
 _atom_site_occupancy
  Sm  Sm0  1  0.000000  0.500000  0.523268  1
  Sm  Sm1  1  0.500000  0.000000  0.476578  1
  Dy  Dy2  1  0.500000  0.818633  0.203956  1
  Dy  Dy3  1  0.500000  0.181367  0.203956  1
  Y  Y4  1  0.000000  0.681496  0.796112  1
  Y  Y5  1  0.000000  0.318504  0.796112  1
  V  V6  1  0.500000  0.500000  0.152350  1
  V  V7  1  0.000000  0.000000  0.847684  1
  Co  Co8  1  0.500000  0.500000  0.703384  1
  Co  Co9  1  0.000000  0.000000  0.296401  1
  Co  Co10  1  0.000000  0.500000  0.986706  1
  Co  Co11  1  0.500000  0.000000  0.013663  1
  Co  Co12  1  0.500000  0.332370  0.993383  1
  Co  Co13  1  0.500000  0.667630  0.993383  1
  Co  Co14  1  0.000000  0.167457  0.006963  1
  Co  Co15  1  0.000000  0.832543  0.006963  1
  Co  Co16  1  0.500000  0.295594  0.430123  1
  Co  Co17  1  0.500000  0.704406  0.430123  1
  Co  Co18  1  0.000000  0.204292  0.569594  1
  Co  Co19  1  0.000000  0.795708  0.569594  1
  Co  Co20  1  0.500000  0.879119  0.709310  1
  Co  Co21  1  0.500000  0.120881  0.709310  1
  Co  Co22  1  0.000000  0.621018  0.290580  1
  Co  Co23  1  0.000000  0.378982  0.290580  1
  P  P24  1  0.500000  0.500000  0.882771  1
  P  P25  1  0.000000  0.000000  0.117382  1
  P  P26  1  0.500000  0.500000  0.344220  1
  P  P27  1  0.000000  0.000000  0.655750  1
  P  P28  1  0.500000  0.309284  0.616507  1
  P  P29  1  0.500000  0.690716  0.616507  1
  P  P30  1  0.000000  0.190713  0.383193  1
  P  P31  1  0.000000  0.809287  0.383193  1
  P  P32  1  0.500000  0.846043  0.892690  1
  P  P33  1  0.500000  0.153957  0.892690  1
  P  P34  1  0.000000  0.654196  0.107508  1
  P  P35  1  0.000000  0.345804  0.107508  1
