# generated using pymatgen
data_Sb5Pt4Pb3
_symmetry_space_group_name_H-M   'P 1'
_cell_length_a   6.66384664
_cell_length_b   6.66384664
_cell_length_c   6.66384664
_cell_angle_alpha   89.33724180
_cell_angle_beta   89.33724180
_cell_angle_gamma   89.33724180
_symmetry_Int_Tables_number   1
_chemical_formula_structural   Sb5Pt4Pb3
_chemical_formula_sum   'Sb5 Pt4 Pb3'
_cell_volume   295.86151391
_cell_formula_units_Z   1
loop_
 _symmetry_equiv_pos_site_id
 _symmetry_equiv_pos_as_xyz
  1  'x, y, z'
loop_
 _atom_site_type_symbol
 _atom_site_label
 _atom_site_symmetry_multiplicity
 _atom_site_fract_x
 _atom_site_fract_y
 _atom_site_fract_z
 _atom_site_occupancy
  Sb  Sb0  1  0.623321  0.623321  0.623321  1
  Sb  Sb1  1  0.376107  0.376107  0.376107  1
  Sb  Sb2  1  0.131926  0.631655  0.870661  1
  Sb  Sb3  1  0.870661  0.131926  0.631655  1
  Sb  Sb4  1  0.631655  0.870661  0.131926  1
  Pt  Pt5  1  0.002839  0.490342  0.518542  1
  Pt  Pt6  1  0.490342  0.518542  0.002839  1
  Pt  Pt7  1  0.518542  0.002839  0.490342  1
  Pt  Pt8  1  0.985107  0.985107  0.985107  1
  Pb  Pb9  1  0.372476  0.128184  0.868839  1
  Pb  Pb10  1  0.128184  0.868839  0.372476  1
  Pb  Pb11  1  0.868839  0.372476  0.128184  1
