# generated using pymatgen
data_Ta4V4Ge3P
_symmetry_space_group_name_H-M   'P 1'
_cell_length_a   3.44413200
_cell_length_b   6.61036192
_cell_length_c   7.94196358
_cell_angle_alpha   89.78986925
_cell_angle_beta   90.00000000
_cell_angle_gamma   90.00000000
_symmetry_Int_Tables_number   1
_chemical_formula_structural   Ta4V4Ge3P
_chemical_formula_sum   'Ta4 V4 Ge3 P1'
_cell_volume   180.81314354
_cell_formula_units_Z   1
loop_
 _symmetry_equiv_pos_site_id
 _symmetry_equiv_pos_as_xyz
  1  'x, y, z'
loop_
 _atom_site_type_symbol
 _atom_site_label
 _atom_site_symmetry_multiplicity
 _atom_site_fract_x
 _atom_site_fract_y
 _atom_site_fract_z
 _atom_site_occupancy
  Ta  Ta0  1  0.250000  0.547955  0.163643  1
  Ta  Ta1  1  0.750000  0.447072  0.825840  1
  Ta  Ta2  1  0.750000  0.973611  0.665173  1
  Ta  Ta3  1  0.250000  0.044349  0.340620  1
  V  V4  1  0.250000  0.619658  0.562119  1
  V  V5  1  0.750000  0.363692  0.447579  1
  V  V6  1  0.750000  0.869482  0.059813  1
  V  V7  1  0.250000  0.133998  0.933772  1
  Ge  Ge8  1  0.250000  0.755178  0.857688  1
  Ge  Ge9  1  0.750000  0.245757  0.141428  1
  Ge  Ge10  1  0.750000  0.742886  0.363777  1
  P  P11  1  0.250000  0.256361  0.638547  1
