# generated using pymatgen
data_NbPt5Rh3
_symmetry_space_group_name_H-M   'P 1'
_cell_length_a   6.26939693
_cell_length_b   6.26939635
_cell_length_c   6.21937507
_cell_angle_alpha   95.69285554
_cell_angle_beta   95.69284801
_cell_angle_gamma   143.43595124
_symmetry_Int_Tables_number   1
_chemical_formula_structural   NbPt5Rh3
_chemical_formula_sum   'Nb1 Pt5 Rh3'
_cell_volume   138.15418230
_cell_formula_units_Z   1
loop_
 _symmetry_equiv_pos_site_id
 _symmetry_equiv_pos_as_xyz
  1  'x, y, z'
loop_
 _atom_site_type_symbol
 _atom_site_label
 _atom_site_symmetry_multiplicity
 _atom_site_fract_x
 _atom_site_fract_y
 _atom_site_fract_z
 _atom_site_occupancy
  Nb  Nb0  1  0.002351  0.997649  0.000000  1
  Pt  Pt1  1  0.337190  0.662810  0.000000  1
  Pt  Pt2  1  0.001579  0.329341  0.330918  1
  Pt  Pt3  1  0.998390  0.672469  0.670860  1
  Pt  Pt4  1  0.670659  0.998421  0.669082  1
  Pt  Pt5  1  0.327531  0.001610  0.329140  1
  Rh  Rh6  1  0.338841  0.337063  0.675904  1
  Rh  Rh7  1  0.662937  0.661159  0.324096  1
  Rh  Rh8  1  0.660521  0.339479  0.000000  1
