# generated using pymatgen
data_Ca2SnSbPt2
_symmetry_space_group_name_H-M   'P 1'
_cell_length_a   4.60964300
_cell_length_b   7.38498000
_cell_length_c   8.06088300
_cell_angle_alpha   90.00000000
_cell_angle_beta   90.00000000
_cell_angle_gamma   90.00000000
_symmetry_Int_Tables_number   1
_chemical_formula_structural   Ca2SnSbPt2
_chemical_formula_sum   'Ca4 Sn2 Sb2 Pt4'
_cell_volume   274.40955737
_cell_formula_units_Z   2
loop_
 _symmetry_equiv_pos_site_id
 _symmetry_equiv_pos_as_xyz
  1  'x, y, z'
loop_
 _atom_site_type_symbol
 _atom_site_label
 _atom_site_symmetry_multiplicity
 _atom_site_fract_x
 _atom_site_fract_y
 _atom_site_fract_z
 _atom_site_occupancy
  Ca  Ca0  1  0.250000  0.987122  0.307419  1
  Ca  Ca1  1  0.250000  0.487122  0.192581  1
  Ca  Ca2  1  0.750000  0.013496  0.693076  1
  Ca  Ca3  1  0.750000  0.513496  0.806924  1
  Sn  Sn4  1  0.750000  0.678686  0.417277  1
  Sn  Sn5  1  0.750000  0.178686  0.082723  1
  Sb  Sb6  1  0.250000  0.323050  0.582625  1
  Sb  Sb7  1  0.250000  0.823050  0.917375  1
  Pt  Pt8  1  0.250000  0.204512  0.903914  1
  Pt  Pt9  1  0.250000  0.704512  0.596086  1
  Pt  Pt10  1  0.750000  0.793134  0.096849  1
  Pt  Pt11  1  0.750000  0.293134  0.403151  1
