# generated using pymatgen
data_U4BeB2C5
_symmetry_space_group_name_H-M   'P 1'
_cell_length_a   3.30024000
_cell_length_b   3.62047900
_cell_length_c   12.02156000
_cell_angle_alpha   90.00000000
_cell_angle_beta   90.00000000
_cell_angle_gamma   90.00000000
_symmetry_Int_Tables_number   1
_chemical_formula_structural   U4BeB2C5
_chemical_formula_sum   'U4 Be1 B2 C5'
_cell_volume   143.63900395
_cell_formula_units_Z   1
loop_
 _symmetry_equiv_pos_site_id
 _symmetry_equiv_pos_as_xyz
  1  'x, y, z'
loop_
 _atom_site_type_symbol
 _atom_site_label
 _atom_site_symmetry_multiplicity
 _atom_site_fract_x
 _atom_site_fract_y
 _atom_site_fract_z
 _atom_site_occupancy
  U  U0  1  0.000000  0.000000  0.138985  1
  U  U1  1  0.000000  0.500000  0.641371  1
  U  U2  1  0.500000  0.500000  0.358611  1
  U  U3  1  0.500000  0.000000  0.865028  1
  Be  Be4  1  0.500000  0.000000  0.527919  1
  B  B5  1  0.000000  0.500000  0.967165  1
  B  B6  1  0.500000  0.500000  0.035268  1
  C  C7  1  0.000000  0.000000  0.334520  1
  C  C8  1  0.000000  0.500000  0.835647  1
  C  C9  1  0.500000  0.500000  0.166435  1
  C  C10  1  0.500000  0.000000  0.671561  1
  C  C11  1  0.000000  0.000000  0.457492  1
