# generated using pymatgen
data_DyEr2Hf(NiP)4
_symmetry_space_group_name_H-M   'P 1'
_cell_length_a   3.86327500
_cell_length_b   3.86327550
_cell_length_c   14.90633900
_cell_angle_alpha   90.00000000
_cell_angle_beta   90.00000000
_cell_angle_gamma   120.00002143
_symmetry_Int_Tables_number   1
_chemical_formula_structural   DyEr2Hf(NiP)4
_chemical_formula_sum   'Dy1 Er2 Hf1 Ni4 P4'
_cell_volume   192.66943992
_cell_formula_units_Z   1
loop_
 _symmetry_equiv_pos_site_id
 _symmetry_equiv_pos_as_xyz
  1  'x, y, z'
loop_
 _atom_site_type_symbol
 _atom_site_label
 _atom_site_symmetry_multiplicity
 _atom_site_fract_x
 _atom_site_fract_y
 _atom_site_fract_z
 _atom_site_occupancy
  Dy  Dy0  1  0.000000  0.000000  0.493269  1
  Er  Er1  1  0.000000  0.000000  0.006837  1
  Er  Er2  1  0.000000  0.000000  0.750417  1
  Hf  Hf3  1  0.000000  0.000000  0.249649  1
  Ni  Ni4  1  0.333333  0.666667  0.345569  1
  Ni  Ni5  1  0.666667  0.333333  0.624986  1
  Ni  Ni6  1  0.666667  0.333333  0.875010  1
  Ni  Ni7  1  0.333333  0.666667  0.153598  1
  P  P8  1  0.333333  0.666667  0.881260  1
  P  P9  1  0.666667  0.333333  0.126024  1
  P  P10  1  0.666667  0.333333  0.372752  1
  P  P11  1  0.333333  0.666667  0.620628  1
