# generated using pymatgen
data_TbYbGa9Ru5
_symmetry_space_group_name_H-M   'P 1'
_cell_length_a   8.01848162
_cell_length_b   8.01848057
_cell_length_c   8.01848115
_cell_angle_alpha   134.10627526
_cell_angle_beta   135.01095768
_cell_angle_gamma   66.21952022
_symmetry_Int_Tables_number   1
_chemical_formula_structural   TbYbGa9Ru5
_chemical_formula_sum   'Tb1 Yb1 Ga9 Ru5'
_cell_volume   257.66391317
_cell_formula_units_Z   1
loop_
 _symmetry_equiv_pos_site_id
 _symmetry_equiv_pos_as_xyz
  1  'x, y, z'
loop_
 _atom_site_type_symbol
 _atom_site_label
 _atom_site_symmetry_multiplicity
 _atom_site_fract_x
 _atom_site_fract_y
 _atom_site_fract_z
 _atom_site_occupancy
  Tb  Tb0  1  0.500000  0.000000  0.500000  1
  Yb  Yb1  1  0.000000  0.500000  0.500000  1
  Ga  Ga2  1  0.434206  0.856362  0.996140  1
  Ga  Ga3  1  0.139778  0.143638  0.577845  1
  Ga  Ga4  1  0.860222  0.438067  0.003860  1
  Ga  Ga5  1  0.860222  0.856362  0.422155  1
  Ga  Ga6  1  0.565794  0.143638  0.003860  1
  Ga  Ga7  1  0.139778  0.561933  0.996140  1
  Ga  Ga8  1  0.565794  0.561933  0.422155  1
  Ga  Ga9  1  0.000000  0.000000  0.000000  1
  Ga  Ga10  1  0.434206  0.438067  0.577845  1
  Ru  Ru11  1  0.181973  0.181973  0.000000  1
  Ru  Ru12  1  0.818027  0.818027  0.000000  1
  Ru  Ru13  1  0.251212  0.751212  0.500000  1
  Ru  Ru14  1  0.748788  0.248788  0.500000  1
  Ru  Ru15  1  0.500000  0.500000  0.000000  1
