# generated using pymatgen
data_Sr4YScPa2O12
_symmetry_space_group_name_H-M   'P 1'
_cell_length_a   6.08665510
_cell_length_b   5.95168114
_cell_length_c   10.38854925
_cell_angle_alpha   54.90400277
_cell_angle_beta   90.35358138
_cell_angle_gamma   90.04159137
_symmetry_Int_Tables_number   1
_chemical_formula_structural   Sr4YScPa2O12
_chemical_formula_sum   'Sr4 Y1 Sc1 Pa2 O12'
_cell_volume   307.90483299
_cell_formula_units_Z   1
loop_
 _symmetry_equiv_pos_site_id
 _symmetry_equiv_pos_as_xyz
  1  'x, y, z'
loop_
 _atom_site_type_symbol
 _atom_site_label
 _atom_site_symmetry_multiplicity
 _atom_site_fract_x
 _atom_site_fract_y
 _atom_site_fract_z
 _atom_site_occupancy
  Sr  Sr0  1  0.459331  0.268763  0.742797  1
  Sr  Sr1  1  0.952820  0.747144  0.741496  1
  Sr  Sr2  1  0.047180  0.252856  0.258504  1
  Sr  Sr3  1  0.540669  0.731237  0.257203  1
  Y  Y4  1  0.000000  0.000000  0.000000  1
  Sc  Sc5  1  0.500000  0.000000  0.500000  1
  Pa  Pa6  1  0.000000  0.500000  0.500000  1
  Pa  Pa7  1  0.500000  0.500000  0.000000  1
  O  O8  1  0.210815  0.747398  0.545882  1
  O  O9  1  0.695217  0.258691  0.946872  1
  O  O10  1  0.789185  0.252602  0.454118  1
  O  O11  1  0.304783  0.741309  0.053128  1
  O  O12  1  0.708296  0.662886  0.549123  1
  O  O13  1  0.207643  0.361642  0.943967  1
  O  O14  1  0.291704  0.337114  0.450877  1
  O  O15  1  0.792357  0.638358  0.056033  1
  O  O16  1  0.037138  0.157587  0.743469  1
  O  O17  1  0.534291  0.846859  0.745825  1
  O  O18  1  0.962862  0.842413  0.256531  1
  O  O19  1  0.465709  0.153141  0.254175  1
