# generated using pymatgen
data_Dy4In2Ga3Si
_symmetry_space_group_name_H-M   'P 1'
_cell_length_a   7.22478439
_cell_length_b   7.22478439
_cell_length_c   4.37293000
_cell_angle_alpha   90.00000000
_cell_angle_beta   90.00000000
_cell_angle_gamma   90.66701792
_symmetry_Int_Tables_number   1
_chemical_formula_structural   Dy4In2Ga3Si
_chemical_formula_sum   'Dy4 In2 Ga3 Si1'
_cell_volume   228.24058806
_cell_formula_units_Z   1
loop_
 _symmetry_equiv_pos_site_id
 _symmetry_equiv_pos_as_xyz
  1  'x, y, z'
loop_
 _atom_site_type_symbol
 _atom_site_label
 _atom_site_symmetry_multiplicity
 _atom_site_fract_x
 _atom_site_fract_y
 _atom_site_fract_z
 _atom_site_occupancy
  Dy  Dy0  1  0.173124  0.328999  0.500000  1
  Dy  Dy1  1  0.828999  0.673124  0.500000  1
  Dy  Dy2  1  0.324703  0.824703  0.500000  1
  Dy  Dy3  1  0.672743  0.172743  0.500000  1
  In  In4  1  0.000287  0.999858  0.000000  1
  In  In5  1  0.499858  0.500287  0.000000  1
  Ga  Ga6  1  0.878220  0.378220  0.000000  1
  Ga  Ga7  1  0.376218  0.124292  0.000000  1
  Ga  Ga8  1  0.624292  0.876218  0.000000  1
  Si  Si9  1  0.121556  0.621556  0.000000  1
