# generated using pymatgen
data_Dy4Lu6Si5P
_symmetry_space_group_name_H-M   'P 1'
_cell_length_a   8.29974500
_cell_length_b   8.31604433
_cell_length_c   6.17110600
_cell_angle_alpha   90.00000000
_cell_angle_beta   90.00000000
_cell_angle_gamma   119.93518138
_symmetry_Int_Tables_number   1
_chemical_formula_structural   Dy4Lu6Si5P
_chemical_formula_sum   'Dy4 Lu6 Si5 P1'
_cell_volume   369.11226330
_cell_formula_units_Z   1
loop_
 _symmetry_equiv_pos_site_id
 _symmetry_equiv_pos_as_xyz
  1  'x, y, z'
loop_
 _atom_site_type_symbol
 _atom_site_label
 _atom_site_symmetry_multiplicity
 _atom_site_fract_x
 _atom_site_fract_y
 _atom_site_fract_z
 _atom_site_occupancy
  Dy  Dy0  1  0.000056  0.754975  0.750000  1
  Dy  Dy1  1  0.754468  0.000000  0.750000  1
  Dy  Dy2  1  0.245080  0.245025  0.750000  1
  Dy  Dy3  1  0.244605  0.000000  0.250000  1
  Lu  Lu4  1  0.000822  0.245207  0.250000  1
  Lu  Lu5  1  0.755614  0.754793  0.250000  1
  Lu  Lu6  1  0.666560  0.332794  0.000584  1
  Lu  Lu7  1  0.333765  0.667206  0.499416  1
  Lu  Lu8  1  0.333765  0.667206  0.000584  1
  Lu  Lu9  1  0.666560  0.332794  0.499416  1
  Si  Si10  1  0.394965  0.395847  0.250000  1
  Si  Si11  1  0.999118  0.604153  0.250000  1
  Si  Si12  1  0.999820  0.395041  0.750000  1
  Si  Si13  1  0.604778  0.604959  0.750000  1
  Si  Si14  1  0.608903  0.000000  0.250000  1
  P  P15  1  0.391125  0.000000  0.750000  1
