# generated using pymatgen
data_CaLaNi2(AsH2)2
_symmetry_space_group_name_H-M   'P 1'
_cell_length_a   4.19467800
_cell_length_b   4.19467739
_cell_length_c   8.31746500
_cell_angle_alpha   90.00000000
_cell_angle_beta   90.00000000
_cell_angle_gamma   120.00000484
_symmetry_Int_Tables_number   1
_chemical_formula_structural   CaLaNi2(AsH2)2
_chemical_formula_sum   'Ca1 La1 Ni2 As2 H4'
_cell_volume   126.74148332
_cell_formula_units_Z   1
loop_
 _symmetry_equiv_pos_site_id
 _symmetry_equiv_pos_as_xyz
  1  'x, y, z'
loop_
 _atom_site_type_symbol
 _atom_site_label
 _atom_site_symmetry_multiplicity
 _atom_site_fract_x
 _atom_site_fract_y
 _atom_site_fract_z
 _atom_site_occupancy
  Ca  Ca0  1  0.000000  0.000000  0.500000  1
  La  La1  1  0.000000  0.000000  0.000000  1
  Ni  Ni2  1  0.333333  0.666667  0.746910  1
  Ni  Ni3  1  0.666667  0.333333  0.253090  1
  As  As4  1  0.666667  0.333333  0.743063  1
  As  As5  1  0.333333  0.666667  0.256937  1
  H  H6  1  0.666667  0.333333  0.062244  1
  H  H7  1  0.333333  0.666667  0.937756  1
  H  H8  1  0.666667  0.333333  0.441419  1
  H  H9  1  0.333333  0.666667  0.558581  1
