# generated using pymatgen
data_Na4Li2AlInBi4
_symmetry_space_group_name_H-M   'P 1'
_cell_length_a   10.36457054
_cell_length_b   10.36456989
_cell_length_c   6.44905207
_cell_angle_alpha   90.29019785
_cell_angle_beta   89.70980120
_cell_angle_gamma   98.43056780
_symmetry_Int_Tables_number   1
_chemical_formula_structural   Na4Li2AlInBi4
_chemical_formula_sum   'Na8 Li4 Al2 In2 Bi8'
_cell_volume   685.28361572
_cell_formula_units_Z   2
loop_
 _symmetry_equiv_pos_site_id
 _symmetry_equiv_pos_as_xyz
  1  'x, y, z'
loop_
 _atom_site_type_symbol
 _atom_site_label
 _atom_site_symmetry_multiplicity
 _atom_site_fract_x
 _atom_site_fract_y
 _atom_site_fract_z
 _atom_site_occupancy
  Na  Na0  1  0.575106  0.923721  0.246571  1
  Na  Na1  1  0.670778  0.329222  0.219618  1
  Na  Na2  1  0.329222  0.670778  0.780382  1
  Na  Na3  1  0.076279  0.424894  0.246571  1
  Na  Na4  1  0.923721  0.575106  0.753429  1
  Na  Na5  1  0.424894  0.076279  0.753429  1
  Na  Na6  1  0.825880  0.174120  0.728769  1
  Na  Na7  1  0.174120  0.825880  0.271231  1
  Li  Li8  1  0.878793  0.878793  0.500000  1
  Li  Li9  1  0.121207  0.121207  0.500000  1
  Li  Li10  1  0.619698  0.619698  0.000000  1
  Li  Li11  1  0.380302  0.380302  0.000000  1
  Al  Al12  1  0.373251  0.373251  0.500000  1
  Al  Al13  1  0.626749  0.626749  0.500000  1
  In  In14  1  0.867189  0.867189  0.000000  1
  In  In15  1  0.132811  0.132811  0.000000  1
  Bi  Bi16  1  0.118558  0.881442  0.759891  1
  Bi  Bi17  1  0.611479  0.388521  0.721213  1
  Bi  Bi18  1  0.881442  0.118558  0.240109  1
  Bi  Bi19  1  0.388521  0.611479  0.278787  1
  Bi  Bi20  1  0.371857  0.142282  0.262939  1
  Bi  Bi21  1  0.142282  0.371857  0.737061  1
  Bi  Bi22  1  0.628143  0.857718  0.737061  1
  Bi  Bi23  1  0.857718  0.628143  0.262939  1
