# generated using pymatgen
data_Ga5Ni6
_symmetry_space_group_name_H-M   'P 1'
_cell_length_a   6.32979735
_cell_length_b   6.32979730
_cell_length_c   7.53614187
_cell_angle_alpha   74.67984146
_cell_angle_beta   74.67984126
_cell_angle_gamma   76.28799817
_symmetry_Int_Tables_number   1
_chemical_formula_structural   Ga5Ni6
_chemical_formula_sum   'Ga10 Ni12'
_cell_volume   276.29089118
_cell_formula_units_Z   2
loop_
 _symmetry_equiv_pos_site_id
 _symmetry_equiv_pos_as_xyz
  1  'x, y, z'
loop_
 _atom_site_type_symbol
 _atom_site_label
 _atom_site_symmetry_multiplicity
 _atom_site_fract_x
 _atom_site_fract_y
 _atom_site_fract_z
 _atom_site_occupancy
  Ga  Ga0  1  0.331820  0.331820  0.642381  1
  Ga  Ga1  1  0.845237  0.239380  0.795649  1
  Ga  Ga2  1  0.142807  0.142807  0.391259  1
  Ga  Ga3  1  0.154763  0.760620  0.204351  1
  Ga  Ga4  1  0.239380  0.845237  0.795649  1
  Ga  Ga5  1  0.633181  0.633181  0.009966  1
  Ga  Ga6  1  0.668180  0.668180  0.357619  1
  Ga  Ga7  1  0.760620  0.154763  0.204351  1
  Ga  Ga8  1  0.857193  0.857193  0.608741  1
  Ga  Ga9  1  0.366819  0.366819  0.990034  1
  Ni  Ni10  1  0.871410  0.871410  0.012275  1
  Ni  Ni11  1  0.588250  0.588250  0.703773  1
  Ni  Ni12  1  0.500000  0.000000  0.500000  1
  Ni  Ni13  1  0.737583  0.262417  0.500000  1
  Ni  Ni14  1  0.975350  0.454925  0.174593  1
  Ni  Ni15  1  0.024650  0.545075  0.825407  1
  Ni  Ni16  1  0.411750  0.411750  0.296227  1
  Ni  Ni17  1  0.454925  0.975350  0.174593  1
  Ni  Ni18  1  0.128590  0.128590  0.987725  1
  Ni  Ni19  1  0.262417  0.737583  0.500000  1
  Ni  Ni20  1  0.545075  0.024650  0.825407  1
  Ni  Ni21  1  0.000000  0.500000  0.500000  1
