# generated using pymatgen
data_SmPdPtAu3
_symmetry_space_group_name_H-M   'P 1'
_cell_length_a   5.48016875
_cell_length_b   5.45474801
_cell_length_c   5.45474822
_cell_angle_alpha   120.04071844
_cell_angle_beta   119.19447676
_cell_angle_gamma   90.53243737
_symmetry_Int_Tables_number   1
_chemical_formula_structural   SmPdPtAu3
_chemical_formula_sum   'Sm1 Pd1 Pt1 Au3'
_cell_volume   116.08510442
_cell_formula_units_Z   1
loop_
 _symmetry_equiv_pos_site_id
 _symmetry_equiv_pos_as_xyz
  1  'x, y, z'
loop_
 _atom_site_type_symbol
 _atom_site_label
 _atom_site_symmetry_multiplicity
 _atom_site_fract_x
 _atom_site_fract_y
 _atom_site_fract_z
 _atom_site_occupancy
  Sm  Sm0  1  0.008427  0.005796  0.002631  1
  Pd  Pd1  1  0.623107  0.374488  0.248619  1
  Pt  Pt2  1  0.123942  0.373869  0.750073  1
  Au  Au3  1  0.622638  0.374160  0.749872  1
  Au  Au4  1  0.622638  0.872767  0.248479  1
  Au  Au5  1  0.249247  0.748921  0.500327  1
