# generated using pymatgen
data_TbPr4P12Ru9Rh10
_symmetry_space_group_name_H-M   'P 1'
_cell_length_a   12.72674100
_cell_length_b   12.72674210
_cell_length_c   3.99602600
_cell_angle_alpha   90.00000000
_cell_angle_beta   90.00000000
_cell_angle_gamma   119.99999973
_symmetry_Int_Tables_number   1
_chemical_formula_structural   TbPr4P12Ru9Rh10
_chemical_formula_sum   'Tb1 Pr4 P12 Ru9 Rh10'
_cell_volume   560.52293545
_cell_formula_units_Z   1
loop_
 _symmetry_equiv_pos_site_id
 _symmetry_equiv_pos_as_xyz
  1  'x, y, z'
loop_
 _atom_site_type_symbol
 _atom_site_label
 _atom_site_symmetry_multiplicity
 _atom_site_fract_x
 _atom_site_fract_y
 _atom_site_fract_z
 _atom_site_occupancy
  Tb  Tb0  1  0.333333  0.666667  0.000000  1
  Pr  Pr1  1  0.813895  0.000024  0.500000  1
  Pr  Pr2  1  0.999976  0.813871  0.500000  1
  Pr  Pr3  1  0.186129  0.186105  0.500000  1
  Pr  Pr4  1  0.666667  0.333333  0.000000  1
  P  P5  1  0.185272  0.998868  0.000000  1
  P  P6  1  0.001132  0.186404  0.000000  1
  P  P7  1  0.813596  0.814728  0.000000  1
  P  P8  1  0.516038  0.690528  0.500000  1
  P  P9  1  0.309472  0.825510  0.500000  1
  P  P10  1  0.174490  0.483962  0.500000  1
  P  P11  1  0.480582  0.170547  0.500000  1
  P  P12  1  0.689964  0.519418  0.500000  1
  P  P13  1  0.829453  0.310036  0.500000  1
  P  P14  1  0.627538  0.000158  0.000000  1
  P  P15  1  0.999842  0.627380  0.000000  1
  P  P16  1  0.372620  0.372462  0.000000  1
  Ru  Ru17  1  0.287531  0.998358  0.500000  1
  Ru  Ru18  1  0.001642  0.289173  0.500000  1
  Ru  Ru19  1  0.710827  0.712469  0.500000  1
  Ru  Ru20  1  0.509506  0.872792  0.500000  1
  Ru  Ru21  1  0.127208  0.636714  0.500000  1
  Ru  Ru22  1  0.363286  0.490494  0.500000  1
  Ru  Ru23  1  0.486726  0.362631  0.500000  1
  Ru  Ru24  1  0.875905  0.513274  0.500000  1
  Ru  Ru25  1  0.637369  0.124095  0.500000  1
  Rh  Rh26  1  0.449134  0.999928  0.000000  1
  Rh  Rh27  1  0.000072  0.449206  0.000000  1
  Rh  Rh28  1  0.550794  0.550866  0.000000  1
  Rh  Rh29  1  0.620292  0.803930  0.000000  1
  Rh  Rh30  1  0.196070  0.816362  0.000000  1
  Rh  Rh31  1  0.183638  0.379708  0.000000  1
  Rh  Rh32  1  0.376852  0.181412  0.000000  1
  Rh  Rh33  1  0.804560  0.623148  0.000000  1
  Rh  Rh34  1  0.818588  0.195440  0.000000  1
  Rh  Rh35  1  0.000000  0.000000  0.000000  1
