# generated using pymatgen
data_YEr7Tl3Os
_symmetry_space_group_name_H-M   'P 1'
_cell_length_a   10.19799000
_cell_length_b   10.19799101
_cell_length_c   7.20751600
_cell_angle_alpha   90.00000000
_cell_angle_beta   90.00000000
_cell_angle_gamma   120.00000320
_symmetry_Int_Tables_number   1
_chemical_formula_structural   YEr7Tl3Os
_chemical_formula_sum   'Y2 Er14 Tl6 Os2'
_cell_volume   649.15056514
_cell_formula_units_Z   2
loop_
 _symmetry_equiv_pos_site_id
 _symmetry_equiv_pos_as_xyz
  1  'x, y, z'
loop_
 _atom_site_type_symbol
 _atom_site_label
 _atom_site_symmetry_multiplicity
 _atom_site_fract_x
 _atom_site_fract_y
 _atom_site_fract_z
 _atom_site_occupancy
  Y  Y0  1  0.000000  0.000000  0.270435  1
  Y  Y1  1  0.000000  0.000000  0.770435  1
  Er  Er2  1  0.176685  0.823315  0.989580  1
  Er  Er3  1  0.823315  0.176685  0.489580  1
  Er  Er4  1  0.176685  0.353370  0.989580  1
  Er  Er5  1  0.646630  0.823315  0.989580  1
  Er  Er6  1  0.353370  0.176685  0.489580  1
  Er  Er7  1  0.823315  0.646630  0.489580  1
  Er  Er8  1  0.333333  0.666667  0.671358  1
  Er  Er9  1  0.666667  0.333333  0.171358  1
  Er  Er10  1  0.463967  0.536033  0.289719  1
  Er  Er11  1  0.536033  0.463967  0.789719  1
  Er  Er12  1  0.463967  0.927934  0.289719  1
  Er  Er13  1  0.072066  0.536033  0.289719  1
  Er  Er14  1  0.927934  0.463967  0.789719  1
  Er  Er15  1  0.536033  0.072066  0.789719  1
  Tl  Tl16  1  0.164647  0.835353  0.544735  1
  Tl  Tl17  1  0.835353  0.164647  0.044735  1
  Tl  Tl18  1  0.164647  0.329296  0.544735  1
  Tl  Tl19  1  0.670704  0.835353  0.544735  1
  Tl  Tl20  1  0.329296  0.164647  0.044735  1
  Tl  Tl21  1  0.835353  0.670704  0.044735  1
  Os  Os22  1  0.333333  0.666667  0.059166  1
  Os  Os23  1  0.666667  0.333333  0.559166  1
