# generated using pymatgen
data_Hf3Ta2TiSn5
_symmetry_space_group_name_H-M   'P 1'
_cell_length_a   9.56739744
_cell_length_b   9.56739713
_cell_length_c   5.78928400
_cell_angle_alpha   90.00000000
_cell_angle_beta   90.00000000
_cell_angle_gamma   119.71092886
_symmetry_Int_Tables_number   1
_chemical_formula_structural   Hf3Ta2TiSn5
_chemical_formula_sum   'Hf6 Ta4 Ti2 Sn10'
_cell_volume   460.25741340
_cell_formula_units_Z   2
loop_
 _symmetry_equiv_pos_site_id
 _symmetry_equiv_pos_as_xyz
  1  'x, y, z'
loop_
 _atom_site_type_symbol
 _atom_site_label
 _atom_site_symmetry_multiplicity
 _atom_site_fract_x
 _atom_site_fract_y
 _atom_site_fract_z
 _atom_site_occupancy
  Hf  Hf0  1  0.847537  0.691363  0.750000  1
  Hf  Hf1  1  0.154913  0.845087  0.250000  1
  Hf  Hf2  1  0.691363  0.847537  0.250000  1
  Hf  Hf3  1  0.308637  0.152463  0.750000  1
  Hf  Hf4  1  0.845087  0.154913  0.750000  1
  Hf  Hf5  1  0.152463  0.308637  0.250000  1
  Ta  Ta6  1  0.500000  0.000000  0.500000  1
  Ta  Ta7  1  0.000000  0.500000  0.000000  1
  Ta  Ta8  1  0.000000  0.500000  0.500000  1
  Ta  Ta9  1  0.500000  0.000000  0.000000  1
  Ti  Ti10  1  0.500000  0.500000  0.000000  1
  Ti  Ti11  1  0.500000  0.500000  0.500000  1
  Sn  Sn12  1  0.215188  0.421489  0.750000  1
  Sn  Sn13  1  0.789829  0.210171  0.250000  1
  Sn  Sn14  1  0.421489  0.215188  0.250000  1
  Sn  Sn15  1  0.578511  0.784812  0.750000  1
  Sn  Sn16  1  0.210171  0.789829  0.750000  1
  Sn  Sn17  1  0.784812  0.578511  0.250000  1
  Sn  Sn18  1  0.665397  0.334603  0.750000  1
  Sn  Sn19  1  0.334603  0.665397  0.250000  1
  Sn  Sn20  1  0.000000  0.000000  0.500000  1
  Sn  Sn21  1  0.000000  0.000000  0.000000  1
