# generated using pymatgen
data_Pr9Tm(SnSb)4
_symmetry_space_group_name_H-M   'P 1'
_cell_length_a   8.31527400
_cell_length_b   8.39052700
_cell_length_c   15.86304700
_cell_angle_alpha   90.00000000
_cell_angle_beta   90.00000000
_cell_angle_gamma   90.00000000
_symmetry_Int_Tables_number   1
_chemical_formula_structural   Pr9Tm(SnSb)4
_chemical_formula_sum   'Pr18 Tm2 Sn8 Sb8'
_cell_volume   1106.75734957
_cell_formula_units_Z   2
loop_
 _symmetry_equiv_pos_site_id
 _symmetry_equiv_pos_as_xyz
  1  'x, y, z'
loop_
 _atom_site_type_symbol
 _atom_site_label
 _atom_site_symmetry_multiplicity
 _atom_site_fract_x
 _atom_site_fract_y
 _atom_site_fract_z
 _atom_site_occupancy
  Pr  Pr0  1  0.043131  0.174621  0.395190  1
  Pr  Pr1  1  0.383582  0.838114  0.119648  1
  Pr  Pr2  1  0.114907  0.336780  0.617148  1
  Pr  Pr3  1  0.458545  0.676684  0.896663  1
  Pr  Pr4  1  0.883582  0.661886  0.119648  1
  Pr  Pr5  1  0.114907  0.336780  0.882852  1
  Pr  Pr6  1  0.458545  0.676684  0.603337  1
  Pr  Pr7  1  0.288469  0.996493  0.750000  1
  Pr  Pr8  1  0.614907  0.163220  0.617148  1
  Pr  Pr9  1  0.788469  0.503507  0.750000  1
  Pr  Pr10  1  0.883582  0.661886  0.380352  1
  Pr  Pr11  1  0.043131  0.174621  0.104810  1
  Pr  Pr12  1  0.958545  0.823316  0.896663  1
  Pr  Pr13  1  0.614907  0.163220  0.882852  1
  Pr  Pr14  1  0.543131  0.325379  0.104810  1
  Pr  Pr15  1  0.383582  0.838114  0.380352  1
  Pr  Pr16  1  0.958545  0.823316  0.603337  1
  Pr  Pr17  1  0.543131  0.325379  0.395190  1
  Tm  Tm18  1  0.213832  0.496931  0.250000  1
  Tm  Tm19  1  0.713832  0.003069  0.250000  1
  Sn  Sn20  1  0.658081  0.862305  0.750000  1
  Sn  Sn21  1  0.846663  0.356167  0.250000  1
  Sn  Sn22  1  0.578933  0.622113  0.250000  1
  Sn  Sn23  1  0.416694  0.379872  0.750000  1
  Sn  Sn24  1  0.158081  0.637695  0.750000  1
  Sn  Sn25  1  0.916694  0.120128  0.750000  1
  Sn  Sn26  1  0.346663  0.143833  0.250000  1
  Sn  Sn27  1  0.078933  0.877887  0.250000  1
  Sb  Sb28  1  0.773020  0.477145  0.545809  1
  Sb  Sb29  1  0.725480  0.978349  0.449230  1
  Sb  Sb30  1  0.225480  0.521651  0.449230  1
  Sb  Sb31  1  0.273020  0.022855  0.954191  1
  Sb  Sb32  1  0.773020  0.477145  0.954191  1
  Sb  Sb33  1  0.225480  0.521651  0.050770  1
  Sb  Sb34  1  0.273020  0.022855  0.545809  1
  Sb  Sb35  1  0.725480  0.978349  0.050770  1
