# generated using pymatgen
data_Cs4K8Sb(AsSe4)3
_symmetry_space_group_name_H-M   'P 1'
_cell_length_a   10.18021281
_cell_length_b   10.18021281
_cell_length_c   10.18021281
_cell_angle_alpha   90.23473408
_cell_angle_beta   90.23473408
_cell_angle_gamma   90.23473408
_symmetry_Int_Tables_number   1
_chemical_formula_structural   Cs4K8Sb(AsSe4)3
_chemical_formula_sum   'Cs4 K8 Sb1 As3 Se12'
_cell_volume   1055.01735871
_cell_formula_units_Z   1
loop_
 _symmetry_equiv_pos_site_id
 _symmetry_equiv_pos_as_xyz
  1  'x, y, z'
loop_
 _atom_site_type_symbol
 _atom_site_label
 _atom_site_symmetry_multiplicity
 _atom_site_fract_x
 _atom_site_fract_y
 _atom_site_fract_z
 _atom_site_occupancy
  Cs  Cs0  1  0.925827  0.429497  0.073177  1
  Cs  Cs1  1  0.429497  0.073177  0.925827  1
  Cs  Cs2  1  0.073177  0.925827  0.429497  1
  Cs  Cs3  1  0.572178  0.572178  0.572178  1
  K  K4  1  0.185111  0.684076  0.814788  1
  K  K5  1  0.684076  0.814788  0.185111  1
  K  K6  1  0.814788  0.185111  0.684076  1
  K  K7  1  0.314495  0.314495  0.314495  1
  K  K8  1  0.688220  0.190788  0.310705  1
  K  K9  1  0.190788  0.310705  0.688220  1
  K  K10  1  0.310705  0.688220  0.190788  1
  K  K11  1  0.809526  0.809526  0.809526  1
  Sb  Sb12  1  0.024874  0.024874  0.024874  1
  As  As13  1  0.482589  0.982766  0.517157  1
  As  As14  1  0.982766  0.517157  0.482589  1
  As  As15  1  0.517157  0.482589  0.982766  1
  Se  Se16  1  0.003749  0.780673  0.091966  1
  Se  Se17  1  0.912710  0.503449  0.710314  1
  Se  Se18  1  0.288635  0.411579  0.995969  1
  Se  Se19  1  0.503449  0.710314  0.912710  1
  Se  Se20  1  0.411579  0.995969  0.288635  1
  Se  Se21  1  0.780673  0.091966  0.003749  1
  Se  Se22  1  0.995969  0.288635  0.411579  1
  Se  Se23  1  0.091966  0.003749  0.780673  1
  Se  Se24  1  0.710314  0.912710  0.503449  1
  Se  Se25  1  0.496811  0.211211  0.587161  1
  Se  Se26  1  0.587161  0.496811  0.211211  1
  Se  Se27  1  0.211211  0.587161  0.496811  1
