# generated using pymatgen
data_YLu5U2(ReB6)4
_symmetry_space_group_name_H-M   'P 1'
_cell_length_a   3.64786500
_cell_length_b   9.07290617
_cell_length_c   11.43539613
_cell_angle_alpha   90.33041205
_cell_angle_beta   90.00000000
_cell_angle_gamma   90.00000000
_symmetry_Int_Tables_number   1
_chemical_formula_structural   YLu5U2(ReB6)4
_chemical_formula_sum   'Y1 Lu5 U2 Re4 B24'
_cell_volume   378.46800342
_cell_formula_units_Z   1
loop_
 _symmetry_equiv_pos_site_id
 _symmetry_equiv_pos_as_xyz
  1  'x, y, z'
loop_
 _atom_site_type_symbol
 _atom_site_label
 _atom_site_symmetry_multiplicity
 _atom_site_fract_x
 _atom_site_fract_y
 _atom_site_fract_z
 _atom_site_occupancy
  Y  Y0  1  0.000000  0.822310  0.085858  1
  Lu  Lu1  1  0.000000  0.177534  0.914179  1
  Lu  Lu2  1  0.000000  0.945109  0.372906  1
  Lu  Lu3  1  0.000000  0.055251  0.627183  1
  Lu  Lu4  1  0.000000  0.443503  0.126505  1
  Lu  Lu5  1  0.000000  0.555975  0.873198  1
  U  U6  1  0.000000  0.322152  0.413792  1
  U  U7  1  0.000000  0.677908  0.586400  1
  Re  Re8  1  0.000000  0.635551  0.325116  1
  Re  Re9  1  0.000000  0.363828  0.675599  1
  Re  Re10  1  0.000000  0.141509  0.182385  1
  Re  Re11  1  0.000000  0.859336  0.817117  1
  B  B12  1  0.500000  0.552824  0.434341  1
  B  B13  1  0.500000  0.446913  0.566123  1
  B  B14  1  0.500000  0.054221  0.066679  1
  B  B15  1  0.500000  0.947446  0.932295  1
  B  B16  1  0.500000  0.749769  0.420657  1
  B  B17  1  0.500000  0.250214  0.579820  1
  B  B18  1  0.500000  0.249603  0.079642  1
  B  B19  1  0.500000  0.750529  0.918846  1
  B  B20  1  0.500000  0.792338  0.266056  1
  B  B21  1  0.500000  0.207258  0.734902  1
  B  B22  1  0.500000  0.293679  0.234873  1
  B  B23  1  0.500000  0.706393  0.764659  1
  B  B24  1  0.500000  0.629933  0.185182  1
  B  B25  1  0.500000  0.368922  0.815540  1
  B  B26  1  0.500000  0.132617  0.315944  1
  B  B27  1  0.500000  0.867915  0.684021  1
  B  B28  1  0.500000  0.982003  0.213095  1
  B  B29  1  0.500000  0.019397  0.787210  1
  B  B30  1  0.500000  0.481059  0.287006  1
  B  B31  1  0.500000  0.518427  0.713296  1
  B  B32  1  0.500000  0.601225  0.028348  1
  B  B33  1  0.500000  0.397085  0.971135  1
  B  B34  1  0.500000  0.107557  0.470571  1
  B  B35  1  0.500000  0.892710  0.529519  1
