# generated using pymatgen
data_U2SbH2
_symmetry_space_group_name_H-M   'P 1'
_cell_length_a   4.10974245
_cell_length_b   4.10974239
_cell_length_c   5.44685832
_cell_angle_alpha   112.16394578
_cell_angle_beta   112.16395015
_cell_angle_gamma   89.99999033
_symmetry_Int_Tables_number   1
_chemical_formula_structural   U2SbH2
_chemical_formula_sum   'U2 Sb1 H2'
_cell_volume   77.80999415
_cell_formula_units_Z   1
loop_
 _symmetry_equiv_pos_site_id
 _symmetry_equiv_pos_as_xyz
  1  'x, y, z'
loop_
 _atom_site_type_symbol
 _atom_site_label
 _atom_site_symmetry_multiplicity
 _atom_site_fract_x
 _atom_site_fract_y
 _atom_site_fract_z
 _atom_site_occupancy
  U  U0  1  0.637005  0.637005  0.274008  1
  U  U1  1  0.362996  0.362996  0.725992  1
  Sb  Sb2  1  0.000000  0.000000  0.000000  1
  H  H3  1  0.750000  0.250000  0.499999  1
  H  H4  1  0.250000  0.750000  0.499999  1
