# generated using pymatgen
data_Pr2Al20ReRuRh2
_symmetry_space_group_name_H-M   'P 1'
_cell_length_a   6.90794395
_cell_length_b   6.91464945
_cell_length_c   9.23217684
_cell_angle_alpha   89.60954167
_cell_angle_beta   89.40291647
_cell_angle_gamma   96.93520219
_symmetry_Int_Tables_number   1
_chemical_formula_structural   Pr2Al20ReRuRh2
_chemical_formula_sum   'Pr2 Al20 Re1 Ru1 Rh2'
_cell_volume   437.71948140
_cell_formula_units_Z   1
loop_
 _symmetry_equiv_pos_site_id
 _symmetry_equiv_pos_as_xyz
  1  'x, y, z'
loop_
 _atom_site_type_symbol
 _atom_site_label
 _atom_site_symmetry_multiplicity
 _atom_site_fract_x
 _atom_site_fract_y
 _atom_site_fract_z
 _atom_site_occupancy
  Pr  Pr0  1  0.872653  0.124258  0.750617  1
  Pr  Pr1  1  0.127347  0.875742  0.249383  1
  Al  Al2  1  0.408703  0.141227  0.749598  1
  Al  Al3  1  0.140543  0.409441  0.250508  1
  Al  Al4  1  0.591297  0.858773  0.250402  1
  Al  Al5  1  0.859457  0.590559  0.749492  1
  Al  Al6  1  0.518127  0.778150  0.753355  1
  Al  Al7  1  0.777972  0.518092  0.253944  1
  Al  Al8  1  0.481873  0.221850  0.246645  1
  Al  Al9  1  0.222028  0.481908  0.746056  1
  Al  Al10  1  0.841153  0.161990  0.397429  1
  Al  Al11  1  0.158847  0.838010  0.602571  1
  Al  Al12  1  0.839278  0.159304  0.102168  1
  Al  Al13  1  0.160722  0.840696  0.897832  1
  Al  Al14  1  0.622603  0.380393  0.550304  1
  Al  Al15  1  0.377397  0.619607  0.449696  1
  Al  Al16  1  0.619129  0.377271  0.950278  1
  Al  Al17  1  0.380871  0.622729  0.049722  1
  Al  Al18  1  0.774389  0.774075  0.999765  1
  Al  Al19  1  0.774515  0.773131  0.499964  1
  Al  Al20  1  0.225611  0.225925  0.000235  1
  Al  Al21  1  0.225485  0.226869  0.500036  1
  Re  Re22  1  0.500000  0.000000  0.000000  1
  Ru  Ru23  1  0.000000  0.500000  0.500000  1
  Rh  Rh24  1  0.000000  0.500000  0.000000  1
  Rh  Rh25  1  0.500000  0.000000  0.500000  1
