# generated using pymatgen
data_NaCa3(H4Pt)3
_symmetry_space_group_name_H-M   'P 1'
_cell_length_a   6.38436477
_cell_length_b   6.39808544
_cell_length_c   6.39808700
_cell_angle_alpha   109.51461360
_cell_angle_beta   109.42779618
_cell_angle_gamma   109.42778031
_symmetry_Int_Tables_number   1
_chemical_formula_structural   NaCa3(H4Pt)3
_chemical_formula_sum   'Na1 Ca3 H12 Pt3'
_cell_volume   201.29292426
_cell_formula_units_Z   1
loop_
 _symmetry_equiv_pos_site_id
 _symmetry_equiv_pos_as_xyz
  1  'x, y, z'
loop_
 _atom_site_type_symbol
 _atom_site_label
 _atom_site_symmetry_multiplicity
 _atom_site_fract_x
 _atom_site_fract_y
 _atom_site_fract_z
 _atom_site_occupancy
  Na  Na0  1  0.500000  0.000000  0.000000  1
  Ca  Ca1  1  0.000000  0.000000  0.500000  1
  Ca  Ca2  1  0.000000  0.500000  0.000000  1
  Ca  Ca3  1  0.500000  0.500000  0.500000  1
  H  H4  1  0.733127  0.728266  0.000000  1
  H  H5  1  0.266873  0.000000  0.271734  1
  H  H6  1  0.004861  0.271734  0.271734  1
  H  H7  1  0.266873  0.271734  0.000000  1
  H  H8  1  0.733127  0.000000  0.728266  1
  H  H9  1  0.995139  0.728266  0.728266  1
  H  H10  1  0.751118  0.251118  0.502236  1
  H  H11  1  0.751118  0.502236  0.251118  1
  H  H12  1  0.500000  0.251118  0.748882  1
  H  H13  1  0.248882  0.497764  0.748882  1
  H  H14  1  0.248882  0.748882  0.497764  1
  H  H15  1  0.500000  0.748882  0.251118  1
  Pt  Pt16  1  0.000000  0.500000  0.500000  1
  Pt  Pt17  1  0.500000  0.500000  0.000000  1
  Pt  Pt18  1  0.500000  0.000000  0.500000  1
