# generated using pymatgen
data_DyF37
_symmetry_space_group_name_H-M   'P 1'
_cell_length_a   6.43184847
_cell_length_b   10.10385191
_cell_length_c   10.49094600
_cell_angle_alpha   87.90986001
_cell_angle_beta   95.85841168
_cell_angle_gamma   72.54405193
_symmetry_Int_Tables_number   1
_chemical_formula_structural   DyF37
_chemical_formula_sum   'Dy1 F37'
_cell_volume   645.35667446
_cell_formula_units_Z   1
loop_
 _symmetry_equiv_pos_site_id
 _symmetry_equiv_pos_as_xyz
  1  'x, y, z'
loop_
 _atom_site_type_symbol
 _atom_site_label
 _atom_site_symmetry_multiplicity
 _atom_site_fract_x
 _atom_site_fract_y
 _atom_site_fract_z
 _atom_site_occupancy
  Dy  Dy0  1  0.215965  0.195585  0.183114  1
  F  F1  1  0.703264  0.880152  0.734876  1
  F  F2  1  0.298115  0.393599  0.885207  1
  F  F3  1  0.705084  0.619181  0.088905  1
  F  F4  1  0.333179  0.229732  0.565930  1
  F  F5  1  0.682615  0.761508  0.451732  1
  F  F6  1  0.878046  0.168270  0.832879  1
  F  F7  1  0.100767  0.788282  0.199271  1
  F  F8  1  0.680413  0.880809  0.016433  1
  F  F9  1  0.299644  0.147764  0.992758  1
  F  F10  1  0.786950  0.584313  0.827949  1
  F  F11  1  0.211606  0.402036  0.117404  1
  F  F12  1  0.450833  0.439892  0.820934  1
  F  F13  1  0.545655  0.568017  0.141281  1
  F  F14  1  0.769231  0.583860  0.691309  1
  F  F15  1  0.249103  0.363229  0.308626  1
  F  F16  1  0.773708  0.043073  0.498017  1
  F  F17  1  0.243314  0.034431  0.421715  1
  F  F18  1  0.285854  0.196318  0.690703  1
  F  F19  1  0.697036  0.777241  0.317627  1
  F  F20  1  0.846719  0.089275  0.617135  1
  F  F21  1  0.191703  0.923615  0.352874  1
  F  F22  1  0.802230  0.973083  0.988700  1
  F  F23  1  0.219563  0.000081  0.092938  1
  F  F24  1  0.898874  0.304771  0.826977  1
  F  F25  1  0.133964  0.644408  0.230777  1
  F  F26  1  0.157280  0.714370  0.928418  1
  F  F27  1  0.849325  0.258701  0.119828  1
  F  F28  1  0.476708  0.891877  0.707005  1
  F  F29  1  0.556434  0.078054  0.270284  1
  F  F30  1  0.102582  0.782370  0.584707  1
  F  F31  1  0.931263  0.261515  0.401056  1
  F  F32  1  0.186937  0.651281  0.656750  1
  F  F33  1  0.792053  0.397545  0.356073  1
  F  F34  1  0.286410  0.794804  0.883046  1
  F  F35  1  0.703111  0.169809  0.192828  1
  F  F36  1  0.476006  0.440189  0.533573  1
  F  F37  1  0.478457  0.566963  0.470362  1
