# generated using pymatgen
data_Ho9Mg(Cu2Bi)2
_symmetry_space_group_name_H-M   'P 1'
_cell_length_a   8.57901245
_cell_length_b   8.57901173
_cell_length_c   8.57901147
_cell_angle_alpha   126.00350100
_cell_angle_beta   126.00349341
_cell_angle_gamma   79.88239530
_symmetry_Int_Tables_number   1
_chemical_formula_structural   Ho9Mg(Cu2Bi)2
_chemical_formula_sum   'Ho9 Mg1 Cu4 Bi2'
_cell_volume   399.06246175
_cell_formula_units_Z   1
loop_
 _symmetry_equiv_pos_site_id
 _symmetry_equiv_pos_as_xyz
  1  'x, y, z'
loop_
 _atom_site_type_symbol
 _atom_site_label
 _atom_site_symmetry_multiplicity
 _atom_site_fract_x
 _atom_site_fract_y
 _atom_site_fract_z
 _atom_site_occupancy
  Ho  Ho0  1  0.500000  0.500000  0.000000  1
  Ho  Ho1  1  0.801632  0.287596  0.814584  1
  Ho  Ho2  1  0.198368  0.712404  0.185416  1
  Ho  Ho3  1  0.473013  0.987048  0.185416  1
  Ho  Ho4  1  0.287596  0.473013  0.485965  1
  Ho  Ho5  1  0.012952  0.198368  0.485965  1
  Ho  Ho6  1  0.526987  0.012952  0.814584  1
  Ho  Ho7  1  0.712404  0.526987  0.514035  1
  Ho  Ho8  1  0.987048  0.801632  0.514035  1
  Mg  Mg9  1  0.000000  0.000000  0.000000  1
  Cu  Cu10  1  0.133708  0.626285  0.759993  1
  Cu  Cu11  1  0.866292  0.373715  0.240007  1
  Cu  Cu12  1  0.626285  0.866292  0.492577  1
  Cu  Cu13  1  0.373715  0.133708  0.507423  1
  Bi  Bi14  1  0.254507  0.254507  0.000000  1
  Bi  Bi15  1  0.745493  0.745493  0.000000  1
