# generated using pymatgen
data_NpIO6
_symmetry_space_group_name_H-M   'P 1'
_cell_length_a   5.19253158
_cell_length_b   5.65265701
_cell_length_c   9.14872800
_cell_angle_alpha   90.00000000
_cell_angle_beta   90.00000000
_cell_angle_gamma   92.54174479
_symmetry_Int_Tables_number   1
_chemical_formula_structural   NpIO6
_chemical_formula_sum   'Np2 I2 O12'
_cell_volume   268.26561940
_cell_formula_units_Z   2
loop_
 _symmetry_equiv_pos_site_id
 _symmetry_equiv_pos_as_xyz
  1  'x, y, z'
loop_
 _atom_site_type_symbol
 _atom_site_label
 _atom_site_symmetry_multiplicity
 _atom_site_fract_x
 _atom_site_fract_y
 _atom_site_fract_z
 _atom_site_occupancy
  Np  Np0  1  0.730669  0.265175  0.328026  1
  Np  Np1  1  0.769331  0.734825  0.828026  1
  I  I2  1  0.235952  0.203365  0.638040  1
  I  I3  1  0.264048  0.796635  0.138040  1
  O  O4  1  0.897723  0.989150  0.320215  1
  O  O5  1  0.602277  0.010850  0.820215  1
  O  O6  1  0.542607  0.579447  0.693238  1
  O  O7  1  0.957393  0.420553  0.193238  1
  O  O8  1  0.541300  0.525918  0.345802  1
  O  O9  1  0.958700  0.474082  0.845802  1
  O  O10  1  0.056357  0.918781  0.655804  1
  O  O11  1  0.443643  0.081219  0.155804  1
  O  O12  1  0.481164  0.633270  0.021325  1
  O  O13  1  0.018836  0.366730  0.521325  1
  O  O14  1  0.031159  0.900646  0.997549  1
  O  O15  1  0.468841  0.099354  0.497549  1
