# generated using pymatgen
data_HfPa6TiSn10
_symmetry_space_group_name_H-M   'P 1'
_cell_length_a   9.20149800
_cell_length_b   9.20149921
_cell_length_c   6.15443300
_cell_angle_alpha   90.00000000
_cell_angle_beta   90.00000000
_cell_angle_gamma   119.99998845
_symmetry_Int_Tables_number   1
_chemical_formula_structural   HfPa6TiSn10
_chemical_formula_sum   'Hf1 Pa6 Ti1 Sn10'
_cell_volume   451.26937322
_cell_formula_units_Z   1
loop_
 _symmetry_equiv_pos_site_id
 _symmetry_equiv_pos_as_xyz
  1  'x, y, z'
loop_
 _atom_site_type_symbol
 _atom_site_label
 _atom_site_symmetry_multiplicity
 _atom_site_fract_x
 _atom_site_fract_y
 _atom_site_fract_z
 _atom_site_occupancy
  Hf  Hf0  1  0.000000  0.000000  0.500000  1
  Pa  Pa1  1  0.615179  0.000000  0.747990  1
  Pa  Pa2  1  0.384821  0.000000  0.252010  1
  Pa  Pa3  1  0.000000  0.615179  0.747990  1
  Pa  Pa4  1  0.000000  0.384821  0.252010  1
  Pa  Pa5  1  0.384821  0.384821  0.747990  1
  Pa  Pa6  1  0.615179  0.615179  0.252010  1
  Ti  Ti7  1  0.000000  0.000000  0.000000  1
  Sn  Sn8  1  0.268530  0.000000  0.755823  1
  Sn  Sn9  1  0.731470  0.000000  0.244177  1
  Sn  Sn10  1  0.000000  0.268530  0.755823  1
  Sn  Sn11  1  0.000000  0.731470  0.244177  1
  Sn  Sn12  1  0.731470  0.731470  0.755823  1
  Sn  Sn13  1  0.268530  0.268530  0.244177  1
  Sn  Sn14  1  0.333333  0.666667  0.500000  1
  Sn  Sn15  1  0.666667  0.333333  0.500000  1
  Sn  Sn16  1  0.666667  0.333333  0.000000  1
  Sn  Sn17  1  0.333333  0.666667  0.000000  1
