# generated using pymatgen
data_La2Ho4TcSb2
_symmetry_space_group_name_H-M   'P 1'
_cell_length_a   8.25093718
_cell_length_b   8.40779470
_cell_length_c   4.33940700
_cell_angle_alpha   90.00000000
_cell_angle_beta   90.00000000
_cell_angle_gamma   120.63088640
_symmetry_Int_Tables_number   1
_chemical_formula_structural   La2Ho4TcSb2
_chemical_formula_sum   'La2 Ho4 Tc1 Sb2'
_cell_volume   259.03009971
_cell_formula_units_Z   1
loop_
 _symmetry_equiv_pos_site_id
 _symmetry_equiv_pos_as_xyz
  1  'x, y, z'
loop_
 _atom_site_type_symbol
 _atom_site_label
 _atom_site_symmetry_multiplicity
 _atom_site_fract_x
 _atom_site_fract_y
 _atom_site_fract_z
 _atom_site_occupancy
  La  La0  1  0.600161  0.005588  0.500000  1
  La  La1  1  0.399839  0.405427  0.500000  1
  Ho  Ho2  1  0.238073  0.002170  0.000000  1
  Ho  Ho3  1  0.761927  0.764097  0.000000  1
  Ho  Ho4  1  0.000000  0.223885  0.000000  1
  Ho  Ho5  1  0.000000  0.607002  0.500000  1
  Tc  Tc6  1  0.000000  0.981437  0.500000  1
  Sb  Sb7  1  0.318538  0.664467  0.000000  1
  Sb  Sb8  1  0.681462  0.345928  0.000000  1
