# generated using pymatgen
data_SrLa2Th3(TiSb5)2
_symmetry_space_group_name_H-M   'P 1'
_cell_length_a   9.52769262
_cell_length_b   9.51962789
_cell_length_c   6.37691600
_cell_angle_alpha   90.00000000
_cell_angle_beta   90.00000000
_cell_angle_gamma   120.75286117
_symmetry_Int_Tables_number   1
_chemical_formula_structural   SrLa2Th3(TiSb5)2
_chemical_formula_sum   'Sr1 La2 Th3 Ti2 Sb10'
_cell_volume   497.05459448
_cell_formula_units_Z   1
loop_
 _symmetry_equiv_pos_site_id
 _symmetry_equiv_pos_as_xyz
  1  'x, y, z'
loop_
 _atom_site_type_symbol
 _atom_site_label
 _atom_site_symmetry_multiplicity
 _atom_site_fract_x
 _atom_site_fract_y
 _atom_site_fract_z
 _atom_site_occupancy
  Sr  Sr0  1  0.389684  0.388460  0.250000  1
  La  La1  1  0.611058  0.613201  0.750000  1
  La  La2  1  0.613691  0.993873  0.250000  1
  Th  Th3  1  0.383988  0.007821  0.750000  1
  Th  Th4  1  0.993233  0.610046  0.250000  1
  Th  Th5  1  0.006133  0.381625  0.750000  1
  Ti  Ti6  1  0.000737  0.001834  0.008697  1
  Ti  Ti7  1  0.000737  0.001834  0.491303  1
  Sb  Sb8  1  0.674520  0.332907  0.504956  1
  Sb  Sb9  1  0.325619  0.670670  0.996203  1
  Sb  Sb10  1  0.746821  0.999548  0.750000  1
  Sb  Sb11  1  0.750664  0.747332  0.250000  1
  Sb  Sb12  1  0.325619  0.670670  0.503797  1
  Sb  Sb13  1  0.674520  0.332907  0.995044  1
  Sb  Sb14  1  0.253653  0.995725  0.250000  1
  Sb  Sb15  1  0.249486  0.249000  0.750000  1
  Sb  Sb16  1  0.999548  0.745216  0.750000  1
  Sb  Sb17  1  0.000286  0.257329  0.250000  1
