# generated using pymatgen
data_Hf3BeRe2Ge2Os
_symmetry_space_group_name_H-M   'P 1'
_cell_length_a   6.93238779
_cell_length_b   6.93238811
_cell_length_c   3.41176300
_cell_angle_alpha   90.00000000
_cell_angle_beta   90.00000000
_cell_angle_gamma   120.17346001
_symmetry_Int_Tables_number   1
_chemical_formula_structural   Hf3BeRe2Ge2Os
_chemical_formula_sum   'Hf3 Be1 Re2 Ge2 Os1'
_cell_volume   141.74685937
_cell_formula_units_Z   1
loop_
 _symmetry_equiv_pos_site_id
 _symmetry_equiv_pos_as_xyz
  1  'x, y, z'
loop_
 _atom_site_type_symbol
 _atom_site_label
 _atom_site_symmetry_multiplicity
 _atom_site_fract_x
 _atom_site_fract_y
 _atom_site_fract_z
 _atom_site_occupancy
  Hf  Hf0  1  0.384265  0.997408  0.500000  1
  Hf  Hf1  1  0.997408  0.384265  0.500000  1
  Hf  Hf2  1  0.614289  0.614289  0.500000  1
  Be  Be3  1  0.003110  0.003110  0.500000  1
  Re  Re4  1  0.755820  0.999410  0.000000  1
  Re  Re5  1  0.999410  0.755820  0.000000  1
  Ge  Ge6  1  0.333125  0.666804  0.000000  1
  Ge  Ge7  1  0.666804  0.333125  0.000000  1
  Os  Os8  1  0.245770  0.245770  0.000000  1
