# generated using pymatgen
data_Tb3GaSn3Ru2
_symmetry_space_group_name_H-M   'P 1'
_cell_length_a   7.48081700
_cell_length_b   7.48081576
_cell_length_c   4.10035200
_cell_angle_alpha   90.00000000
_cell_angle_beta   90.00000000
_cell_angle_gamma   119.99999221
_symmetry_Int_Tables_number   1
_chemical_formula_structural   Tb3GaSn3Ru2
_chemical_formula_sum   'Tb3 Ga1 Sn3 Ru2'
_cell_volume   198.72376042
_cell_formula_units_Z   1
loop_
 _symmetry_equiv_pos_site_id
 _symmetry_equiv_pos_as_xyz
  1  'x, y, z'
loop_
 _atom_site_type_symbol
 _atom_site_label
 _atom_site_symmetry_multiplicity
 _atom_site_fract_x
 _atom_site_fract_y
 _atom_site_fract_z
 _atom_site_occupancy
  Tb  Tb0  1  0.413058  0.015531  0.500000  1
  Tb  Tb1  1  0.984469  0.397528  0.500000  1
  Tb  Tb2  1  0.602472  0.586942  0.500000  1
  Ga  Ga3  1  0.333333  0.666667  0.000000  1
  Sn  Sn4  1  0.750321  0.007913  0.000000  1
  Sn  Sn5  1  0.992087  0.742408  0.000000  1
  Sn  Sn6  1  0.257592  0.249679  0.000000  1
  Ru  Ru7  1  0.666667  0.333333  0.000000  1
  Ru  Ru8  1  0.000000  0.000000  0.500000  1
