# generated using pymatgen
data_PrCo3Si2
_symmetry_space_group_name_H-M   'P 1'
_cell_length_a   6.37553624
_cell_length_b   6.37553624
_cell_length_c   6.37553650
_cell_angle_alpha   130.21348539
_cell_angle_beta   115.00588986
_cell_angle_gamma   86.08084393
_symmetry_Int_Tables_number   1
_chemical_formula_structural   PrCo3Si2
_chemical_formula_sum   'Pr2 Co6 Si4'
_cell_volume   171.33343063
_cell_formula_units_Z   2
loop_
 _symmetry_equiv_pos_site_id
 _symmetry_equiv_pos_as_xyz
  1  'x, y, z'
loop_
 _atom_site_type_symbol
 _atom_site_label
 _atom_site_symmetry_multiplicity
 _atom_site_fract_x
 _atom_site_fract_y
 _atom_site_fract_z
 _atom_site_occupancy
  Pr  Pr0  1  0.250000  0.967680  0.717680  1
  Pr  Pr1  1  0.750000  0.032320  0.282320  1
  Co  Co2  1  0.500000  0.500000  0.500000  1
  Co  Co3  1  0.000000  0.500000  0.000000  1
  Co  Co4  1  0.279836  0.000000  0.279836  1
  Co  Co5  1  0.720164  0.000000  0.720164  1
  Co  Co6  1  0.220164  0.500000  0.720164  1
  Co  Co7  1  0.779836  0.500000  0.279836  1
  Si  Si8  1  0.079480  0.282925  0.203445  1
  Si  Si9  1  0.920520  0.717075  0.796555  1
  Si  Si10  1  0.420520  0.623964  0.203445  1
  Si  Si11  1  0.579480  0.376036  0.796555  1
