# generated using pymatgen
data_Sm2Fe3P7Ru8Rh
_symmetry_space_group_name_H-M   'P 1'
_cell_length_a   9.32909361
_cell_length_b   9.31472782
_cell_length_c   3.85893100
_cell_angle_alpha   90.00000000
_cell_angle_beta   90.00000000
_cell_angle_gamma   119.79798756
_symmetry_Int_Tables_number   1
_chemical_formula_structural   Sm2Fe3P7Ru8Rh
_chemical_formula_sum   'Sm2 Fe3 P7 Ru8 Rh1'
_cell_volume   290.99647298
_cell_formula_units_Z   1
loop_
 _symmetry_equiv_pos_site_id
 _symmetry_equiv_pos_as_xyz
  1  'x, y, z'
loop_
 _atom_site_type_symbol
 _atom_site_label
 _atom_site_symmetry_multiplicity
 _atom_site_fract_x
 _atom_site_fract_y
 _atom_site_fract_z
 _atom_site_occupancy
  Sm  Sm0  1  0.332696  0.667003  0.000000  1
  Sm  Sm1  1  0.667260  0.333981  0.500000  1
  Fe  Fe2  1  0.158180  0.889478  0.000000  1
  Fe  Fe3  1  0.110042  0.267097  0.000000  1
  Fe  Fe4  1  0.734713  0.843797  0.000000  1
  P  P5  1  0.411203  0.106676  0.000000  1
  P  P6  1  0.892946  0.300074  0.000000  1
  P  P7  1  0.690817  0.588566  0.000000  1
  P  P8  1  0.119384  0.723852  0.500000  1
  P  P9  1  0.280476  0.395214  0.500000  1
  P  P10  1  0.605674  0.886946  0.500000  1
  P  P11  1  0.001133  0.999607  0.000000  1
  Ru  Ru12  1  0.419558  0.360048  0.000000  1
  Ru  Ru13  1  0.639949  0.060049  0.000000  1
  Ru  Ru14  1  0.387192  0.950579  0.500000  1
  Ru  Ru15  1  0.050328  0.437947  0.500000  1
  Ru  Ru16  1  0.562935  0.615524  0.500000  1
  Ru  Ru17  1  0.203474  0.116284  0.500000  1
  Ru  Ru18  1  0.884245  0.087482  0.500000  1
  Ru  Ru19  1  0.911596  0.792559  0.500000  1
  Rh  Rh20  1  0.936196  0.577239  0.000000  1
