# generated using pymatgen
data_Pr5(Sn5Pt2)2
_symmetry_space_group_name_H-M   'P 1'
_cell_length_a   14.32339300
_cell_length_b   14.32339300
_cell_length_c   4.71198700
_cell_angle_alpha   90.00000000
_cell_angle_beta   90.00000000
_cell_angle_gamma   90.00000000
_symmetry_Int_Tables_number   1
_chemical_formula_structural   Pr5(Sn5Pt2)2
_chemical_formula_sum   'Pr10 Sn20 Pt8'
_cell_volume   966.70930702
_cell_formula_units_Z   2
loop_
 _symmetry_equiv_pos_site_id
 _symmetry_equiv_pos_as_xyz
  1  'x, y, z'
loop_
 _atom_site_type_symbol
 _atom_site_label
 _atom_site_symmetry_multiplicity
 _atom_site_fract_x
 _atom_site_fract_y
 _atom_site_fract_z
 _atom_site_occupancy
  Pr  Pr0  1  0.500000  0.500000  0.000000  1
  Pr  Pr1  1  0.000000  0.000000  0.000000  1
  Pr  Pr2  1  0.679318  0.179318  0.500000  1
  Pr  Pr3  1  0.320682  0.820682  0.500000  1
  Pr  Pr4  1  0.179318  0.320682  0.500000  1
  Pr  Pr5  1  0.820682  0.679318  0.500000  1
  Pr  Pr6  1  0.891035  0.391035  0.500000  1
  Pr  Pr7  1  0.108965  0.608965  0.500000  1
  Pr  Pr8  1  0.391035  0.108965  0.500000  1
  Pr  Pr9  1  0.608965  0.891035  0.500000  1
  Sn  Sn10  1  0.569498  0.069498  0.000000  1
  Sn  Sn11  1  0.430502  0.930502  0.000000  1
  Sn  Sn12  1  0.069498  0.430502  0.000000  1
  Sn  Sn13  1  0.930502  0.569498  0.000000  1
  Sn  Sn14  1  0.653536  0.700820  0.000000  1
  Sn  Sn15  1  0.346464  0.299180  0.000000  1
  Sn  Sn16  1  0.153536  0.799180  0.000000  1
  Sn  Sn17  1  0.846464  0.200820  0.000000  1
  Sn  Sn18  1  0.299180  0.653536  0.000000  1
  Sn  Sn19  1  0.700820  0.346464  0.000000  1
  Sn  Sn20  1  0.200820  0.153536  0.000000  1
  Sn  Sn21  1  0.799180  0.846464  0.000000  1
  Sn  Sn22  1  0.660928  0.502131  0.500000  1
  Sn  Sn23  1  0.339072  0.497869  0.500000  1
  Sn  Sn24  1  0.160928  0.997869  0.500000  1
  Sn  Sn25  1  0.839072  0.002131  0.500000  1
  Sn  Sn26  1  0.497869  0.660928  0.500000  1
  Sn  Sn27  1  0.502131  0.339072  0.500000  1
  Sn  Sn28  1  0.002131  0.160928  0.500000  1
  Sn  Sn29  1  0.997869  0.839072  0.500000  1
  Pt  Pt30  1  0.744796  0.530681  0.000000  1
  Pt  Pt31  1  0.255204  0.469319  0.000000  1
  Pt  Pt32  1  0.244796  0.969319  0.000000  1
  Pt  Pt33  1  0.755204  0.030681  0.000000  1
  Pt  Pt34  1  0.469319  0.744796  0.000000  1
  Pt  Pt35  1  0.530681  0.255204  0.000000  1
  Pt  Pt36  1  0.030681  0.244796  0.000000  1
  Pt  Pt37  1  0.969319  0.755204  0.000000  1
