# generated using pymatgen
data_Na3LiCa12(Si2N5)4
_symmetry_space_group_name_H-M   'P 1'
_cell_length_a   5.18114374
_cell_length_b   10.68386532
_cell_length_c   10.64730826
_cell_angle_alpha   89.74911100
_cell_angle_beta   75.91814749
_cell_angle_gamma   88.96879192
_symmetry_Int_Tables_number   1
_chemical_formula_structural   Na3LiCa12(Si2N5)4
_chemical_formula_sum   'Na3 Li1 Ca12 Si8 N20'
_cell_volume   571.57402790
_cell_formula_units_Z   1
loop_
 _symmetry_equiv_pos_site_id
 _symmetry_equiv_pos_as_xyz
  1  'x, y, z'
loop_
 _atom_site_type_symbol
 _atom_site_label
 _atom_site_symmetry_multiplicity
 _atom_site_fract_x
 _atom_site_fract_y
 _atom_site_fract_z
 _atom_site_occupancy
  Na  Na0  1  0.829579  0.750000  0.340842  1
  Na  Na1  1  0.169539  0.250000  0.660922  1
  Na  Na2  1  0.379583  0.750000  0.240833  1
  Li  Li3  1  0.629316  0.250000  0.741368  1
  Ca  Ca4  1  0.451126  0.858040  0.573531  1
  Ca  Ca5  1  0.975343  0.641960  0.573531  1
  Ca  Ca6  1  0.549878  0.144800  0.427716  1
  Ca  Ca7  1  0.022407  0.355200  0.427716  1
  Ca  Ca8  1  0.340974  0.647592  0.828699  1
  Ca  Ca9  1  0.830327  0.852408  0.828699  1
  Ca  Ca10  1  0.657976  0.351567  0.172052  1
  Ca  Ca11  1  0.169972  0.148433  0.172052  1
  Ca  Ca12  1  0.737792  0.622850  0.037498  1
  Ca  Ca13  1  0.224710  0.877150  0.037498  1
  Ca  Ca14  1  0.269293  0.369448  0.958712  1
  Ca  Ca15  1  0.771995  0.130552  0.958712  1
  Si  Si16  1  0.306759  0.033664  0.791177  1
  Si  Si17  1  0.902063  0.466336  0.791177  1
  Si  Si18  1  0.697939  0.971046  0.209852  1
  Si  Si19  1  0.092209  0.528954  0.209852  1
  Si  Si20  1  0.120290  0.963904  0.391991  1
  Si  Si21  1  0.487719  0.536096  0.391991  1
  Si  Si22  1  0.881507  0.040003  0.609871  1
  Si  Si23  1  0.508622  0.459997  0.609871  1
  N  N24  1  0.507438  0.616183  0.539204  1
  N  N25  1  0.953357  0.883817  0.539204  1
  N  N26  1  0.492115  0.381031  0.462374  1
  N  N27  1  0.045512  0.118969  0.462374  1
  N  N28  1  0.994791  0.059784  0.747685  1
  N  N29  1  0.257524  0.440216  0.747685  1
  N  N30  1  0.010189  0.941211  0.253133  1
  N  N31  1  0.736677  0.558789  0.253133  1
  N  N32  1  0.703829  0.883570  0.069114  1
  N  N33  1  0.227057  0.616430  0.069114  1
  N  N34  1  0.298762  0.120668  0.931346  1
  N  N35  1  0.769892  0.379332  0.931346  1
  N  N36  1  0.339550  0.869173  0.807575  1
  N  N37  1  0.852875  0.630827  0.807575  1
  N  N38  1  0.666860  0.134157  0.191489  1
  N  N39  1  0.141651  0.365843  0.191489  1
  N  N40  1  0.460238  0.927787  0.356672  1
  N  N41  1  0.183090  0.572213  0.356672  1
  N  N42  1  0.545196  0.083414  0.648326  1
  N  N43  1  0.806478  0.416586  0.648326  1
