# generated using pymatgen
data_MnCrPb2F10
_symmetry_space_group_name_H-M   'P 1'
_cell_length_a   5.77575461
_cell_length_b   5.81348668
_cell_length_c   8.09925400
_cell_angle_alpha   69.28118499
_cell_angle_beta   70.36145432
_cell_angle_gamma   70.92171256
_symmetry_Int_Tables_number   1
_chemical_formula_structural   MnCrPb2F10
_chemical_formula_sum   'Mn1 Cr1 Pb2 F10'
_cell_volume   232.79621357
_cell_formula_units_Z   1
loop_
 _symmetry_equiv_pos_site_id
 _symmetry_equiv_pos_as_xyz
  1  'x, y, z'
loop_
 _atom_site_type_symbol
 _atom_site_label
 _atom_site_symmetry_multiplicity
 _atom_site_fract_x
 _atom_site_fract_y
 _atom_site_fract_z
 _atom_site_occupancy
  Mn  Mn0  1  0.000000  0.000000  0.000000  1
  Cr  Cr1  1  0.000000  0.000000  0.500000  1
  Pb  Pb2  1  0.543269  0.452646  0.253941  1
  Pb  Pb3  1  0.456731  0.547354  0.746059  1
  F  F4  1  0.068270  0.931814  0.737178  1
  F  F5  1  0.931730  0.068186  0.262822  1
  F  F6  1  0.203873  0.229268  0.892544  1
  F  F7  1  0.761711  0.789263  0.612158  1
  F  F8  1  0.722269  0.294723  0.532994  1
  F  F9  1  0.709096  0.272859  0.972296  1
  F  F10  1  0.277731  0.705277  0.467006  1
  F  F11  1  0.290904  0.727141  0.027704  1
  F  F12  1  0.238289  0.210737  0.387842  1
  F  F13  1  0.796127  0.770732  0.107456  1
