# generated using pymatgen
data_Y3HoAl8
_symmetry_space_group_name_H-M   'P 1'
_cell_length_a   9.64890690
_cell_length_b   9.64890694
_cell_length_c   9.64890766
_cell_angle_alpha   33.57152427
_cell_angle_beta   33.57152583
_cell_angle_gamma   33.57152647
_symmetry_Int_Tables_number   1
_chemical_formula_structural   Y3HoAl8
_chemical_formula_sum   'Y3 Ho1 Al8'
_cell_volume   244.68224502
_cell_formula_units_Z   1
loop_
 _symmetry_equiv_pos_site_id
 _symmetry_equiv_pos_as_xyz
  1  'x, y, z'
loop_
 _atom_site_type_symbol
 _atom_site_label
 _atom_site_symmetry_multiplicity
 _atom_site_fract_x
 _atom_site_fract_y
 _atom_site_fract_z
 _atom_site_occupancy
  Y  Y0  1  0.374781  0.374781  0.374781  1
  Y  Y1  1  0.000184  0.000184  0.000184  1
  Y  Y2  1  0.500070  0.500070  0.500070  1
  Ho  Ho3  1  0.874973  0.874973  0.874973  1
  Al  Al4  1  0.437464  0.937321  0.437464  1
  Al  Al5  1  0.937555  0.437582  0.937555  1
  Al  Al6  1  0.437464  0.437464  0.937321  1
  Al  Al7  1  0.937555  0.937555  0.437582  1
  Al  Al8  1  0.187473  0.187473  0.187473  1
  Al  Al9  1  0.687578  0.687578  0.687578  1
  Al  Al10  1  0.937321  0.437464  0.437464  1
  Al  Al11  1  0.437582  0.937555  0.937555  1
