# generated using pymatgen
data_Ho2TmFe8Co
_symmetry_space_group_name_H-M   'P 1'
_cell_length_a   8.62045072
_cell_length_b   8.62045081
_cell_length_c   8.62045145
_cell_angle_alpha   34.27918268
_cell_angle_beta   34.27918258
_cell_angle_gamma   34.27917906
_symmetry_Int_Tables_number   1
_chemical_formula_structural   Ho2TmFe8Co
_chemical_formula_sum   'Ho2 Tm1 Fe8 Co1'
_cell_volume   181.22522873
_cell_formula_units_Z   1
loop_
 _symmetry_equiv_pos_site_id
 _symmetry_equiv_pos_as_xyz
  1  'x, y, z'
loop_
 _atom_site_type_symbol
 _atom_site_label
 _atom_site_symmetry_multiplicity
 _atom_site_fract_x
 _atom_site_fract_y
 _atom_site_fract_z
 _atom_site_occupancy
  Ho  Ho0  1  0.000180  0.000180  0.000180  1
  Ho  Ho1  1  0.857801  0.857801  0.857801  1
  Tm  Tm2  1  0.141844  0.141844  0.141844  1
  Fe  Fe3  1  0.332800  0.332800  0.332800  1
  Fe  Fe4  1  0.667272  0.667272  0.667272  1
  Fe  Fe5  1  0.081934  0.582016  0.582016  1
  Fe  Fe6  1  0.582016  0.582016  0.081934  1
  Fe  Fe7  1  0.582016  0.081934  0.582016  1
  Fe  Fe8  1  0.417936  0.918344  0.417936  1
  Fe  Fe9  1  0.918344  0.417936  0.417936  1
  Fe  Fe10  1  0.417936  0.417936  0.918344  1
  Co  Co11  1  0.499921  0.499921  0.499921  1
