# generated using pymatgen
data_Ho4Tc3Ni2Os3
_symmetry_space_group_name_H-M   'P 1'
_cell_length_a   5.39393963
_cell_length_b   5.38573494
_cell_length_c   8.81800000
_cell_angle_alpha   90.00000000
_cell_angle_beta   90.00000000
_cell_angle_gamma   123.92080433
_symmetry_Int_Tables_number   1
_chemical_formula_structural   Ho4Tc3Ni2Os3
_chemical_formula_sum   'Ho4 Tc3 Ni2 Os3'
_cell_volume   212.56887067
_cell_formula_units_Z   1
loop_
 _symmetry_equiv_pos_site_id
 _symmetry_equiv_pos_as_xyz
  1  'x, y, z'
loop_
 _atom_site_type_symbol
 _atom_site_label
 _atom_site_symmetry_multiplicity
 _atom_site_fract_x
 _atom_site_fract_y
 _atom_site_fract_z
 _atom_site_occupancy
  Ho  Ho0  1  0.336873  0.665057  0.437549  1
  Ho  Ho1  1  0.664888  0.336056  0.563285  1
  Ho  Ho2  1  0.664888  0.336056  0.936715  1
  Ho  Ho3  1  0.336873  0.665057  0.062451  1
  Tc  Tc4  1  0.823800  0.663228  0.250000  1
  Tc  Tc5  1  0.333370  0.173618  0.250000  1
  Tc  Tc6  1  0.172573  0.332996  0.750000  1
  Ni  Ni7  1  0.827023  0.172265  0.250000  1
  Ni  Ni8  1  0.170319  0.828364  0.750000  1
  Os  Os9  1  0.003868  0.002418  0.499493  1
  Os  Os10  1  0.003868  0.002418  0.000507  1
  Os  Os11  1  0.661659  0.822467  0.750000  1
