# generated using pymatgen
data_Sc4Si6Ir4Pt3
_symmetry_space_group_name_H-M   'P 1'
_cell_length_a   7.00653330
_cell_length_b   7.00653235
_cell_length_c   7.01725100
_cell_angle_alpha   109.50220732
_cell_angle_beta   109.50220457
_cell_angle_gamma   109.44021759
_symmetry_Int_Tables_number   1
_chemical_formula_structural   Sc4Si6Ir4Pt3
_chemical_formula_sum   'Sc4 Si6 Ir4 Pt3'
_cell_volume   265.08504341
_cell_formula_units_Z   1
loop_
 _symmetry_equiv_pos_site_id
 _symmetry_equiv_pos_as_xyz
  1  'x, y, z'
loop_
 _atom_site_type_symbol
 _atom_site_label
 _atom_site_symmetry_multiplicity
 _atom_site_fract_x
 _atom_site_fract_y
 _atom_site_fract_z
 _atom_site_occupancy
  Sc  Sc0  1  0.000000  0.000000  0.500000  1
  Sc  Sc1  1  0.007033  0.503517  0.003517  1
  Sc  Sc2  1  0.496483  0.992967  0.996483  1
  Sc  Sc3  1  0.496483  0.503517  0.500000  1
  Si  Si4  1  0.679965  0.685987  0.999693  1
  Si  Si5  1  0.314013  0.993978  0.313707  1
  Si  Si6  1  0.006022  0.320035  0.319728  1
  Si  Si7  1  0.314013  0.320035  0.000307  1
  Si  Si8  1  0.679965  0.993978  0.680272  1
  Si  Si9  1  0.006022  0.685987  0.686293  1
  Ir  Ir10  1  0.249615  0.499230  0.749615  1
  Ir  Ir11  1  0.249615  0.750385  0.500000  1
  Ir  Ir12  1  0.500770  0.750385  0.250385  1
  Ir  Ir13  1  0.000000  0.000000  0.000000  1
  Pt  Pt14  1  0.749713  0.250287  0.500000  1
  Pt  Pt15  1  0.749713  0.499427  0.249713  1
  Pt  Pt16  1  0.500573  0.250287  0.750287  1
