# generated using pymatgen
data_RbGd3Se5
_symmetry_space_group_name_H-M   'P 1'
_cell_length_a   4.22208000
_cell_length_b   12.50631200
_cell_length_c   22.49686400
_cell_angle_alpha   90.00000000
_cell_angle_beta   90.00000000
_cell_angle_gamma   90.00000000
_symmetry_Int_Tables_number   1
_chemical_formula_structural   RbGd3Se5
_chemical_formula_sum   'Rb4 Gd12 Se20'
_cell_volume   1187.89403069
_cell_formula_units_Z   4
loop_
 _symmetry_equiv_pos_site_id
 _symmetry_equiv_pos_as_xyz
  1  'x, y, z'
loop_
 _atom_site_type_symbol
 _atom_site_label
 _atom_site_symmetry_multiplicity
 _atom_site_fract_x
 _atom_site_fract_y
 _atom_site_fract_z
 _atom_site_occupancy
  Rb  Rb0  1  0.250000  0.654170  0.599895  1
  Rb  Rb1  1  0.250000  0.845830  0.099895  1
  Rb  Rb2  1  0.750000  0.345830  0.400105  1
  Rb  Rb3  1  0.750000  0.154170  0.900105  1
  Gd  Gd4  1  0.250000  0.963713  0.697620  1
  Gd  Gd5  1  0.250000  0.536287  0.197620  1
  Gd  Gd6  1  0.750000  0.036287  0.302380  1
  Gd  Gd7  1  0.750000  0.463713  0.802380  1
  Gd  Gd8  1  0.750000  0.804115  0.827814  1
  Gd  Gd9  1  0.750000  0.695885  0.327814  1
  Gd  Gd10  1  0.250000  0.195885  0.172186  1
  Gd  Gd11  1  0.250000  0.304115  0.672186  1
  Gd  Gd12  1  0.750000  0.113122  0.551428  1
  Gd  Gd13  1  0.750000  0.386878  0.051428  1
  Gd  Gd14  1  0.250000  0.886878  0.448572  1
  Gd  Gd15  1  0.250000  0.613122  0.948572  1
  Se  Se16  1  0.750000  0.811397  0.699489  1
  Se  Se17  1  0.750000  0.688603  0.199489  1
  Se  Se18  1  0.250000  0.188603  0.300511  1
  Se  Se19  1  0.250000  0.311397  0.800511  1
  Se  Se20  1  0.750000  0.132618  0.681791  1
  Se  Se21  1  0.750000  0.367382  0.181791  1
  Se  Se22  1  0.250000  0.867382  0.318209  1
  Se  Se23  1  0.250000  0.632618  0.818209  1
  Se  Se24  1  0.250000  0.958160  0.826092  1
  Se  Se25  1  0.250000  0.541840  0.326092  1
  Se  Se26  1  0.750000  0.041840  0.173908  1
  Se  Se27  1  0.750000  0.458160  0.673908  1
  Se  Se28  1  0.750000  0.769618  0.955400  1
  Se  Se29  1  0.750000  0.730382  0.455400  1
  Se  Se30  1  0.250000  0.230382  0.044600  1
  Se  Se31  1  0.250000  0.269618  0.544600  1
  Se  Se32  1  0.250000  0.952049  0.569628  1
  Se  Se33  1  0.250000  0.547951  0.069628  1
  Se  Se34  1  0.750000  0.047951  0.430372  1
  Se  Se35  1  0.750000  0.452049  0.930372  1
