# generated using pymatgen
data_Nd3Mn(Ni4As3)2
_symmetry_space_group_name_H-M   'P 1'
_cell_length_a   4.01031000
_cell_length_b   11.13050100
_cell_length_c   12.96050000
_cell_angle_alpha   90.00000000
_cell_angle_beta   90.00000000
_cell_angle_gamma   90.00000000
_symmetry_Int_Tables_number   1
_chemical_formula_structural   Nd3Mn(Ni4As3)2
_chemical_formula_sum   'Nd6 Mn2 Ni16 As12'
_cell_volume   578.51472105
_cell_formula_units_Z   2
loop_
 _symmetry_equiv_pos_site_id
 _symmetry_equiv_pos_as_xyz
  1  'x, y, z'
loop_
 _atom_site_type_symbol
 _atom_site_label
 _atom_site_symmetry_multiplicity
 _atom_site_fract_x
 _atom_site_fract_y
 _atom_site_fract_z
 _atom_site_occupancy
  Nd  Nd0  1  0.000000  0.500000  0.520686  1
  Nd  Nd1  1  0.500000  0.000000  0.479314  1
  Nd  Nd2  1  0.500000  0.814817  0.205688  1
  Nd  Nd3  1  0.500000  0.185183  0.205688  1
  Nd  Nd4  1  0.000000  0.685183  0.794312  1
  Nd  Nd5  1  0.000000  0.314817  0.794312  1
  Mn  Mn6  1  0.500000  0.500000  0.146596  1
  Mn  Mn7  1  0.000000  0.000000  0.853404  1
  Ni  Ni8  1  0.500000  0.500000  0.697656  1
  Ni  Ni9  1  0.000000  0.000000  0.302344  1
  Ni  Ni10  1  0.000000  0.500000  0.980906  1
  Ni  Ni11  1  0.500000  0.000000  0.019094  1
  Ni  Ni12  1  0.500000  0.334773  0.994582  1
  Ni  Ni13  1  0.500000  0.665227  0.994582  1
  Ni  Ni14  1  0.000000  0.165227  0.005418  1
  Ni  Ni15  1  0.000000  0.834773  0.005418  1
  Ni  Ni16  1  0.500000  0.303877  0.422737  1
  Ni  Ni17  1  0.500000  0.696123  0.422737  1
  Ni  Ni18  1  0.000000  0.196123  0.577263  1
  Ni  Ni19  1  0.000000  0.803877  0.577263  1
  Ni  Ni20  1  0.500000  0.881914  0.709993  1
  Ni  Ni21  1  0.500000  0.118086  0.709993  1
  Ni  Ni22  1  0.000000  0.618086  0.290007  1
  Ni  Ni23  1  0.000000  0.381914  0.290007  1
  As  As24  1  0.500000  0.500000  0.876893  1
  As  As25  1  0.000000  0.000000  0.123107  1
  As  As26  1  0.500000  0.500000  0.341673  1
  As  As27  1  0.000000  0.000000  0.658327  1
  As  As28  1  0.500000  0.310756  0.611049  1
  As  As29  1  0.500000  0.689244  0.611049  1
  As  As30  1  0.000000  0.189244  0.388951  1
  As  As31  1  0.000000  0.810756  0.388951  1
  As  As32  1  0.500000  0.846407  0.895305  1
  As  As33  1  0.500000  0.153593  0.895305  1
  As  As34  1  0.000000  0.653593  0.104695  1
  As  As35  1  0.000000  0.346407  0.104695  1
