# generated using pymatgen
data_Rb12Li8Ti3VAs12
_symmetry_space_group_name_H-M   'P 1'
_cell_length_a   10.30803870
_cell_length_b   10.30803596
_cell_length_c   15.85031607
_cell_angle_alpha   90.02440648
_cell_angle_beta   90.02440736
_cell_angle_gamma   143.01889135
_symmetry_Int_Tables_number   1
_chemical_formula_structural   Rb12Li8Ti3VAs12
_chemical_formula_sum   'Rb12 Li8 Ti3 V1 As12'
_cell_volume   1013.12360744
_cell_formula_units_Z   1
loop_
 _symmetry_equiv_pos_site_id
 _symmetry_equiv_pos_as_xyz
  1  'x, y, z'
loop_
 _atom_site_type_symbol
 _atom_site_label
 _atom_site_symmetry_multiplicity
 _atom_site_fract_x
 _atom_site_fract_y
 _atom_site_fract_z
 _atom_site_occupancy
  Rb  Rb0  1  0.604434  0.943088  0.830575  1
  Rb  Rb1  1  0.284228  0.284466  0.321196  1
  Rb  Rb2  1  0.214334  0.215234  0.821040  1
  Rb  Rb3  1  0.715534  0.715772  0.678804  1
  Rb  Rb4  1  0.445702  0.103742  0.669843  1
  Rb  Rb5  1  0.896258  0.554298  0.330157  1
  Rb  Rb6  1  0.056912  0.395566  0.169425  1
  Rb  Rb7  1  0.393919  0.055373  0.168978  1
  Rb  Rb8  1  0.554081  0.896050  0.329096  1
  Rb  Rb9  1  0.103950  0.445919  0.670904  1
  Rb  Rb10  1  0.944627  0.606081  0.831022  1
  Rb  Rb11  1  0.784766  0.785666  0.178960  1
  Li  Li12  1  0.079658  0.920342  0.000000  1
  Li  Li13  1  0.581508  0.418492  0.500000  1
  Li  Li14  1  0.917600  0.082400  0.000000  1
  Li  Li15  1  0.750130  0.249870  0.000000  1
  Li  Li16  1  0.750552  0.249448  0.500000  1
  Li  Li17  1  0.252866  0.747134  0.000000  1
  Li  Li18  1  0.249631  0.750369  0.500000  1
  Li  Li19  1  0.418085  0.581915  0.500000  1
  Ti  Ti20  1  0.086087  0.913913  0.500000  1
  Ti  Ti21  1  0.416086  0.583914  0.000000  1
  Ti  Ti22  1  0.913595  0.086405  0.500000  1
  V  V23  1  0.585517  0.414483  0.000000  1
  As  As24  1  0.067368  0.387129  0.414503  1
  As  As25  1  0.878225  0.563965  0.082233  1
  As  As26  1  0.436035  0.121775  0.917767  1
  As  As27  1  0.612871  0.932632  0.585497  1
  As  As28  1  0.932310  0.612982  0.585414  1
  As  As29  1  0.113036  0.432145  0.913765  1
  As  As30  1  0.567855  0.886964  0.086235  1
  As  As31  1  0.387018  0.067690  0.414586  1
  As  As32  1  0.217242  0.217425  0.581809  1
  As  As33  1  0.716097  0.710692  0.917647  1
  As  As34  1  0.289308  0.283903  0.082353  1
  As  As35  1  0.782575  0.782758  0.418191  1
