# generated using pymatgen
data_Nd8In3Co
_symmetry_space_group_name_H-M   'P 1'
_cell_length_a   10.75159500
_cell_length_b   10.75172065
_cell_length_c   7.15149000
_cell_angle_alpha   89.99901225
_cell_angle_beta   90.00003183
_cell_angle_gamma   119.99976781
_symmetry_Int_Tables_number   1
_chemical_formula_structural   Nd8In3Co
_chemical_formula_sum   'Nd16 In6 Co2'
_cell_volume   715.94399710
_cell_formula_units_Z   2
loop_
 _symmetry_equiv_pos_site_id
 _symmetry_equiv_pos_as_xyz
  1  'x, y, z'
loop_
 _atom_site_type_symbol
 _atom_site_label
 _atom_site_symmetry_multiplicity
 _atom_site_fract_x
 _atom_site_fract_y
 _atom_site_fract_z
 _atom_site_occupancy
  Nd  Nd0  1  0.463705  0.536302  0.485864  1
  Nd  Nd1  1  0.072594  0.536298  0.485865  1
  Nd  Nd2  1  0.463704  0.927403  0.485851  1
  Nd  Nd3  1  0.536100  0.463912  0.985665  1
  Nd  Nd4  1  0.927813  0.463908  0.985665  1
  Nd  Nd5  1  0.536091  0.072191  0.985664  1
  Nd  Nd6  1  0.823454  0.176549  0.271747  1
  Nd  Nd7  1  0.353098  0.176550  0.271752  1
  Nd  Nd8  1  0.823450  0.646901  0.271746  1
  Nd  Nd9  1  0.176355  0.823638  0.773351  1
  Nd  Nd10  1  0.647284  0.823647  0.773353  1
  Nd  Nd11  1  0.176362  0.352719  0.773356  1
  Nd  Nd12  1  0.333334  0.666668  0.092375  1
  Nd  Nd13  1  0.666670  0.333334  0.592629  1
  Nd  Nd14  1  0.000001  0.000003  0.488273  1
  Nd  Nd15  1  0.999999  0.999995  0.988972  1
  In  In16  1  0.164017  0.835984  0.236216  1
  In  In17  1  0.671968  0.835985  0.236216  1
  In  In18  1  0.164014  0.328030  0.236200  1
  In  In19  1  0.836243  0.163727  0.735679  1
  In  In20  1  0.327470  0.163735  0.735644  1
  In  In21  1  0.836275  0.672518  0.735674  1
  Co  Co22  1  0.333332  0.666668  0.709278  1
  Co  Co23  1  0.666668  0.333333  0.207517  1
