# generated using pymatgen
data_Lu5Nb3(P3Rh4)4
_symmetry_space_group_name_H-M   'P 1'
_cell_length_a   12.76688000
_cell_length_b   12.76688101
_cell_length_c   3.92671400
_cell_angle_alpha   90.00000000
_cell_angle_beta   90.00000000
_cell_angle_gamma   120.00000256
_symmetry_Int_Tables_number   1
_chemical_formula_structural   Lu5Nb3(P3Rh4)4
_chemical_formula_sum   'Lu5 Nb3 P12 Rh16'
_cell_volume   554.28034482
_cell_formula_units_Z   1
loop_
 _symmetry_equiv_pos_site_id
 _symmetry_equiv_pos_as_xyz
  1  'x, y, z'
loop_
 _atom_site_type_symbol
 _atom_site_label
 _atom_site_symmetry_multiplicity
 _atom_site_fract_x
 _atom_site_fract_y
 _atom_site_fract_z
 _atom_site_occupancy
  Lu  Lu0  1  0.813175  0.000000  0.500000  1
  Lu  Lu1  1  0.000000  0.813175  0.500000  1
  Lu  Lu2  1  0.186825  0.186825  0.500000  1
  Lu  Lu3  1  0.333333  0.666667  0.000000  1
  Lu  Lu4  1  0.666667  0.333333  0.000000  1
  Nb  Nb5  1  0.450535  0.000000  0.000000  1
  Nb  Nb6  1  0.000000  0.450535  0.000000  1
  Nb  Nb7  1  0.549465  0.549465  0.000000  1
  P  P8  1  0.176059  0.000000  0.000000  1
  P  P9  1  0.000000  0.176059  0.000000  1
  P  P10  1  0.823941  0.823941  0.000000  1
  P  P11  1  0.517011  0.682645  0.500000  1
  P  P12  1  0.317355  0.834365  0.500000  1
  P  P13  1  0.165635  0.482989  0.500000  1
  P  P14  1  0.482989  0.165635  0.500000  1
  P  P15  1  0.682645  0.517011  0.500000  1
  P  P16  1  0.834365  0.317355  0.500000  1
  P  P17  1  0.641644  0.000000  0.000000  1
  P  P18  1  0.000000  0.641644  0.000000  1
  P  P19  1  0.358356  0.358356  0.000000  1
  Rh  Rh20  1  0.278124  0.000000  0.500000  1
  Rh  Rh21  1  0.000000  0.278124  0.500000  1
  Rh  Rh22  1  0.721876  0.721876  0.500000  1
  Rh  Rh23  1  0.627093  0.804474  0.000000  1
  Rh  Rh24  1  0.195526  0.822620  0.000000  1
  Rh  Rh25  1  0.177380  0.372907  0.000000  1
  Rh  Rh26  1  0.372907  0.177380  0.000000  1
  Rh  Rh27  1  0.804474  0.627093  0.000000  1
  Rh  Rh28  1  0.822620  0.195526  0.000000  1
  Rh  Rh29  1  0.511485  0.865353  0.500000  1
  Rh  Rh30  1  0.134647  0.646132  0.500000  1
  Rh  Rh31  1  0.353868  0.488515  0.500000  1
  Rh  Rh32  1  0.488515  0.353868  0.500000  1
  Rh  Rh33  1  0.865353  0.511485  0.500000  1
  Rh  Rh34  1  0.646132  0.134647  0.500000  1
  Rh  Rh35  1  0.000000  0.000000  0.000000  1
