# generated using pymatgen
data_Dy7(HoBi2)3
_symmetry_space_group_name_H-M   'P 1'
_cell_length_a   8.26564700
_cell_length_b   9.52337200
_cell_length_c   12.05112400
_cell_angle_alpha   89.99699353
_cell_angle_beta   90.00000000
_cell_angle_gamma   90.00000000
_symmetry_Int_Tables_number   1
_chemical_formula_structural   Dy7(HoBi2)3
_chemical_formula_sum   'Dy14 Ho6 Bi12'
_cell_volume   948.62629305
_cell_formula_units_Z   2
loop_
 _symmetry_equiv_pos_site_id
 _symmetry_equiv_pos_as_xyz
  1  'x, y, z'
loop_
 _atom_site_type_symbol
 _atom_site_label
 _atom_site_symmetry_multiplicity
 _atom_site_fract_x
 _atom_site_fract_y
 _atom_site_fract_z
 _atom_site_occupancy
  Dy  Dy0  1  0.352573  0.749987  0.215222  1
  Dy  Dy1  1  0.852573  0.750013  0.284778  1
  Dy  Dy2  1  0.647501  0.249962  0.784824  1
  Dy  Dy3  1  0.147501  0.250038  0.715176  1
  Dy  Dy4  1  0.692745  0.936096  0.058443  1
  Dy  Dy5  1  0.192745  0.563904  0.441557  1
  Dy  Dy6  1  0.475533  0.249955  0.488218  1
  Dy  Dy7  1  0.975533  0.250045  0.011782  1
  Dy  Dy8  1  0.524636  0.750054  0.511799  1
  Dy  Dy9  1  0.024636  0.749946  0.988201  1
  Dy  Dy10  1  0.312611  0.250009  0.218634  1
  Dy  Dy11  1  0.812611  0.249991  0.281366  1
  Dy  Dy12  1  0.687413  0.749961  0.781354  1
  Dy  Dy13  1  0.187413  0.750039  0.718646  1
  Ho  Ho14  1  0.692713  0.564013  0.058496  1
  Ho  Ho15  1  0.192713  0.935987  0.441504  1
  Ho  Ho16  1  0.307312  0.064185  0.941525  1
  Ho  Ho17  1  0.807312  0.435815  0.558475  1
  Ho  Ho18  1  0.307258  0.435842  0.941518  1
  Ho  Ho19  1  0.807258  0.064158  0.558482  1
  Bi  Bi20  1  0.407288  0.749890  0.956742  1
  Bi  Bi21  1  0.907288  0.750110  0.543258  1
  Bi  Bi22  1  0.592484  0.250297  0.043162  1
  Bi  Bi23  1  0.092484  0.249703  0.456838  1
  Bi  Bi24  1  0.564686  0.995550  0.325261  1
  Bi  Bi25  1  0.064686  0.504450  0.174739  1
  Bi  Bi26  1  0.435234  0.495527  0.674806  1
  Bi  Bi27  1  0.935234  0.004473  0.825194  1
  Bi  Bi28  1  0.435235  0.004478  0.674746  1
  Bi  Bi29  1  0.935235  0.495522  0.825254  1
  Bi  Bi30  1  0.564777  0.504439  0.325192  1
  Bi  Bi31  1  0.064777  0.995561  0.174808  1
