# generated using pymatgen
data_Yb2MnTeO6
_symmetry_space_group_name_H-M   'P 1'
_cell_length_a   5.70143800
_cell_length_b   5.47084782
_cell_length_c   7.86077072
_cell_angle_alpha   89.57321994
_cell_angle_beta   89.99955780
_cell_angle_gamma   90.00050854
_symmetry_Int_Tables_number   1
_chemical_formula_structural   Yb2MnTeO6
_chemical_formula_sum   'Yb4 Mn2 Te2 O12'
_cell_volume   245.18399756
_cell_formula_units_Z   2
loop_
 _symmetry_equiv_pos_site_id
 _symmetry_equiv_pos_as_xyz
  1  'x, y, z'
loop_
 _atom_site_type_symbol
 _atom_site_label
 _atom_site_symmetry_multiplicity
 _atom_site_fract_x
 _atom_site_fract_y
 _atom_site_fract_z
 _atom_site_occupancy
  Yb  Yb0  1  0.560642  0.981204  0.748269  1
  Yb  Yb1  1  0.439361  0.018746  0.251640  1
  Yb  Yb2  1  0.060544  0.518775  0.751662  1
  Yb  Yb3  1  0.939260  0.481239  0.248291  1
  Mn  Mn4  1  0.499652  0.499812  0.999747  1
  Mn  Mn5  1  0.000482  0.000193  0.500105  1
  Te  Te6  1  0.000063  0.000019  0.000329  1
  Te  Te7  1  0.499978  0.499969  0.499704  1
  O  O8  1  0.812859  0.711804  0.947257  1
  O  O9  1  0.187262  0.288256  0.052976  1
  O  O10  1  0.312805  0.788209  0.552799  1
  O  O11  1  0.687219  0.211752  0.447067  1
  O  O12  1  0.958225  0.109440  0.764993  1
  O  O13  1  0.041859  0.890302  0.235705  1
  O  O14  1  0.458161  0.390509  0.735085  1
  O  O15  1  0.541772  0.609640  0.264358  1
  O  O16  1  0.283951  0.819283  0.938765  1
  O  O17  1  0.716007  0.180829  0.061427  1
  O  O18  1  0.783917  0.680786  0.561240  1
  O  O19  1  0.215980  0.319230  0.438582  1
