# generated using pymatgen
data_Nd6Ho5In9Rh4
_symmetry_space_group_name_H-M   'P 1'
_cell_length_a   13.26402030
_cell_length_b   13.25865740
_cell_length_c   3.77739400
_cell_angle_alpha   90.00000000
_cell_angle_beta   90.00000000
_cell_angle_gamma   112.35373115
_symmetry_Int_Tables_number   1
_chemical_formula_structural   Nd6Ho5In9Rh4
_chemical_formula_sum   'Nd6 Ho5 In9 Rh4'
_cell_volume   614.38406052
_cell_formula_units_Z   1
loop_
 _symmetry_equiv_pos_site_id
 _symmetry_equiv_pos_as_xyz
  1  'x, y, z'
loop_
 _atom_site_type_symbol
 _atom_site_label
 _atom_site_symmetry_multiplicity
 _atom_site_fract_x
 _atom_site_fract_y
 _atom_site_fract_z
 _atom_site_occupancy
  Nd  Nd0  1  0.372352  0.627574  0.000000  1
  Nd  Nd1  1  0.840645  0.159394  0.000000  1
  Nd  Nd2  1  0.159375  0.840682  0.000000  1
  Nd  Nd3  1  0.000012  0.999978  0.000000  1
  Nd  Nd4  1  0.313057  0.311629  0.000000  1
  Nd  Nd5  1  0.688389  0.686978  0.000000  1
  Ho  Ho6  1  0.079670  0.419819  0.000000  1
  Ho  Ho7  1  0.918622  0.578826  0.000000  1
  Ho  Ho8  1  0.421176  0.081416  0.000000  1
  Ho  Ho9  1  0.580148  0.920329  0.000000  1
  Ho  Ho10  1  0.626938  0.373138  0.000000  1
  In  In11  1  0.839473  0.368176  0.500000  1
  In  In12  1  0.156931  0.631271  0.500000  1
  In  In13  1  0.368674  0.842925  0.500000  1
  In  In14  1  0.631806  0.160512  0.500000  1
  In  In15  1  0.078131  0.222793  0.500000  1
  In  In16  1  0.921932  0.776812  0.500000  1
  In  In17  1  0.223209  0.078111  0.500000  1
  In  In18  1  0.777161  0.921844  0.500000  1
  In  In19  1  0.501727  0.498212  0.500000  1
  Rh  Rh20  1  0.243091  0.453937  0.500000  1
  Rh  Rh21  1  0.754583  0.543241  0.500000  1
  Rh  Rh22  1  0.456830  0.245509  0.500000  1
  Rh  Rh23  1  0.546067  0.756894  0.500000  1
