# generated using pymatgen
data_Hf4Zn3CuRh8
_symmetry_space_group_name_H-M   'P 1'
_cell_length_a   5.89871100
_cell_length_b   5.89834000
_cell_length_c   7.03403600
_cell_angle_alpha   90.00000000
_cell_angle_beta   90.00000000
_cell_angle_gamma   90.00000000
_symmetry_Int_Tables_number   1
_chemical_formula_structural   Hf4Zn3CuRh8
_chemical_formula_sum   'Hf4 Zn3 Cu1 Rh8'
_cell_volume   244.73242232
_cell_formula_units_Z   1
loop_
 _symmetry_equiv_pos_site_id
 _symmetry_equiv_pos_as_xyz
  1  'x, y, z'
loop_
 _atom_site_type_symbol
 _atom_site_label
 _atom_site_symmetry_multiplicity
 _atom_site_fract_x
 _atom_site_fract_y
 _atom_site_fract_z
 _atom_site_occupancy
  Hf  Hf0  1  0.749829  0.250000  0.000000  1
  Hf  Hf1  1  0.250130  0.750001  0.000000  1
  Hf  Hf2  1  0.750137  0.250000  0.500000  1
  Hf  Hf3  1  0.249863  0.750001  0.500000  1
  Zn  Zn4  1  0.750033  0.750001  0.000000  1
  Zn  Zn5  1  0.749977  0.750001  0.499996  1
  Zn  Zn6  1  0.250031  0.250000  0.500003  1
  Cu  Cu7  1  0.249981  0.250000  0.000000  1
  Rh  Rh8  1  0.000449  0.000449  0.251006  1
  Rh  Rh9  1  0.000449  0.499552  0.251006  1
  Rh  Rh10  1  0.499555  0.000439  0.251149  1
  Rh  Rh11  1  0.499555  0.499560  0.251149  1
  Rh  Rh12  1  0.499558  0.000439  0.748850  1
  Rh  Rh13  1  0.499558  0.499562  0.748850  1
  Rh  Rh14  1  0.000449  0.000449  0.748994  1
  Rh  Rh15  1  0.000449  0.499550  0.748994  1
