# generated using pymatgen
data_Sm8SnPdPt23
_symmetry_space_group_name_H-M   'P 1'
_cell_length_a   8.50284700
_cell_length_b   8.50284700
_cell_length_c   8.51211200
_cell_angle_alpha   90.00000000
_cell_angle_beta   90.00000000
_cell_angle_gamma   90.00000000
_symmetry_Int_Tables_number   1
_chemical_formula_structural   Sm8SnPdPt23
_chemical_formula_sum   'Sm8 Sn1 Pd1 Pt23'
_cell_volume   615.41213870
_cell_formula_units_Z   1
loop_
 _symmetry_equiv_pos_site_id
 _symmetry_equiv_pos_as_xyz
  1  'x, y, z'
loop_
 _atom_site_type_symbol
 _atom_site_label
 _atom_site_symmetry_multiplicity
 _atom_site_fract_x
 _atom_site_fract_y
 _atom_site_fract_z
 _atom_site_occupancy
  Sm  Sm0  1  0.251111  0.251111  0.251359  1
  Sm  Sm1  1  0.748752  0.748752  0.748722  1
  Sm  Sm2  1  0.748889  0.748889  0.251359  1
  Sm  Sm3  1  0.748752  0.251248  0.748722  1
  Sm  Sm4  1  0.251248  0.251248  0.748722  1
  Sm  Sm5  1  0.251111  0.748889  0.251359  1
  Sm  Sm6  1  0.251248  0.748752  0.748722  1
  Sm  Sm7  1  0.748889  0.251111  0.251359  1
  Sn  Sn8  1  0.000000  0.000000  0.000106  1
  Pd  Pd9  1  0.500000  0.500000  0.744433  1
  Pt  Pt10  1  0.267918  0.500000  0.000389  1
  Pt  Pt11  1  0.732082  0.500000  0.000389  1
  Pt  Pt12  1  0.000000  0.267842  0.500045  1
  Pt  Pt13  1  0.500000  0.267918  0.000389  1
  Pt  Pt14  1  0.000000  0.732158  0.500045  1
  Pt  Pt15  1  0.500000  0.732082  0.000389  1
  Pt  Pt16  1  0.500000  0.000000  0.267119  1
  Pt  Pt17  1  0.267842  0.000000  0.500045  1
  Pt  Pt18  1  0.500000  0.000000  0.732329  1
  Pt  Pt19  1  0.732158  0.000000  0.500045  1
  Pt  Pt20  1  0.000000  0.500000  0.267119  1
  Pt  Pt21  1  0.000000  0.500000  0.732329  1
  Pt  Pt22  1  0.255559  0.500000  0.499735  1
  Pt  Pt23  1  0.744441  0.500000  0.499735  1
  Pt  Pt24  1  0.500000  0.255559  0.499735  1
  Pt  Pt25  1  0.500000  0.744441  0.499735  1
  Pt  Pt26  1  0.500000  0.500000  0.255441  1
  Pt  Pt27  1  0.315369  0.000000  0.999872  1
  Pt  Pt28  1  0.684631  0.000000  0.999872  1
  Pt  Pt29  1  0.000000  0.315369  0.999872  1
  Pt  Pt30  1  0.000000  0.684631  0.999872  1
  Pt  Pt31  1  0.000000  0.000000  0.315208  1
  Pt  Pt32  1  0.000000  0.000000  0.685425  1
