# generated using pymatgen
data_Y5Ho10Tm(InRh)4
_symmetry_space_group_name_H-M   'P 1'
_cell_length_a   9.64355509
_cell_length_b   9.64961366
_cell_length_c   9.65006868
_cell_angle_alpha   60.00808839
_cell_angle_beta   59.90139620
_cell_angle_gamma   59.90403869
_symmetry_Int_Tables_number   1
_chemical_formula_structural   Y5Ho10Tm(InRh)4
_chemical_formula_sum   'Y5 Ho10 Tm1 In4 Rh4'
_cell_volume   634.08692028
_cell_formula_units_Z   1
loop_
 _symmetry_equiv_pos_site_id
 _symmetry_equiv_pos_as_xyz
  1  'x, y, z'
loop_
 _atom_site_type_symbol
 _atom_site_label
 _atom_site_symmetry_multiplicity
 _atom_site_fract_x
 _atom_site_fract_y
 _atom_site_fract_z
 _atom_site_occupancy
  Y  Y0  1  0.061445  0.062065  0.437050  1
  Y  Y1  1  0.437518  0.061736  0.436906  1
  Y  Y2  1  0.061460  0.437024  0.062085  1
  Y  Y3  1  0.051326  0.648611  0.648615  1
  Y  Y4  1  0.437530  0.436902  0.061733  1
  Ho  Ho5  1  0.649422  0.050023  0.647300  1
  Ho  Ho6  1  0.189498  0.811241  0.189102  1
  Ho  Ho7  1  0.189472  0.189136  0.811229  1
  Ho  Ho8  1  0.810301  0.810104  0.191068  1
  Ho  Ho9  1  0.440892  0.058269  0.058231  1
  Ho  Ho10  1  0.811226  0.189254  0.189255  1
  Ho  Ho11  1  0.059471  0.439074  0.439063  1
  Ho  Ho12  1  0.810303  0.191105  0.810098  1
  Ho  Ho13  1  0.190497  0.810961  0.810955  1
  Ho  Ho14  1  0.649411  0.647353  0.049991  1
  Tm  Tm15  1  0.652218  0.653058  0.653038  1
  In  In16  1  0.416458  0.416856  0.416806  1
  In  In17  1  0.748032  0.418233  0.418239  1
  In  In18  1  0.418407  0.748003  0.418158  1
  In  In19  1  0.418301  0.418142  0.748130  1
  Rh  Rh20  1  0.857357  0.858557  0.425387  1
  Rh  Rh21  1  0.854309  0.860052  0.860011  1
  Rh  Rh22  1  0.427855  0.858851  0.859029  1
  Rh  Rh23  1  0.857293  0.425392  0.858520  1
