# generated using pymatgen
data_Th3U(SiTc2)8
_symmetry_space_group_name_H-M   'P 1'
_cell_length_a   4.16029600
_cell_length_b   7.11892437
_cell_length_c   15.72030740
_cell_angle_alpha   90.17551326
_cell_angle_beta   90.00000000
_cell_angle_gamma   90.00000000
_symmetry_Int_Tables_number   1
_chemical_formula_structural   Th3U(SiTc2)8
_chemical_formula_sum   'Th3 U1 Si8 Tc16'
_cell_volume   465.58352780
_cell_formula_units_Z   1
loop_
 _symmetry_equiv_pos_site_id
 _symmetry_equiv_pos_as_xyz
  1  'x, y, z'
loop_
 _atom_site_type_symbol
 _atom_site_label
 _atom_site_symmetry_multiplicity
 _atom_site_fract_x
 _atom_site_fract_y
 _atom_site_fract_z
 _atom_site_occupancy
  Th  Th0  1  0.000000  0.409333  0.883503  1
  Th  Th1  1  0.500000  0.092311  0.380257  1
  Th  Th2  1  0.500000  0.907220  0.617371  1
  U  U3  1  0.000000  0.599417  0.116007  1
  Si  Si4  1  0.000000  0.828342  0.472264  1
  Si  Si5  1  0.000000  0.170390  0.526141  1
  Si  Si6  1  0.500000  0.335119  0.028044  1
  Si  Si7  1  0.500000  0.670422  0.975728  1
  Si  Si8  1  0.000000  0.315751  0.270048  1
  Si  Si9  1  0.000000  0.686165  0.726561  1
  Si  Si10  1  0.500000  0.807846  0.224638  1
  Si  Si11  1  0.500000  0.185398  0.774995  1
  Tc  Tc12  1  0.000000  0.148766  0.052219  1
  Tc  Tc13  1  0.000000  0.857710  0.952168  1
  Tc  Tc14  1  0.500000  0.641089  0.448701  1
  Tc  Tc15  1  0.500000  0.357402  0.550563  1
  Tc  Tc16  1  0.000000  0.732575  0.318685  1
  Tc  Tc17  1  0.000000  0.261714  0.680006  1
  Tc  Tc18  1  0.500000  0.243602  0.177976  1
  Tc  Tc19  1  0.500000  0.760122  0.822153  1
  Tc  Tc20  1  0.000000  0.428639  0.420379  1
  Tc  Tc21  1  0.000000  0.569559  0.578721  1
  Tc  Tc22  1  0.500000  0.928082  0.080395  1
  Tc  Tc23  1  0.500000  0.070742  0.922755  1
  Tc  Tc24  1  0.000000  0.999941  0.203775  1
  Tc  Tc25  1  0.000000  0.992901  0.796144  1
  Tc  Tc26  1  0.500000  0.506736  0.293942  1
  Tc  Tc27  1  0.500000  0.492705  0.705859  1
