# generated using pymatgen
data_DyPa5(Al3Os)8
_symmetry_space_group_name_H-M   'P 1'
_cell_length_a   8.87213553
_cell_length_b   8.87213734
_cell_length_c   9.42750000
_cell_angle_alpha   90.00000000
_cell_angle_beta   90.00000000
_cell_angle_gamma   119.96030120
_symmetry_Int_Tables_number   1
_chemical_formula_structural   DyPa5(Al3Os)8
_chemical_formula_sum   'Dy1 Pa5 Al24 Os8'
_cell_volume   642.92037419
_cell_formula_units_Z   1
loop_
 _symmetry_equiv_pos_site_id
 _symmetry_equiv_pos_as_xyz
  1  'x, y, z'
loop_
 _atom_site_type_symbol
 _atom_site_label
 _atom_site_symmetry_multiplicity
 _atom_site_fract_x
 _atom_site_fract_y
 _atom_site_fract_z
 _atom_site_occupancy
  Dy  Dy0  1  0.803676  0.196324  0.750000  1
  Pa  Pa1  1  0.196825  0.394980  0.250000  1
  Pa  Pa2  1  0.801826  0.606757  0.750000  1
  Pa  Pa3  1  0.605020  0.803175  0.250000  1
  Pa  Pa4  1  0.393243  0.198174  0.750000  1
  Pa  Pa5  1  0.197878  0.802122  0.250000  1
  Al  Al6  1  0.334138  0.665862  0.016263  1
  Al  Al7  1  0.668866  0.331134  0.978875  1
  Al  Al8  1  0.668866  0.331134  0.521125  1
  Al  Al9  1  0.334138  0.665862  0.483737  1
  Al  Al10  1  0.160906  0.324255  0.577981  1
  Al  Al11  1  0.837695  0.675653  0.421701  1
  Al  Al12  1  0.675745  0.839094  0.577981  1
  Al  Al13  1  0.837695  0.675653  0.078299  1
  Al  Al14  1  0.324347  0.162305  0.421701  1
  Al  Al15  1  0.160906  0.324255  0.922019  1
  Al  Al16  1  0.161812  0.838188  0.580030  1
  Al  Al17  1  0.324347  0.162305  0.078299  1
  Al  Al18  1  0.837728  0.162272  0.423025  1
  Al  Al19  1  0.675745  0.839094  0.922019  1
  Al  Al20  1  0.837728  0.162272  0.076975  1
  Al  Al21  1  0.161812  0.838188  0.919970  1
  Al  Al22  1  0.564096  0.127365  0.250000  1
  Al  Al23  1  0.440785  0.878270  0.750000  1
  Al  Al24  1  0.872635  0.435904  0.250000  1
  Al  Al25  1  0.121730  0.559215  0.750000  1
  Al  Al26  1  0.562992  0.437008  0.250000  1
  Al  Al27  1  0.436402  0.563598  0.750000  1
  Al  Al28  1  0.999920  0.000080  0.250000  1
  Al  Al29  1  0.999893  0.000107  0.750000  1
  Os  Os30  1  0.496343  0.996479  0.003995  1
  Os  Os31  1  0.003521  0.503657  0.003995  1
  Os  Os32  1  0.496343  0.996479  0.496005  1
  Os  Os33  1  0.500648  0.499352  0.999733  1
  Os  Os34  1  0.003521  0.503657  0.496005  1
  Os  Os35  1  0.500648  0.499352  0.500267  1
  Os  Os36  1  0.999793  0.000207  0.000155  1
  Os  Os37  1  0.999793  0.000207  0.499845  1
