# generated using pymatgen
data_Tm4V4Co16Si11P
_symmetry_space_group_name_H-M   'P 1'
_cell_length_a   3.68980400
_cell_length_b   10.52040966
_cell_length_c   12.07295062
_cell_angle_alpha   89.87114410
_cell_angle_beta   90.00000000
_cell_angle_gamma   90.00000000
_symmetry_Int_Tables_number   1
_chemical_formula_structural   Tm4V4Co16Si11P
_chemical_formula_sum   'Tm4 V4 Co16 Si11 P1'
_cell_volume   468.64962606
_cell_formula_units_Z   1
loop_
 _symmetry_equiv_pos_site_id
 _symmetry_equiv_pos_as_xyz
  1  'x, y, z'
loop_
 _atom_site_type_symbol
 _atom_site_label
 _atom_site_symmetry_multiplicity
 _atom_site_fract_x
 _atom_site_fract_y
 _atom_site_fract_z
 _atom_site_occupancy
  Tm  Tm0  1  0.250000  0.576809  0.703899  1
  Tm  Tm1  1  0.250000  0.924937  0.201272  1
  Tm  Tm2  1  0.750000  0.423421  0.296852  1
  Tm  Tm3  1  0.750000  0.077594  0.794882  1
  V  V4  1  0.250000  0.693557  0.993439  1
  V  V5  1  0.250000  0.806754  0.493957  1
  V  V6  1  0.750000  0.302411  0.009019  1
  V  V7  1  0.750000  0.193944  0.505561  1
  Co  Co8  1  0.250000  0.404230  0.487150  1
  Co  Co9  1  0.250000  0.094471  0.989639  1
  Co  Co10  1  0.750000  0.595146  0.513167  1
  Co  Co11  1  0.750000  0.910324  0.014264  1
  Co  Co12  1  0.250000  0.214430  0.169515  1
  Co  Co13  1  0.250000  0.282850  0.670755  1
  Co  Co14  1  0.750000  0.784419  0.831308  1
  Co  Co15  1  0.750000  0.716601  0.329451  1
  Co  Co16  1  0.250000  0.879306  0.699199  1
  Co  Co17  1  0.250000  0.621158  0.199052  1
  Co  Co18  1  0.750000  0.120665  0.296840  1
  Co  Co19  1  0.750000  0.378210  0.802012  1
  Co  Co20  1  0.250000  0.464183  0.934511  1
  Co  Co21  1  0.250000  0.034923  0.431511  1
  Co  Co22  1  0.750000  0.534750  0.066693  1
  Co  Co23  1  0.750000  0.964865  0.564953  1
  Si  Si24  1  0.250000  0.421147  0.116604  1
  Si  Si25  1  0.250000  0.078079  0.614669  1
  Si  Si26  1  0.750000  0.578037  0.884411  1
  Si  Si27  1  0.750000  0.921522  0.382673  1
  Si  Si28  1  0.250000  0.266847  0.862277  1
  Si  Si29  1  0.250000  0.232391  0.360232  1
  Si  Si30  1  0.750000  0.732720  0.138649  1
  Si  Si31  1  0.750000  0.768119  0.640032  1
  Si  Si32  1  0.250000  0.600787  0.393025  1
  Si  Si33  1  0.250000  0.900693  0.893002  1
  Si  Si34  1  0.750000  0.399072  0.607924  1
  P  P35  1  0.750000  0.100630  0.107601  1
