# generated using pymatgen
data_Y12GaTc3
_symmetry_space_group_name_H-M   'P 1'
_cell_length_a   6.35813281
_cell_length_b   7.53776412
_cell_length_c   9.23942200
_cell_angle_alpha   90.00000000
_cell_angle_beta   90.00000000
_cell_angle_gamma   89.88642017
_symmetry_Int_Tables_number   1
_chemical_formula_structural   Y12GaTc3
_chemical_formula_sum   'Y12 Ga1 Tc3'
_cell_volume   442.80864233
_cell_formula_units_Z   1
loop_
 _symmetry_equiv_pos_site_id
 _symmetry_equiv_pos_as_xyz
  1  'x, y, z'
loop_
 _atom_site_type_symbol
 _atom_site_label
 _atom_site_symmetry_multiplicity
 _atom_site_fract_x
 _atom_site_fract_y
 _atom_site_fract_z
 _atom_site_occupancy
  Y  Y0  1  0.619061  0.047468  0.250000  1
  Y  Y1  1  0.366922  0.954913  0.750000  1
  Y  Y2  1  0.126001  0.460889  0.750000  1
  Y  Y3  1  0.869121  0.529250  0.250000  1
  Y  Y4  1  0.164017  0.187521  0.058332  1
  Y  Y5  1  0.830441  0.825955  0.932972  1
  Y  Y6  1  0.663520  0.320695  0.934255  1
  Y  Y7  1  0.830441  0.825955  0.567028  1
  Y  Y8  1  0.345987  0.666978  0.061025  1
  Y  Y9  1  0.164017  0.187521  0.441668  1
  Y  Y10  1  0.345987  0.666978  0.438975  1
  Y  Y11  1  0.663520  0.320695  0.565745  1
  Ga  Ga12  1  0.054293  0.887708  0.250000  1
  Tc  Tc13  1  0.452871  0.383595  0.250000  1
  Tc  Tc14  1  0.539270  0.616098  0.750000  1
  Tc  Tc15  1  0.964529  0.117779  0.750000  1
