# generated using pymatgen
data_CeNd3(PPt3)8
_symmetry_space_group_name_H-M   'P 1'
_cell_length_a   8.58247970
_cell_length_b   8.58247970
_cell_length_c   8.58247970
_cell_angle_alpha   90.06421083
_cell_angle_beta   89.93578917
_cell_angle_gamma   89.93578917
_symmetry_Int_Tables_number   1
_chemical_formula_structural   CeNd3(PPt3)8
_chemical_formula_sum   'Ce1 Nd3 P8 Pt24'
_cell_volume   632.17531737
_cell_formula_units_Z   1
loop_
 _symmetry_equiv_pos_site_id
 _symmetry_equiv_pos_as_xyz
  1  'x, y, z'
loop_
 _atom_site_type_symbol
 _atom_site_label
 _atom_site_symmetry_multiplicity
 _atom_site_fract_x
 _atom_site_fract_y
 _atom_site_fract_z
 _atom_site_occupancy
  Ce  Ce0  1  0.500000  0.500000  0.000000  1
  Nd  Nd1  1  0.500000  0.000000  0.500000  1
  Nd  Nd2  1  0.000000  0.500000  0.500000  1
  Nd  Nd3  1  0.000000  0.000000  0.000000  1
  P  P4  1  0.805314  0.305299  0.194488  1
  P  P5  1  0.194411  0.805589  0.305589  1
  P  P6  1  0.694701  0.694488  0.694686  1
  P  P7  1  0.305512  0.194686  0.805299  1
  P  P8  1  0.194686  0.694701  0.805512  1
  P  P9  1  0.805589  0.194411  0.694411  1
  P  P10  1  0.305299  0.305512  0.305314  1
  P  P11  1  0.694488  0.805314  0.194701  1
  Pt  Pt12  1  0.422548  0.842699  0.158403  1
  Pt  Pt13  1  0.577239  0.343370  0.341177  1
  Pt  Pt14  1  0.077403  0.156757  0.658957  1
  Pt  Pt15  1  0.922802  0.656952  0.841135  1
  Pt  Pt16  1  0.158823  0.422761  0.843370  1
  Pt  Pt17  1  0.341597  0.577452  0.342699  1
  Pt  Pt18  1  0.658865  0.077198  0.156952  1
  Pt  Pt19  1  0.841043  0.922597  0.656757  1
  Pt  Pt20  1  0.843243  0.158957  0.422597  1
  Pt  Pt21  1  0.343048  0.341135  0.577198  1
  Pt  Pt22  1  0.157301  0.658403  0.077452  1
  Pt  Pt23  1  0.656630  0.841177  0.922761  1
  Pt  Pt24  1  0.577452  0.157301  0.841597  1
  Pt  Pt25  1  0.422761  0.656630  0.658823  1
  Pt  Pt26  1  0.922597  0.843243  0.341043  1
  Pt  Pt27  1  0.077198  0.343048  0.158865  1
  Pt  Pt28  1  0.841177  0.577239  0.156630  1
  Pt  Pt29  1  0.658403  0.422548  0.657301  1
  Pt  Pt30  1  0.341135  0.922802  0.843048  1
  Pt  Pt31  1  0.158957  0.077403  0.343243  1
  Pt  Pt32  1  0.156757  0.841043  0.577403  1
  Pt  Pt33  1  0.656952  0.658865  0.422802  1
  Pt  Pt34  1  0.842699  0.341597  0.922548  1
  Pt  Pt35  1  0.343370  0.158823  0.077239  1
