# generated using pymatgen
data_Yb3LuSb6Rh7
_symmetry_space_group_name_H-M   'P 1'
_cell_length_a   7.61143114
_cell_length_b   7.56845819
_cell_length_c   7.56845826
_cell_angle_alpha   109.35591887
_cell_angle_beta   109.58628454
_cell_angle_gamma   109.58627925
_symmetry_Int_Tables_number   1
_chemical_formula_structural   Yb3LuSb6Rh7
_chemical_formula_sum   'Yb3 Lu1 Sb6 Rh7'
_cell_volume   335.15104066
_cell_formula_units_Z   1
loop_
 _symmetry_equiv_pos_site_id
 _symmetry_equiv_pos_as_xyz
  1  'x, y, z'
loop_
 _atom_site_type_symbol
 _atom_site_label
 _atom_site_symmetry_multiplicity
 _atom_site_fract_x
 _atom_site_fract_y
 _atom_site_fract_z
 _atom_site_occupancy
  Yb  Yb0  1  0.000000  0.500000  0.000000  1
  Yb  Yb1  1  0.000000  0.000000  0.500000  1
  Yb  Yb2  1  0.500000  0.500000  0.500000  1
  Lu  Lu3  1  0.500000  0.000000  0.000000  1
  Sb  Sb4  1  0.315859  0.000000  0.318107  1
  Sb  Sb5  1  0.997752  0.681893  0.681893  1
  Sb  Sb6  1  0.684141  0.681893  0.000000  1
  Sb  Sb7  1  0.684141  0.000000  0.681893  1
  Sb  Sb8  1  0.002248  0.318107  0.318107  1
  Sb  Sb9  1  0.315859  0.318107  0.000000  1
  Rh  Rh10  1  0.252546  0.505091  0.752546  1
  Rh  Rh11  1  0.500000  0.247454  0.752546  1
  Rh  Rh12  1  0.747454  0.247454  0.494909  1
  Rh  Rh13  1  0.500000  0.752546  0.247454  1
  Rh  Rh14  1  0.000000  0.000000  0.000000  1
  Rh  Rh15  1  0.252546  0.752546  0.505091  1
  Rh  Rh16  1  0.747454  0.494909  0.247454  1
