# generated using pymatgen
data_Ac3Pr7C4I15
_symmetry_space_group_name_H-M   'P 1'
_cell_length_a   10.01554469
_cell_length_b   10.81635678
_cell_length_c   12.06942326
_cell_angle_alpha   93.97136851
_cell_angle_beta   114.46950831
_cell_angle_gamma   109.02935289
_symmetry_Int_Tables_number   1
_chemical_formula_structural   Ac3Pr7C4I15
_chemical_formula_sum   'Ac3 Pr7 C4 I15'
_cell_volume   1092.85276674
_cell_formula_units_Z   1
loop_
 _symmetry_equiv_pos_site_id
 _symmetry_equiv_pos_as_xyz
  1  'x, y, z'
loop_
 _atom_site_type_symbol
 _atom_site_label
 _atom_site_symmetry_multiplicity
 _atom_site_fract_x
 _atom_site_fract_y
 _atom_site_fract_z
 _atom_site_occupancy
  Ac  Ac0  1  0.600976  0.534870  0.347397  1
  Ac  Ac1  1  0.334184  0.745261  0.162503  1
  Ac  Ac2  1  0.786361  0.893314  0.260973  1
  Pr  Pr3  1  0.526998  0.184575  0.097520  1
  Pr  Pr4  1  0.225723  0.119906  0.743809  1
  Pr  Pr5  1  0.404990  0.460052  0.664605  1
  Pr  Pr6  1  0.471799  0.810364  0.898823  1
  Pr  Pr7  1  0.700226  0.564074  0.040487  1
  Pr  Pr8  1  0.297546  0.431687  0.953395  1
  Pr  Pr9  1  0.650168  0.253390  0.835417  1
  C  C10  1  0.481856  0.301956  0.938005  1
  C  C11  1  0.518229  0.698037  0.062109  1
  C  C12  1  0.453798  0.364250  0.837598  1
  C  C13  1  0.547789  0.636562  0.164179  1
  I  I14  1  0.208925  0.909580  0.931480  1
  I  I15  1  0.110763  0.192983  0.473024  1
  I  I16  1  0.155377  0.554630  0.706470  1
  I  I17  1  0.405080  0.971308  0.652696  1
  I  I18  1  0.711311  0.731092  0.824006  1
  I  I19  1  0.281614  0.260460  0.168676  1
  I  I20  1  0.849861  0.439914  0.286780  1
  I  I21  1  0.902351  0.816988  0.539170  1
  I  I22  1  0.356803  0.629029  0.417974  1
  I  I23  1  0.054622  0.829141  0.216458  1
  I  I24  1  0.787384  0.094434  0.054475  1
  I  I25  1  0.637595  0.367200  0.593246  1
  I  I26  1  0.955505  0.171360  0.781745  1
  I  I27  1  0.592906  0.041291  0.352712  1
  I  I28  1  0.989259  0.492293  0.994268  1
