# generated using pymatgen
data_Pr7ErSc12Si15Rh
_symmetry_space_group_name_H-M   'P 1'
_cell_length_a   7.25510034
_cell_length_b   7.49411091
_cell_length_c   14.20997609
_cell_angle_alpha   89.86360016
_cell_angle_beta   89.86195815
_cell_angle_gamma   90.27935585
_symmetry_Int_Tables_number   1
_chemical_formula_structural   Pr7ErSc12Si15Rh
_chemical_formula_sum   'Pr7 Er1 Sc12 Si15 Rh1'
_cell_volume   772.59024700
_cell_formula_units_Z   1
loop_
 _symmetry_equiv_pos_site_id
 _symmetry_equiv_pos_as_xyz
  1  'x, y, z'
loop_
 _atom_site_type_symbol
 _atom_site_label
 _atom_site_symmetry_multiplicity
 _atom_site_fract_x
 _atom_site_fract_y
 _atom_site_fract_z
 _atom_site_occupancy
  Pr  Pr0  1  0.012936  0.171781  0.097606  1
  Pr  Pr1  1  0.987700  0.827578  0.900850  1
  Pr  Pr2  1  0.485939  0.673275  0.902592  1
  Pr  Pr3  1  0.990719  0.823245  0.595936  1
  Pr  Pr4  1  0.512872  0.328176  0.096407  1
  Pr  Pr5  1  0.011955  0.177623  0.404813  1
  Pr  Pr6  1  0.508748  0.325851  0.403752  1
  Er  Er7  1  0.485707  0.670088  0.600251  1
  Sc  Sc8  1  0.162669  0.499379  0.743552  1
  Sc  Sc9  1  0.838693  0.500393  0.252226  1
  Sc  Sc10  1  0.339854  0.995474  0.250886  1
  Sc  Sc11  1  0.661748  0.000307  0.748006  1
  Sc  Sc12  1  0.331922  0.187828  0.621836  1
  Sc  Sc13  1  0.668290  0.823328  0.374552  1
  Sc  Sc14  1  0.169762  0.665119  0.378193  1
  Sc  Sc15  1  0.672170  0.824908  0.126622  1
  Sc  Sc16  1  0.831828  0.328608  0.622845  1
  Sc  Sc17  1  0.328915  0.176519  0.874211  1
  Sc  Sc18  1  0.830913  0.323308  0.874102  1
  Sc  Sc19  1  0.170253  0.676459  0.125462  1
  Si  Si20  1  0.035890  0.124373  0.748949  1
  Si  Si21  1  0.968406  0.874684  0.252246  1
  Si  Si22  1  0.465200  0.622829  0.248999  1
  Si  Si23  1  0.538340  0.379553  0.750911  1
  Si  Si24  1  0.291141  0.884218  0.747746  1
  Si  Si25  1  0.711761  0.119163  0.250023  1
  Si  Si26  1  0.213315  0.379959  0.249187  1
  Si  Si27  1  0.781857  0.619205  0.749441  1
  Si  Si28  1  0.838815  0.539240  0.459840  1
  Si  Si29  1  0.350233  0.955871  0.462761  1
  Si  Si30  1  0.850032  0.537816  0.039185  1
  Si  Si31  1  0.648645  0.030882  0.541196  1
  Si  Si32  1  0.149307  0.463327  0.960596  1
  Si  Si33  1  0.651520  0.036755  0.960654  1
  Si  Si34  1  0.350265  0.963059  0.039489  1
  Rh  Rh35  1  0.151682  0.469820  0.544077  1
