# generated using pymatgen
data_YbCu6IO8
_symmetry_space_group_name_H-M   'P 1'
_cell_length_a   6.54151684
_cell_length_b   6.54151592
_cell_length_c   6.54151600
_cell_angle_alpha   59.99999959
_cell_angle_beta   60.00000422
_cell_angle_gamma   59.99999235
_symmetry_Int_Tables_number   1
_chemical_formula_structural   YbCu6IO8
_chemical_formula_sum   'Yb1 Cu6 I1 O8'
_cell_volume   197.93393725
_cell_formula_units_Z   1
loop_
 _symmetry_equiv_pos_site_id
 _symmetry_equiv_pos_as_xyz
  1  'x, y, z'
loop_
 _atom_site_type_symbol
 _atom_site_label
 _atom_site_symmetry_multiplicity
 _atom_site_fract_x
 _atom_site_fract_y
 _atom_site_fract_z
 _atom_site_occupancy
  Yb  Yb0  1  0.000000  0.000000  0.000000  1
  Cu  Cu1  1  0.000000  0.000000  0.500000  1
  Cu  Cu2  1  0.500000  0.000000  0.500000  1
  Cu  Cu3  1  0.000000  0.500000  0.500000  1
  Cu  Cu4  1  0.500000  0.500000  0.000000  1
  Cu  Cu5  1  0.000000  0.500000  0.000000  1
  Cu  Cu6  1  0.500000  0.000000  0.000000  1
  I  I7  1  0.500000  0.500000  0.500000  1
  O  O8  1  0.855182  0.855182  0.434453  1
  O  O9  1  0.855182  0.434453  0.855182  1
  O  O10  1  0.434453  0.855182  0.855182  1
  O  O11  1  0.855182  0.855182  0.855182  1
  O  O12  1  0.144818  0.144818  0.565547  1
  O  O13  1  0.144818  0.565547  0.144818  1
  O  O14  1  0.565547  0.144818  0.144818  1
  O  O15  1  0.144818  0.144818  0.144818  1
