# generated using pymatgen
data_La9Tb(Sn5Pd2)4
_symmetry_space_group_name_H-M   'P 1'
_cell_length_a   14.39873844
_cell_length_b   14.39873844
_cell_length_c   4.71036400
_cell_angle_alpha   90.00000000
_cell_angle_beta   90.00000000
_cell_angle_gamma   89.97180323
_symmetry_Int_Tables_number   1
_chemical_formula_structural   La9Tb(Sn5Pd2)4
_chemical_formula_sum   'La9 Tb1 Sn20 Pd8'
_cell_volume   976.56982641
_cell_formula_units_Z   1
loop_
 _symmetry_equiv_pos_site_id
 _symmetry_equiv_pos_as_xyz
  1  'x, y, z'
loop_
 _atom_site_type_symbol
 _atom_site_label
 _atom_site_symmetry_multiplicity
 _atom_site_fract_x
 _atom_site_fract_y
 _atom_site_fract_z
 _atom_site_occupancy
  La  La0  1  0.500040  0.499516  0.000000  1
  La  La1  1  0.999516  0.000040  0.000000  1
  La  La2  1  0.321065  0.821065  0.500000  1
  La  La3  1  0.179530  0.320598  0.500000  1
  La  La4  1  0.820598  0.679530  0.500000  1
  La  La5  1  0.890060  0.390060  0.500000  1
  La  La6  1  0.108402  0.608402  0.500000  1
  La  La7  1  0.392331  0.109478  0.500000  1
  La  La8  1  0.609478  0.892331  0.500000  1
  Tb  Tb9  1  0.677530  0.177530  0.500000  1
  Sn  Sn10  1  0.570913  0.070913  0.000000  1
  Sn  Sn11  1  0.432182  0.932182  0.000000  1
  Sn  Sn12  1  0.068546  0.430815  0.000000  1
  Sn  Sn13  1  0.930815  0.568546  0.000000  1
  Sn  Sn14  1  0.653330  0.699495  0.000000  1
  Sn  Sn15  1  0.347591  0.299742  0.000000  1
  Sn  Sn16  1  0.153059  0.800102  0.000000  1
  Sn  Sn17  1  0.843971  0.199447  0.000000  1
  Sn  Sn18  1  0.300102  0.653059  0.000000  1
  Sn  Sn19  1  0.699447  0.343971  0.000000  1
  Sn  Sn20  1  0.199495  0.153330  0.000000  1
  Sn  Sn21  1  0.799742  0.847591  0.000000  1
  Sn  Sn22  1  0.662078  0.500605  0.500000  1
  Sn  Sn23  1  0.337422  0.500741  0.500000  1
  Sn  Sn24  1  0.162602  0.000826  0.500000  1
  Sn  Sn25  1  0.836348  0.002636  0.500000  1
  Sn  Sn26  1  0.500826  0.662602  0.500000  1
  Sn  Sn27  1  0.502636  0.336348  0.500000  1
  Sn  Sn28  1  0.000605  0.162078  0.500000  1
  Sn  Sn29  1  0.000741  0.837422  0.500000  1
  Pd  Pd30  1  0.744753  0.528343  0.000000  1
  Pd  Pd31  1  0.254964  0.469572  0.000000  1
  Pd  Pd32  1  0.245362  0.970091  0.000000  1
  Pd  Pd33  1  0.754035  0.031880  0.000000  1
  Pd  Pd34  1  0.470091  0.745362  0.000000  1
  Pd  Pd35  1  0.531880  0.254035  0.000000  1
  Pd  Pd36  1  0.028343  0.244753  0.000000  1
  Pd  Pd37  1  0.969572  0.754964  0.000000  1
