# generated using pymatgen
data_Sm2Mo3As7Rh9
_symmetry_space_group_name_H-M   'P 1'
_cell_length_a   4.04501368
_cell_length_b   9.88719338
_cell_length_c   9.88524002
_cell_angle_alpha   120.00938366
_cell_angle_beta   89.99900278
_cell_angle_gamma   90.00169145
_symmetry_Int_Tables_number   1
_chemical_formula_structural   Sm2Mo3As7Rh9
_chemical_formula_sum   'Sm2 Mo3 As7 Rh9'
_cell_volume   342.34958088
_cell_formula_units_Z   1
loop_
 _symmetry_equiv_pos_site_id
 _symmetry_equiv_pos_as_xyz
  1  'x, y, z'
loop_
 _atom_site_type_symbol
 _atom_site_label
 _atom_site_symmetry_multiplicity
 _atom_site_fract_x
 _atom_site_fract_y
 _atom_site_fract_z
 _atom_site_occupancy
  Sm  Sm0  1  0.261745  0.666658  0.333318  1
  Sm  Sm1  1  0.761907  0.333356  0.666701  1
  Mo  Mo2  1  0.762057  0.092893  0.875095  1
  Mo  Mo3  1  0.762038  0.124919  0.217842  1
  Mo  Mo4  1  0.762043  0.782236  0.907109  1
  As  As5  1  0.262551  0.999956  0.999965  1
  As  As6  1  0.761747  0.883616  0.593755  1
  As  As7  1  0.761734  0.406220  0.289833  1
  As  As8  1  0.761712  0.710168  0.116339  1
  As  As9  1  0.261741  0.117275  0.410397  1
  As  As10  1  0.261720  0.589679  0.706957  1
  As  As11  1  0.261700  0.293095  0.882758  1
  Rh  Rh12  1  0.261911  0.881507  0.158084  1
  Rh  Rh13  1  0.261926  0.842023  0.723357  1
  Rh  Rh14  1  0.261911  0.276555  0.118576  1
  Rh  Rh15  1  0.761922  0.614779  0.563869  1
  Rh  Rh16  1  0.761905  0.436049  0.050896  1
  Rh  Rh17  1  0.761901  0.949094  0.385122  1
  Rh  Rh18  1  0.261934  0.371880  0.436387  1
  Rh  Rh19  1  0.261939  0.563561  0.935541  1
  Rh  Rh20  1  0.261956  0.064479  0.628101  1
