# generated using pymatgen
data_Cs2Re6Se11
_symmetry_space_group_name_H-M   'P 1'
_cell_length_a   12.69544176
_cell_length_b   12.69544132
_cell_length_c   12.69544111
_cell_angle_alpha   46.59783242
_cell_angle_beta   46.59783559
_cell_angle_gamma   46.59783226
_symmetry_Int_Tables_number   1
_chemical_formula_structural   Cs2Re6Se11
_chemical_formula_sum   'Cs4 Re12 Se22'
_cell_volume   986.48292083
_cell_formula_units_Z   2
loop_
 _symmetry_equiv_pos_site_id
 _symmetry_equiv_pos_as_xyz
  1  'x, y, z'
loop_
 _atom_site_type_symbol
 _atom_site_label
 _atom_site_symmetry_multiplicity
 _atom_site_fract_x
 _atom_site_fract_y
 _atom_site_fract_z
 _atom_site_occupancy
  Cs  Cs0  1  0.307825  0.307825  0.307825  1
  Cs  Cs1  1  0.192175  0.192175  0.192175  1
  Cs  Cs2  1  0.692175  0.692175  0.692175  1
  Cs  Cs3  1  0.807825  0.807825  0.807825  1
  Re  Re4  1  0.618463  0.311737  0.471663  1
  Re  Re5  1  0.471663  0.618463  0.311737  1
  Re  Re6  1  0.811737  0.118463  0.971663  1
  Re  Re7  1  0.971663  0.811737  0.118463  1
  Re  Re8  1  0.118463  0.971663  0.811737  1
  Re  Re9  1  0.688263  0.528337  0.381537  1
  Re  Re10  1  0.381537  0.688263  0.528337  1
  Re  Re11  1  0.528337  0.381537  0.688263  1
  Re  Re12  1  0.311737  0.471663  0.618463  1
  Re  Re13  1  0.881537  0.028337  0.188263  1
  Re  Re14  1  0.028337  0.188263  0.881537  1
  Re  Re15  1  0.188263  0.881537  0.028337  1
  Se  Se16  1  0.091671  0.091671  0.091671  1
  Se  Se17  1  0.408329  0.408329  0.408329  1
  Se  Se18  1  0.908329  0.908329  0.908329  1
  Se  Se19  1  0.591671  0.591671  0.591671  1
  Se  Se20  1  0.250000  0.946282  0.553718  1
  Se  Se21  1  0.553718  0.250000  0.946282  1
  Se  Se22  1  0.946282  0.553718  0.250000  1
  Se  Se23  1  0.750000  0.053718  0.446282  1
  Se  Se24  1  0.446282  0.750000  0.053718  1
  Se  Se25  1  0.053718  0.446282  0.750000  1
  Se  Se26  1  0.042857  0.730576  0.317117  1
  Se  Se27  1  0.317117  0.042857  0.730576  1
  Se  Se28  1  0.730576  0.317117  0.042857  1
  Se  Se29  1  0.457143  0.182883  0.769424  1
  Se  Se30  1  0.769424  0.457143  0.182883  1
  Se  Se31  1  0.182883  0.769424  0.457143  1
  Se  Se32  1  0.817117  0.230576  0.542857  1
  Se  Se33  1  0.230576  0.542857  0.817117  1
  Se  Se34  1  0.542857  0.817117  0.230576  1
  Se  Se35  1  0.269424  0.682883  0.957143  1
  Se  Se36  1  0.682883  0.957143  0.269424  1
  Se  Se37  1  0.957143  0.269424  0.682883  1
