# generated using pymatgen
data_Ta9Ga3SiNi
_symmetry_space_group_name_H-M   'P 1'
_cell_length_a   5.08398896
_cell_length_b   9.82887456
_cell_length_c   9.82887629
_cell_angle_alpha   86.26858232
_cell_angle_beta   75.10281579
_cell_angle_gamma   75.10281996
_symmetry_Int_Tables_number   1
_chemical_formula_structural   Ta9Ga3SiNi
_chemical_formula_sum   'Ta18 Ga6 Si2 Ni2'
_cell_volume   458.68624070
_cell_formula_units_Z   2
loop_
 _symmetry_equiv_pos_site_id
 _symmetry_equiv_pos_as_xyz
  1  'x, y, z'
loop_
 _atom_site_type_symbol
 _atom_site_label
 _atom_site_symmetry_multiplicity
 _atom_site_fract_x
 _atom_site_fract_y
 _atom_site_fract_z
 _atom_site_occupancy
  Ta  Ta0  1  0.750000  0.498517  0.501483  1
  Ta  Ta1  1  0.250000  0.501483  0.498517  1
  Ta  Ta2  1  0.794317  0.773093  0.642683  1
  Ta  Ta3  1  0.205683  0.226907  0.357317  1
  Ta  Ta4  1  0.705683  0.357317  0.226907  1
  Ta  Ta5  1  0.294317  0.642683  0.773093  1
  Ta  Ta6  1  0.565784  0.643164  0.226356  1
  Ta  Ta7  1  0.434216  0.356836  0.773644  1
  Ta  Ta8  1  0.065784  0.226356  0.643164  1
  Ta  Ta9  1  0.934216  0.773644  0.356836  1
  Ta  Ta10  1  0.580040  0.072606  0.759649  1
  Ta  Ta11  1  0.419960  0.927394  0.240351  1
  Ta  Ta12  1  0.919960  0.240351  0.927394  1
  Ta  Ta13  1  0.080040  0.759649  0.072606  1
  Ta  Ta14  1  0.654871  0.759681  0.927036  1
  Ta  Ta15  1  0.345129  0.240319  0.072964  1
  Ta  Ta16  1  0.154871  0.927036  0.759681  1
  Ta  Ta17  1  0.845129  0.072964  0.240319  1
  Ga  Ga18  1  0.000000  0.000000  0.500000  1
  Ga  Ga19  1  0.500000  0.500000  0.000000  1
  Ga  Ga20  1  0.121295  0.500006  0.239739  1
  Ga  Ga21  1  0.878705  0.499994  0.760261  1
  Ga  Ga22  1  0.378705  0.760261  0.499994  1
  Ga  Ga23  1  0.621295  0.239739  0.500006  1
  Si  Si24  1  0.250000  0.999789  0.000211  1
  Si  Si25  1  0.750000  0.000211  0.999789  1
  Ni  Ni26  1  0.500000  0.000000  0.500000  1
  Ni  Ni27  1  0.000000  0.500000  0.000000  1
