# generated using pymatgen
data_Dy2PaFe3
_symmetry_space_group_name_H-M   'P 1'
_cell_length_a   5.08555923
_cell_length_b   5.08556081
_cell_length_c   5.08555915
_cell_angle_alpha   66.50132333
_cell_angle_beta   66.50132617
_cell_angle_gamma   66.50132545
_symmetry_Int_Tables_number   1
_chemical_formula_structural   Dy2PaFe3
_chemical_formula_sum   'Dy2 Pa1 Fe3'
_cell_volume   106.02699647
_cell_formula_units_Z   1
loop_
 _symmetry_equiv_pos_site_id
 _symmetry_equiv_pos_as_xyz
  1  'x, y, z'
loop_
 _atom_site_type_symbol
 _atom_site_label
 _atom_site_symmetry_multiplicity
 _atom_site_fract_x
 _atom_site_fract_y
 _atom_site_fract_z
 _atom_site_occupancy
  Dy  Dy0  1  0.626337  0.626337  0.626337  1
  Dy  Dy1  1  0.373663  0.373663  0.373663  1
  Pa  Pa2  1  0.000000  0.000000  0.000000  1
  Fe  Fe3  1  0.000000  0.500000  0.000000  1
  Fe  Fe4  1  0.500000  0.000000  0.000000  1
  Fe  Fe5  1  0.000000  0.000000  0.500000  1
