# generated using pymatgen
data_Ca10TmTcN10
_symmetry_space_group_name_H-M   'P 1'
_cell_length_a   7.07222761
_cell_length_b   7.07222634
_cell_length_c   8.93126603
_cell_angle_alpha   80.45166891
_cell_angle_beta   80.45166322
_cell_angle_gamma   59.85384456
_symmetry_Int_Tables_number   1
_chemical_formula_structural   Ca10TmTcN10
_chemical_formula_sum   'Ca10 Tm1 Tc1 N10'
_cell_volume   379.14922300
_cell_formula_units_Z   1
loop_
 _symmetry_equiv_pos_site_id
 _symmetry_equiv_pos_as_xyz
  1  'x, y, z'
loop_
 _atom_site_type_symbol
 _atom_site_label
 _atom_site_symmetry_multiplicity
 _atom_site_fract_x
 _atom_site_fract_y
 _atom_site_fract_z
 _atom_site_occupancy
  Ca  Ca0  1  0.874595  0.361157  0.824113  1
  Ca  Ca1  1  0.873801  0.873801  0.811250  1
  Ca  Ca2  1  0.736658  0.736658  0.531555  1
  Ca  Ca3  1  0.744336  0.259758  0.514316  1
  Ca  Ca4  1  0.622528  0.139938  0.149368  1
  Ca  Ca5  1  0.361157  0.874595  0.824113  1
  Ca  Ca6  1  0.259758  0.744336  0.514316  1
  Ca  Ca7  1  0.240902  0.240902  0.503593  1
  Ca  Ca8  1  0.141341  0.141341  0.160367  1
  Ca  Ca9  1  0.139938  0.622528  0.149368  1
  Tm  Tm10  1  0.369523  0.369523  0.782665  1
  Tc  Tc11  1  0.632113  0.632113  0.228456  1
  N  N12  1  0.898870  0.475282  0.315347  1
  N  N13  1  0.991994  0.991994  0.026296  1
  N  N14  1  0.674447  0.674447  0.023831  1
  N  N15  1  0.551879  0.551879  0.683420  1
  N  N16  1  0.475282  0.898870  0.315347  1
  N  N17  1  0.552970  0.066170  0.660412  1
  N  N18  1  0.478558  0.478558  0.296808  1
  N  N19  1  0.314954  0.314954  0.027240  1
  N  N20  1  0.060513  0.060513  0.643213  1
  N  N21  1  0.066170  0.552970  0.660412  1
