# generated using pymatgen
data_Dy2Al9OsPt2
_symmetry_space_group_name_H-M   'P 1'
_cell_length_a   7.58682143
_cell_length_b   7.58682167
_cell_length_c   9.47058800
_cell_angle_alpha   90.00000000
_cell_angle_beta   90.00000000
_cell_angle_gamma   119.45728776
_symmetry_Int_Tables_number   1
_chemical_formula_structural   Dy2Al9OsPt2
_chemical_formula_sum   'Dy4 Al18 Os2 Pt4'
_cell_volume   474.65326141
_cell_formula_units_Z   2
loop_
 _symmetry_equiv_pos_site_id
 _symmetry_equiv_pos_as_xyz
  1  'x, y, z'
loop_
 _atom_site_type_symbol
 _atom_site_label
 _atom_site_symmetry_multiplicity
 _atom_site_fract_x
 _atom_site_fract_y
 _atom_site_fract_z
 _atom_site_occupancy
  Dy  Dy0  1  0.994113  0.671218  0.750000  1
  Dy  Dy1  1  0.005887  0.328782  0.250000  1
  Dy  Dy2  1  0.671218  0.994112  0.750000  1
  Dy  Dy3  1  0.328782  0.005888  0.250000  1
  Al  Al4  1  0.126039  0.126039  0.750000  1
  Al  Al5  1  0.873961  0.873961  0.250000  1
  Al  Al6  1  0.000107  0.330140  0.575857  1
  Al  Al7  1  0.999893  0.669860  0.424143  1
  Al  Al8  1  0.999893  0.669860  0.075857  1
  Al  Al9  1  0.330140  0.000107  0.924143  1
  Al  Al10  1  0.000107  0.330140  0.924143  1
  Al  Al11  1  0.669860  0.999893  0.075857  1
  Al  Al12  1  0.669860  0.999893  0.424143  1
  Al  Al13  1  0.330140  0.000107  0.575857  1
  Al  Al14  1  0.328744  0.328744  0.055520  1
  Al  Al15  1  0.671256  0.671256  0.944480  1
  Al  Al16  1  0.671256  0.671256  0.555520  1
  Al  Al17  1  0.328744  0.328744  0.444480  1
  Al  Al18  1  0.340860  0.546225  0.750000  1
  Al  Al19  1  0.659140  0.453775  0.250000  1
  Al  Al20  1  0.546224  0.340860  0.750000  1
  Al  Al21  1  0.453776  0.659140  0.250000  1
  Os  Os22  1  0.000000  0.000000  0.500000  1
  Os  Os23  1  0.000000  0.000000  0.000000  1
  Pt  Pt24  1  0.672091  0.327909  0.500000  1
  Pt  Pt25  1  0.327909  0.672091  0.500000  1
  Pt  Pt26  1  0.327909  0.672091  0.000000  1
  Pt  Pt27  1  0.672091  0.327909  0.000000  1
