# generated using pymatgen
data_LiLu3Ag2Pb3
_symmetry_space_group_name_H-M   'P 1'
_cell_length_a   7.36371944
_cell_length_b   7.36371926
_cell_length_c   4.58128400
_cell_angle_alpha   90.00000000
_cell_angle_beta   90.00000000
_cell_angle_gamma   120.39359095
_symmetry_Int_Tables_number   1
_chemical_formula_structural   LiLu3Ag2Pb3
_chemical_formula_sum   'Li1 Lu3 Ag2 Pb3'
_cell_volume   214.27729519
_cell_formula_units_Z   1
loop_
 _symmetry_equiv_pos_site_id
 _symmetry_equiv_pos_as_xyz
  1  'x, y, z'
loop_
 _atom_site_type_symbol
 _atom_site_label
 _atom_site_symmetry_multiplicity
 _atom_site_fract_x
 _atom_site_fract_y
 _atom_site_fract_z
 _atom_site_occupancy
  Li  Li0  1  0.770513  0.770513  0.000000  1
  Lu  Lu1  1  0.560962  0.004603  0.500000  1
  Lu  Lu2  1  0.422555  0.422555  0.500000  1
  Lu  Lu3  1  0.004603  0.560962  0.500000  1
  Ag  Ag4  1  0.999087  0.242584  0.000000  1
  Ag  Ag5  1  0.242584  0.999087  0.000000  1
  Pb  Pb6  1  0.981037  0.981037  0.500000  1
  Pb  Pb7  1  0.348673  0.669987  0.000000  1
  Pb  Pb8  1  0.669987  0.348673  0.000000  1
