# generated using pymatgen
data_Ca2Al3Re14C3
_symmetry_space_group_name_H-M   'P 1'
_cell_length_a   6.98594160
_cell_length_b   6.98594212
_cell_length_c   6.98594303
_cell_angle_alpha   82.52002184
_cell_angle_beta   82.52001093
_cell_angle_gamma   82.52001296
_symmetry_Int_Tables_number   1
_chemical_formula_structural   Ca2Al3Re14C3
_chemical_formula_sum   'Ca2 Al3 Re14 C3'
_cell_volume   332.92905114
_cell_formula_units_Z   1
loop_
 _symmetry_equiv_pos_site_id
 _symmetry_equiv_pos_as_xyz
  1  'x, y, z'
loop_
 _atom_site_type_symbol
 _atom_site_label
 _atom_site_symmetry_multiplicity
 _atom_site_fract_x
 _atom_site_fract_y
 _atom_site_fract_z
 _atom_site_occupancy
  Ca  Ca0  1  0.657112  0.657112  0.657112  1
  Ca  Ca1  1  0.342888  0.342888  0.342888  1
  Al  Al2  1  0.000000  0.000000  0.500000  1
  Al  Al3  1  0.500000  0.000000  0.000000  1
  Al  Al4  1  0.000000  0.500000  0.000000  1
  Re  Re5  1  0.720225  0.279775  0.000000  1
  Re  Re6  1  0.000000  0.720225  0.279775  1
  Re  Re7  1  0.279775  0.000000  0.720225  1
  Re  Re8  1  0.000000  0.279775  0.720225  1
  Re  Re9  1  0.720225  0.000000  0.279775  1
  Re  Re10  1  0.279775  0.720225  0.000000  1
  Re  Re11  1  0.349536  0.349536  0.851049  1
  Re  Re12  1  0.851049  0.349536  0.349536  1
  Re  Re13  1  0.349536  0.851049  0.349536  1
  Re  Re14  1  0.650464  0.650464  0.148951  1
  Re  Re15  1  0.148951  0.650464  0.650464  1
  Re  Re16  1  0.650464  0.148951  0.650464  1
  Re  Re17  1  0.904263  0.904263  0.904263  1
  Re  Re18  1  0.095737  0.095737  0.095737  1
  C  C19  1  0.500000  0.500000  0.000000  1
  C  C20  1  0.000000  0.500000  0.500000  1
  C  C21  1  0.500000  0.000000  0.500000  1
