# generated using pymatgen
data_Sc24Fe5Co3
_symmetry_space_group_name_H-M   'P 1'
_cell_length_a   5.81663316
_cell_length_b   8.49551600
_cell_length_c   13.18103848
_cell_angle_alpha   90.00000000
_cell_angle_beta   90.07124359
_cell_angle_gamma   90.00000000
_symmetry_Int_Tables_number   1
_chemical_formula_structural   Sc24Fe5Co3
_chemical_formula_sum   'Sc24 Fe5 Co3'
_cell_volume   651.34446765
_cell_formula_units_Z   1
loop_
 _symmetry_equiv_pos_site_id
 _symmetry_equiv_pos_as_xyz
  1  'x, y, z'
loop_
 _atom_site_type_symbol
 _atom_site_label
 _atom_site_symmetry_multiplicity
 _atom_site_fract_x
 _atom_site_fract_y
 _atom_site_fract_z
 _atom_site_occupancy
  Sc  Sc0  1  0.546846  0.750000  0.353095  1
  Sc  Sc1  1  0.048676  0.250000  0.147263  1
  Sc  Sc2  1  0.453026  0.250000  0.647067  1
  Sc  Sc3  1  0.953253  0.750000  0.852464  1
  Sc  Sc4  1  0.784203  0.750000  0.107586  1
  Sc  Sc5  1  0.283049  0.250000  0.391534  1
  Sc  Sc6  1  0.216334  0.250000  0.891504  1
  Sc  Sc7  1  0.715008  0.750000  0.608322  1
  Sc  Sc8  1  0.410705  0.932403  0.788334  1
  Sc  Sc9  1  0.909746  0.067072  0.711868  1
  Sc  Sc10  1  0.586892  0.435021  0.212131  1
  Sc  Sc11  1  0.090244  0.568738  0.287861  1
  Sc  Sc12  1  0.586892  0.064979  0.212131  1
  Sc  Sc13  1  0.090244  0.931262  0.287861  1
  Sc  Sc14  1  0.410705  0.567597  0.788334  1
  Sc  Sc15  1  0.909746  0.432928  0.711868  1
  Sc  Sc16  1  0.243086  0.937445  0.535538  1
  Sc  Sc17  1  0.742606  0.062158  0.964672  1
  Sc  Sc18  1  0.757035  0.437864  0.464203  1
  Sc  Sc19  1  0.257453  0.563786  0.035790  1
  Sc  Sc20  1  0.757035  0.062136  0.464203  1
  Sc  Sc21  1  0.257453  0.936214  0.035790  1
  Sc  Sc22  1  0.243086  0.562555  0.535538  1
  Sc  Sc23  1  0.742606  0.437842  0.964672  1
  Fe  Fe24  1  0.937853  0.750000  0.442314  1
  Fe  Fe25  1  0.439054  0.250000  0.058324  1
  Fe  Fe26  1  0.061307  0.250000  0.559222  1
  Fe  Fe27  1  0.563261  0.750000  0.939519  1
  Fe  Fe28  1  0.376453  0.750000  0.181906  1
  Co  Co29  1  0.873358  0.250000  0.319197  1
  Co  Co30  1  0.626483  0.250000  0.819373  1
  Co  Co31  1  0.126299  0.750000  0.680518  1
