# generated using pymatgen
data_Cs3Al2F9
_symmetry_space_group_name_H-M   'P 1'
_cell_length_a   6.36866800
_cell_length_b   6.36868902
_cell_length_c   14.85928700
_cell_angle_alpha   89.99986632
_cell_angle_beta   89.99997558
_cell_angle_gamma   120.00078236
_symmetry_Int_Tables_number   1
_chemical_formula_structural   Cs3Al2F9
_chemical_formula_sum   'Cs6 Al4 F18'
_cell_volume   521.94390645
_cell_formula_units_Z   2
loop_
 _symmetry_equiv_pos_site_id
 _symmetry_equiv_pos_as_xyz
  1  'x, y, z'
loop_
 _atom_site_type_symbol
 _atom_site_label
 _atom_site_symmetry_multiplicity
 _atom_site_fract_x
 _atom_site_fract_y
 _atom_site_fract_z
 _atom_site_occupancy
  Cs  Cs0  1  0.333312  0.666665  0.250001  1
  Cs  Cs1  1  0.666661  0.333333  0.750006  1
  Cs  Cs2  1  0.333319  0.666672  0.564411  1
  Cs  Cs3  1  0.333317  0.666671  0.935589  1
  Cs  Cs4  1  0.666648  0.333332  0.064410  1
  Cs  Cs5  1  0.666651  0.333332  0.435589  1
  Al  Al6  1  0.999988  0.999999  0.156935  1
  Al  Al7  1  0.999991  0.000000  0.343067  1
  Al  Al8  1  0.999994  0.000002  0.656933  1
  Al  Al9  1  0.999992  0.000001  0.843063  1
  F  F10  1  0.250118  0.129851  0.250000  1
  F  F11  1  0.879714  0.749871  0.250001  1
  F  F12  1  0.870137  0.120270  0.250002  1
  F  F13  1  0.120263  0.870150  0.749998  1
  F  F14  1  0.129850  0.250127  0.749999  1
  F  F15  1  0.749864  0.879728  0.749998  1
  F  F16  1  0.281951  0.134535  0.600799  1
  F  F17  1  0.852568  0.718051  0.600798  1
  F  F18  1  0.865465  0.147423  0.600800  1
  F  F19  1  0.281946  0.134526  0.899199  1
  F  F20  1  0.852561  0.718051  0.899199  1
  F  F21  1  0.865462  0.147421  0.899198  1
  F  F22  1  0.147407  0.865465  0.100800  1
  F  F23  1  0.134514  0.281953  0.100800  1
  F  F24  1  0.718032  0.852574  0.100803  1
  F  F25  1  0.147416  0.865468  0.399200  1
  F  F26  1  0.134522  0.281955  0.399200  1
  F  F27  1  0.718038  0.852574  0.399200  1
