# generated using pymatgen
data_LaCl2F
_symmetry_space_group_name_H-M   'P 1'
_cell_length_a   5.59876181
_cell_length_b   5.59876227
_cell_length_c   7.20800314
_cell_angle_alpha   73.54385663
_cell_angle_beta   73.54385046
_cell_angle_gamma   66.84589290
_symmetry_Int_Tables_number   1
_chemical_formula_structural   LaCl2F
_chemical_formula_sum   'La2 Cl4 F2'
_cell_volume   195.41146466
_cell_formula_units_Z   2
loop_
 _symmetry_equiv_pos_site_id
 _symmetry_equiv_pos_as_xyz
  1  'x, y, z'
loop_
 _atom_site_type_symbol
 _atom_site_label
 _atom_site_symmetry_multiplicity
 _atom_site_fract_x
 _atom_site_fract_y
 _atom_site_fract_z
 _atom_site_occupancy
  La  La0  1  0.765763  0.234237  0.750000  1
  La  La1  1  0.234237  0.765763  0.250000  1
  Cl  Cl2  1  0.282460  0.339569  0.605985  1
  Cl  Cl3  1  0.717540  0.660431  0.394015  1
  Cl  Cl4  1  0.339569  0.282460  0.105984  1
  Cl  Cl5  1  0.660431  0.717540  0.894015  1
  F  F6  1  0.000000  0.000000  0.000000  1
  F  F7  1  0.000000  0.000000  0.500000  1
