# generated using pymatgen
data_SrLuIr2O7
_symmetry_space_group_name_H-M   'P 1'
_cell_length_a   7.31158931
_cell_length_b   7.29140084
_cell_length_c   7.31158967
_cell_angle_alpha   60.09128879
_cell_angle_beta   59.66429102
_cell_angle_gamma   60.09129921
_symmetry_Int_Tables_number   1
_chemical_formula_structural   SrLuIr2O7
_chemical_formula_sum   'Sr2 Lu2 Ir4 O14'
_cell_volume   275.29637534
_cell_formula_units_Z   2
loop_
 _symmetry_equiv_pos_site_id
 _symmetry_equiv_pos_as_xyz
  1  'x, y, z'
loop_
 _atom_site_type_symbol
 _atom_site_label
 _atom_site_symmetry_multiplicity
 _atom_site_fract_x
 _atom_site_fract_y
 _atom_site_fract_z
 _atom_site_occupancy
  Sr  Sr0  1  0.125000  0.625000  0.125000  1
  Sr  Sr1  1  0.125000  0.125000  0.125000  1
  Lu  Lu2  1  0.625000  0.125000  0.125000  1
  Lu  Lu3  1  0.125000  0.125000  0.625000  1
  Ir  Ir4  1  0.125000  0.625000  0.625000  1
  Ir  Ir5  1  0.625000  0.125000  0.625000  1
  Ir  Ir6  1  0.625000  0.625000  0.125000  1
  Ir  Ir7  1  0.625000  0.625000  0.625000  1
  O  O8  1  0.688455  0.720697  0.297033  1
  O  O9  1  0.297033  0.293815  0.688455  1
  O  O10  1  0.703608  0.296392  0.703608  1
  O  O11  1  0.301107  0.698893  0.301107  1
  O  O12  1  0.297033  0.720697  0.688455  1
  O  O13  1  0.688455  0.293815  0.297033  1
  O  O14  1  0.561545  0.529303  0.952967  1
  O  O15  1  0.952967  0.956185  0.561545  1
  O  O16  1  0.546392  0.953608  0.546392  1
  O  O17  1  0.948893  0.551107  0.948893  1
  O  O18  1  0.952967  0.529303  0.561545  1
  O  O19  1  0.561545  0.956185  0.952967  1
  O  O20  1  0.271096  0.228904  0.271096  1
  O  O21  1  0.978904  0.021096  0.978904  1
