# generated using pymatgen
data_DyErSbO2
_symmetry_space_group_name_H-M   'P 1'
_cell_length_a   7.17770090
_cell_length_b   7.16688051
_cell_length_c   7.17770210
_cell_angle_alpha   149.15005419
_cell_angle_beta   148.84273103
_cell_angle_gamma   44.43494718
_symmetry_Int_Tables_number   1
_chemical_formula_structural   DyErSbO2
_chemical_formula_sum   'Dy1 Er1 Sb1 O2'
_cell_volume   97.66575552
_cell_formula_units_Z   1
loop_
 _symmetry_equiv_pos_site_id
 _symmetry_equiv_pos_as_xyz
  1  'x, y, z'
loop_
 _atom_site_type_symbol
 _atom_site_label
 _atom_site_symmetry_multiplicity
 _atom_site_fract_x
 _atom_site_fract_y
 _atom_site_fract_z
 _atom_site_occupancy
  Dy  Dy0  1  0.334437  0.348568  0.014130  1
  Er  Er1  1  0.666663  0.678515  0.011852  1
  Sb  Sb2  1  0.000897  0.023077  0.022179  1
  O  O3  1  0.749653  0.263177  0.513524  1
  O  O4  1  0.248350  0.761663  0.513313  1
