# generated using pymatgen
data_TbY3(Ni7P4)2
_symmetry_space_group_name_H-M   'P 1'
_cell_length_a   3.70427100
_cell_length_b   9.16276500
_cell_length_c   10.27108200
_cell_angle_alpha   90.00033128
_cell_angle_beta   90.00000000
_cell_angle_gamma   90.00000000
_symmetry_Int_Tables_number   1
_chemical_formula_structural   TbY3(Ni7P4)2
_chemical_formula_sum   'Tb1 Y3 Ni14 P8'
_cell_volume   348.61453971
_cell_formula_units_Z   1
loop_
 _symmetry_equiv_pos_site_id
 _symmetry_equiv_pos_as_xyz
  1  'x, y, z'
loop_
 _atom_site_type_symbol
 _atom_site_label
 _atom_site_symmetry_multiplicity
 _atom_site_fract_x
 _atom_site_fract_y
 _atom_site_fract_z
 _atom_site_occupancy
  Tb  Tb0  1  0.500000  0.563918  0.678138  1
  Y  Y1  1  0.000000  0.057989  0.395508  1
  Y  Y2  1  0.500000  0.942116  0.895597  1
  Y  Y3  1  0.000000  0.435570  0.178300  1
  Ni  Ni4  1  0.000000  0.056689  0.698885  1
  Ni  Ni5  1  0.500000  0.943307  0.198968  1
  Ni  Ni6  1  0.000000  0.725551  0.509717  1
  Ni  Ni7  1  0.500000  0.274449  0.009773  1
  Ni  Ni8  1  0.000000  0.097281  0.093732  1
  Ni  Ni9  1  0.500000  0.902726  0.593701  1
  Ni  Ni10  1  0.000000  0.745544  0.273756  1
  Ni  Ni11  1  0.500000  0.254596  0.773853  1
  Ni  Ni12  1  0.000000  0.306242  0.603118  1
  Ni  Ni13  1  0.500000  0.693694  0.103135  1
  Ni  Ni14  1  0.000000  0.685994  0.912197  1
  Ni  Ni15  1  0.500000  0.314131  0.412230  1
  Ni  Ni16  1  0.000000  0.417650  0.870111  1
  Ni  Ni17  1  0.500000  0.582426  0.369972  1
  P  P18  1  0.000000  0.180746  0.889278  1
  P  P19  1  0.500000  0.819264  0.389305  1
  P  P20  1  0.000000  0.845495  0.084248  1
  P  P21  1  0.500000  0.154565  0.584362  1
  P  P22  1  0.000000  0.809824  0.714110  1
  P  P23  1  0.500000  0.190253  0.214101  1
  P  P24  1  0.000000  0.479704  0.460927  1
  P  P25  1  0.500000  0.520275  0.961171  1
