# generated using pymatgen
data_Li2Dy3Ho(Co3P2)6
_symmetry_space_group_name_H-M   'P 1'
_cell_length_a   3.67066900
_cell_length_b   10.26154709
_cell_length_c   11.81591010
_cell_angle_alpha   90.01498473
_cell_angle_beta   90.00000000
_cell_angle_gamma   90.00000000
_symmetry_Int_Tables_number   1
_chemical_formula_structural   Li2Dy3Ho(Co3P2)6
_chemical_formula_sum   'Li2 Dy3 Ho1 Co18 P12'
_cell_volume   445.06683135
_cell_formula_units_Z   1
loop_
 _symmetry_equiv_pos_site_id
 _symmetry_equiv_pos_as_xyz
  1  'x, y, z'
loop_
 _atom_site_type_symbol
 _atom_site_label
 _atom_site_symmetry_multiplicity
 _atom_site_fract_x
 _atom_site_fract_y
 _atom_site_fract_z
 _atom_site_occupancy
  Li  Li0  1  0.250000  0.702085  0.991581  1
  Li  Li1  1  0.250000  0.798525  0.491022  1
  Dy  Dy2  1  0.250000  0.579184  0.702122  1
  Dy  Dy3  1  0.750000  0.420735  0.297523  1
  Dy  Dy4  1  0.750000  0.079259  0.797712  1
  Ho  Ho5  1  0.250000  0.920679  0.201927  1
  Co  Co6  1  0.750000  0.288789  0.008864  1
  Co  Co7  1  0.750000  0.211206  0.508353  1
  Co  Co8  1  0.250000  0.404026  0.487494  1
  Co  Co9  1  0.250000  0.095873  0.987691  1
  Co  Co10  1  0.750000  0.590986  0.514367  1
  Co  Co11  1  0.750000  0.908765  0.014861  1
  Co  Co12  1  0.250000  0.224646  0.174512  1
  Co  Co13  1  0.250000  0.275322  0.674562  1
  Co  Co14  1  0.750000  0.779496  0.826455  1
  Co  Co15  1  0.750000  0.720575  0.326212  1
  Co  Co16  1  0.250000  0.880417  0.698697  1
  Co  Co17  1  0.250000  0.619787  0.198719  1
  Co  Co18  1  0.750000  0.121051  0.299508  1
  Co  Co19  1  0.750000  0.378571  0.799999  1
  Co  Co20  1  0.250000  0.463280  0.931516  1
  Co  Co21  1  0.250000  0.036650  0.431012  1
  Co  Co22  1  0.750000  0.533624  0.066451  1
  Co  Co23  1  0.750000  0.966525  0.566136  1
  P  P24  1  0.250000  0.422813  0.111987  1
  P  P25  1  0.250000  0.077196  0.611794  1
  P  P26  1  0.750000  0.576766  0.884145  1
  P  P27  1  0.750000  0.923220  0.383554  1
  P  P28  1  0.250000  0.267800  0.867042  1
  P  P29  1  0.250000  0.232147  0.366849  1
  P  P30  1  0.750000  0.730188  0.138211  1
  P  P31  1  0.750000  0.770290  0.638148  1
  P  P32  1  0.250000  0.602032  0.393570  1
  P  P33  1  0.250000  0.897945  0.893580  1
  P  P34  1  0.750000  0.395314  0.606874  1
  P  P35  1  0.750000  0.104231  0.106950  1
