# generated using pymatgen
data_Tb17Dy2TmSn16
_symmetry_space_group_name_H-M   'P 1'
_cell_length_a   8.05444500
_cell_length_b   8.20564219
_cell_length_c   15.51179700
_cell_angle_alpha   90.00000000
_cell_angle_beta   90.00000000
_cell_angle_gamma   89.94957497
_symmetry_Int_Tables_number   1
_chemical_formula_structural   Tb17Dy2TmSn16
_chemical_formula_sum   'Tb17 Dy2 Tm1 Sn16'
_cell_volume   1025.20364214
_cell_formula_units_Z   1
loop_
 _symmetry_equiv_pos_site_id
 _symmetry_equiv_pos_as_xyz
  1  'x, y, z'
loop_
 _atom_site_type_symbol
 _atom_site_label
 _atom_site_symmetry_multiplicity
 _atom_site_fract_x
 _atom_site_fract_y
 _atom_site_fract_z
 _atom_site_occupancy
  Tb  Tb0  1  0.367189  0.836175  0.877915  1
  Tb  Tb1  1  0.867842  0.663369  0.622026  1
  Tb  Tb2  1  0.632612  0.163775  0.378295  1
  Tb  Tb3  1  0.132517  0.336315  0.121365  1
  Tb  Tb4  1  0.632612  0.163775  0.121705  1
  Tb  Tb5  1  0.132517  0.336315  0.378635  1
  Tb  Tb6  1  0.367189  0.836175  0.622085  1
  Tb  Tb7  1  0.867842  0.663369  0.877974  1
  Tb  Tb8  1  0.519820  0.320588  0.901976  1
  Tb  Tb9  1  0.020240  0.179962  0.598041  1
  Tb  Tb10  1  0.480119  0.679729  0.402405  1
  Tb  Tb11  1  0.979936  0.820154  0.097785  1
  Tb  Tb12  1  0.480119  0.679729  0.097595  1
  Tb  Tb13  1  0.979936  0.820154  0.402215  1
  Tb  Tb14  1  0.519820  0.320588  0.598024  1
  Tb  Tb15  1  0.020240  0.179962  0.901959  1
  Tb  Tb16  1  0.301057  0.002236  0.250000  1
  Dy  Dy17  1  0.698668  0.998021  0.750000  1
  Dy  Dy18  1  0.800969  0.497685  0.250000  1
  Tm  Tm19  1  0.199318  0.502500  0.750000  1
  Sn  Sn20  1  0.292561  0.035328  0.041662  1
  Sn  Sn21  1  0.792406  0.464309  0.458257  1
  Sn  Sn22  1  0.707441  0.964489  0.542201  1
  Sn  Sn23  1  0.207490  0.535268  0.957199  1
  Sn  Sn24  1  0.707441  0.964489  0.957799  1
  Sn  Sn25  1  0.207490  0.535268  0.542801  1
  Sn  Sn26  1  0.292561  0.035328  0.458338  1
  Sn  Sn27  1  0.792406  0.464309  0.041743  1
  Sn  Sn28  1  0.564349  0.618115  0.750000  1
  Sn  Sn29  1  0.065522  0.880781  0.750000  1
  Sn  Sn30  1  0.434503  0.381645  0.250000  1
  Sn  Sn31  1  0.934471  0.118598  0.250000  1
  Sn  Sn32  1  0.328022  0.148339  0.750000  1
  Sn  Sn33  1  0.829161  0.353872  0.750000  1
  Sn  Sn34  1  0.671732  0.853562  0.250000  1
  Sn  Sn35  1  0.171880  0.645728  0.250000  1
