# generated using pymatgen
data_Li3Sc4ZnSn4
_symmetry_space_group_name_H-M   'P 1'
_cell_length_a   4.57878800
_cell_length_b   6.68853830
_cell_length_c   7.97594705
_cell_angle_alpha   90.05061060
_cell_angle_beta   90.00000000
_cell_angle_gamma   90.00000000
_symmetry_Int_Tables_number   1
_chemical_formula_structural   Li3Sc4ZnSn4
_chemical_formula_sum   'Li3 Sc4 Zn1 Sn4'
_cell_volume   244.26646450
_cell_formula_units_Z   1
loop_
 _symmetry_equiv_pos_site_id
 _symmetry_equiv_pos_as_xyz
  1  'x, y, z'
loop_
 _atom_site_type_symbol
 _atom_site_label
 _atom_site_symmetry_multiplicity
 _atom_site_fract_x
 _atom_site_fract_y
 _atom_site_fract_z
 _atom_site_occupancy
  Li  Li0  1  0.250000  0.713991  0.580800  1
  Li  Li1  1  0.750000  0.287576  0.419730  1
  Li  Li2  1  0.750000  0.778727  0.083833  1
  Sc  Sc3  1  0.250000  0.508793  0.235138  1
  Sc  Sc4  1  0.750000  0.498571  0.764572  1
  Sc  Sc5  1  0.750000  0.997665  0.736051  1
  Sc  Sc6  1  0.250000  0.001629  0.263418  1
  Zn  Zn7  1  0.250000  0.194214  0.915189  1
  Sn  Sn8  1  0.250000  0.755001  0.913697  1
  Sn  Sn9  1  0.750000  0.253909  0.089492  1
  Sn  Sn10  1  0.750000  0.748684  0.416434  1
  Sn  Sn11  1  0.250000  0.261240  0.581646  1
