# generated using pymatgen
data_NaZnMoF6
_symmetry_space_group_name_H-M   'P 1'
_cell_length_a   5.00678700
_cell_length_b   5.00678700
_cell_length_c   9.94686500
_cell_angle_alpha   90.00000000
_cell_angle_beta   90.00000000
_cell_angle_gamma   90.00000000
_symmetry_Int_Tables_number   1
_chemical_formula_structural   NaZnMoF6
_chemical_formula_sum   'Na2 Zn2 Mo2 F12'
_cell_volume   249.34717691
_cell_formula_units_Z   2
loop_
 _symmetry_equiv_pos_site_id
 _symmetry_equiv_pos_as_xyz
  1  'x, y, z'
loop_
 _atom_site_type_symbol
 _atom_site_label
 _atom_site_symmetry_multiplicity
 _atom_site_fract_x
 _atom_site_fract_y
 _atom_site_fract_z
 _atom_site_occupancy
  Na  Na0  1  0.500000  0.500000  0.498976  1
  Na  Na1  1  0.000000  0.000000  0.998976  1
  Zn  Zn2  1  0.500000  0.500000  0.168564  1
  Zn  Zn3  1  0.000000  0.000000  0.668564  1
  Mo  Mo4  1  0.500000  0.500000  0.832342  1
  Mo  Mo5  1  0.000000  0.000000  0.332342  1
  F  F6  1  0.181543  0.818457  0.501064  1
  F  F7  1  0.818457  0.181543  0.501064  1
  F  F8  1  0.318457  0.318457  0.001064  1
  F  F9  1  0.681543  0.681543  0.001064  1
  F  F10  1  0.206039  0.793961  0.178742  1
  F  F11  1  0.793961  0.206039  0.178742  1
  F  F12  1  0.293961  0.293961  0.678742  1
  F  F13  1  0.706039  0.706039  0.678742  1
  F  F14  1  0.797990  0.202010  0.820253  1
  F  F15  1  0.202010  0.797990  0.820253  1
  F  F16  1  0.702010  0.702010  0.320253  1
  F  F17  1  0.297990  0.297990  0.320253  1
