# generated using pymatgen
data_Tm3(LuRu)2
_symmetry_space_group_name_H-M   'P 1'
_cell_length_a   6.22187244
_cell_length_b   7.22124807
_cell_length_c   8.29501927
_cell_angle_alpha   96.93021918
_cell_angle_beta   111.93148304
_cell_angle_gamma   89.94202040
_symmetry_Int_Tables_number   1
_chemical_formula_structural   Tm3(LuRu)2
_chemical_formula_sum   'Tm6 Lu4 Ru4'
_cell_volume   342.80240465
_cell_formula_units_Z   2
loop_
 _symmetry_equiv_pos_site_id
 _symmetry_equiv_pos_as_xyz
  1  'x, y, z'
loop_
 _atom_site_type_symbol
 _atom_site_label
 _atom_site_symmetry_multiplicity
 _atom_site_fract_x
 _atom_site_fract_y
 _atom_site_fract_z
 _atom_site_occupancy
  Tm  Tm0  1  0.523551  0.083573  0.814207  1
  Tm  Tm1  1  0.476449  0.916427  0.185793  1
  Tm  Tm2  1  0.708812  0.416111  0.186079  1
  Tm  Tm3  1  0.291188  0.583889  0.813921  1
  Tm  Tm4  1  0.294644  0.315467  0.434513  1
  Tm  Tm5  1  0.705356  0.684533  0.565487  1
  Lu  Lu6  1  0.860829  0.183729  0.565208  1
  Lu  Lu7  1  0.139171  0.816271  0.434792  1
  Lu  Lu8  1  0.080122  0.250367  0.999596  1
  Lu  Lu9  1  0.919878  0.749633  0.000404  1
  Ru  Ru10  1  0.320703  0.577474  0.218882  1
  Ru  Ru11  1  0.679297  0.422526  0.781118  1
  Ru  Ru12  1  0.102556  0.923933  0.779856  1
  Ru  Ru13  1  0.897444  0.076067  0.220144  1
