# generated using pymatgen
data_Dy6Ho(TmSn2)3
_symmetry_space_group_name_H-M   'P 1'
_cell_length_a   6.49792900
_cell_length_b   8.93732631
_cell_length_c   8.93898103
_cell_angle_alpha   119.99562722
_cell_angle_beta   90.00116528
_cell_angle_gamma   89.99862602
_symmetry_Int_Tables_number   1
_chemical_formula_structural   Dy6Ho(TmSn2)3
_chemical_formula_sum   'Dy6 Ho1 Tm3 Sn6'
_cell_volume   449.59384645
_cell_formula_units_Z   1
loop_
 _symmetry_equiv_pos_site_id
 _symmetry_equiv_pos_as_xyz
  1  'x, y, z'
loop_
 _atom_site_type_symbol
 _atom_site_label
 _atom_site_symmetry_multiplicity
 _atom_site_fract_x
 _atom_site_fract_y
 _atom_site_fract_z
 _atom_site_occupancy
  Dy  Dy0  1  0.750066  0.239445  0.000095  1
  Dy  Dy1  1  0.750056  0.760565  0.760520  1
  Dy  Dy2  1  0.750063  0.999860  0.239377  1
  Dy  Dy3  1  0.249941  0.760655  0.000100  1
  Dy  Dy4  1  0.249937  0.239516  0.239386  1
  Dy  Dy5  1  0.249935  0.999950  0.760516  1
  Ho  Ho6  1  0.499998  0.333365  0.666737  1
  Tm  Tm7  1  0.499998  0.666620  0.333274  1
  Tm  Tm8  1  0.000000  0.666635  0.333254  1
  Tm  Tm9  1  0.000004  0.333372  0.666731  1
  Sn  Sn10  1  0.750204  0.604567  0.000326  1
  Sn  Sn11  1  0.750205  0.395658  0.395314  1
  Sn  Sn12  1  0.750216  0.999701  0.604365  1
  Sn  Sn13  1  0.249785  0.395769  0.000330  1
  Sn  Sn14  1  0.249799  0.604673  0.604367  1
  Sn  Sn15  1  0.249791  0.999648  0.395307  1
