# generated using pymatgen
data_Li2Nb(PPd)3
_symmetry_space_group_name_H-M   'P 1'
_cell_length_a   6.43821557
_cell_length_b   6.65081278
_cell_length_c   3.60900000
_cell_angle_alpha   90.00000000
_cell_angle_beta   90.00000000
_cell_angle_gamma   121.09848191
_symmetry_Int_Tables_number   1
_chemical_formula_structural   Li2Nb(PPd)3
_chemical_formula_sum   'Li2 Nb1 P3 Pd3'
_cell_volume   132.32542881
_cell_formula_units_Z   1
loop_
 _symmetry_equiv_pos_site_id
 _symmetry_equiv_pos_as_xyz
  1  'x, y, z'
loop_
 _atom_site_type_symbol
 _atom_site_label
 _atom_site_symmetry_multiplicity
 _atom_site_fract_x
 _atom_site_fract_y
 _atom_site_fract_z
 _atom_site_occupancy
  Li  Li0  1  0.401979  0.409454  0.500000  1
  Li  Li1  1  0.598021  0.007475  0.500000  1
  Nb  Nb2  1  0.000000  0.598175  0.500000  1
  P  P3  1  0.688222  0.350868  0.000000  1
  P  P4  1  0.311778  0.662647  0.000000  1
  P  P5  1  0.000000  0.980736  0.500000  1
  Pd  Pd6  1  0.281542  0.018739  0.000000  1
  Pd  Pd7  1  0.718458  0.737197  0.000000  1
  Pd  Pd8  1  0.000000  0.234708  0.000000  1
