# generated using pymatgen
data_Tb16CdHg3Rh4
_symmetry_space_group_name_H-M   'P 1'
_cell_length_a   9.63401495
_cell_length_b   9.63401409
_cell_length_c   9.63401404
_cell_angle_alpha   60.09573107
_cell_angle_beta   60.09573521
_cell_angle_gamma   60.09573233
_symmetry_Int_Tables_number   1
_chemical_formula_structural   Tb16CdHg3Rh4
_chemical_formula_sum   'Tb16 Cd1 Hg3 Rh4'
_cell_volume   633.64777906
_cell_formula_units_Z   1
loop_
 _symmetry_equiv_pos_site_id
 _symmetry_equiv_pos_as_xyz
  1  'x, y, z'
loop_
 _atom_site_type_symbol
 _atom_site_label
 _atom_site_symmetry_multiplicity
 _atom_site_fract_x
 _atom_site_fract_y
 _atom_site_fract_z
 _atom_site_occupancy
  Tb  Tb0  1  0.301836  0.898815  0.898815  1
  Tb  Tb1  1  0.686634  0.312043  0.686634  1
  Tb  Tb2  1  0.312612  0.687968  0.312612  1
  Tb  Tb3  1  0.061863  0.439586  0.439586  1
  Tb  Tb4  1  0.687968  0.312612  0.312612  1
  Tb  Tb5  1  0.439586  0.061863  0.439586  1
  Tb  Tb6  1  0.440212  0.059903  0.059903  1
  Tb  Tb7  1  0.899269  0.899269  0.899269  1
  Tb  Tb8  1  0.059903  0.440212  0.059903  1
  Tb  Tb9  1  0.898815  0.301836  0.898815  1
  Tb  Tb10  1  0.312043  0.686634  0.686634  1
  Tb  Tb11  1  0.898815  0.898815  0.301836  1
  Tb  Tb12  1  0.439586  0.439586  0.061863  1
  Tb  Tb13  1  0.312612  0.312612  0.687968  1
  Tb  Tb14  1  0.686634  0.686634  0.312043  1
  Tb  Tb15  1  0.059903  0.059903  0.440212  1
  Cd  Cd16  1  0.670031  0.670031  0.670031  1
  Hg  Hg17  1  0.006261  0.664102  0.664102  1
  Hg  Hg18  1  0.664102  0.006261  0.664102  1
  Hg  Hg19  1  0.664102  0.664102  0.006261  1
  Rh  Rh20  1  0.106595  0.106595  0.676501  1
  Rh  Rh21  1  0.106595  0.676501  0.106595  1
  Rh  Rh22  1  0.107520  0.107520  0.107520  1
  Rh  Rh23  1  0.676501  0.106595  0.106595  1
