# generated using pymatgen
data_Tb3Y(OsRu3)2
_symmetry_space_group_name_H-M   'P 1'
_cell_length_a   5.32693164
_cell_length_b   5.18768834
_cell_length_c   9.00324282
_cell_angle_alpha   89.99999968
_cell_angle_beta   89.92078424
_cell_angle_gamma   119.13903264
_symmetry_Int_Tables_number   1
_chemical_formula_structural   Tb3Y(OsRu3)2
_chemical_formula_sum   'Tb3 Y1 Os2 Ru6'
_cell_volume   217.31156882
_cell_formula_units_Z   1
loop_
 _symmetry_equiv_pos_site_id
 _symmetry_equiv_pos_as_xyz
  1  'x, y, z'
loop_
 _atom_site_type_symbol
 _atom_site_label
 _atom_site_symmetry_multiplicity
 _atom_site_fract_x
 _atom_site_fract_y
 _atom_site_fract_z
 _atom_site_occupancy
  Tb  Tb0  1  0.666694  0.333347  0.567298  1
  Tb  Tb1  1  0.666385  0.333192  0.932876  1
  Tb  Tb2  1  0.328818  0.664409  0.066117  1
  Y  Y3  1  0.328959  0.664480  0.433431  1
  Os  Os4  1  0.834714  0.170887  0.250251  1
  Os  Os5  1  0.834714  0.663827  0.250251  1
  Ru  Ru6  1  0.990332  0.995166  0.500315  1
  Ru  Ru7  1  0.990184  0.995092  0.999814  1
  Ru  Ru8  1  0.351493  0.175746  0.250100  1
  Ru  Ru9  1  0.172683  0.830327  0.749858  1
  Ru  Ru10  1  0.172683  0.342356  0.749858  1
  Ru  Ru11  1  0.662340  0.831170  0.749829  1
