# generated using pymatgen
data_La6Ga(P3Rh5)4
_symmetry_space_group_name_H-M   'P 1'
_cell_length_a   13.66503900
_cell_length_b   13.66503832
_cell_length_c   3.95985200
_cell_angle_alpha   90.00000000
_cell_angle_beta   90.00000000
_cell_angle_gamma   119.99999438
_symmetry_Int_Tables_number   1
_chemical_formula_structural   La6Ga(P3Rh5)4
_chemical_formula_sum   'La6 Ga1 P12 Rh20'
_cell_volume   640.37053408
_cell_formula_units_Z   1
loop_
 _symmetry_equiv_pos_site_id
 _symmetry_equiv_pos_as_xyz
  1  'x, y, z'
loop_
 _atom_site_type_symbol
 _atom_site_label
 _atom_site_symmetry_multiplicity
 _atom_site_fract_x
 _atom_site_fract_y
 _atom_site_fract_z
 _atom_site_occupancy
  La  La0  1  0.529844  0.718147  0.247768  1
  La  La1  1  0.281853  0.811697  0.247768  1
  La  La2  1  0.188303  0.470156  0.247768  1
  La  La3  1  0.470156  0.281853  0.752232  1
  La  La4  1  0.718147  0.188303  0.752232  1
  La  La5  1  0.811697  0.529844  0.752232  1
  Ga  Ga6  1  0.000000  0.000000  0.000000  1
  P  P7  1  0.519977  0.132493  0.251272  1
  P  P8  1  0.867507  0.387486  0.251272  1
  P  P9  1  0.612514  0.480023  0.251272  1
  P  P10  1  0.949292  0.723801  0.250691  1
  P  P11  1  0.276199  0.225491  0.250691  1
  P  P12  1  0.774509  0.050708  0.250691  1
  P  P13  1  0.387486  0.519977  0.748728  1
  P  P14  1  0.480023  0.867507  0.748728  1
  P  P15  1  0.132493  0.612514  0.748728  1
  P  P16  1  0.723801  0.774509  0.749309  1
  P  P17  1  0.225491  0.949292  0.749309  1
  P  P18  1  0.050708  0.276199  0.749309  1
  Rh  Rh19  1  0.333333  0.666667  0.751122  1
  Rh  Rh20  1  0.924877  0.251817  0.251332  1
  Rh  Rh21  1  0.748183  0.673059  0.251332  1
  Rh  Rh22  1  0.326941  0.075123  0.251332  1
  Rh  Rh23  1  0.441595  0.026030  0.750596  1
  Rh  Rh24  1  0.973970  0.415566  0.750596  1
  Rh  Rh25  1  0.584434  0.558405  0.750596  1
  Rh  Rh26  1  0.666667  0.333333  0.248878  1
  Rh  Rh27  1  0.095346  0.197888  0.251059  1
  Rh  Rh28  1  0.802112  0.897458  0.251059  1
  Rh  Rh29  1  0.102542  0.904654  0.251059  1
  Rh  Rh30  1  0.026030  0.584434  0.249404  1
  Rh  Rh31  1  0.415566  0.441595  0.249404  1
  Rh  Rh32  1  0.558405  0.973970  0.249404  1
  Rh  Rh33  1  0.673059  0.924877  0.748668  1
  Rh  Rh34  1  0.075123  0.748183  0.748668  1
  Rh  Rh35  1  0.251817  0.326941  0.748668  1
  Rh  Rh36  1  0.904654  0.802112  0.748941  1
  Rh  Rh37  1  0.197888  0.102542  0.748941  1
  Rh  Rh38  1  0.897458  0.095346  0.748941  1
