# generated using pymatgen
data_Cs6MnS4
_symmetry_space_group_name_H-M   'P 1'
_cell_length_a   10.73006600
_cell_length_b   10.73006672
_cell_length_c   8.51353200
_cell_angle_alpha   90.00000000
_cell_angle_beta   90.00000000
_cell_angle_gamma   120.00000393
_symmetry_Int_Tables_number   1
_chemical_formula_structural   Cs6MnS4
_chemical_formula_sum   'Cs12 Mn2 S8'
_cell_volume   848.87785316
_cell_formula_units_Z   2
loop_
 _symmetry_equiv_pos_site_id
 _symmetry_equiv_pos_as_xyz
  1  'x, y, z'
loop_
 _atom_site_type_symbol
 _atom_site_label
 _atom_site_symmetry_multiplicity
 _atom_site_fract_x
 _atom_site_fract_y
 _atom_site_fract_z
 _atom_site_occupancy
  Cs  Cs0  1  0.531816  0.063631  0.364064  1
  Cs  Cs1  1  0.468184  0.531816  0.864064  1
  Cs  Cs2  1  0.936369  0.468184  0.364064  1
  Cs  Cs3  1  0.531816  0.468184  0.364064  1
  Cs  Cs4  1  0.146255  0.853745  0.542023  1
  Cs  Cs5  1  0.292510  0.146255  0.042023  1
  Cs  Cs6  1  0.063631  0.531816  0.864064  1
  Cs  Cs7  1  0.853745  0.707490  0.042023  1
  Cs  Cs8  1  0.853745  0.146255  0.042023  1
  Cs  Cs9  1  0.707490  0.853745  0.542023  1
  Cs  Cs10  1  0.146255  0.292510  0.542023  1
  Cs  Cs11  1  0.468184  0.936369  0.864064  1
  Mn  Mn12  1  0.666667  0.333333  0.753824  1
  Mn  Mn13  1  0.333333  0.666667  0.253824  1
  S  S14  1  0.794581  0.205419  0.663272  1
  S  S15  1  0.589162  0.794581  0.163272  1
  S  S16  1  0.205419  0.410838  0.163272  1
  S  S17  1  0.794581  0.589162  0.663272  1
  S  S18  1  0.410838  0.205419  0.663272  1
  S  S19  1  0.205419  0.794581  0.163272  1
  S  S20  1  0.666667  0.333333  0.045202  1
  S  S21  1  0.333333  0.666667  0.545202  1
