# generated using pymatgen
data_Sm4Y4Sc12Si15Tc
_symmetry_space_group_name_H-M   'P 1'
_cell_length_a   7.13102674
_cell_length_b   7.48642346
_cell_length_c   14.02354191
_cell_angle_alpha   90.03556822
_cell_angle_beta   89.95173983
_cell_angle_gamma   90.13594887
_symmetry_Int_Tables_number   1
_chemical_formula_structural   Sm4Y4Sc12Si15Tc
_chemical_formula_sum   'Sm4 Y4 Sc12 Si15 Tc1'
_cell_volume   748.65669162
_cell_formula_units_Z   1
loop_
 _symmetry_equiv_pos_site_id
 _symmetry_equiv_pos_as_xyz
  1  'x, y, z'
loop_
 _atom_site_type_symbol
 _atom_site_label
 _atom_site_symmetry_multiplicity
 _atom_site_fract_x
 _atom_site_fract_y
 _atom_site_fract_z
 _atom_site_occupancy
  Sm  Sm0  1  0.511789  0.324386  0.094982  1
  Sm  Sm1  1  0.011175  0.176842  0.405221  1
  Sm  Sm2  1  0.511380  0.324820  0.403844  1
  Sm  Sm3  1  0.488487  0.673708  0.596505  1
  Y  Y4  1  0.012040  0.178136  0.095840  1
  Y  Y5  1  0.990092  0.825906  0.903257  1
  Y  Y6  1  0.488045  0.676348  0.902518  1
  Y  Y7  1  0.989847  0.826463  0.597947  1
  Sc  Sc8  1  0.155271  0.496087  0.750402  1
  Sc  Sc9  1  0.839172  0.496355  0.249575  1
  Sc  Sc10  1  0.339321  0.004766  0.249452  1
  Sc  Sc11  1  0.667287  0.999493  0.750285  1
  Sc  Sc12  1  0.316003  0.170351  0.628424  1
  Sc  Sc13  1  0.673465  0.827255  0.373932  1
  Sc  Sc14  1  0.171786  0.678781  0.373682  1
  Sc  Sc15  1  0.672796  0.826656  0.125084  1
  Sc  Sc16  1  0.836437  0.319943  0.628139  1
  Sc  Sc17  1  0.315134  0.170710  0.872559  1
  Sc  Sc18  1  0.837815  0.318378  0.872680  1
  Sc  Sc19  1  0.172311  0.678739  0.125445  1
  Si  Si20  1  0.968376  0.881809  0.249124  1
  Si  Si21  1  0.469875  0.619405  0.249632  1
  Si  Si22  1  0.529391  0.385622  0.751178  1
  Si  Si23  1  0.284736  0.869001  0.751142  1
  Si  Si24  1  0.714277  0.126303  0.248674  1
  Si  Si25  1  0.212608  0.372988  0.248821  1
  Si  Si26  1  0.780628  0.626914  0.751430  1
  Si  Si27  1  0.156042  0.470338  0.537693  1
  Si  Si28  1  0.847961  0.540037  0.462274  1
  Si  Si29  1  0.346520  0.964189  0.460275  1
  Si  Si30  1  0.848273  0.537590  0.037978  1
  Si  Si31  1  0.655036  0.033611  0.539791  1
  Si  Si32  1  0.158566  0.469560  0.962416  1
  Si  Si33  1  0.654751  0.031452  0.959979  1
  Si  Si34  1  0.344372  0.963808  0.039654  1
  Tc  Tc35  1  0.028933  0.113246  0.750166  1
