# generated using pymatgen
data_TbHo4In2(NiHg)2
_symmetry_space_group_name_H-M   'P 1'
_cell_length_a   7.80177300
_cell_length_b   18.04448700
_cell_length_c   3.60600600
_cell_angle_alpha   90.00000000
_cell_angle_beta   90.00000000
_cell_angle_gamma   90.00000000
_symmetry_Int_Tables_number   1
_chemical_formula_structural   TbHo4In2(NiHg)2
_chemical_formula_sum   'Tb2 Ho8 In4 Ni4 Hg4'
_cell_volume   507.64988793
_cell_formula_units_Z   2
loop_
 _symmetry_equiv_pos_site_id
 _symmetry_equiv_pos_as_xyz
  1  'x, y, z'
loop_
 _atom_site_type_symbol
 _atom_site_label
 _atom_site_symmetry_multiplicity
 _atom_site_fract_x
 _atom_site_fract_y
 _atom_site_fract_z
 _atom_site_occupancy
  Tb  Tb0  1  0.500000  0.500000  0.000000  1
  Tb  Tb1  1  0.000000  0.000000  0.000000  1
  Ho  Ho2  1  0.757693  0.280961  0.000000  1
  Ho  Ho3  1  0.242307  0.719039  0.000000  1
  Ho  Ho4  1  0.742307  0.780961  0.000000  1
  Ho  Ho5  1  0.257693  0.219039  0.000000  1
  Ho  Ho6  1  0.614753  0.088824  0.000000  1
  Ho  Ho7  1  0.385247  0.911176  0.000000  1
  Ho  Ho8  1  0.885247  0.588824  0.000000  1
  Ho  Ho9  1  0.114753  0.411176  0.000000  1
  In  In10  1  0.568387  0.652324  0.500000  1
  In  In11  1  0.431613  0.347676  0.500000  1
  In  In12  1  0.931613  0.152324  0.500000  1
  In  In13  1  0.068387  0.847676  0.500000  1
  Ni  Ni14  1  0.541551  0.197784  0.500000  1
  Ni  Ni15  1  0.458449  0.802216  0.500000  1
  Ni  Ni16  1  0.958449  0.697784  0.500000  1
  Ni  Ni17  1  0.041551  0.302216  0.500000  1
  Hg  Hg18  1  0.706394  0.931267  0.500000  1
  Hg  Hg19  1  0.293606  0.068733  0.500000  1
  Hg  Hg20  1  0.793606  0.431267  0.500000  1
  Hg  Hg21  1  0.206394  0.568733  0.500000  1
