# generated using pymatgen
data_Dy5Ho2P12Ir13Rh4
_symmetry_space_group_name_H-M   'P 1'
_cell_length_a   12.74447664
_cell_length_b   13.02086782
_cell_length_c   3.97465500
_cell_angle_alpha   90.00000000
_cell_angle_beta   90.00000000
_cell_angle_gamma   119.41704515
_symmetry_Int_Tables_number   1
_chemical_formula_structural   Dy5Ho2P12Ir13Rh4
_chemical_formula_sum   'Dy5 Ho2 P12 Ir13 Rh4'
_cell_volume   574.53077866
_cell_formula_units_Z   1
loop_
 _symmetry_equiv_pos_site_id
 _symmetry_equiv_pos_as_xyz
  1  'x, y, z'
loop_
 _atom_site_type_symbol
 _atom_site_label
 _atom_site_symmetry_multiplicity
 _atom_site_fract_x
 _atom_site_fract_y
 _atom_site_fract_z
 _atom_site_occupancy
  Dy  Dy0  1  0.330116  0.662148  0.500000  1
  Dy  Dy1  1  0.667948  0.337867  0.500000  1
  Dy  Dy2  1  0.001546  0.815976  0.000000  1
  Dy  Dy3  1  0.185592  0.183133  0.000000  1
  Dy  Dy4  1  0.809392  0.999804  0.000000  1
  Ho  Ho5  1  0.998084  0.444517  0.500000  1
  Ho  Ho6  1  0.552413  0.556632  0.500000  1
  P  P7  1  0.008651  0.657837  0.500000  1
  P  P8  1  0.351959  0.341490  0.500000  1
  P  P9  1  0.641351  0.999876  0.500000  1
  P  P10  1  0.516320  0.692169  0.000000  1
  P  P11  1  0.309864  0.825723  0.000000  1
  P  P12  1  0.169403  0.478774  0.000000  1
  P  P13  1  0.483698  0.172652  0.000000  1
  P  P14  1  0.686192  0.518994  0.000000  1
  P  P15  1  0.826081  0.309884  0.000000  1
  P  P16  1  0.999721  0.174415  0.500000  1
  P  P17  1  0.825024  0.825778  0.500000  1
  P  P18  1  0.181744  0.998799  0.500000  1
  Ir  Ir19  1  0.477103  0.352858  0.000000  1
  Ir  Ir20  1  0.857002  0.500089  0.000000  1
  Ir  Ir21  1  0.639164  0.134161  0.000000  1
  Ir  Ir22  1  0.996592  0.270725  0.000000  1
  Ir  Ir23  1  0.725360  0.730091  0.000000  1
  Ir  Ir24  1  0.284812  0.999666  0.000000  1
  Ir  Ir25  1  0.623362  0.811395  0.500000  1
  Ir  Ir26  1  0.207338  0.826989  0.500000  1
  Ir  Ir27  1  0.181188  0.365253  0.500000  1
  Ir  Ir28  1  0.379068  0.171409  0.500000  1
  Ir  Ir29  1  0.814573  0.635163  0.500000  1
  Ir  Ir30  1  0.813499  0.189153  0.500000  1
  Ir  Ir31  1  0.004027  0.000122  0.500000  1
  Rh  Rh32  1  0.506619  0.869615  0.000000  1
  Rh  Rh33  1  0.122887  0.646431  0.000000  1
  Rh  Rh34  1  0.358151  0.497994  0.000000  1
  Rh  Rh35  1  0.464157  0.002418  0.500000  1
