# generated using pymatgen
data_BaAlCuP2
_symmetry_space_group_name_H-M   'P 1'
_cell_length_a   7.22004473
_cell_length_b   7.22004511
_cell_length_c   7.22004446
_cell_angle_alpha   148.40182922
_cell_angle_beta   148.40183057
_cell_angle_gamma   45.29252323
_symmetry_Int_Tables_number   1
_chemical_formula_structural   BaAlCuP2
_chemical_formula_sum   'Ba1 Al1 Cu1 P2'
_cell_volume   102.99529538
_cell_formula_units_Z   1
loop_
 _symmetry_equiv_pos_site_id
 _symmetry_equiv_pos_as_xyz
  1  'x, y, z'
loop_
 _atom_site_type_symbol
 _atom_site_label
 _atom_site_symmetry_multiplicity
 _atom_site_fract_x
 _atom_site_fract_y
 _atom_site_fract_z
 _atom_site_occupancy
  Ba  Ba0  1  0.000000  0.000000  0.000000  1
  Al  Al1  1  0.750000  0.250000  0.500000  1
  Cu  Cu2  1  0.250000  0.750000  0.500000  1
  P  P3  1  0.642181  0.642181  0.000000  1
  P  P4  1  0.357819  0.357819  0.000000  1
