# generated using pymatgen
data_Ti24PSe7
_symmetry_space_group_name_H-M   'P 1'
_cell_length_a   10.07786324
_cell_length_b   10.09309523
_cell_length_c   5.11226661
_cell_angle_alpha   89.91044178
_cell_angle_beta   89.98046559
_cell_angle_gamma   89.98425021
_symmetry_Int_Tables_number   1
_chemical_formula_structural   Ti24PSe7
_chemical_formula_sum   'Ti24 P1 Se7'
_cell_volume   520.00288600
_cell_formula_units_Z   1
loop_
 _symmetry_equiv_pos_site_id
 _symmetry_equiv_pos_as_xyz
  1  'x, y, z'
loop_
 _atom_site_type_symbol
 _atom_site_label
 _atom_site_symmetry_multiplicity
 _atom_site_fract_x
 _atom_site_fract_y
 _atom_site_fract_z
 _atom_site_occupancy
  Ti  Ti0  1  0.971877  0.853812  0.283602  1
  Ti  Ti1  1  0.356809  0.527366  0.785427  1
  Ti  Ti2  1  0.643903  0.472652  0.784118  1
  Ti  Ti3  1  0.026668  0.143165  0.286250  1
  Ti  Ti4  1  0.526577  0.643410  0.215338  1
  Ti  Ti5  1  0.139024  0.966649  0.716803  1
  Ti  Ti6  1  0.858166  0.021107  0.715513  1
  Ti  Ti7  1  0.473384  0.357636  0.215010  1
  Ti  Ti8  1  0.817272  0.284090  0.011533  1
  Ti  Ti9  1  0.788754  0.684361  0.515536  1
  Ti  Ti10  1  0.214948  0.317258  0.510545  1
  Ti  Ti11  1  0.177771  0.716825  0.007519  1
  Ti  Ti12  1  0.683671  0.215799  0.489015  1
  Ti  Ti13  1  0.719482  0.816946  0.986133  1
  Ti  Ti14  1  0.284188  0.182633  0.989402  1
  Ti  Ti15  1  0.317433  0.784805  0.489432  1
  Ti  Ti16  1  0.916824  0.397419  0.544131  1
  Ti  Ti17  1  0.899498  0.588516  0.030887  1
  Ti  Ti18  1  0.102753  0.415998  0.038607  1
  Ti  Ti19  1  0.080892  0.607635  0.550890  1
  Ti  Ti20  1  0.584428  0.102246  0.958316  1
  Ti  Ti21  1  0.603234  0.916309  0.458757  1
  Ti  Ti22  1  0.397301  0.083568  0.457290  1
  Ti  Ti23  1  0.416133  0.897619  0.959515  1
  P  P24  1  0.960221  0.794574  0.786672  1
  Se  Se25  1  0.461644  0.293523  0.712506  1
  Se  Se26  1  0.794309  0.038401  0.213177  1
  Se  Se27  1  0.205427  0.961181  0.213552  1
  Se  Se28  1  0.539236  0.706674  0.713774  1
  Se  Se29  1  0.038265  0.204342  0.787353  1
  Se  Se30  1  0.708331  0.463474  0.285825  1
  Se  Se31  1  0.291577  0.540008  0.287572  1
