# generated using pymatgen
data_Ti8Al14SiOs7
_symmetry_space_group_name_H-M   'P 1'
_cell_length_a   8.66288683
_cell_length_b   8.66288803
_cell_length_c   8.66288732
_cell_angle_alpha   120.15156549
_cell_angle_beta   120.00115245
_cell_angle_gamma   89.86784718
_symmetry_Int_Tables_number   1
_chemical_formula_structural   Ti8Al14SiOs7
_chemical_formula_sum   'Ti8 Al14 Si1 Os7'
_cell_volume   459.16551718
_cell_formula_units_Z   1
loop_
 _symmetry_equiv_pos_site_id
 _symmetry_equiv_pos_as_xyz
  1  'x, y, z'
loop_
 _atom_site_type_symbol
 _atom_site_label
 _atom_site_symmetry_multiplicity
 _atom_site_fract_x
 _atom_site_fract_y
 _atom_site_fract_z
 _atom_site_occupancy
  Ti  Ti0  1  0.795018  0.290554  0.078380  1
  Ti  Ti1  1  0.212176  0.290554  0.495537  1
  Ti  Ti2  1  0.207737  0.707737  0.500000  1
  Ti  Ti3  1  0.212176  0.716639  0.921620  1
  Ti  Ti4  1  0.795018  0.716639  0.504463  1
  Ti  Ti5  1  0.784603  0.284603  0.500000  1
  Ti  Ti6  1  0.378361  0.119354  0.740994  1
  Ti  Ti7  1  0.378361  0.637367  0.259006  1
  Al  Al8  1  0.158403  0.341150  0.182747  1
  Al  Al9  1  0.158403  0.975656  0.817253  1
  Al  Al10  1  0.155521  0.343723  0.811798  1
  Al  Al11  1  0.531925  0.343723  0.188202  1
  Al  Al12  1  0.843676  0.656725  0.813050  1
  Al  Al13  1  0.843676  0.030626  0.186950  1
  Al  Al14  1  0.841263  0.657686  0.183578  1
  Al  Al15  1  0.474107  0.657686  0.816422  1
  Al  Al16  1  0.378905  0.120420  0.258485  1
  Al  Al17  1  0.861935  0.120420  0.741515  1
  Al  Al18  1  0.619332  0.876726  0.257394  1
  Al  Al19  1  0.619332  0.361938  0.742606  1
  Al  Al20  1  0.620172  0.878955  0.741217  1
  Al  Al21  1  0.137736  0.878955  0.258783  1
  Si  Si22  1  0.997099  0.497099  0.500000  1
  Os  Os23  1  0.999246  0.999231  0.500283  1
  Os  Os24  1  0.498948  0.999231  0.999986  1
  Os  Os25  1  0.498725  0.498725  0.000000  1
  Os  Os26  1  0.498948  0.498962  0.499717  1
  Os  Os27  1  0.999246  0.498962  0.000014  1
  Os  Os28  1  0.000277  0.000277  0.000000  1
  Os  Os29  1  0.499674  0.999674  0.500000  1
