# generated using pymatgen
data_Dy3Ho3Co16(P6Ru)2
_symmetry_space_group_name_H-M   'P 1'
_cell_length_a   3.71097300
_cell_length_b   10.53422903
_cell_length_c   12.26056403
_cell_angle_alpha   89.99142562
_cell_angle_beta   90.00000000
_cell_angle_gamma   90.00000000
_symmetry_Int_Tables_number   1
_chemical_formula_structural   Dy3Ho3Co16(P6Ru)2
_chemical_formula_sum   'Dy3 Ho3 Co16 P12 Ru2'
_cell_volume   479.29290032
_cell_formula_units_Z   1
loop_
 _symmetry_equiv_pos_site_id
 _symmetry_equiv_pos_as_xyz
  1  'x, y, z'
loop_
 _atom_site_type_symbol
 _atom_site_label
 _atom_site_symmetry_multiplicity
 _atom_site_fract_x
 _atom_site_fract_y
 _atom_site_fract_z
 _atom_site_occupancy
  Dy  Dy0  1  0.000000  0.500057  0.524313  1
  Dy  Dy1  1  0.500000  0.999962  0.475456  1
  Dy  Dy2  1  0.000000  0.317141  0.793142  1
  Ho  Ho3  1  0.500000  0.817090  0.206969  1
  Ho  Ho4  1  0.500000  0.182911  0.206913  1
  Ho  Ho5  1  0.000000  0.682930  0.793126  1
  Co  Co6  1  0.500000  0.500285  0.704048  1
  Co  Co7  1  0.000000  0.999980  0.295803  1
  Co  Co8  1  0.000000  0.500163  0.986257  1
  Co  Co9  1  0.500000  0.999830  0.013973  1
  Co  Co10  1  0.500000  0.332364  0.990759  1
  Co  Co11  1  0.500000  0.667728  0.990562  1
  Co  Co12  1  0.000000  0.167544  0.009665  1
  Co  Co13  1  0.000000  0.832381  0.009559  1
  Co  Co14  1  0.500000  0.297148  0.430869  1
  Co  Co15  1  0.500000  0.702877  0.430982  1
  Co  Co16  1  0.000000  0.202837  0.568778  1
  Co  Co17  1  0.000000  0.797122  0.568966  1
  Co  Co18  1  0.500000  0.878902  0.707917  1
  Co  Co19  1  0.500000  0.120742  0.707727  1
  Co  Co20  1  0.000000  0.621029  0.292107  1
  Co  Co21  1  0.000000  0.378982  0.292052  1
  P  P22  1  0.500000  0.500300  0.881950  1
  P  P23  1  0.000000  0.999933  0.118314  1
  P  P24  1  0.500000  0.499995  0.349797  1
  P  P25  1  0.000000  0.000029  0.650164  1
  P  P26  1  0.500000  0.311278  0.615986  1
  P  P27  1  0.500000  0.688757  0.616324  1
  P  P28  1  0.000000  0.188702  0.383533  1
  P  P29  1  0.000000  0.811245  0.383632  1
  P  P30  1  0.500000  0.846393  0.893379  1
  P  P31  1  0.500000  0.153351  0.893584  1
  P  P32  1  0.000000  0.653659  0.106716  1
  P  P33  1  0.000000  0.346386  0.106663  1
  Ru  Ru34  1  0.500000  0.500052  0.159262  1
  Ru  Ru35  1  0.000000  0.999915  0.840754  1
