# generated using pymatgen
data_Lu6Fe17MoP12
_symmetry_space_group_name_H-M   'P 1'
_cell_length_a   3.68261100
_cell_length_b   10.47438300
_cell_length_c   12.18149100
_cell_angle_alpha   90.00000000
_cell_angle_beta   90.00000000
_cell_angle_gamma   90.00000000
_symmetry_Int_Tables_number   1
_chemical_formula_structural   Lu6Fe17MoP12
_chemical_formula_sum   'Lu6 Fe17 Mo1 P12'
_cell_volume   469.87760316
_cell_formula_units_Z   1
loop_
 _symmetry_equiv_pos_site_id
 _symmetry_equiv_pos_as_xyz
  1  'x, y, z'
loop_
 _atom_site_type_symbol
 _atom_site_label
 _atom_site_symmetry_multiplicity
 _atom_site_fract_x
 _atom_site_fract_y
 _atom_site_fract_z
 _atom_site_occupancy
  Lu  Lu0  1  0.000000  0.500000  0.526861  1
  Lu  Lu1  1  0.500000  0.000000  0.473763  1
  Lu  Lu2  1  0.500000  0.822034  0.207918  1
  Lu  Lu3  1  0.500000  0.177966  0.207918  1
  Lu  Lu4  1  0.000000  0.679022  0.792744  1
  Lu  Lu5  1  0.000000  0.320978  0.792744  1
  Fe  Fe6  1  0.000000  0.000000  0.845621  1
  Fe  Fe7  1  0.500000  0.500000  0.698382  1
  Fe  Fe8  1  0.000000  0.000000  0.300648  1
  Fe  Fe9  1  0.000000  0.500000  0.987179  1
  Fe  Fe10  1  0.500000  0.000000  0.009670  1
  Fe  Fe11  1  0.500000  0.324242  0.994170  1
  Fe  Fe12  1  0.500000  0.675758  0.994170  1
  Fe  Fe13  1  0.000000  0.170501  0.002443  1
  Fe  Fe14  1  0.000000  0.829499  0.002443  1
  Fe  Fe15  1  0.500000  0.298422  0.431889  1
  Fe  Fe16  1  0.500000  0.701578  0.431889  1
  Fe  Fe17  1  0.000000  0.199694  0.569939  1
  Fe  Fe18  1  0.000000  0.800306  0.569939  1
  Fe  Fe19  1  0.500000  0.882173  0.706712  1
  Fe  Fe20  1  0.500000  0.117827  0.706712  1
  Fe  Fe21  1  0.000000  0.620741  0.295489  1
  Fe  Fe22  1  0.000000  0.379259  0.295489  1
  Mo  Mo23  1  0.500000  0.500000  0.152144  1
  P  P24  1  0.500000  0.500000  0.882366  1
  P  P25  1  0.000000  0.000000  0.117402  1
  P  P26  1  0.500000  0.500000  0.349266  1
  P  P27  1  0.000000  0.000000  0.658054  1
  P  P28  1  0.500000  0.307101  0.615346  1
  P  P29  1  0.500000  0.692899  0.615346  1
  P  P30  1  0.000000  0.191105  0.386106  1
  P  P31  1  0.000000  0.808895  0.386106  1
  P  P32  1  0.500000  0.851596  0.884952  1
  P  P33  1  0.500000  0.148404  0.884952  1
  P  P34  1  0.000000  0.655808  0.111613  1
  P  P35  1  0.000000  0.344192  0.111613  1
