# generated using pymatgen
data_Tb8GaCuPd23
_symmetry_space_group_name_H-M   'P 1'
_cell_length_a   8.39642900
_cell_length_b   8.34711300
_cell_length_c   8.34161600
_cell_angle_alpha   90.00000000
_cell_angle_beta   90.00000000
_cell_angle_gamma   90.00000000
_symmetry_Int_Tables_number   1
_chemical_formula_structural   Tb8GaCuPd23
_chemical_formula_sum   'Tb8 Ga1 Cu1 Pd23'
_cell_volume   584.63001232
_cell_formula_units_Z   1
loop_
 _symmetry_equiv_pos_site_id
 _symmetry_equiv_pos_as_xyz
  1  'x, y, z'
loop_
 _atom_site_type_symbol
 _atom_site_label
 _atom_site_symmetry_multiplicity
 _atom_site_fract_x
 _atom_site_fract_y
 _atom_site_fract_z
 _atom_site_occupancy
  Tb  Tb0  1  0.255543  0.250153  0.747902  1
  Tb  Tb1  1  0.251013  0.747111  0.252369  1
  Tb  Tb2  1  0.748987  0.252889  0.252369  1
  Tb  Tb3  1  0.744457  0.749847  0.747902  1
  Tb  Tb4  1  0.748987  0.747111  0.252369  1
  Tb  Tb5  1  0.744457  0.250153  0.747902  1
  Tb  Tb6  1  0.255543  0.749847  0.747902  1
  Tb  Tb7  1  0.251013  0.252889  0.252369  1
  Ga  Ga8  1  0.000000  0.000000  0.002903  1
  Cu  Cu9  1  0.000000  0.500000  0.735118  1
  Pd  Pd10  1  0.500000  0.500000  0.747279  1
  Pd  Pd11  1  0.500000  0.253217  0.499416  1
  Pd  Pd12  1  0.249921  0.500000  0.504458  1
  Pd  Pd13  1  0.500000  0.500000  0.252863  1
  Pd  Pd14  1  0.500000  0.746783  0.499416  1
  Pd  Pd15  1  0.750079  0.500000  0.504458  1
  Pd  Pd16  1  0.000000  0.000000  0.709192  1
  Pd  Pd17  1  0.000000  0.295369  0.989375  1
  Pd  Pd18  1  0.290500  0.000000  0.000844  1
  Pd  Pd19  1  0.000000  0.000000  0.295549  1
  Pd  Pd20  1  0.000000  0.704631  0.989375  1
  Pd  Pd21  1  0.709500  0.000000  0.000844  1
  Pd  Pd22  1  0.500000  0.259908  0.001045  1
  Pd  Pd23  1  0.260661  0.000000  0.499992  1
  Pd  Pd24  1  0.000000  0.264910  0.506316  1
  Pd  Pd25  1  0.500000  0.000000  0.740715  1
  Pd  Pd26  1  0.259974  0.500000  0.997394  1
  Pd  Pd27  1  0.000000  0.500000  0.257625  1
  Pd  Pd28  1  0.500000  0.740092  0.001045  1
  Pd  Pd29  1  0.000000  0.735090  0.506316  1
  Pd  Pd30  1  0.500000  0.000000  0.259995  1
  Pd  Pd31  1  0.739339  0.000000  0.499992  1
  Pd  Pd32  1  0.740026  0.500000  0.997394  1
