# generated using pymatgen
data_Sr5NbWN7
_symmetry_space_group_name_H-M   'P 1'
_cell_length_a   6.51721670
_cell_length_b   9.48920429
_cell_length_c   9.49800254
_cell_angle_alpha   115.43382470
_cell_angle_beta   97.00255920
_cell_angle_gamma   88.86119298
_symmetry_Int_Tables_number   1
_chemical_formula_structural   Sr5NbWN7
_chemical_formula_sum   'Sr10 Nb2 W2 N14'
_cell_volume   526.15577067
_cell_formula_units_Z   2
loop_
 _symmetry_equiv_pos_site_id
 _symmetry_equiv_pos_as_xyz
  1  'x, y, z'
loop_
 _atom_site_type_symbol
 _atom_site_label
 _atom_site_symmetry_multiplicity
 _atom_site_fract_x
 _atom_site_fract_y
 _atom_site_fract_z
 _atom_site_occupancy
  Sr  Sr0  1  0.846192  0.593665  0.326754  1
  Sr  Sr1  1  0.259196  0.987416  0.553250  1
  Sr  Sr2  1  0.706679  0.416223  0.861062  1
  Sr  Sr3  1  0.293321  0.583777  0.138938  1
  Sr  Sr4  1  0.397527  0.797221  0.930761  1
  Sr  Sr5  1  0.602473  0.202779  0.069239  1
  Sr  Sr6  1  0.153808  0.406335  0.673246  1
  Sr  Sr7  1  0.898519  0.850596  0.759282  1
  Sr  Sr8  1  0.101481  0.149404  0.240718  1
  Sr  Sr9  1  0.740804  0.012584  0.446750  1
  Nb  Nb10  1  0.583148  0.351405  0.474082  1
  Nb  Nb11  1  0.416852  0.648595  0.525918  1
  W  W12  1  0.122789  0.216516  0.917090  1
  W  W13  1  0.877211  0.783484  0.082910  1
  N  N14  1  0.520827  0.546763  0.669324  1
  N  N15  1  0.479173  0.453237  0.330676  1
  N  N16  1  0.139984  0.713980  0.553039  1
  N  N17  1  0.860016  0.286020  0.446961  1
  N  N18  1  0.412233  0.183715  0.464468  1
  N  N19  1  0.587767  0.816285  0.535532  1
  N  N20  1  0.954708  0.138524  0.721234  1
  N  N21  1  0.045292  0.861476  0.278766  1
  N  N22  1  0.234447  0.053787  0.963344  1
  N  N23  1  0.765553  0.946213  0.036656  1
  N  N24  1  0.354531  0.328659  0.906519  1
  N  N25  1  0.963722  0.347722  0.076820  1
  N  N26  1  0.036278  0.652278  0.923180  1
  N  N27  1  0.645469  0.671341  0.093481  1
