# generated using pymatgen
data_Er5CoSiTe2
_symmetry_space_group_name_H-M   'P 1'
_cell_length_a   7.70184071
_cell_length_b   7.70184099
_cell_length_c   14.78334200
_cell_angle_alpha   90.00000000
_cell_angle_beta   90.00000000
_cell_angle_gamma   149.48214120
_symmetry_Int_Tables_number   1
_chemical_formula_structural   Er5CoSiTe2
_chemical_formula_sum   'Er10 Co2 Si2 Te4'
_cell_volume   445.30780325
_cell_formula_units_Z   2
loop_
 _symmetry_equiv_pos_site_id
 _symmetry_equiv_pos_as_xyz
  1  'x, y, z'
loop_
 _atom_site_type_symbol
 _atom_site_label
 _atom_site_symmetry_multiplicity
 _atom_site_fract_x
 _atom_site_fract_y
 _atom_site_fract_z
 _atom_site_occupancy
  Er  Er0  1  0.612848  0.387152  0.250000  1
  Er  Er1  1  0.740826  0.259174  0.634219  1
  Er  Er2  1  0.963901  0.036099  0.121444  1
  Er  Er3  1  0.036099  0.963901  0.878556  1
  Er  Er4  1  0.387152  0.612848  0.750000  1
  Er  Er5  1  0.963901  0.036099  0.378556  1
  Er  Er6  1  0.036099  0.963901  0.621444  1
  Er  Er7  1  0.259174  0.740826  0.134219  1
  Er  Er8  1  0.259174  0.740826  0.365781  1
  Er  Er9  1  0.740826  0.259174  0.865781  1
  Co  Co10  1  0.817623  0.182377  0.250000  1
  Co  Co11  1  0.182377  0.817623  0.750000  1
  Si  Si12  1  0.415776  0.584224  0.250000  1
  Si  Si13  1  0.584224  0.415776  0.750000  1
  Te  Te14  1  0.615578  0.384422  0.037524  1
  Te  Te15  1  0.615578  0.384422  0.462476  1
  Te  Te16  1  0.384422  0.615578  0.537524  1
  Te  Te17  1  0.384422  0.615578  0.962476  1
