# generated using pymatgen
data_Dy5HoSi4(GeRu2)2
_symmetry_space_group_name_H-M   'P 1'
_cell_length_a   5.75329519
_cell_length_b   5.75329564
_cell_length_c   13.89943633
_cell_angle_alpha   90.02311058
_cell_angle_beta   89.97688872
_cell_angle_gamma   137.36213988
_symmetry_Int_Tables_number   1
_chemical_formula_structural   Dy5HoSi4(GeRu2)2
_chemical_formula_sum   'Dy5 Ho1 Si4 Ge2 Ru4'
_cell_volume   311.63876042
_cell_formula_units_Z   1
loop_
 _symmetry_equiv_pos_site_id
 _symmetry_equiv_pos_as_xyz
  1  'x, y, z'
loop_
 _atom_site_type_symbol
 _atom_site_label
 _atom_site_symmetry_multiplicity
 _atom_site_fract_x
 _atom_site_fract_y
 _atom_site_fract_z
 _atom_site_occupancy
  Dy  Dy0  1  0.855379  0.144621  0.250031  1
  Dy  Dy1  1  0.144563  0.855437  0.749902  1
  Dy  Dy2  1  0.424484  0.575516  0.887014  1
  Dy  Dy3  1  0.575523  0.424477  0.112984  1
  Dy  Dy4  1  0.575509  0.424491  0.387143  1
  Ho  Ho5  1  0.424295  0.575705  0.612700  1
  Si  Si6  1  0.117690  0.882310  0.538941  1
  Si  Si7  1  0.882252  0.117748  0.461276  1
  Si  Si8  1  0.882128  0.117872  0.038957  1
  Si  Si9  1  0.117847  0.882153  0.961128  1
  Ge  Ge10  1  0.163292  0.836708  0.250030  1
  Ge  Ge11  1  0.836947  0.163053  0.749622  1
  Ru  Ru12  1  0.711804  0.288196  0.578647  1
  Ru  Ru13  1  0.288208  0.711792  0.421669  1
  Ru  Ru14  1  0.288093  0.711907  0.078498  1
  Ru  Ru15  1  0.711986  0.288014  0.921457  1
