# generated using pymatgen
data_Ho3LuZn2Pt3
_symmetry_space_group_name_H-M   'P 1'
_cell_length_a   7.38227400
_cell_length_b   7.42827024
_cell_length_c   4.03915000
_cell_angle_alpha   90.00000000
_cell_angle_beta   90.00000000
_cell_angle_gamma   119.79537909
_symmetry_Int_Tables_number   1
_chemical_formula_structural   Ho3LuZn2Pt3
_chemical_formula_sum   'Ho3 Lu1 Zn2 Pt3'
_cell_volume   192.21631665
_cell_formula_units_Z   1
loop_
 _symmetry_equiv_pos_site_id
 _symmetry_equiv_pos_as_xyz
  1  'x, y, z'
loop_
 _atom_site_type_symbol
 _atom_site_label
 _atom_site_symmetry_multiplicity
 _atom_site_fract_x
 _atom_site_fract_y
 _atom_site_fract_z
 _atom_site_occupancy
  Ho  Ho0  1  0.619839  0.000000  0.000000  1
  Ho  Ho1  1  0.419537  0.442275  0.000000  1
  Ho  Ho2  1  0.977261  0.557725  0.000000  1
  Lu  Lu3  1  0.239675  0.000000  0.500001  1
  Zn  Zn4  1  0.007298  0.256891  0.500001  1
  Zn  Zn5  1  0.750406  0.743109  0.500001  1
  Pt  Pt6  1  0.994564  0.000000  0.000000  1
  Pt  Pt7  1  0.658512  0.325603  0.500001  1
  Pt  Pt8  1  0.332909  0.674397  0.500001  1
