# generated using pymatgen
data_Dy2ErLu5(CdNi)2
_symmetry_space_group_name_H-M   'P 1'
_cell_length_a   9.41374920
_cell_length_b   9.41374881
_cell_length_c   9.40648300
_cell_angle_alpha   60.02552513
_cell_angle_beta   60.02552649
_cell_angle_gamma   59.94894615
_symmetry_Int_Tables_number   1
_chemical_formula_structural   Dy2ErLu5(CdNi)2
_chemical_formula_sum   'Dy4 Er2 Lu10 Cd4 Ni4'
_cell_volume   589.43644163
_cell_formula_units_Z   2
loop_
 _symmetry_equiv_pos_site_id
 _symmetry_equiv_pos_as_xyz
  1  'x, y, z'
loop_
 _atom_site_type_symbol
 _atom_site_label
 _atom_site_symmetry_multiplicity
 _atom_site_fract_x
 _atom_site_fract_y
 _atom_site_fract_z
 _atom_site_occupancy
  Dy  Dy0  1  0.349896  0.349896  0.349961  1
  Dy  Dy1  1  0.349896  0.349896  0.950249  1
  Dy  Dy2  1  0.349961  0.950249  0.349896  1
  Dy  Dy3  1  0.950249  0.349961  0.349896  1
  Er  Er4  1  0.565214  0.565214  0.934786  1
  Er  Er5  1  0.934786  0.934786  0.565214  1
  Lu  Lu6  1  0.812664  0.187336  0.187336  1
  Lu  Lu7  1  0.187336  0.812664  0.812664  1
  Lu  Lu8  1  0.187336  0.812664  0.187336  1
  Lu  Lu9  1  0.812664  0.187336  0.812664  1
  Lu  Lu10  1  0.187081  0.187081  0.812919  1
  Lu  Lu11  1  0.812919  0.812919  0.187081  1
  Lu  Lu12  1  0.936422  0.563578  0.563578  1
  Lu  Lu13  1  0.563578  0.936422  0.936422  1
  Lu  Lu14  1  0.563578  0.936422  0.563578  1
  Lu  Lu15  1  0.936422  0.563578  0.936422  1
  Cd  Cd16  1  0.582090  0.582090  0.581139  1
  Cd  Cd17  1  0.582090  0.582090  0.254682  1
  Cd  Cd18  1  0.581139  0.254682  0.582090  1
  Cd  Cd19  1  0.254682  0.581139  0.582090  1
  Ni  Ni20  1  0.141617  0.141617  0.140544  1
  Ni  Ni21  1  0.141617  0.141617  0.576224  1
  Ni  Ni22  1  0.140544  0.576224  0.141617  1
  Ni  Ni23  1  0.576224  0.140544  0.141617  1
