# generated using pymatgen
data_Th8NiRu6Au
_symmetry_space_group_name_H-M   'P 1'
_cell_length_a   4.09080200
_cell_length_b   6.04734551
_cell_length_c   15.02227309
_cell_angle_alpha   90.21156695
_cell_angle_beta   90.00000000
_cell_angle_gamma   90.00000000
_symmetry_Int_Tables_number   1
_chemical_formula_structural   Th8NiRu6Au
_chemical_formula_sum   'Th8 Ni1 Ru6 Au1'
_cell_volume   371.62586608
_cell_formula_units_Z   1
loop_
 _symmetry_equiv_pos_site_id
 _symmetry_equiv_pos_as_xyz
  1  'x, y, z'
loop_
 _atom_site_type_symbol
 _atom_site_label
 _atom_site_symmetry_multiplicity
 _atom_site_fract_x
 _atom_site_fract_y
 _atom_site_fract_z
 _atom_site_occupancy
  Th  Th0  1  0.250000  0.543188  0.289579  1
  Th  Th1  1  0.750000  0.449150  0.710529  1
  Th  Th2  1  0.250000  0.944498  0.781547  1
  Th  Th3  1  0.250000  0.757965  0.535281  1
  Th  Th4  1  0.250000  0.745629  0.032648  1
  Th  Th5  1  0.750000  0.258023  0.948577  1
  Th  Th6  1  0.750000  0.024192  0.227504  1
  Th  Th7  1  0.750000  0.245398  0.466026  1
  Ni  Ni8  1  0.250000  0.261123  0.600380  1
  Ru  Ru9  1  0.250000  0.059206  0.355495  1
  Ru  Ru10  1  0.750000  0.581621  0.151876  1
  Ru  Ru11  1  0.750000  0.714722  0.407262  1
  Ru  Ru12  1  0.250000  0.436360  0.843080  1
  Ru  Ru13  1  0.750000  0.947854  0.645500  1
  Ru  Ru14  1  0.750000  0.785487  0.901916  1
  Au  Au15  1  0.250000  0.245585  0.102798  1
