# generated using pymatgen
data_Pr8Si13Rh3
_symmetry_space_group_name_H-M   'P 1'
_cell_length_a   8.24719400
_cell_length_b   8.24719492
_cell_length_c   8.58257400
_cell_angle_alpha   90.00000000
_cell_angle_beta   90.00000000
_cell_angle_gamma   120.00000433
_symmetry_Int_Tables_number   1
_chemical_formula_structural   Pr8Si13Rh3
_chemical_formula_sum   'Pr8 Si13 Rh3'
_cell_volume   505.54595428
_cell_formula_units_Z   1
loop_
 _symmetry_equiv_pos_site_id
 _symmetry_equiv_pos_as_xyz
  1  'x, y, z'
loop_
 _atom_site_type_symbol
 _atom_site_label
 _atom_site_symmetry_multiplicity
 _atom_site_fract_x
 _atom_site_fract_y
 _atom_site_fract_z
 _atom_site_occupancy
  Pr  Pr0  1  0.499771  0.500229  0.752079  1
  Pr  Pr1  1  0.500541  0.499459  0.247858  1
  Pr  Pr2  1  0.000459  0.500229  0.752079  1
  Pr  Pr3  1  0.998918  0.499459  0.247858  1
  Pr  Pr4  1  0.499771  0.999541  0.752079  1
  Pr  Pr5  1  0.500541  0.001082  0.247858  1
  Pr  Pr6  1  0.000000  0.000000  0.751710  1
  Pr  Pr7  1  0.000000  0.000000  0.247895  1
  Si  Si8  1  0.832716  0.167284  0.999680  1
  Si  Si9  1  0.167910  0.832090  0.000041  1
  Si  Si10  1  0.334567  0.167284  0.999680  1
  Si  Si11  1  0.170040  0.829960  0.500937  1
  Si  Si12  1  0.664181  0.832090  0.000041  1
  Si  Si13  1  0.836877  0.163123  0.499401  1
  Si  Si14  1  0.832716  0.665433  0.999680  1
  Si  Si15  1  0.659921  0.829960  0.500937  1
  Si  Si16  1  0.167910  0.335819  0.000041  1
  Si  Si17  1  0.326246  0.163123  0.499401  1
  Si  Si18  1  0.170040  0.340079  0.500937  1
  Si  Si19  1  0.836877  0.673754  0.499401  1
  Si  Si20  1  0.666667  0.333333  0.500982  1
  Rh  Rh21  1  0.666667  0.333333  0.002231  1
  Rh  Rh22  1  0.333333  0.666667  0.999523  1
  Rh  Rh23  1  0.333333  0.666667  0.497673  1
