# generated using pymatgen
data_LiNd(InIr4)2
_symmetry_space_group_name_H-M   'P 1'
_cell_length_a   5.18706200
_cell_length_b   8.82062800
_cell_length_c   8.82062800
_cell_angle_alpha   90.00000000
_cell_angle_beta   90.00000000
_cell_angle_gamma   90.00000000
_symmetry_Int_Tables_number   1
_chemical_formula_structural   LiNd(InIr4)2
_chemical_formula_sum   'Li2 Nd2 In4 Ir16'
_cell_volume   403.57146583
_cell_formula_units_Z   2
loop_
 _symmetry_equiv_pos_site_id
 _symmetry_equiv_pos_as_xyz
  1  'x, y, z'
loop_
 _atom_site_type_symbol
 _atom_site_label
 _atom_site_symmetry_multiplicity
 _atom_site_fract_x
 _atom_site_fract_y
 _atom_site_fract_z
 _atom_site_occupancy
  Li  Li0  1  0.500000  0.000000  0.500000  1
  Li  Li1  1  0.500000  0.500000  0.000000  1
  Nd  Nd2  1  0.000000  0.500000  0.500000  1
  Nd  Nd3  1  0.000000  0.000000  0.000000  1
  In  In4  1  0.000000  0.621437  0.121437  1
  In  In5  1  0.000000  0.378563  0.878563  1
  In  In6  1  0.000000  0.878563  0.621437  1
  In  In7  1  0.000000  0.121437  0.378563  1
  Ir  Ir8  1  0.761661  0.176295  0.676295  1
  Ir  Ir9  1  0.761661  0.823705  0.323705  1
  Ir  Ir10  1  0.761661  0.323705  0.176295  1
  Ir  Ir11  1  0.761661  0.676295  0.823705  1
  Ir  Ir12  1  0.238339  0.823705  0.323705  1
  Ir  Ir13  1  0.238339  0.176295  0.676295  1
  Ir  Ir14  1  0.238339  0.676295  0.823705  1
  Ir  Ir15  1  0.238339  0.323705  0.176295  1
  Ir  Ir16  1  0.500000  0.707345  0.567042  1
  Ir  Ir17  1  0.500000  0.292655  0.432958  1
  Ir  Ir18  1  0.500000  0.792655  0.067042  1
  Ir  Ir19  1  0.500000  0.207345  0.932958  1
  Ir  Ir20  1  0.500000  0.567042  0.292655  1
  Ir  Ir21  1  0.500000  0.432958  0.707345  1
  Ir  Ir22  1  0.500000  0.067042  0.207345  1
  Ir  Ir23  1  0.500000  0.932958  0.792655  1
