# generated using pymatgen
data_LaTm2RuO7
_symmetry_space_group_name_H-M   'P 1'
_cell_length_a   6.41957991
_cell_length_b   6.41957903
_cell_length_c   7.49888600
_cell_angle_alpha   90.00000000
_cell_angle_beta   90.00000000
_cell_angle_gamma   109.71874112
_symmetry_Int_Tables_number   1
_chemical_formula_structural   LaTm2RuO7
_chemical_formula_sum   'La2 Tm4 Ru2 O14'
_cell_volume   290.91476115
_cell_formula_units_Z   2
loop_
 _symmetry_equiv_pos_site_id
 _symmetry_equiv_pos_as_xyz
  1  'x, y, z'
loop_
 _atom_site_type_symbol
 _atom_site_label
 _atom_site_symmetry_multiplicity
 _atom_site_fract_x
 _atom_site_fract_y
 _atom_site_fract_z
 _atom_site_occupancy
  La  La0  1  0.000000  0.000000  0.500000  1
  La  La1  1  0.000000  0.000000  0.000000  1
  Tm  Tm2  1  0.484331  0.935533  0.750000  1
  Tm  Tm3  1  0.515669  0.064467  0.250000  1
  Tm  Tm4  1  0.935533  0.484331  0.750000  1
  Tm  Tm5  1  0.064467  0.515669  0.250000  1
  Ru  Ru6  1  0.500000  0.500000  0.500000  1
  Ru  Ru7  1  0.500000  0.500000  0.000000  1
  O  O8  1  0.592331  0.592331  0.750000  1
  O  O9  1  0.407669  0.407669  0.250000  1
  O  O10  1  0.834979  0.122558  0.750000  1
  O  O11  1  0.165021  0.877442  0.250000  1
  O  O12  1  0.122558  0.834979  0.750000  1
  O  O13  1  0.877442  0.165021  0.250000  1
  O  O14  1  0.442250  0.180156  0.963442  1
  O  O15  1  0.557750  0.819844  0.463442  1
  O  O16  1  0.180156  0.442250  0.963442  1
  O  O17  1  0.819844  0.557750  0.463442  1
  O  O18  1  0.442250  0.180156  0.536558  1
  O  O19  1  0.557750  0.819844  0.036558  1
  O  O20  1  0.819844  0.557750  0.036558  1
  O  O21  1  0.180156  0.442250  0.536558  1
