# generated using pymatgen
data_CaDy(Cu2P)4
_symmetry_space_group_name_H-M   'P 1'
_cell_length_a   7.25895784
_cell_length_b   7.25895784
_cell_length_c   3.79685800
_cell_angle_alpha   90.00000000
_cell_angle_beta   90.00000000
_cell_angle_gamma   89.52698014
_symmetry_Int_Tables_number   1
_chemical_formula_structural   CaDy(Cu2P)4
_chemical_formula_sum   'Ca1 Dy1 Cu8 P4'
_cell_volume   200.05900444
_cell_formula_units_Z   1
loop_
 _symmetry_equiv_pos_site_id
 _symmetry_equiv_pos_as_xyz
  1  'x, y, z'
loop_
 _atom_site_type_symbol
 _atom_site_label
 _atom_site_symmetry_multiplicity
 _atom_site_fract_x
 _atom_site_fract_y
 _atom_site_fract_z
 _atom_site_occupancy
  Ca  Ca0  1  0.500000  0.500000  0.500000  1
  Dy  Dy1  1  0.000000  0.000000  0.000000  1
  Cu  Cu2  1  0.664961  0.916156  0.500000  1
  Cu  Cu3  1  0.162854  0.584238  0.000000  1
  Cu  Cu4  1  0.415762  0.837146  0.000000  1
  Cu  Cu5  1  0.916156  0.664961  0.500000  1
  Cu  Cu6  1  0.837146  0.415762  0.000000  1
  Cu  Cu7  1  0.584238  0.162854  0.000000  1
  Cu  Cu8  1  0.083844  0.335039  0.500000  1
  Cu  Cu9  1  0.335039  0.083844  0.500000  1
  P  P10  1  0.281244  0.281244  0.000000  1
  P  P11  1  0.718756  0.718756  0.000000  1
  P  P12  1  0.785751  0.214249  0.500000  1
  P  P13  1  0.214249  0.785751  0.500000  1
