# generated using pymatgen
data_Lu10In4BiPb
_symmetry_space_group_name_H-M   'P 1'
_cell_length_a   6.49322700
_cell_length_b   8.87995341
_cell_length_c   8.82795994
_cell_angle_alpha   120.19707036
_cell_angle_beta   89.99920763
_cell_angle_gamma   89.99957855
_symmetry_Int_Tables_number   1
_chemical_formula_structural   Lu10In4BiPb
_chemical_formula_sum   'Lu10 In4 Bi1 Pb1'
_cell_volume   439.94298923
_cell_formula_units_Z   1
loop_
 _symmetry_equiv_pos_site_id
 _symmetry_equiv_pos_as_xyz
  1  'x, y, z'
loop_
 _atom_site_type_symbol
 _atom_site_label
 _atom_site_symmetry_multiplicity
 _atom_site_fract_x
 _atom_site_fract_y
 _atom_site_fract_z
 _atom_site_occupancy
  Lu  Lu0  1  0.497973  0.327100  0.657065  1
  Lu  Lu1  1  0.497966  0.670024  0.342899  1
  Lu  Lu2  1  0.002254  0.669986  0.342874  1
  Lu  Lu3  1  0.002264  0.327105  0.657101  1
  Lu  Lu4  1  0.750147  0.230309  0.000007  1
  Lu  Lu5  1  0.750159  0.767502  0.758062  1
  Lu  Lu6  1  0.750143  0.009439  0.241925  1
  Lu  Lu7  1  0.250132  0.766359  0.999990  1
  Lu  Lu8  1  0.250107  0.234528  0.239309  1
  Lu  Lu9  1  0.250119  0.995186  0.760658  1
  In  In10  1  0.749483  0.403105  0.400489  1
  In  In11  1  0.749341  0.002436  0.599695  1
  In  In12  1  0.249639  0.598167  0.601390  1
  In  In13  1  0.249658  0.996780  0.398580  1
  Bi  Bi14  1  0.750169  0.606388  0.999984  1
  Pb  Pb15  1  0.250447  0.395593  0.999971  1
