# generated using pymatgen
data_Dy4Y6(SnSb)3
_symmetry_space_group_name_H-M   'P 1'
_cell_length_a   6.42509500
_cell_length_b   9.00435267
_cell_length_c   9.00438900
_cell_angle_alpha   119.99986835
_cell_angle_beta   89.99998221
_cell_angle_gamma   90.00004204
_symmetry_Int_Tables_number   1
_chemical_formula_structural   Dy4Y6(SnSb)3
_chemical_formula_sum   'Dy4 Y6 Sn3 Sb3'
_cell_volume   451.14641069
_cell_formula_units_Z   1
loop_
 _symmetry_equiv_pos_site_id
 _symmetry_equiv_pos_as_xyz
  1  'x, y, z'
loop_
 _atom_site_type_symbol
 _atom_site_label
 _atom_site_symmetry_multiplicity
 _atom_site_fract_x
 _atom_site_fract_y
 _atom_site_fract_z
 _atom_site_occupancy
  Dy  Dy0  1  0.500563  0.333329  0.666665  1
  Dy  Dy1  1  0.500563  0.666665  0.333335  1
  Dy  Dy2  1  0.999437  0.666665  0.333336  1
  Dy  Dy3  1  0.999437  0.333329  0.666664  1
  Y  Y4  1  0.750002  0.241835  0.000000  1
  Y  Y5  1  0.750002  0.758186  0.758187  1
  Y  Y6  1  0.750002  0.999999  0.241813  1
  Y  Y7  1  0.249997  0.757304  0.000000  1
  Y  Y8  1  0.250003  0.242664  0.242667  1
  Y  Y9  1  0.250003  0.999997  0.757333  1
  Sn  Sn10  1  0.749999  0.607491  0.000000  1
  Sn  Sn11  1  0.750000  0.392548  0.392536  1
  Sn  Sn12  1  0.750000  0.000011  0.607464  1
  Sb  Sb13  1  0.249993  0.391006  0.000000  1
  Sb  Sb14  1  0.250001  0.608978  0.608985  1
  Sb  Sb15  1  0.250001  0.999992  0.391015  1
