# generated using pymatgen
data_RbTa4AsO13
_symmetry_space_group_name_H-M   'P 1'
_cell_length_a   7.46622896
_cell_length_b   7.46622917
_cell_length_c   10.15971900
_cell_angle_alpha   90.00000000
_cell_angle_beta   90.00000000
_cell_angle_gamma   91.66539261
_symmetry_Int_Tables_number   1
_chemical_formula_structural   RbTa4AsO13
_chemical_formula_sum   'Rb2 Ta8 As2 O26'
_cell_volume   566.11000480
_cell_formula_units_Z   2
loop_
 _symmetry_equiv_pos_site_id
 _symmetry_equiv_pos_as_xyz
  1  'x, y, z'
loop_
 _atom_site_type_symbol
 _atom_site_label
 _atom_site_symmetry_multiplicity
 _atom_site_fract_x
 _atom_site_fract_y
 _atom_site_fract_z
 _atom_site_occupancy
  Rb  Rb0  1  0.438961  0.438961  0.446131  1
  Rb  Rb1  1  0.561039  0.561039  0.946131  1
  Ta  Ta2  1  0.552023  0.896241  0.251337  1
  Ta  Ta3  1  0.103759  0.447977  0.751337  1
  Ta  Ta4  1  0.447977  0.103759  0.751337  1
  Ta  Ta5  1  0.896241  0.552023  0.251337  1
  Ta  Ta6  1  0.173284  0.830387  0.500845  1
  Ta  Ta7  1  0.169613  0.826716  0.000845  1
  Ta  Ta8  1  0.830387  0.173284  0.500845  1
  Ta  Ta9  1  0.826716  0.169613  0.000845  1
  As  As10  1  0.165013  0.165013  0.247603  1
  As  As11  1  0.834987  0.834987  0.747603  1
  O  O12  1  0.664377  0.664377  0.250496  1
  O  O13  1  0.335623  0.335623  0.750496  1
  O  O14  1  0.389467  0.131879  0.251008  1
  O  O15  1  0.868121  0.610533  0.751008  1
  O  O16  1  0.610533  0.868121  0.751008  1
  O  O17  1  0.131879  0.389467  0.251008  1
  O  O18  1  0.802741  0.363486  0.384711  1
  O  O19  1  0.638082  0.196175  0.614578  1
  O  O20  1  0.803825  0.361918  0.114578  1
  O  O21  1  0.636514  0.197259  0.884711  1
  O  O22  1  0.196175  0.638082  0.614578  1
  O  O23  1  0.363486  0.802741  0.384711  1
  O  O24  1  0.197259  0.636514  0.884711  1
  O  O25  1  0.361918  0.803825  0.114578  1
  O  O26  1  0.069661  0.069661  0.390208  1
  O  O27  1  0.931346  0.931346  0.606524  1
  O  O28  1  0.068654  0.068654  0.106524  1
  O  O29  1  0.930339  0.930339  0.890208  1
  O  O30  1  0.694550  0.999632  0.386714  1
  O  O31  1  0.006352  0.306914  0.610524  1
  O  O32  1  0.693086  0.993648  0.110524  1
  O  O33  1  0.000368  0.305450  0.886714  1
  O  O34  1  0.306914  0.006352  0.610524  1
  O  O35  1  0.999632  0.694550  0.386714  1
  O  O36  1  0.305450  0.000368  0.886714  1
  O  O37  1  0.993648  0.693086  0.110524  1
