# generated using pymatgen
data_Sm8Lu11Si16Mo
_symmetry_space_group_name_H-M   'P 1'
_cell_length_a   7.31861784
_cell_length_b   7.57416534
_cell_length_c   14.39332134
_cell_angle_alpha   90.27470725
_cell_angle_beta   89.42408999
_cell_angle_gamma   89.68901764
_symmetry_Int_Tables_number   1
_chemical_formula_structural   Sm8Lu11Si16Mo
_chemical_formula_sum   'Sm8 Lu11 Si16 Mo1'
_cell_volume   797.79521970
_cell_formula_units_Z   1
loop_
 _symmetry_equiv_pos_site_id
 _symmetry_equiv_pos_as_xyz
  1  'x, y, z'
loop_
 _atom_site_type_symbol
 _atom_site_label
 _atom_site_symmetry_multiplicity
 _atom_site_fract_x
 _atom_site_fract_y
 _atom_site_fract_z
 _atom_site_occupancy
  Sm  Sm0  1  0.016412  0.175773  0.097645  1
  Sm  Sm1  1  0.985748  0.824907  0.897209  1
  Sm  Sm2  1  0.483596  0.678081  0.896942  1
  Sm  Sm3  1  0.990916  0.830895  0.596500  1
  Sm  Sm4  1  0.517447  0.323217  0.096364  1
  Sm  Sm5  1  0.014328  0.177765  0.402979  1
  Sm  Sm6  1  0.506757  0.322900  0.411375  1
  Sm  Sm7  1  0.484789  0.677015  0.597809  1
  Lu  Lu8  1  0.164060  0.497966  0.743615  1
  Lu  Lu9  1  0.837751  0.492667  0.253356  1
  Lu  Lu10  1  0.337484  0.009093  0.251825  1
  Lu  Lu11  1  0.657288  0.997793  0.746499  1
  Lu  Lu12  1  0.664939  0.827122  0.381176  1
  Lu  Lu13  1  0.170665  0.677142  0.382287  1
  Lu  Lu14  1  0.672806  0.822411  0.122869  1
  Lu  Lu15  1  0.834473  0.323225  0.620806  1
  Lu  Lu16  1  0.329508  0.179007  0.876345  1
  Lu  Lu17  1  0.824917  0.322998  0.872359  1
  Lu  Lu18  1  0.173445  0.677823  0.123831  1
  Si  Si19  1  0.045717  0.119102  0.743305  1
  Si  Si20  1  0.964165  0.887085  0.252222  1
  Si  Si21  1  0.465782  0.618112  0.250814  1
  Si  Si22  1  0.529240  0.370207  0.743223  1
  Si  Si23  1  0.282244  0.884277  0.745231  1
  Si  Si24  1  0.716630  0.123729  0.250867  1
  Si  Si25  1  0.220375  0.377296  0.250685  1
  Si  Si26  1  0.781386  0.622857  0.746352  1
  Si  Si27  1  0.185783  0.442727  0.541775  1
  Si  Si28  1  0.839039  0.531808  0.459494  1
  Si  Si29  1  0.332163  0.973199  0.476325  1
  Si  Si30  1  0.849580  0.532310  0.038341  1
  Si  Si31  1  0.636744  0.036310  0.546193  1
  Si  Si32  1  0.149708  0.469458  0.958628  1
  Si  Si33  1  0.657772  0.032503  0.958290  1
  Si  Si34  1  0.346556  0.965468  0.038226  1
  Mo  Mo35  1  0.329789  0.175750  0.628233  1
