# generated using pymatgen
data_Er5In3Ir2Pb
_symmetry_space_group_name_H-M   'P 1'
_cell_length_a   3.58301500
_cell_length_b   8.13161045
_cell_length_c   18.21120320
_cell_angle_alpha   89.96013333
_cell_angle_beta   90.00000000
_cell_angle_gamma   90.00000000
_symmetry_Int_Tables_number   1
_chemical_formula_structural   Er5In3Ir2Pb
_chemical_formula_sum   'Er10 In6 Ir4 Pb2'
_cell_volume   530.59570078
_cell_formula_units_Z   2
loop_
 _symmetry_equiv_pos_site_id
 _symmetry_equiv_pos_as_xyz
  1  'x, y, z'
loop_
 _atom_site_type_symbol
 _atom_site_label
 _atom_site_symmetry_multiplicity
 _atom_site_fract_x
 _atom_site_fract_y
 _atom_site_fract_z
 _atom_site_occupancy
  Er  Er0  1  0.000000  0.500000  0.500000  1
  Er  Er1  1  0.000000  0.000000  0.000000  1
  Er  Er2  1  0.000000  0.747236  0.280832  1
  Er  Er3  1  0.000000  0.252764  0.719168  1
  Er  Er4  1  0.000000  0.752628  0.775964  1
  Er  Er5  1  0.000000  0.247372  0.224036  1
  Er  Er6  1  0.000000  0.620384  0.090349  1
  Er  Er7  1  0.000000  0.379616  0.909651  1
  Er  Er8  1  0.000000  0.882625  0.587407  1
  Er  Er9  1  0.000000  0.117375  0.412593  1
  In  In10  1  0.500000  0.796266  0.433686  1
  In  In11  1  0.500000  0.203734  0.566314  1
  In  In12  1  0.500000  0.570880  0.647778  1
  In  In13  1  0.500000  0.429120  0.352222  1
  In  In14  1  0.500000  0.924197  0.151987  1
  In  In15  1  0.500000  0.075803  0.848013  1
  Ir  Ir16  1  0.500000  0.529522  0.198933  1
  Ir  Ir17  1  0.500000  0.470478  0.801067  1
  Ir  Ir18  1  0.500000  0.976039  0.695975  1
  Ir  Ir19  1  0.500000  0.023961  0.304025  1
  Pb  Pb20  1  0.500000  0.705328  0.934036  1
  Pb  Pb21  1  0.500000  0.294672  0.065964  1
