# generated using pymatgen
data_Hf5Sc3Nb12Si15Ge
_symmetry_space_group_name_H-M   'P 1'
_cell_length_a   6.69563632
_cell_length_b   6.88266525
_cell_length_c   13.13341363
_cell_angle_alpha   90.02939878
_cell_angle_beta   90.11130226
_cell_angle_gamma   90.01698242
_symmetry_Int_Tables_number   1
_chemical_formula_structural   Hf5Sc3Nb12Si15Ge
_chemical_formula_sum   'Hf5 Sc3 Nb12 Si15 Ge1'
_cell_volume   605.23666624
_cell_formula_units_Z   1
loop_
 _symmetry_equiv_pos_site_id
 _symmetry_equiv_pos_as_xyz
  1  'x, y, z'
loop_
 _atom_site_type_symbol
 _atom_site_label
 _atom_site_symmetry_multiplicity
 _atom_site_fract_x
 _atom_site_fract_y
 _atom_site_fract_z
 _atom_site_occupancy
  Hf  Hf0  1  0.006253  0.170825  0.408989  1
  Hf  Hf1  1  0.502370  0.325296  0.406954  1
  Hf  Hf2  1  0.005348  0.170977  0.092007  1
  Hf  Hf3  1  0.499075  0.674628  0.904765  1
  Hf  Hf4  1  0.997971  0.827076  0.593743  1
  Sc  Sc5  1  0.497075  0.673287  0.593330  1
  Sc  Sc6  1  0.997479  0.826763  0.906472  1
  Sc  Sc7  1  0.501692  0.327246  0.092733  1
  Nb  Nb8  1  0.664569  0.171744  0.623806  1
  Nb  Nb9  1  0.164839  0.328977  0.875815  1
  Nb  Nb10  1  0.334598  0.830686  0.123968  1
  Nb  Nb11  1  0.836121  0.672886  0.377042  1
  Nb  Nb12  1  0.333942  0.830725  0.376692  1
  Nb  Nb13  1  0.835925  0.673123  0.123740  1
  Nb  Nb14  1  0.664554  0.171730  0.875898  1
  Nb  Nb15  1  0.162580  0.327246  0.623508  1
  Nb  Nb16  1  0.837556  0.495472  0.748993  1
  Nb  Nb17  1  0.337728  0.004182  0.750389  1
  Nb  Nb18  1  0.163746  0.504624  0.250644  1
  Nb  Nb19  1  0.661039  0.992536  0.251497  1
  Si  Si20  1  0.670757  0.964653  0.461518  1
  Si  Si21  1  0.170471  0.535106  0.039185  1
  Si  Si22  1  0.329270  0.034644  0.960460  1
  Si  Si23  1  0.828039  0.464387  0.538213  1
  Si  Si24  1  0.329186  0.035503  0.539093  1
  Si  Si25  1  0.830002  0.465727  0.961070  1
  Si  Si26  1  0.669175  0.965919  0.039101  1
  Si  Si27  1  0.170052  0.535595  0.461200  1
  Si  Si28  1  0.460572  0.387454  0.749685  1
  Si  Si29  1  0.960739  0.112501  0.750435  1
  Si  Si30  1  0.537326  0.614974  0.250291  1
  Si  Si31  1  0.038483  0.887628  0.250083  1
  Si  Si32  1  0.704056  0.860407  0.749756  1
  Si  Si33  1  0.203468  0.639688  0.749686  1
  Si  Si34  1  0.296267  0.140688  0.249818  1
  Ge  Ge35  1  0.797673  0.355092  0.249423  1
