# generated using pymatgen
data_Sc3Mn2Al7FeSi5
_symmetry_space_group_name_H-M   'P 1'
_cell_length_a   8.34128000
_cell_length_b   8.30452153
_cell_length_c   8.92206800
_cell_angle_alpha   90.00000000
_cell_angle_beta   90.00000000
_cell_angle_gamma   120.14652981
_symmetry_Int_Tables_number   1
_chemical_formula_structural   Sc3Mn2Al7FeSi5
_chemical_formula_sum   'Sc6 Mn4 Al14 Fe2 Si10'
_cell_volume   534.44169286
_cell_formula_units_Z   2
loop_
 _symmetry_equiv_pos_site_id
 _symmetry_equiv_pos_as_xyz
  1  'x, y, z'
loop_
 _atom_site_type_symbol
 _atom_site_label
 _atom_site_symmetry_multiplicity
 _atom_site_fract_x
 _atom_site_fract_y
 _atom_site_fract_z
 _atom_site_occupancy
  Sc  Sc0  1  0.198131  0.799149  0.250000  1
  Sc  Sc1  1  0.200582  0.401163  0.250000  1
  Sc  Sc2  1  0.601018  0.799149  0.250000  1
  Sc  Sc3  1  0.801869  0.200851  0.750000  1
  Sc  Sc4  1  0.799418  0.598837  0.750000  1
  Sc  Sc5  1  0.398982  0.200851  0.750000  1
  Mn  Mn6  1  0.500000  0.500000  0.500000  1
  Mn  Mn7  1  0.000000  0.500000  0.500000  1
  Mn  Mn8  1  0.500000  0.500000  0.000000  1
  Mn  Mn9  1  0.000000  0.500000  0.000000  1
  Al  Al10  1  0.163199  0.838399  0.921423  1
  Al  Al11  1  0.162743  0.325487  0.921346  1
  Al  Al12  1  0.675199  0.838399  0.921423  1
  Al  Al13  1  0.836801  0.161601  0.078577  1
  Al  Al14  1  0.837257  0.674513  0.078654  1
  Al  Al15  1  0.324801  0.161601  0.078577  1
  Al  Al16  1  0.836801  0.161601  0.421423  1
  Al  Al17  1  0.837257  0.674513  0.421346  1
  Al  Al18  1  0.324801  0.161601  0.421423  1
  Al  Al19  1  0.163199  0.838399  0.578577  1
  Al  Al20  1  0.162743  0.325487  0.578654  1
  Al  Al21  1  0.675199  0.838399  0.578577  1
  Al  Al22  1  0.000297  0.000595  0.250000  1
  Al  Al23  1  0.999703  0.999405  0.750000  1
  Fe  Fe24  1  0.500000  0.000000  0.500000  1
  Fe  Fe25  1  0.500000  0.000000  0.000000  1
  Si  Si26  1  0.560306  0.439709  0.250000  1
  Si  Si27  1  0.560212  0.120424  0.250000  1
  Si  Si28  1  0.879403  0.439709  0.250000  1
  Si  Si29  1  0.439694  0.560291  0.750000  1
  Si  Si30  1  0.439788  0.879576  0.750000  1
  Si  Si31  1  0.120597  0.560291  0.750000  1
  Si  Si32  1  0.333324  0.666649  0.460667  1
  Si  Si33  1  0.666676  0.333351  0.539333  1
  Si  Si34  1  0.666676  0.333351  0.960667  1
  Si  Si35  1  0.333324  0.666649  0.039333  1
