# generated using pymatgen
data_Tb5SmU4O20
_symmetry_space_group_name_H-M   'P 1'
_cell_length_a   6.67504820
_cell_length_b   7.54675593
_cell_length_c   8.46351336
_cell_angle_alpha   100.95915716
_cell_angle_beta   97.76022913
_cell_angle_gamma   107.27843027
_symmetry_Int_Tables_number   1
_chemical_formula_structural   Tb5SmU4O20
_chemical_formula_sum   'Tb5 Sm1 U4 O20'
_cell_volume   391.25729531
_cell_formula_units_Z   1
loop_
 _symmetry_equiv_pos_site_id
 _symmetry_equiv_pos_as_xyz
  1  'x, y, z'
loop_
 _atom_site_type_symbol
 _atom_site_label
 _atom_site_symmetry_multiplicity
 _atom_site_fract_x
 _atom_site_fract_y
 _atom_site_fract_z
 _atom_site_occupancy
  Tb  Tb0  1  0.614266  0.704319  0.700123  1
  Tb  Tb1  1  0.385734  0.295681  0.299877  1
  Tb  Tb2  1  0.198087  0.897274  0.893029  1
  Tb  Tb3  1  0.801913  0.102726  0.106971  1
  Tb  Tb4  1  0.000000  0.000000  0.500000  1
  Sm  Sm5  1  0.000000  0.500000  0.500000  1
  U  U6  1  0.402186  0.804831  0.301601  1
  U  U7  1  0.199308  0.400284  0.900550  1
  U  U8  1  0.800692  0.599716  0.099450  1
  U  U9  1  0.597814  0.195169  0.698399  1
  O  O10  1  0.438756  0.532170  0.136307  1
  O  O11  1  0.555493  0.987619  0.840823  1
  O  O12  1  0.270296  0.144969  0.744850  1
  O  O13  1  0.363554  0.595776  0.441064  1
  O  O14  1  0.054048  0.730792  0.330969  1
  O  O15  1  0.444507  0.012381  0.159177  1
  O  O16  1  0.150593  0.183870  0.031199  1
  O  O17  1  0.561244  0.467830  0.863693  1
  O  O18  1  0.854977  0.336815  0.950248  1
  O  O19  1  0.259374  0.607163  0.762531  1
  O  O20  1  0.952896  0.775646  0.654763  1
  O  O21  1  0.354428  0.061740  0.453155  1
  O  O22  1  0.645572  0.938260  0.546845  1
  O  O23  1  0.047104  0.224354  0.345237  1
  O  O24  1  0.740626  0.392837  0.237469  1
  O  O25  1  0.145023  0.663185  0.049752  1
  O  O26  1  0.849407  0.816130  0.968801  1
  O  O27  1  0.945952  0.269208  0.669031  1
  O  O28  1  0.636446  0.404224  0.558936  1
  O  O29  1  0.729704  0.855031  0.255150  1
