# generated using pymatgen
data_Pr6TaWO14
_symmetry_space_group_name_H-M   'P 1'
_cell_length_a   6.71799071
_cell_length_b   6.71799049
_cell_length_c   7.79081380
_cell_angle_alpha   90.02955853
_cell_angle_beta   90.02955822
_cell_angle_gamma   110.70458268
_symmetry_Int_Tables_number   1
_chemical_formula_structural   Pr6TaWO14
_chemical_formula_sum   'Pr6 Ta1 W1 O14'
_cell_volume   328.90169420
_cell_formula_units_Z   1
loop_
 _symmetry_equiv_pos_site_id
 _symmetry_equiv_pos_as_xyz
  1  'x, y, z'
loop_
 _atom_site_type_symbol
 _atom_site_label
 _atom_site_symmetry_multiplicity
 _atom_site_fract_x
 _atom_site_fract_y
 _atom_site_fract_z
 _atom_site_occupancy
  Pr  Pr0  1  0.000000  0.000000  0.000000  1
  Pr  Pr1  1  0.000000  0.000000  0.500000  1
  Pr  Pr2  1  0.478968  0.931862  0.748578  1
  Pr  Pr3  1  0.521032  0.068138  0.251422  1
  Pr  Pr4  1  0.931862  0.478968  0.748578  1
  Pr  Pr5  1  0.068138  0.521032  0.251422  1
  Ta  Ta6  1  0.500000  0.500000  0.500000  1
  W  W7  1  0.500000  0.500000  0.000000  1
  O  O8  1  0.565984  0.565984  0.747932  1
  O  O9  1  0.434016  0.434016  0.252068  1
  O  O10  1  0.846732  0.109453  0.750320  1
  O  O11  1  0.153268  0.890547  0.249680  1
  O  O12  1  0.109453  0.846732  0.750320  1
  O  O13  1  0.890547  0.153268  0.249680  1
  O  O14  1  0.436356  0.187284  0.966792  1
  O  O15  1  0.561107  0.813073  0.466870  1
  O  O16  1  0.187284  0.436356  0.966792  1
  O  O17  1  0.813073  0.561107  0.466870  1
  O  O18  1  0.438893  0.186927  0.533130  1
  O  O19  1  0.563644  0.812716  0.033208  1
  O  O20  1  0.812716  0.563644  0.033208  1
  O  O21  1  0.186927  0.438893  0.533130  1
