# generated using pymatgen
data_KRb2TmAs2
_symmetry_space_group_name_H-M   'P 1'
_cell_length_a   9.63357551
_cell_length_b   9.63357597
_cell_length_c   9.63357652
_cell_angle_alpha   131.04246685
_cell_angle_beta   68.28905543
_cell_angle_gamma   135.50454289
_symmetry_Int_Tables_number   1
_chemical_formula_structural   KRb2TmAs2
_chemical_formula_sum   'K2 Rb4 Tm2 As4'
_cell_volume   464.32680960
_cell_formula_units_Z   2
loop_
 _symmetry_equiv_pos_site_id
 _symmetry_equiv_pos_as_xyz
  1  'x, y, z'
loop_
 _atom_site_type_symbol
 _atom_site_label
 _atom_site_symmetry_multiplicity
 _atom_site_fract_x
 _atom_site_fract_y
 _atom_site_fract_z
 _atom_site_occupancy
  K  K0  1  0.750000  0.250000  0.500000  1
  K  K1  1  0.250000  0.750000  0.500000  1
  Rb  Rb2  1  0.312201  0.718743  0.030945  1
  Rb  Rb3  1  0.187799  0.218743  0.406542  1
  Rb  Rb4  1  0.812201  0.781256  0.593458  1
  Rb  Rb5  1  0.687799  0.281257  0.969056  1
  Tm  Tm6  1  0.250000  0.250000  0.000000  1
  Tm  Tm7  1  0.749999  0.749999  0.000000  1
  As  As8  1  0.905827  0.193831  0.099659  1
  As  As9  1  0.594172  0.693831  0.288005  1
  As  As10  1  0.405827  0.306169  0.711996  1
  As  As11  1  0.094173  0.806169  0.900342  1
