# generated using pymatgen
data_Dy7Ho9(ErPb4)4
_symmetry_space_group_name_H-M   'P 1'
_cell_length_a   8.18633584
_cell_length_b   8.26360130
_cell_length_c   15.60662503
_cell_angle_alpha   90.00656476
_cell_angle_beta   90.02341508
_cell_angle_gamma   89.98547973
_symmetry_Int_Tables_number   1
_chemical_formula_structural   Dy7Ho9(ErPb4)4
_chemical_formula_sum   'Dy7 Ho9 Er4 Pb16'
_cell_volume   1055.76644537
_cell_formula_units_Z   1
loop_
 _symmetry_equiv_pos_site_id
 _symmetry_equiv_pos_as_xyz
  1  'x, y, z'
loop_
 _atom_site_type_symbol
 _atom_site_label
 _atom_site_symmetry_multiplicity
 _atom_site_fract_x
 _atom_site_fract_y
 _atom_site_fract_z
 _atom_site_occupancy
  Dy  Dy0  1  0.036369  0.176761  0.600077  1
  Dy  Dy1  1  0.463641  0.676718  0.399966  1
  Dy  Dy2  1  0.963562  0.823321  0.100050  1
  Dy  Dy3  1  0.463592  0.676690  0.100017  1
  Dy  Dy4  1  0.963628  0.823266  0.399963  1
  Dy  Dy5  1  0.536363  0.323297  0.600005  1
  Dy  Dy6  1  0.036414  0.176740  0.899958  1
  Ho  Ho7  1  0.376521  0.841327  0.879072  1
  Ho  Ho8  1  0.876473  0.658694  0.620960  1
  Ho  Ho9  1  0.623520  0.158707  0.379104  1
  Ho  Ho10  1  0.123430  0.341221  0.120877  1
  Ho  Ho11  1  0.623443  0.158786  0.120798  1
  Ho  Ho12  1  0.123516  0.341263  0.379096  1
  Ho  Ho13  1  0.376509  0.841314  0.620978  1
  Ho  Ho14  1  0.876477  0.658650  0.879078  1
  Ho  Ho15  1  0.536618  0.323488  0.899859  1
  Er  Er16  1  0.208380  0.504340  0.750049  1
  Er  Er17  1  0.708242  0.995639  0.750034  1
  Er  Er18  1  0.791675  0.495569  0.250011  1
  Er  Er19  1  0.291677  0.004405  0.249992  1
  Pb  Pb20  1  0.281485  0.033191  0.042895  1
  Pb  Pb21  1  0.781573  0.466751  0.457132  1
  Pb  Pb22  1  0.718427  0.966745  0.542877  1
  Pb  Pb23  1  0.218932  0.532872  0.957070  1
  Pb  Pb24  1  0.718224  0.967010  0.957089  1
  Pb  Pb25  1  0.218422  0.533288  0.542842  1
  Pb  Pb26  1  0.281581  0.033266  0.457130  1
  Pb  Pb27  1  0.781277  0.466463  0.042646  1
  Pb  Pb28  1  0.571210  0.626765  0.750017  1
  Pb  Pb29  1  0.071259  0.873104  0.750023  1
  Pb  Pb30  1  0.428754  0.373102  0.249981  1
  Pb  Pb31  1  0.928741  0.126950  0.250016  1
  Pb  Pb32  1  0.347626  0.153823  0.750272  1
  Pb  Pb33  1  0.847254  0.346491  0.750078  1
  Pb  Pb34  1  0.652590  0.846496  0.249983  1
  Pb  Pb35  1  0.152593  0.653487  0.250003  1
