# generated using pymatgen
data_Dy2Er4GaTcNi
_symmetry_space_group_name_H-M   'P 1'
_cell_length_a   8.31539019
_cell_length_b   8.31539136
_cell_length_c   8.31539063
_cell_angle_alpha   113.29605164
_cell_angle_beta   111.14653566
_cell_angle_gamma   104.10876895
_symmetry_Int_Tables_number   1
_chemical_formula_structural   Dy2Er4GaTcNi
_chemical_formula_sum   'Dy4 Er8 Ga2 Tc2 Ni2'
_cell_volume   439.57220006
_cell_formula_units_Z   2
loop_
 _symmetry_equiv_pos_site_id
 _symmetry_equiv_pos_as_xyz
  1  'x, y, z'
loop_
 _atom_site_type_symbol
 _atom_site_label
 _atom_site_symmetry_multiplicity
 _atom_site_fract_x
 _atom_site_fract_y
 _atom_site_fract_z
 _atom_site_occupancy
  Dy  Dy0  1  0.052910  0.743918  0.308992  1
  Dy  Dy1  1  0.947090  0.256082  0.691008  1
  Dy  Dy2  1  0.565075  0.256082  0.308992  1
  Dy  Dy3  1  0.434925  0.743918  0.691008  1
  Er  Er4  1  0.667186  0.851483  0.184296  1
  Er  Er5  1  0.332814  0.517111  0.184296  1
  Er  Er6  1  0.332814  0.148517  0.815704  1
  Er  Er7  1  0.667186  0.482889  0.815704  1
  Er  Er8  1  0.179565  0.218264  0.397831  1
  Er  Er9  1  0.820435  0.218264  0.038699  1
  Er  Er10  1  0.179565  0.781736  0.961301  1
  Er  Er11  1  0.820435  0.781736  0.602169  1
  Ga  Ga12  1  0.000000  0.500000  0.500000  1
  Ga  Ga13  1  0.500000  0.000000  0.500000  1
  Tc  Tc14  1  0.679574  0.500000  0.179574  1
  Tc  Tc15  1  0.320426  0.500000  0.820426  1
  Ni  Ni16  1  0.882641  0.882641  0.000000  1
  Ni  Ni17  1  0.117359  0.117359  0.000000  1
