# generated using pymatgen
data_Ho16Tl2In4CoPt
_symmetry_space_group_name_H-M   'P 1'
_cell_length_a   10.39993841
_cell_length_b   10.39993960
_cell_length_c   6.97837300
_cell_angle_alpha   90.00111421
_cell_angle_beta   89.99888805
_cell_angle_gamma   119.96781542
_symmetry_Int_Tables_number   1
_chemical_formula_structural   Ho16Tl2In4CoPt
_chemical_formula_sum   'Ho16 Tl2 In4 Co1 Pt1'
_cell_volume   653.86358505
_cell_formula_units_Z   1
loop_
 _symmetry_equiv_pos_site_id
 _symmetry_equiv_pos_as_xyz
  1  'x, y, z'
loop_
 _atom_site_type_symbol
 _atom_site_label
 _atom_site_symmetry_multiplicity
 _atom_site_fract_x
 _atom_site_fract_y
 _atom_site_fract_z
 _atom_site_occupancy
  Ho  Ho0  1  0.530794  0.061098  0.507575  1
  Ho  Ho1  1  0.938902  0.469206  0.507575  1
  Ho  Ho2  1  0.530670  0.469330  0.507075  1
  Ho  Ho3  1  0.464358  0.927489  0.006901  1
  Ho  Ho4  1  0.072511  0.535642  0.006901  1
  Ho  Ho5  1  0.463298  0.536702  0.007424  1
  Ho  Ho6  1  0.178131  0.355677  0.714332  1
  Ho  Ho7  1  0.644323  0.821869  0.714332  1
  Ho  Ho8  1  0.177840  0.822160  0.714291  1
  Ho  Ho9  1  0.824753  0.649210  0.211379  1
  Ho  Ho10  1  0.350790  0.175247  0.211379  1
  Ho  Ho11  1  0.824594  0.175406  0.212886  1
  Ho  Ho12  1  0.666825  0.333175  0.883063  1
  Ho  Ho13  1  0.333340  0.666660  0.396205  1
  Ho  Ho14  1  0.999466  0.000534  0.490280  1
  Ho  Ho15  1  0.999379  0.000621  0.991576  1
  Tl  Tl16  1  0.837556  0.675063  0.751948  1
  Tl  Tl17  1  0.324937  0.162444  0.751948  1
  In  In18  1  0.837686  0.162314  0.750653  1
  In  In19  1  0.162891  0.325694  0.252651  1
  In  In20  1  0.674306  0.837109  0.252651  1
  In  In21  1  0.162827  0.837173  0.252587  1
  Co  Co22  1  0.333233  0.666767  0.781028  1
  Pt  Pt23  1  0.666590  0.333410  0.281396  1
