# generated using pymatgen
data_Li3Tb9(NdSi2)8
_symmetry_space_group_name_H-M   'P 1'
_cell_length_a   7.78235492
_cell_length_b   7.78235492
_cell_length_c   14.10069344
_cell_angle_alpha   90.22437416
_cell_angle_beta   89.77562584
_cell_angle_gamma   89.84006701
_symmetry_Int_Tables_number   1
_chemical_formula_structural   Li3Tb9(NdSi2)8
_chemical_formula_sum   'Li3 Tb9 Nd8 Si16'
_cell_volume   853.99271544
_cell_formula_units_Z   1
loop_
 _symmetry_equiv_pos_site_id
 _symmetry_equiv_pos_as_xyz
  1  'x, y, z'
loop_
 _atom_site_type_symbol
 _atom_site_label
 _atom_site_symmetry_multiplicity
 _atom_site_fract_x
 _atom_site_fract_y
 _atom_site_fract_z
 _atom_site_occupancy
  Li  Li0  1  0.312433  0.312433  0.500000  1
  Li  Li1  1  0.187219  0.812540  0.748350  1
  Li  Li2  1  0.812540  0.187219  0.251650  1
  Tb  Tb3  1  0.499824  0.365403  0.127051  1
  Tb  Tb4  1  0.001105  0.129172  0.624397  1
  Tb  Tb5  1  0.873252  0.004815  0.869887  1
  Tb  Tb6  1  0.129172  0.001105  0.375603  1
  Tb  Tb7  1  0.497029  0.632163  0.623379  1
  Tb  Tb8  1  0.365403  0.499824  0.872949  1
  Tb  Tb9  1  0.632163  0.497029  0.376621  1
  Tb  Tb10  1  0.004815  0.873252  0.130113  1
  Tb  Tb11  1  0.686839  0.686839  0.000000  1
  Nd  Nd12  1  0.632806  0.998569  0.456522  1
  Nd  Nd13  1  0.360978  0.006463  0.955282  1
  Nd  Nd14  1  0.998569  0.632806  0.543478  1
  Nd  Nd15  1  0.498419  0.869297  0.211385  1
  Nd  Nd16  1  0.498825  0.131463  0.703069  1
  Nd  Nd17  1  0.869297  0.498419  0.788615  1
  Nd  Nd18  1  0.131463  0.498825  0.296931  1
  Nd  Nd19  1  0.006463  0.360978  0.044718  1
  Si  Si20  1  0.286327  0.919408  0.558667  1
  Si  Si21  1  0.710133  0.070153  0.058573  1
  Si  Si22  1  0.919408  0.286327  0.441333  1
  Si  Si23  1  0.418737  0.215525  0.312902  1
  Si  Si24  1  0.577280  0.790560  0.808760  1
  Si  Si25  1  0.215525  0.418737  0.687098  1
  Si  Si26  1  0.790560  0.577280  0.191240  1
  Si  Si27  1  0.070153  0.710133  0.941427  1
  Si  Si28  1  0.784556  0.849035  0.681946  1
  Si  Si29  1  0.215188  0.153220  0.188054  1
  Si  Si30  1  0.849035  0.784556  0.318054  1
  Si  Si31  1  0.347342  0.711810  0.434859  1
  Si  Si32  1  0.656685  0.295429  0.937747  1
  Si  Si33  1  0.711810  0.347342  0.565141  1
  Si  Si34  1  0.295429  0.656685  0.062253  1
  Si  Si35  1  0.153220  0.215188  0.811946  1
