# generated using pymatgen
data_YbSi3PRh6
_symmetry_space_group_name_H-M   'P 1'
_cell_length_a   7.05699229
_cell_length_b   7.01431132
_cell_length_c   3.74878900
_cell_angle_alpha   90.00000000
_cell_angle_beta   90.00000000
_cell_angle_gamma   119.83153463
_symmetry_Int_Tables_number   1
_chemical_formula_structural   YbSi3PRh6
_chemical_formula_sum   'Yb1 Si3 P1 Rh6'
_cell_volume   160.97597106
_cell_formula_units_Z   1
loop_
 _symmetry_equiv_pos_site_id
 _symmetry_equiv_pos_as_xyz
  1  'x, y, z'
loop_
 _atom_site_type_symbol
 _atom_site_label
 _atom_site_symmetry_multiplicity
 _atom_site_fract_x
 _atom_site_fract_y
 _atom_site_fract_z
 _atom_site_occupancy
  Yb  Yb0  1  0.998013  0.999225  0.500000  1
  Si  Si1  1  0.666025  0.332956  0.500000  1
  Si  Si2  1  0.197599  0.398199  0.000000  1
  Si  Si3  1  0.197973  0.799692  0.000000  1
  P  P4  1  0.610095  0.804594  0.000000  1
  Rh  Rh5  1  0.465804  0.931996  0.500000  1
  Rh  Rh6  1  0.467866  0.535862  0.500000  1
  Rh  Rh7  1  0.066155  0.532243  0.500000  1
  Rh  Rh8  1  0.802219  0.607606  0.000000  1
  Rh  Rh9  1  0.800953  0.193314  0.000000  1
  Rh  Rh10  1  0.393967  0.197644  0.000000  1
