# generated using pymatgen
data_CeDyMn2(Al10Ru)2
_symmetry_space_group_name_H-M   'P 1'
_cell_length_a   6.83905112
_cell_length_b   6.83904983
_cell_length_c   9.08996235
_cell_angle_alpha   89.90693609
_cell_angle_beta   90.09306318
_cell_angle_gamma   97.11226904
_symmetry_Int_Tables_number   1
_chemical_formula_structural   CeDyMn2(Al10Ru)2
_chemical_formula_sum   'Ce1 Dy1 Mn2 Al20 Ru2'
_cell_volume   421.88886062
_cell_formula_units_Z   1
loop_
 _symmetry_equiv_pos_site_id
 _symmetry_equiv_pos_as_xyz
  1  'x, y, z'
loop_
 _atom_site_type_symbol
 _atom_site_label
 _atom_site_symmetry_multiplicity
 _atom_site_fract_x
 _atom_site_fract_y
 _atom_site_fract_z
 _atom_site_occupancy
  Ce  Ce0  1  0.125278  0.874722  0.243196  1
  Dy  Dy1  1  0.874095  0.125905  0.754222  1
  Mn  Mn2  1  0.498381  0.999474  0.000500  1
  Mn  Mn3  1  0.000526  0.501619  0.000500  1
  Al  Al4  1  0.589970  0.864374  0.246889  1
  Al  Al5  1  0.779982  0.521492  0.246681  1
  Al  Al6  1  0.159872  0.840128  0.900840  1
  Al  Al7  1  0.412926  0.136003  0.753811  1
  Al  Al8  1  0.624727  0.375273  0.953201  1
  Al  Al9  1  0.843339  0.156661  0.401269  1
  Al  Al10  1  0.770630  0.771756  0.998159  1
  Al  Al11  1  0.863997  0.587074  0.753811  1
  Al  Al12  1  0.839624  0.160376  0.097661  1
  Al  Al13  1  0.218466  0.476402  0.753549  1
  Al  Al14  1  0.156184  0.843816  0.599397  1
  Al  Al15  1  0.773431  0.773684  0.501048  1
  Al  Al16  1  0.478508  0.220018  0.246681  1
  Al  Al17  1  0.622808  0.377192  0.548875  1
  Al  Al18  1  0.226316  0.226569  0.501048  1
  Al  Al19  1  0.377222  0.622778  0.448884  1
  Al  Al20  1  0.135626  0.410030  0.246889  1
  Al  Al21  1  0.523598  0.781534  0.753549  1
  Al  Al22  1  0.376015  0.623985  0.048185  1
  Al  Al23  1  0.228244  0.229370  0.998159  1
  Ru  Ru24  1  0.500181  0.999946  0.501498  1
  Ru  Ru25  1  0.000054  0.499819  0.501498  1
