# generated using pymatgen
data_LaNd(CuP)3
_symmetry_space_group_name_H-M   'P 1'
_cell_length_a   4.03330800
_cell_length_b   11.00164600
_cell_length_c   13.14685100
_cell_angle_alpha   90.00000000
_cell_angle_beta   90.00000000
_cell_angle_gamma   90.00000000
_symmetry_Int_Tables_number   1
_chemical_formula_structural   LaNd(CuP)3
_chemical_formula_sum   'La4 Nd4 Cu12 P12'
_cell_volume   583.36557209
_cell_formula_units_Z   4
loop_
 _symmetry_equiv_pos_site_id
 _symmetry_equiv_pos_as_xyz
  1  'x, y, z'
loop_
 _atom_site_type_symbol
 _atom_site_label
 _atom_site_symmetry_multiplicity
 _atom_site_fract_x
 _atom_site_fract_y
 _atom_site_fract_z
 _atom_site_occupancy
  La  La0  1  0.250000  0.933976  0.794956  1
  La  La1  1  0.750000  0.433976  0.705044  1
  La  La2  1  0.250000  0.566024  0.294956  1
  La  La3  1  0.750000  0.066024  0.205044  1
  Nd  Nd4  1  0.250000  0.843663  0.500089  1
  Nd  Nd5  1  0.750000  0.343663  0.999911  1
  Nd  Nd6  1  0.250000  0.656337  0.000089  1
  Nd  Nd7  1  0.750000  0.156337  0.499911  1
  Cu  Cu8  1  0.250000  0.396294  0.509803  1
  Cu  Cu9  1  0.750000  0.896294  0.990197  1
  Cu  Cu10  1  0.250000  0.103706  0.009803  1
  Cu  Cu11  1  0.750000  0.603706  0.490197  1
  Cu  Cu12  1  0.250000  0.269117  0.332364  1
  Cu  Cu13  1  0.750000  0.769117  0.167636  1
  Cu  Cu14  1  0.250000  0.230883  0.832364  1
  Cu  Cu15  1  0.750000  0.730883  0.667636  1
  Cu  Cu16  1  0.250000  0.854695  0.272728  1
  Cu  Cu17  1  0.750000  0.354695  0.227272  1
  Cu  Cu18  1  0.250000  0.645305  0.772728  1
  Cu  Cu19  1  0.750000  0.145305  0.727272  1
  P  P20  1  0.250000  0.234078  0.649617  1
  P  P21  1  0.750000  0.734078  0.850383  1
  P  P22  1  0.250000  0.265922  0.149617  1
  P  P23  1  0.750000  0.765922  0.350383  1
  P  P24  1  0.250000  0.601702  0.593972  1
  P  P25  1  0.750000  0.101702  0.906028  1
  P  P26  1  0.250000  0.898298  0.093972  1
  P  P27  1  0.750000  0.398298  0.406028  1
  P  P28  1  0.250000  0.058196  0.368131  1
  P  P29  1  0.750000  0.558196  0.131869  1
  P  P30  1  0.250000  0.441804  0.868131  1
  P  P31  1  0.750000  0.941804  0.631869  1
