# generated using pymatgen
data_Sm6BiO12
_symmetry_space_group_name_H-M   'P 1'
_cell_length_a   6.72353528
_cell_length_b   6.72353653
_cell_length_c   6.72353656
_cell_angle_alpha   98.88178188
_cell_angle_beta   98.88177250
_cell_angle_gamma   98.88179424
_symmetry_Int_Tables_number   1
_chemical_formula_structural   Sm6BiO12
_chemical_formula_sum   'Sm6 Bi1 O12'
_cell_volume   291.71069581
_cell_formula_units_Z   1
loop_
 _symmetry_equiv_pos_site_id
 _symmetry_equiv_pos_as_xyz
  1  'x, y, z'
loop_
 _atom_site_type_symbol
 _atom_site_label
 _atom_site_symmetry_multiplicity
 _atom_site_fract_x
 _atom_site_fract_y
 _atom_site_fract_z
 _atom_site_occupancy
  Sm  Sm0  1  0.304877  0.609555  0.141225  1
  Sm  Sm1  1  0.609555  0.141225  0.304877  1
  Sm  Sm2  1  0.390445  0.858775  0.695123  1
  Sm  Sm3  1  0.695123  0.390445  0.858775  1
  Sm  Sm4  1  0.858775  0.695123  0.390445  1
  Sm  Sm5  1  0.141225  0.304877  0.609555  1
  Bi  Bi6  1  0.000000  0.000000  0.000000  1
  O  O7  1  0.437349  0.178053  0.588141  1
  O  O8  1  0.930788  0.688835  0.048374  1
  O  O9  1  0.178053  0.588141  0.437349  1
  O  O10  1  0.821947  0.411859  0.562651  1
  O  O11  1  0.562651  0.821947  0.411859  1
  O  O12  1  0.588141  0.437349  0.178053  1
  O  O13  1  0.411859  0.562651  0.821947  1
  O  O14  1  0.951626  0.069212  0.311165  1
  O  O15  1  0.048374  0.930788  0.688835  1
  O  O16  1  0.688835  0.048374  0.930788  1
  O  O17  1  0.069212  0.311165  0.951626  1
  O  O18  1  0.311165  0.951626  0.069212  1
