# generated using pymatgen
data_Li8Nd8AlBi7
_symmetry_space_group_name_H-M   'P 1'
_cell_length_a   9.78850400
_cell_length_b   9.78850389
_cell_length_c   7.43171800
_cell_angle_alpha   90.00000000
_cell_angle_beta   90.00000000
_cell_angle_gamma   120.00000038
_symmetry_Int_Tables_number   1
_chemical_formula_structural   Li8Nd8AlBi7
_chemical_formula_sum   'Li8 Nd8 Al1 Bi7'
_cell_volume   616.66953273
_cell_formula_units_Z   1
loop_
 _symmetry_equiv_pos_site_id
 _symmetry_equiv_pos_as_xyz
  1  'x, y, z'
loop_
 _atom_site_type_symbol
 _atom_site_label
 _atom_site_symmetry_multiplicity
 _atom_site_fract_x
 _atom_site_fract_y
 _atom_site_fract_z
 _atom_site_occupancy
  Li  Li0  1  0.167991  0.335980  0.277169  1
  Li  Li1  1  0.167991  0.832009  0.277169  1
  Li  Li2  1  0.664020  0.832009  0.277169  1
  Li  Li3  1  0.830075  0.660150  0.775449  1
  Li  Li4  1  0.830075  0.169925  0.775449  1
  Li  Li5  1  0.339850  0.169925  0.775449  1
  Li  Li6  1  0.333333  0.666667  0.681601  1
  Li  Li7  1  0.666667  0.333333  0.185413  1
  Nd  Nd8  1  0.515383  0.030767  0.499128  1
  Nd  Nd9  1  0.515383  0.484617  0.499128  1
  Nd  Nd10  1  0.969233  0.484617  0.499128  1
  Nd  Nd11  1  0.496227  0.992453  0.991194  1
  Nd  Nd12  1  0.496227  0.503773  0.991194  1
  Nd  Nd13  1  0.007547  0.503773  0.991194  1
  Nd  Nd14  1  0.000000  0.000000  0.503159  1
  Nd  Nd15  1  0.000000  0.000000  0.000887  1
  Al  Al16  1  0.666667  0.333333  0.760142  1
  Bi  Bi17  1  0.166305  0.332611  0.737278  1
  Bi  Bi18  1  0.166305  0.833695  0.737278  1
  Bi  Bi19  1  0.667389  0.833695  0.737278  1
  Bi  Bi20  1  0.833410  0.666820  0.236886  1
  Bi  Bi21  1  0.833410  0.166590  0.236886  1
  Bi  Bi22  1  0.333180  0.166590  0.236886  1
  Bi  Bi23  1  0.333333  0.666667  0.259460  1
