# generated using pymatgen
data_Tm4MoOsC4
_symmetry_space_group_name_H-M   'P 1'
_cell_length_a   5.02911600
_cell_length_b   6.53035074
_cell_length_c   9.77477215
_cell_angle_alpha   89.22523814
_cell_angle_beta   90.00000000
_cell_angle_gamma   90.00000000
_symmetry_Int_Tables_number   1
_chemical_formula_structural   Tm4MoOsC4
_chemical_formula_sum   'Tm8 Mo2 Os2 C8'
_cell_volume   320.99265645
_cell_formula_units_Z   2
loop_
 _symmetry_equiv_pos_site_id
 _symmetry_equiv_pos_as_xyz
  1  'x, y, z'
loop_
 _atom_site_type_symbol
 _atom_site_label
 _atom_site_symmetry_multiplicity
 _atom_site_fract_x
 _atom_site_fract_y
 _atom_site_fract_z
 _atom_site_occupancy
  Tm  Tm0  1  0.250000  0.677380  0.558331  1
  Tm  Tm1  1  0.750000  0.322620  0.441669  1
  Tm  Tm2  1  0.750000  0.826370  0.058985  1
  Tm  Tm3  1  0.250000  0.173630  0.941015  1
  Tm  Tm4  1  0.250000  0.539863  0.219550  1
  Tm  Tm5  1  0.750000  0.460137  0.780450  1
  Tm  Tm6  1  0.750000  0.968551  0.717232  1
  Tm  Tm7  1  0.250000  0.031449  0.282768  1
  Mo  Mo8  1  0.250000  0.714092  0.869787  1
  Mo  Mo9  1  0.750000  0.285908  0.130213  1
  Os  Os10  1  0.750000  0.781590  0.368926  1
  Os  Os11  1  0.250000  0.218410  0.631074  1
  C  C12  1  0.250000  0.446941  0.757407  1
  C  C13  1  0.750000  0.553059  0.242593  1
  C  C14  1  0.750000  0.048963  0.260471  1
  C  C15  1  0.250000  0.951037  0.739529  1
  C  C16  1  0.250000  0.827350  0.056102  1
  C  C17  1  0.750000  0.172650  0.943898  1
  C  C18  1  0.750000  0.674160  0.552635  1
  C  C19  1  0.250000  0.325840  0.447365  1
