# generated using pymatgen
data_Zr10CuSn3GeSb3
_symmetry_space_group_name_H-M   'P 1'
_cell_length_a   8.67896500
_cell_length_b   8.67896547
_cell_length_c   5.87537300
_cell_angle_alpha   90.00000000
_cell_angle_beta   90.00000000
_cell_angle_gamma   119.99999440
_symmetry_Int_Tables_number   1
_chemical_formula_structural   Zr10CuSn3GeSb3
_chemical_formula_sum   'Zr10 Cu1 Sn3 Ge1 Sb3'
_cell_volume   383.26750262
_cell_formula_units_Z   1
loop_
 _symmetry_equiv_pos_site_id
 _symmetry_equiv_pos_as_xyz
  1  'x, y, z'
loop_
 _atom_site_type_symbol
 _atom_site_label
 _atom_site_symmetry_multiplicity
 _atom_site_fract_x
 _atom_site_fract_y
 _atom_site_fract_z
 _atom_site_occupancy
  Zr  Zr0  1  0.666667  0.333333  0.998396  1
  Zr  Zr1  1  0.333333  0.666667  0.998396  1
  Zr  Zr2  1  0.333333  0.666667  0.501913  1
  Zr  Zr3  1  0.666667  0.333333  0.501913  1
  Zr  Zr4  1  0.732080  0.732080  0.752267  1
  Zr  Zr5  1  0.267920  0.000000  0.752267  1
  Zr  Zr6  1  0.000000  0.267920  0.752267  1
  Zr  Zr7  1  0.260107  0.260107  0.249389  1
  Zr  Zr8  1  0.739893  0.000000  0.249389  1
  Zr  Zr9  1  0.000000  0.739893  0.249389  1
  Cu  Cu10  1  0.000000  0.000000  0.984896  1
  Sn  Sn11  1  0.385903  0.385903  0.751791  1
  Sn  Sn12  1  0.614097  0.000000  0.751791  1
  Sn  Sn13  1  0.000000  0.614097  0.751791  1
  Ge  Ge14  1  0.000000  0.000000  0.510060  1
  Sb  Sb15  1  0.608591  0.608591  0.248028  1
  Sb  Sb16  1  0.391409  0.000000  0.248028  1
  Sb  Sb17  1  0.000000  0.391409  0.248028  1
