# generated using pymatgen
data_PrNd7Be3Si12Pt
_symmetry_space_group_name_H-M   'P 1'
_cell_length_a   8.04312600
_cell_length_b   8.04312512
_cell_length_c   8.61347200
_cell_angle_alpha   90.00000000
_cell_angle_beta   90.00000000
_cell_angle_gamma   119.99999540
_symmetry_Int_Tables_number   1
_chemical_formula_structural   PrNd7Be3Si12Pt
_chemical_formula_sum   'Pr1 Nd7 Be3 Si12 Pt1'
_cell_volume   482.56808360
_cell_formula_units_Z   1
loop_
 _symmetry_equiv_pos_site_id
 _symmetry_equiv_pos_as_xyz
  1  'x, y, z'
loop_
 _atom_site_type_symbol
 _atom_site_label
 _atom_site_symmetry_multiplicity
 _atom_site_fract_x
 _atom_site_fract_y
 _atom_site_fract_z
 _atom_site_occupancy
  Pr  Pr0  1  0.000000  0.000000  0.748926  1
  Nd  Nd1  1  0.000000  0.000000  0.250871  1
  Nd  Nd2  1  0.500939  0.499061  0.747369  1
  Nd  Nd3  1  0.500939  0.001880  0.747369  1
  Nd  Nd4  1  0.998120  0.499061  0.747369  1
  Nd  Nd5  1  0.501169  0.498831  0.252645  1
  Nd  Nd6  1  0.997662  0.498831  0.252645  1
  Nd  Nd7  1  0.501169  0.002338  0.252645  1
  Be  Be8  1  0.666667  0.333333  0.999788  1
  Be  Be9  1  0.666667  0.333333  0.500684  1
  Be  Be10  1  0.333333  0.666667  0.498832  1
  Si  Si11  1  0.829515  0.170485  0.000337  1
  Si  Si12  1  0.829515  0.659029  0.000337  1
  Si  Si13  1  0.340971  0.170485  0.000337  1
  Si  Si14  1  0.827645  0.172355  0.499545  1
  Si  Si15  1  0.827645  0.655290  0.499545  1
  Si  Si16  1  0.344710  0.172355  0.499545  1
  Si  Si17  1  0.172673  0.827327  0.499548  1
  Si  Si18  1  0.654654  0.827327  0.499548  1
  Si  Si19  1  0.172673  0.345346  0.499548  1
  Si  Si20  1  0.166418  0.833582  0.000669  1
  Si  Si21  1  0.667165  0.833582  0.000669  1
  Si  Si22  1  0.166418  0.332835  0.000669  1
  Pt  Pt23  1  0.333333  0.666667  0.000558  1
