# generated using pymatgen
data_Na(Pu5Se8)2
_symmetry_space_group_name_H-M   'P 1'
_cell_length_a   8.71418900
_cell_length_b   8.71418900
_cell_length_c   8.73667800
_cell_angle_alpha   90.00000000
_cell_angle_beta   90.00000000
_cell_angle_gamma   90.00000000
_symmetry_Int_Tables_number   1
_chemical_formula_structural   Na(Pu5Se8)2
_chemical_formula_sum   'Na1 Pu10 Se16'
_cell_volume   663.43790296
_cell_formula_units_Z   1
loop_
 _symmetry_equiv_pos_site_id
 _symmetry_equiv_pos_as_xyz
  1  'x, y, z'
loop_
 _atom_site_type_symbol
 _atom_site_label
 _atom_site_symmetry_multiplicity
 _atom_site_fract_x
 _atom_site_fract_y
 _atom_site_fract_z
 _atom_site_occupancy
  Na  Na0  1  0.000000  0.000000  0.500000  1
  Pu  Pu1  1  0.250252  0.626084  0.366934  1
  Pu  Pu2  1  0.000000  0.500000  0.748421  1
  Pu  Pu3  1  0.373916  0.250252  0.633066  1
  Pu  Pu4  1  0.749748  0.373916  0.366934  1
  Pu  Pu5  1  0.129093  0.254638  0.127092  1
  Pu  Pu6  1  0.745362  0.129093  0.872908  1
  Pu  Pu7  1  0.500000  0.000000  0.251579  1
  Pu  Pu8  1  0.870907  0.745362  0.127092  1
  Pu  Pu9  1  0.254638  0.870907  0.872908  1
  Pu  Pu10  1  0.626084  0.749748  0.633066  1
  Se  Se11  1  0.577453  0.679973  0.311507  1
  Se  Se12  1  0.171945  0.575832  0.046055  1
  Se  Se13  1  0.926060  0.670637  0.449275  1
  Se  Se14  1  0.073940  0.329363  0.449275  1
  Se  Se15  1  0.422547  0.320027  0.311507  1
  Se  Se16  1  0.320027  0.577453  0.688493  1
  Se  Se17  1  0.828055  0.424168  0.046055  1
  Se  Se18  1  0.075794  0.179123  0.808884  1
  Se  Se19  1  0.679973  0.422547  0.688493  1
  Se  Se20  1  0.670637  0.073940  0.550725  1
  Se  Se21  1  0.424168  0.171945  0.953945  1
  Se  Se22  1  0.575832  0.828055  0.953945  1
  Se  Se23  1  0.924206  0.820877  0.808884  1
  Se  Se24  1  0.820877  0.075794  0.191116  1
  Se  Se25  1  0.329363  0.926060  0.550725  1
  Se  Se26  1  0.179123  0.924206  0.191116  1
