# generated using pymatgen
data_Ac5Mg2Ru3
_symmetry_space_group_name_H-M   'P 1'
_cell_length_a   9.02576187
_cell_length_b   9.02576157
_cell_length_c   9.02576200
_cell_angle_alpha   109.47121937
_cell_angle_beta   109.47121868
_cell_angle_gamma   109.47121692
_symmetry_Int_Tables_number   1
_chemical_formula_structural   Ac5Mg2Ru3
_chemical_formula_sum   'Ac10 Mg4 Ru6'
_cell_volume   566.01736015
_cell_formula_units_Z   2
loop_
 _symmetry_equiv_pos_site_id
 _symmetry_equiv_pos_as_xyz
  1  'x, y, z'
loop_
 _atom_site_type_symbol
 _atom_site_label
 _atom_site_symmetry_multiplicity
 _atom_site_fract_x
 _atom_site_fract_y
 _atom_site_fract_z
 _atom_site_occupancy
  Ac  Ac0  1  0.791105  0.000000  0.000000  1
  Ac  Ac1  1  0.250000  0.314946  0.064946  1
  Ac  Ac2  1  0.708897  0.708897  0.208897  1
  Ac  Ac3  1  0.185054  0.935054  0.250000  1
  Ac  Ac4  1  0.000000  0.500001  0.291104  1
  Ac  Ac5  1  0.750000  0.185054  0.435054  1
  Ac  Ac6  1  0.500001  0.791105  0.500001  1
  Ac  Ac7  1  0.935054  0.750000  0.685054  1
  Ac  Ac8  1  0.314946  0.564946  0.750000  1
  Ac  Ac9  1  0.564946  0.250000  0.814945  1
  Mg  Mg10  1  0.411744  0.000000  0.000000  1
  Mg  Mg11  1  0.500000  0.411744  0.500000  1
  Mg  Mg12  1  0.088256  0.088256  0.588256  1
  Mg  Mg13  1  0.000000  0.500000  0.911744  1
  Ru  Ru14  1  0.379451  0.750000  0.129451  1
  Ru  Ru15  1  0.629451  0.379451  0.250000  1
  Ru  Ru16  1  0.120549  0.250000  0.370549  1
  Ru  Ru17  1  0.250000  0.870549  0.620550  1
  Ru  Ru18  1  0.870548  0.120549  0.750000  1
  Ru  Ru19  1  0.750000  0.629451  0.879451  1
