# generated using pymatgen
data_YSc3(SiMo)4
_symmetry_space_group_name_H-M   'P 1'
_cell_length_a   3.56985500
_cell_length_b   7.13141959
_cell_length_c   8.27896791
_cell_angle_alpha   89.89347851
_cell_angle_beta   90.00000000
_cell_angle_gamma   90.00000000
_symmetry_Int_Tables_number   1
_chemical_formula_structural   YSc3(SiMo)4
_chemical_formula_sum   'Y1 Sc3 Si4 Mo4'
_cell_volume   210.76670925
_cell_formula_units_Z   1
loop_
 _symmetry_equiv_pos_site_id
 _symmetry_equiv_pos_as_xyz
  1  'x, y, z'
loop_
 _atom_site_type_symbol
 _atom_site_label
 _atom_site_symmetry_multiplicity
 _atom_site_fract_x
 _atom_site_fract_y
 _atom_site_fract_z
 _atom_site_occupancy
  Y  Y0  1  0.750000  0.457316  0.835680  1
  Sc  Sc1  1  0.250000  0.042075  0.333877  1
  Sc  Sc2  1  0.250000  0.543763  0.169836  1
  Sc  Sc3  1  0.750000  0.955571  0.664712  1
  Si  Si4  1  0.250000  0.252289  0.629715  1
  Si  Si5  1  0.250000  0.766625  0.863468  1
  Si  Si6  1  0.750000  0.742651  0.362546  1
  Si  Si7  1  0.750000  0.239823  0.141049  1
  Mo  Mo8  1  0.250000  0.122646  0.943978  1
  Mo  Mo9  1  0.250000  0.626775  0.556048  1
  Mo  Mo10  1  0.750000  0.875549  0.060748  1
  Mo  Mo11  1  0.750000  0.374919  0.438344  1
