# generated using pymatgen
data_Er8Lu4Co4TcSn
_symmetry_space_group_name_H-M   'P 1'
_cell_length_a   8.17292013
_cell_length_b   8.17291882
_cell_length_c   8.17292053
_cell_angle_alpha   111.66603883
_cell_angle_beta   110.65675156
_cell_angle_gamma   106.14298503
_symmetry_Int_Tables_number   1
_chemical_formula_structural   Er8Lu4Co4TcSn
_chemical_formula_sum   'Er8 Lu4 Co4 Tc1 Sn1'
_cell_volume   419.16178202
_cell_formula_units_Z   1
loop_
 _symmetry_equiv_pos_site_id
 _symmetry_equiv_pos_as_xyz
  1  'x, y, z'
loop_
 _atom_site_type_symbol
 _atom_site_label
 _atom_site_symmetry_multiplicity
 _atom_site_fract_x
 _atom_site_fract_y
 _atom_site_fract_z
 _atom_site_occupancy
  Er  Er0  1  0.421235  0.224572  0.196662  1
  Er  Er1  1  0.578765  0.775428  0.803338  1
  Er  Er2  1  0.027910  0.224572  0.803338  1
  Er  Er3  1  0.972090  0.775428  0.196662  1
  Er  Er4  1  0.182532  0.277246  0.459779  1
  Er  Er5  1  0.817468  0.722754  0.540221  1
  Er  Er6  1  0.182532  0.722754  0.905287  1
  Er  Er7  1  0.817468  0.277246  0.094713  1
  Lu  Lu8  1  0.313673  0.620216  0.306543  1
  Lu  Lu9  1  0.686327  0.379784  0.693457  1
  Lu  Lu10  1  0.313673  0.007129  0.693457  1
  Lu  Lu11  1  0.686327  0.992871  0.306543  1
  Co  Co12  1  0.375204  0.000000  0.375204  1
  Co  Co13  1  0.624796  0.000000  0.624796  1
  Co  Co14  1  0.112538  0.612538  0.500000  1
  Co  Co15  1  0.887462  0.387462  0.500000  1
  Tc  Tc16  1  0.000000  0.000000  0.000000  1
  Sn  Sn17  1  0.500000  0.500000  0.000000  1
