# generated using pymatgen
data_Tb3Ga3(FeO6)2
_symmetry_space_group_name_H-M   'P 1'
_cell_length_a   10.80591033
_cell_length_b   10.80590962
_cell_length_c   10.80591000
_cell_angle_alpha   109.47122135
_cell_angle_beta   109.47122002
_cell_angle_gamma   109.47122259
_symmetry_Int_Tables_number   1
_chemical_formula_structural   Tb3Ga3(FeO6)2
_chemical_formula_sum   'Tb12 Ga12 Fe8 O48'
_cell_volume   971.31955983
_cell_formula_units_Z   4
loop_
 _symmetry_equiv_pos_site_id
 _symmetry_equiv_pos_as_xyz
  1  'x, y, z'
loop_
 _atom_site_type_symbol
 _atom_site_label
 _atom_site_symmetry_multiplicity
 _atom_site_fract_x
 _atom_site_fract_y
 _atom_site_fract_z
 _atom_site_occupancy
  Tb  Tb0  1  0.250000  0.375000  0.125000  1
  Tb  Tb1  1  0.750000  0.625000  0.875000  1
  Tb  Tb2  1  0.750000  0.125000  0.375000  1
  Tb  Tb3  1  0.125000  0.250000  0.375000  1
  Tb  Tb4  1  0.375000  0.750000  0.125000  1
  Tb  Tb5  1  0.250000  0.875000  0.625000  1
  Tb  Tb6  1  0.875000  0.750000  0.625000  1
  Tb  Tb7  1  0.625000  0.250000  0.875000  1
  Tb  Tb8  1  0.375000  0.125000  0.250000  1
  Tb  Tb9  1  0.625000  0.875000  0.750000  1
  Tb  Tb10  1  0.125000  0.375000  0.750000  1
  Tb  Tb11  1  0.875000  0.625000  0.250000  1
  Ga  Ga12  1  0.250000  0.625000  0.375000  1
  Ga  Ga13  1  0.750000  0.375000  0.625000  1
  Ga  Ga14  1  0.750000  0.875000  0.125000  1
  Ga  Ga15  1  0.375000  0.250000  0.625000  1
  Ga  Ga16  1  0.625000  0.750000  0.375000  1
  Ga  Ga17  1  0.250000  0.125000  0.875000  1
  Ga  Ga18  1  0.125000  0.750000  0.875000  1
  Ga  Ga19  1  0.875000  0.250000  0.125000  1
  Ga  Ga20  1  0.625000  0.375000  0.250000  1
  Ga  Ga21  1  0.375000  0.625000  0.750000  1
  Ga  Ga22  1  0.875000  0.125000  0.750000  1
  Ga  Ga23  1  0.125000  0.875000  0.250000  1
  Fe  Fe24  1  0.000000  0.000000  0.000000  1
  Fe  Fe25  1  0.500000  0.000000  0.500000  1
  Fe  Fe26  1  0.000000  0.500000  0.500000  1
  Fe  Fe27  1  0.500000  0.000000  0.000000  1
  Fe  Fe28  1  0.500000  0.500000  0.000000  1
  Fe  Fe29  1  0.500000  0.500000  0.500000  1
  Fe  Fe30  1  0.000000  0.000000  0.500000  1
  Fe  Fe31  1  0.000000  0.500000  0.000000  1
  O  O32  1  0.470996  0.376269  0.291977  1
  O  O33  1  0.529004  0.623731  0.708023  1
  O  O34  1  0.584292  0.179019  0.208023  1
  O  O35  1  0.915708  0.123731  0.594727  1
  O  O36  1  0.291977  0.470996  0.376269  1
  O  O37  1  0.320981  0.915708  0.291977  1
  O  O38  1  0.415708  0.820981  0.791977  1
  O  O39  1  0.084292  0.876269  0.405273  1
  O  O40  1  0.708023  0.529004  0.623731  1
  O  O41  1  0.679019  0.084292  0.708023  1
  O  O42  1  0.029004  0.320981  0.905273  1
  O  O43  1  0.208023  0.584292  0.179019  1
  O  O44  1  0.123731  0.029004  0.208023  1
  O  O45  1  0.970996  0.679019  0.094727  1
  O  O46  1  0.791977  0.415708  0.820981  1
  O  O47  1  0.876269  0.970996  0.791977  1
  O  O48  1  0.594727  0.915708  0.123731  1
  O  O49  1  0.179019  0.470996  0.594727  1
  O  O50  1  0.405273  0.084292  0.876269  1
  O  O51  1  0.820981  0.529004  0.405273  1
  O  O52  1  0.905273  0.029004  0.320981  1
  O  O53  1  0.376269  0.584292  0.905273  1
  O  O54  1  0.094727  0.970996  0.679019  1
  O  O55  1  0.623731  0.415708  0.094727  1
  O  O56  1  0.376269  0.291977  0.470996  1
  O  O57  1  0.584292  0.905273  0.376269  1
  O  O58  1  0.623731  0.708023  0.529004  1
  O  O59  1  0.415708  0.094727  0.623731  1
  O  O60  1  0.123731  0.594727  0.915708  1
  O  O61  1  0.029004  0.208023  0.123731  1
  O  O62  1  0.876269  0.405273  0.084292  1
  O  O63  1  0.970996  0.791977  0.876269  1
  O  O64  1  0.320981  0.905273  0.029004  1
  O  O65  1  0.915708  0.291977  0.320981  1
  O  O66  1  0.679019  0.094727  0.970996  1
  O  O67  1  0.084292  0.708023  0.679019  1
  O  O68  1  0.179019  0.208023  0.584292  1
  O  O69  1  0.470996  0.594727  0.179019  1
  O  O70  1  0.820981  0.791977  0.415708  1
  O  O71  1  0.529004  0.405273  0.820981  1
  O  O72  1  0.291977  0.320981  0.915708  1
  O  O73  1  0.708023  0.679019  0.084292  1
  O  O74  1  0.208023  0.123731  0.029004  1
  O  O75  1  0.791977  0.876269  0.970996  1
  O  O76  1  0.905273  0.376269  0.584292  1
  O  O77  1  0.094727  0.623731  0.415708  1
  O  O78  1  0.594727  0.179019  0.470996  1
  O  O79  1  0.405273  0.820981  0.529004  1
