# generated using pymatgen
data_K4CaPu3O12
_symmetry_space_group_name_H-M   'P 1'
_cell_length_a   7.44137651
_cell_length_b   7.44137640
_cell_length_c   7.44137700
_cell_angle_alpha   109.47122228
_cell_angle_beta   109.47122196
_cell_angle_gamma   109.47122347
_symmetry_Int_Tables_number   1
_chemical_formula_structural   K4CaPu3O12
_chemical_formula_sum   'K4 Ca1 Pu3 O12'
_cell_volume   317.20347565
_cell_formula_units_Z   1
loop_
 _symmetry_equiv_pos_site_id
 _symmetry_equiv_pos_as_xyz
  1  'x, y, z'
loop_
 _atom_site_type_symbol
 _atom_site_label
 _atom_site_symmetry_multiplicity
 _atom_site_fract_x
 _atom_site_fract_y
 _atom_site_fract_z
 _atom_site_occupancy
  K  K0  1  0.000000  0.500000  0.000000  1
  K  K1  1  0.500000  0.000000  0.000000  1
  K  K2  1  0.000000  0.000000  0.500000  1
  K  K3  1  0.500000  0.500000  0.500000  1
  Ca  Ca4  1  0.000000  0.000000  0.000000  1
  Pu  Pu5  1  0.500000  0.000000  0.500000  1
  Pu  Pu6  1  0.000000  0.500000  0.500000  1
  Pu  Pu7  1  0.500000  0.500000  0.000000  1
  O  O8  1  0.250000  0.750000  0.500000  1
  O  O9  1  0.750000  0.500000  0.250000  1
  O  O10  1  0.250000  0.500000  0.750000  1
  O  O11  1  0.500000  0.750000  0.250000  1
  O  O12  1  0.500000  0.250000  0.750000  1
  O  O13  1  0.750000  0.250000  0.500000  1
  O  O14  1  0.725365  0.725365  0.000000  1
  O  O15  1  0.274635  0.000000  0.274635  1
  O  O16  1  0.274635  0.274635  0.000000  1
  O  O17  1  0.000000  0.274635  0.274635  1
  O  O18  1  0.000000  0.725365  0.725365  1
  O  O19  1  0.725365  0.000000  0.725365  1
