# generated using pymatgen
data_Tb4Dy3Zr(B6Os)4
_symmetry_space_group_name_H-M   'P 1'
_cell_length_a   3.64803300
_cell_length_b   9.14042101
_cell_length_c   11.51376767
_cell_angle_alpha   90.04645229
_cell_angle_beta   90.00000000
_cell_angle_gamma   90.00000000
_symmetry_Int_Tables_number   1
_chemical_formula_structural   Tb4Dy3Zr(B6Os)4
_chemical_formula_sum   'Tb4 Dy3 Zr1 B24 Os4'
_cell_volume   383.92136162
_cell_formula_units_Z   1
loop_
 _symmetry_equiv_pos_site_id
 _symmetry_equiv_pos_as_xyz
  1  'x, y, z'
loop_
 _atom_site_type_symbol
 _atom_site_label
 _atom_site_symmetry_multiplicity
 _atom_site_fract_x
 _atom_site_fract_y
 _atom_site_fract_z
 _atom_site_occupancy
  Tb  Tb0  1  0.000000  0.322171  0.413508  1
  Tb  Tb1  1  0.000000  0.678067  0.586998  1
  Tb  Tb2  1  0.000000  0.821214  0.086084  1
  Tb  Tb3  1  0.000000  0.178934  0.913257  1
  Dy  Dy4  1  0.000000  0.944363  0.373582  1
  Dy  Dy5  1  0.000000  0.056416  0.627435  1
  Dy  Dy6  1  0.000000  0.444329  0.125576  1
  Zr  Zr7  1  0.000000  0.556277  0.873371  1
  B  B8  1  0.500000  0.554055  0.432653  1
  B  B9  1  0.500000  0.446730  0.567855  1
  B  B10  1  0.500000  0.053782  0.066672  1
  B  B11  1  0.500000  0.943941  0.933185  1
  B  B12  1  0.500000  0.747802  0.419585  1
  B  B13  1  0.500000  0.253063  0.581148  1
  B  B14  1  0.500000  0.248161  0.080147  1
  B  B15  1  0.500000  0.748563  0.919520  1
  B  B16  1  0.500000  0.790733  0.266230  1
  B  B17  1  0.500000  0.209756  0.734730  1
  B  B18  1  0.500000  0.290972  0.233279  1
  B  B19  1  0.500000  0.706518  0.766155  1
  B  B20  1  0.500000  0.630983  0.185391  1
  B  B21  1  0.500000  0.371262  0.815798  1
  B  B22  1  0.500000  0.132074  0.314436  1
  B  B23  1  0.500000  0.867057  0.685554  1
  B  B24  1  0.500000  0.983877  0.213033  1
  B  B25  1  0.500000  0.015494  0.787622  1
  B  B26  1  0.500000  0.483075  0.286726  1
  B  B27  1  0.500000  0.518949  0.714085  1
  B  B28  1  0.500000  0.604756  0.025590  1
  B  B29  1  0.500000  0.397718  0.968437  1
  B  B30  1  0.500000  0.109701  0.470476  1
  B  B31  1  0.500000  0.890529  0.530466  1
  Os  Os32  1  0.000000  0.637466  0.320123  1
  Os  Os33  1  0.000000  0.364594  0.681586  1
  Os  Os34  1  0.000000  0.138166  0.177690  1
  Os  Os35  1  0.000000  0.858448  0.822019  1
