# generated using pymatgen
data_TbSm3Ga3SiRu4
_symmetry_space_group_name_H-M   'P 1'
_cell_length_a   4.52272200
_cell_length_b   7.26261632
_cell_length_c   7.16083748
_cell_angle_alpha   90.11736605
_cell_angle_beta   90.00000000
_cell_angle_gamma   90.00000000
_symmetry_Int_Tables_number   1
_chemical_formula_structural   TbSm3Ga3SiRu4
_chemical_formula_sum   'Tb1 Sm3 Ga3 Si1 Ru4'
_cell_volume   235.21006455
_cell_formula_units_Z   1
loop_
 _symmetry_equiv_pos_site_id
 _symmetry_equiv_pos_as_xyz
  1  'x, y, z'
loop_
 _atom_site_type_symbol
 _atom_site_label
 _atom_site_symmetry_multiplicity
 _atom_site_fract_x
 _atom_site_fract_y
 _atom_site_fract_z
 _atom_site_occupancy
  Tb  Tb0  1  0.250000  0.474967  0.694326  1
  Sm  Sm1  1  0.250000  0.982379  0.809377  1
  Sm  Sm2  1  0.750000  0.019484  0.195716  1
  Sm  Sm3  1  0.750000  0.519317  0.309418  1
  Ga  Ga4  1  0.250000  0.307910  0.107050  1
  Ga  Ga5  1  0.750000  0.688211  0.890215  1
  Ga  Ga6  1  0.250000  0.803603  0.398835  1
  Si  Si7  1  0.750000  0.195083  0.601005  1
  Ru  Ru8  1  0.750000  0.860290  0.565579  1
  Ru  Ru9  1  0.250000  0.159956  0.446423  1
  Ru  Ru10  1  0.750000  0.331794  0.917353  1
  Ru  Ru11  1  0.250000  0.657005  0.064702  1
