# generated using pymatgen
data_V(CoW)6
_symmetry_space_group_name_H-M   'P 1'
_cell_length_a   9.00470825
_cell_length_b   9.00470902
_cell_length_c   9.00470929
_cell_angle_alpha   30.83628441
_cell_angle_beta   30.83628740
_cell_angle_gamma   30.83628568
_symmetry_Int_Tables_number   1
_chemical_formula_structural   V(CoW)6
_chemical_formula_sum   'V1 Co6 W6'
_cell_volume   170.14376034
_cell_formula_units_Z   1
loop_
 _symmetry_equiv_pos_site_id
 _symmetry_equiv_pos_as_xyz
  1  'x, y, z'
loop_
 _atom_site_type_symbol
 _atom_site_label
 _atom_site_symmetry_multiplicity
 _atom_site_fract_x
 _atom_site_fract_y
 _atom_site_fract_z
 _atom_site_occupancy
  V  V0  1  0.000000  0.000000  0.000000  1
  Co  Co1  1  0.092100  0.092100  0.585184  1
  Co  Co2  1  0.414816  0.907900  0.907900  1
  Co  Co3  1  0.585184  0.092100  0.092100  1
  Co  Co4  1  0.907900  0.907900  0.414816  1
  Co  Co5  1  0.907900  0.414816  0.907900  1
  Co  Co6  1  0.092100  0.585184  0.092100  1
  W  W7  1  0.834947  0.834947  0.834947  1
  W  W8  1  0.653742  0.653742  0.653742  1
  W  W9  1  0.450129  0.450129  0.450129  1
  W  W10  1  0.549871  0.549871  0.549871  1
  W  W11  1  0.165053  0.165053  0.165053  1
  W  W12  1  0.346258  0.346258  0.346258  1
