# generated using pymatgen
data_Er5U3(Si3Ir)4
_symmetry_space_group_name_H-M   'P 1'
_cell_length_a   8.15195900
_cell_length_b   8.15195960
_cell_length_c   7.85841200
_cell_angle_alpha   90.00000000
_cell_angle_beta   90.00000000
_cell_angle_gamma   120.01794724
_symmetry_Int_Tables_number   1
_chemical_formula_structural   Er5U3(Si3Ir)4
_chemical_formula_sum   'Er5 U3 Si12 Ir4'
_cell_volume   452.17949163
_cell_formula_units_Z   1
loop_
 _symmetry_equiv_pos_site_id
 _symmetry_equiv_pos_as_xyz
  1  'x, y, z'
loop_
 _atom_site_type_symbol
 _atom_site_label
 _atom_site_symmetry_multiplicity
 _atom_site_fract_x
 _atom_site_fract_y
 _atom_site_fract_z
 _atom_site_occupancy
  Er  Er0  1  0.490448  0.980654  0.250000  1
  Er  Er1  1  0.019346  0.509552  0.250000  1
  Er  Er2  1  0.509706  0.490294  0.750000  1
  Er  Er3  1  0.981768  0.491020  0.750000  1
  Er  Er4  1  0.508980  0.018232  0.750000  1
  U  U5  1  0.999940  0.000060  0.250000  1
  U  U6  1  0.000128  0.999872  0.750000  1
  U  U7  1  0.492106  0.507894  0.250000  1
  Si  Si8  1  0.832245  0.167755  0.496346  1
  Si  Si9  1  0.836212  0.670632  0.498511  1
  Si  Si10  1  0.329368  0.163788  0.498511  1
  Si  Si11  1  0.832245  0.167755  0.003654  1
  Si  Si12  1  0.836212  0.670632  0.001489  1
  Si  Si13  1  0.329368  0.163788  0.001489  1
  Si  Si14  1  0.167465  0.832535  0.996905  1
  Si  Si15  1  0.670562  0.836402  0.996562  1
  Si  Si16  1  0.163598  0.329438  0.996562  1
  Si  Si17  1  0.167465  0.832535  0.503095  1
  Si  Si18  1  0.670562  0.836402  0.503438  1
  Si  Si19  1  0.163598  0.329438  0.503438  1
  Ir  Ir20  1  0.663937  0.336063  0.466235  1
  Ir  Ir21  1  0.663937  0.336063  0.033765  1
  Ir  Ir22  1  0.335401  0.664599  0.973797  1
  Ir  Ir23  1  0.335401  0.664599  0.526203  1
