# generated using pymatgen
data_Dy3Ho2Co19Si11P
_symmetry_space_group_name_H-M   'P 1'
_cell_length_a   12.12043903
_cell_length_b   12.15274427
_cell_length_c   3.71810500
_cell_angle_alpha   90.00000000
_cell_angle_beta   90.00000000
_cell_angle_gamma   120.08819307
_symmetry_Int_Tables_number   1
_chemical_formula_structural   Dy3Ho2Co19Si11P
_chemical_formula_sum   'Dy3 Ho2 Co19 Si11 P1'
_cell_volume   473.86905845
_cell_formula_units_Z   1
loop_
 _symmetry_equiv_pos_site_id
 _symmetry_equiv_pos_as_xyz
  1  'x, y, z'
loop_
 _atom_site_type_symbol
 _atom_site_label
 _atom_site_symmetry_multiplicity
 _atom_site_fract_x
 _atom_site_fract_y
 _atom_site_fract_z
 _atom_site_occupancy
  Dy  Dy0  1  0.667458  0.333533  0.000000  1
  Dy  Dy1  1  0.332542  0.666078  0.000000  1
  Dy  Dy2  1  0.000000  0.813624  0.500000  1
  Ho  Ho3  1  0.185351  0.186284  0.500000  1
  Ho  Ho4  1  0.814649  0.000933  0.500000  1
  Co  Co5  1  0.558807  0.559423  0.000000  1
  Co  Co6  1  0.441193  0.000616  0.000000  1
  Co  Co7  1  0.000000  0.440764  0.000000  1
  Co  Co8  1  0.823579  0.197181  0.000000  1
  Co  Co9  1  0.802466  0.622333  0.000000  1
  Co  Co10  1  0.377756  0.180589  0.000000  1
  Co  Co11  1  0.197534  0.819868  0.000000  1
  Co  Co12  1  0.622244  0.802833  0.000000  1
  Co  Co13  1  0.176421  0.373603  0.000000  1
  Co  Co14  1  0.644745  0.123515  0.500000  1
  Co  Co15  1  0.877146  0.519913  0.500000  1
  Co  Co16  1  0.479260  0.356863  0.500000  1
  Co  Co17  1  0.122854  0.642768  0.500000  1
  Co  Co18  1  0.520740  0.877603  0.500000  1
  Co  Co19  1  0.355255  0.478770  0.500000  1
  Co  Co20  1  0.718290  0.718574  0.500000  1
  Co  Co21  1  0.281710  0.000284  0.500000  1
  Co  Co22  1  0.000000  0.277821  0.500000  1
  Co  Co23  1  0.000000  0.004813  0.000000  1
  Si  Si24  1  0.371278  0.371595  0.000000  1
  Si  Si25  1  0.628722  0.000319  0.000000  1
  Si  Si26  1  0.000000  0.627974  0.000000  1
  Si  Si27  1  0.840439  0.317786  0.500000  1
  Si  Si28  1  0.682686  0.522236  0.500000  1
  Si  Si29  1  0.478551  0.161218  0.500000  1
  Si  Si30  1  0.317314  0.839550  0.500000  1
  Si  Si31  1  0.521449  0.682668  0.500000  1
  Si  Si32  1  0.159561  0.477348  0.500000  1
  Si  Si33  1  0.816581  0.816861  0.000000  1
  Si  Si34  1  0.183419  0.000280  0.000000  1
  P  P35  1  0.000000  0.183582  0.000000  1
