# generated using pymatgen
data_LiPrCr4O14
_symmetry_space_group_name_H-M   'P 1'
_cell_length_a   7.42076045
_cell_length_b   7.42076182
_cell_length_c   7.42076107
_cell_angle_alpha   109.25309070
_cell_angle_beta   109.25309201
_cell_angle_gamma   109.90837288
_symmetry_Int_Tables_number   1
_chemical_formula_structural   LiPrCr4O14
_chemical_formula_sum   'Li1 Pr1 Cr4 O14'
_cell_volume   314.56068732
_cell_formula_units_Z   1
loop_
 _symmetry_equiv_pos_site_id
 _symmetry_equiv_pos_as_xyz
  1  'x, y, z'
loop_
 _atom_site_type_symbol
 _atom_site_label
 _atom_site_symmetry_multiplicity
 _atom_site_fract_x
 _atom_site_fract_y
 _atom_site_fract_z
 _atom_site_occupancy
  Li  Li0  1  0.496678  0.496678  0.000000  1
  Pr  Pr1  1  0.012115  0.012115  0.000000  1
  Cr  Cr2  1  0.820620  0.371064  0.784450  1
  Cr  Cr3  1  0.036170  0.820620  0.449556  1
  Cr  Cr4  1  0.371064  0.586614  0.550444  1
  Cr  Cr5  1  0.586614  0.036170  0.215550  1
  O  O6  1  0.218543  0.718543  0.500000  1
  O  O7  1  0.718543  0.218543  0.500000  1
  O  O8  1  0.961533  0.636778  0.871414  1
  O  O9  1  0.090118  0.961533  0.324755  1
  O  O10  1  0.636778  0.765363  0.675245  1
  O  O11  1  0.765363  0.090118  0.128586  1
  O  O12  1  0.486689  0.782497  0.163822  1
  O  O13  1  0.322867  0.486689  0.704195  1
  O  O14  1  0.782497  0.618673  0.295805  1
  O  O15  1  0.618673  0.322867  0.836178  1
  O  O16  1  0.385673  0.073722  0.090478  1
  O  O17  1  0.295195  0.385673  0.311952  1
  O  O18  1  0.073722  0.983243  0.688048  1
  O  O19  1  0.983243  0.295195  0.909522  1
