# generated using pymatgen
data_LiAl6Fe5Rh12
_symmetry_space_group_name_H-M   'P 1'
_cell_length_a   4.26473500
_cell_length_b   5.99699500
_cell_length_c   12.79757300
_cell_angle_alpha   90.00019404
_cell_angle_beta   89.99962835
_cell_angle_gamma   89.99987550
_symmetry_Int_Tables_number   1
_chemical_formula_structural   LiAl6Fe5Rh12
_chemical_formula_sum   'Li1 Al6 Fe5 Rh12'
_cell_volume   327.30553726
_cell_formula_units_Z   1
loop_
 _symmetry_equiv_pos_site_id
 _symmetry_equiv_pos_as_xyz
  1  'x, y, z'
loop_
 _atom_site_type_symbol
 _atom_site_label
 _atom_site_symmetry_multiplicity
 _atom_site_fract_x
 _atom_site_fract_y
 _atom_site_fract_z
 _atom_site_occupancy
  Li  Li0  1  0.000000  0.500001  0.000000  1
  Al  Al1  1  0.000000  0.000000  0.000000  1
  Al  Al2  1  0.499687  0.500000  0.163832  1
  Al  Al3  1  0.999671  0.000001  0.331757  1
  Al  Al4  1  0.500000  0.500001  0.500000  1
  Al  Al5  1  0.000329  0.999999  0.668243  1
  Al  Al6  1  0.500311  0.500002  0.836168  1
  Fe  Fe7  1  0.499649  0.999999  0.164565  1
  Fe  Fe8  1  0.999675  0.500002  0.332265  1
  Fe  Fe9  1  0.500000  0.000000  0.500000  1
  Fe  Fe10  1  0.000326  0.500000  0.667735  1
  Fe  Fe11  1  0.500350  0.000001  0.835435  1
  Rh  Rh12  1  0.499999  0.247414  0.000000  1
  Rh  Rh13  1  0.500001  0.752585  0.000000  1
  Rh  Rh14  1  0.999686  0.249445  0.168461  1
  Rh  Rh15  1  0.999686  0.750562  0.168460  1
  Rh  Rh16  1  0.499698  0.249861  0.333996  1
  Rh  Rh17  1  0.499697  0.750138  0.333995  1
  Rh  Rh18  1  0.000001  0.250261  0.500000  1
  Rh  Rh19  1  0.999999  0.749741  0.500000  1
  Rh  Rh20  1  0.500304  0.249862  0.666004  1
  Rh  Rh21  1  0.500303  0.750139  0.666003  1
  Rh  Rh22  1  0.000315  0.249440  0.831541  1
  Rh  Rh23  1  0.000315  0.750557  0.831540  1
