# generated using pymatgen
data_Tb5Er3Hf11Si16Mo
_symmetry_space_group_name_H-M   'P 1'
_cell_length_a   7.25311573
_cell_length_b   7.25149297
_cell_length_c   13.30737075
_cell_angle_alpha   89.95932909
_cell_angle_beta   90.02174528
_cell_angle_gamma   90.05033375
_symmetry_Int_Tables_number   1
_chemical_formula_structural   Tb5Er3Hf11Si16Mo
_chemical_formula_sum   'Tb5 Er3 Hf11 Si16 Mo1'
_cell_volume   699.91288051
_cell_formula_units_Z   1
loop_
 _symmetry_equiv_pos_site_id
 _symmetry_equiv_pos_as_xyz
  1  'x, y, z'
loop_
 _atom_site_type_symbol
 _atom_site_label
 _atom_site_symmetry_multiplicity
 _atom_site_fract_x
 _atom_site_fract_y
 _atom_site_fract_z
 _atom_site_occupancy
  Tb  Tb0  1  0.501527  0.845450  0.034236  1
  Tb  Tb1  1  0.845673  0.501499  0.965731  1
  Tb  Tb2  1  0.495025  0.156929  0.534467  1
  Tb  Tb3  1  0.342866  0.998209  0.787340  1
  Tb  Tb4  1  0.656940  0.004571  0.283369  1
  Er  Er5  1  0.999159  0.343436  0.212455  1
  Er  Er6  1  0.003951  0.656105  0.716413  1
  Er  Er7  1  0.156003  0.495865  0.465484  1
  Hf  Hf8  1  0.826040  0.825036  0.500072  1
  Hf  Hf9  1  0.324022  0.674116  0.249097  1
  Hf  Hf10  1  0.674887  0.324825  0.750942  1
  Hf  Hf11  1  0.148145  0.997258  0.373609  1
  Hf  Hf12  1  0.853523  0.004814  0.877364  1
  Hf  Hf13  1  0.503707  0.648222  0.624637  1
  Hf  Hf14  1  0.349153  0.493461  0.877043  1
  Hf  Hf15  1  0.493052  0.349558  0.122923  1
  Hf  Hf16  1  0.648465  0.503658  0.375275  1
  Hf  Hf17  1  0.997553  0.148275  0.626256  1
  Hf  Hf18  1  0.004768  0.853527  0.122626  1
  Si  Si19  1  0.361070  0.296017  0.316500  1
  Si  Si20  1  0.637330  0.704770  0.817315  1
  Si  Si21  1  0.204167  0.861281  0.567469  1
  Si  Si22  1  0.137412  0.795949  0.932862  1
  Si  Si23  1  0.797012  0.138321  0.067465  1
  Si  Si24  1  0.863399  0.205699  0.432697  1
  Si  Si25  1  0.294334  0.363318  0.683586  1
  Si  Si26  1  0.705526  0.635805  0.182360  1
  Si  Si27  1  0.293477  0.051932  0.182852  1
  Si  Si28  1  0.704640  0.951364  0.686025  1
  Si  Si29  1  0.450106  0.795218  0.435066  1
  Si  Si30  1  0.203528  0.546737  0.064497  1
  Si  Si31  1  0.547510  0.204258  0.935846  1
  Si  Si32  1  0.797209  0.451409  0.564997  1
  Si  Si33  1  0.051152  0.294880  0.816836  1
  Si  Si34  1  0.952632  0.702790  0.314071  1
  Mo  Mo35  1  0.175033  0.175435  0.000218  1
