# generated using pymatgen
data_Ba20Si9SnBi2
_symmetry_space_group_name_H-M   'P 1'
_cell_length_a   8.61505000
_cell_length_b   8.61505000
_cell_length_c   17.06900200
_cell_angle_alpha   90.00000000
_cell_angle_beta   90.00000000
_cell_angle_gamma   90.00000000
_symmetry_Int_Tables_number   1
_chemical_formula_structural   Ba20Si9SnBi2
_chemical_formula_sum   'Ba20 Si9 Sn1 Bi2'
_cell_volume   1266.84573595
_cell_formula_units_Z   1
loop_
 _symmetry_equiv_pos_site_id
 _symmetry_equiv_pos_as_xyz
  1  'x, y, z'
loop_
 _atom_site_type_symbol
 _atom_site_label
 _atom_site_symmetry_multiplicity
 _atom_site_fract_x
 _atom_site_fract_y
 _atom_site_fract_z
 _atom_site_occupancy
  Ba  Ba0  1  0.312874  0.669144  0.114727  1
  Ba  Ba1  1  0.169144  0.187126  0.114727  1
  Ba  Ba2  1  0.500000  0.000000  0.721659  1
  Ba  Ba3  1  0.327108  0.682253  0.392572  1
  Ba  Ba4  1  0.668716  0.686862  0.885631  1
  Ba  Ba5  1  0.182253  0.172892  0.392572  1
  Ba  Ba6  1  0.672892  0.317747  0.392572  1
  Ba  Ba7  1  0.165762  0.809152  0.606723  1
  Ba  Ba8  1  0.331284  0.313138  0.885631  1
  Ba  Ba9  1  0.186862  0.831284  0.885631  1
  Ba  Ba10  1  0.500000  0.000000  0.244092  1
  Ba  Ba11  1  0.834238  0.190848  0.606723  1
  Ba  Ba12  1  0.309152  0.334238  0.606723  1
  Ba  Ba13  1  0.817747  0.827108  0.392572  1
  Ba  Ba14  1  0.813138  0.168716  0.885631  1
  Ba  Ba15  1  0.830856  0.812874  0.114727  1
  Ba  Ba16  1  0.000000  0.500000  0.279230  1
  Ba  Ba17  1  0.000000  0.500000  0.761896  1
  Ba  Ba18  1  0.687126  0.330856  0.114727  1
  Ba  Ba19  1  0.690848  0.665762  0.606723  1
  Si  Si20  1  0.101017  0.101865  0.748520  1
  Si  Si21  1  0.398135  0.601017  0.748520  1
  Si  Si22  1  0.601597  0.601613  0.251244  1
  Si  Si23  1  0.101613  0.898403  0.251244  1
  Si  Si24  1  0.601865  0.398983  0.748520  1
  Si  Si25  1  0.898983  0.898135  0.748520  1
  Si  Si26  1  0.398403  0.398387  0.251244  1
  Si  Si27  1  0.898387  0.101597  0.251244  1
  Si  Si28  1  0.000000  0.500000  0.489404  1
  Sn  Sn29  1  0.500000  0.000000  0.506432  1
  Bi  Bi30  1  0.000000  0.500000  0.986703  1
  Bi  Bi31  1  0.500000  0.000000  0.012913  1
