# generated using pymatgen
data_TmLuFe3P7Ru9
_symmetry_space_group_name_H-M   'P 1'
_cell_length_a   3.83933800
_cell_length_b   9.25891874
_cell_length_c   9.26716043
_cell_angle_alpha   119.97757426
_cell_angle_beta   90.00000000
_cell_angle_gamma   90.00000000
_symmetry_Int_Tables_number   1
_chemical_formula_structural   TmLuFe3P7Ru9
_chemical_formula_sum   'Tm1 Lu1 Fe3 P7 Ru9'
_cell_volume   285.35929853
_cell_formula_units_Z   1
loop_
 _symmetry_equiv_pos_site_id
 _symmetry_equiv_pos_as_xyz
  1  'x, y, z'
loop_
 _atom_site_type_symbol
 _atom_site_label
 _atom_site_symmetry_multiplicity
 _atom_site_fract_x
 _atom_site_fract_y
 _atom_site_fract_z
 _atom_site_occupancy
  Tm  Tm0  1  0.000000  0.666762  0.333350  1
  Lu  Lu1  1  0.500000  0.333299  0.666641  1
  Fe  Fe2  1  0.000000  0.889723  0.731454  1
  Fe  Fe3  1  0.000000  0.268451  0.158313  1
  Fe  Fe4  1  0.000000  0.841662  0.110242  1
  P  P5  1  0.000000  0.109922  0.695802  1
  P  P6  1  0.000000  0.304425  0.414331  1
  P  P7  1  0.000000  0.585715  0.890044  1
  P  P8  1  0.500000  0.719850  0.602851  1
  P  P9  1  0.500000  0.397223  0.116979  1
  P  P10  1  0.500000  0.882977  0.280093  1
  P  P11  1  0.000000  0.999773  0.999827  1
  Ru  Ru12  1  0.000000  0.360586  0.938479  1
  Ru  Ru13  1  0.000000  0.061581  0.422177  1
  Ru  Ru14  1  0.000000  0.577888  0.639468  1
  Ru  Ru15  1  0.500000  0.947256  0.560763  1
  Ru  Ru16  1  0.500000  0.439017  0.386309  1
  Ru  Ru17  1  0.500000  0.613717  0.052765  1
  Ru  Ru18  1  0.500000  0.116791  0.912201  1
  Ru  Ru19  1  0.500000  0.087767  0.204523  1
  Ru  Ru20  1  0.500000  0.795618  0.883390  1
