# generated using pymatgen
data_Zr2Ti3Pd
_symmetry_space_group_name_H-M   'P 1'
_cell_length_a   5.27706811
_cell_length_b   5.27706733
_cell_length_c   5.27706891
_cell_angle_alpha   64.13875634
_cell_angle_beta   64.13875880
_cell_angle_gamma   64.13875893
_symmetry_Int_Tables_number   1
_chemical_formula_structural   Zr2Ti3Pd
_chemical_formula_sum   'Zr2 Ti3 Pd1'
_cell_volume   113.37209178
_cell_formula_units_Z   1
loop_
 _symmetry_equiv_pos_site_id
 _symmetry_equiv_pos_as_xyz
  1  'x, y, z'
loop_
 _atom_site_type_symbol
 _atom_site_label
 _atom_site_symmetry_multiplicity
 _atom_site_fract_x
 _atom_site_fract_y
 _atom_site_fract_z
 _atom_site_occupancy
  Zr  Zr0  1  0.249213  0.249213  0.249213  1
  Zr  Zr1  1  0.000787  0.000787  0.000787  1
  Ti  Ti2  1  0.625000  0.625000  0.125000  1
  Ti  Ti3  1  0.625000  0.125000  0.625000  1
  Ti  Ti4  1  0.125000  0.625000  0.625000  1
  Pd  Pd5  1  0.625000  0.625000  0.625000  1
