# generated using pymatgen
data_CsDyTm9(C2Br9)2
_symmetry_space_group_name_H-M   'P 1'
_cell_length_a   10.61213336
_cell_length_b   10.68327462
_cell_length_c   10.77977259
_cell_angle_alpha   113.48371304
_cell_angle_beta   87.34461056
_cell_angle_gamma   119.03988899
_symmetry_Int_Tables_number   1
_chemical_formula_structural   CsDyTm9(C2Br9)2
_chemical_formula_sum   'Cs1 Dy1 Tm9 C4 Br18'
_cell_volume   963.35373009
_cell_formula_units_Z   1
loop_
 _symmetry_equiv_pos_site_id
 _symmetry_equiv_pos_as_xyz
  1  'x, y, z'
loop_
 _atom_site_type_symbol
 _atom_site_label
 _atom_site_symmetry_multiplicity
 _atom_site_fract_x
 _atom_site_fract_y
 _atom_site_fract_z
 _atom_site_occupancy
  Cs  Cs0  1  0.499967  0.999854  0.500219  1
  Dy  Dy1  1  0.887795  0.058614  0.999154  1
  Tm  Tm2  1  0.666859  0.718682  0.705083  1
  Tm  Tm3  1  0.282285  0.363241  0.011784  1
  Tm  Tm4  1  0.093665  0.402987  0.298549  1
  Tm  Tm5  1  0.959887  0.035952  0.332575  1
  Tm  Tm6  1  0.906714  0.596311  0.701116  1
  Tm  Tm7  1  0.109113  0.942546  0.001038  1
  Tm  Tm8  1  0.040834  0.963704  0.667541  1
  Tm  Tm9  1  0.334081  0.281376  0.295137  1
  Tm  Tm10  1  0.718255  0.636318  0.988169  1
  C  C11  1  0.158487  0.227815  0.122673  1
  C  C12  1  0.842905  0.771216  0.877266  1
  C  C13  1  0.923469  0.851831  0.795369  1
  C  C14  1  0.077949  0.147318  0.204681  1
  Br  Br15  1  0.452236  0.530890  0.834538  1
  Br  Br16  1  0.381217  0.040384  0.158940  1
  Br  Br17  1  0.780624  0.858187  0.501884  1
  Br  Br18  1  0.839609  0.315148  0.157587  1
  Br  Br19  1  0.548430  0.469487  0.165634  1
  Br  Br20  1  0.220045  0.141847  0.498510  1
  Br  Br21  1  0.314914  0.100255  0.828287  1
  Br  Br22  1  0.684559  0.898709  0.173037  1
  Br  Br23  1  0.972711  0.759996  0.172617  1
  Br  Br24  1  0.933674  0.301950  0.499880  1
  Br  Br25  1  0.029123  0.241010  0.826061  1
  Br  Br26  1  0.066863  0.698079  0.500195  1
  Br  Br27  1  0.259078  0.620634  0.185550  1
  Br  Br28  1  0.740956  0.378658  0.814190  1
  Br  Br29  1  0.640288  0.436143  0.501280  1
  Br  Br30  1  0.160330  0.690747  0.846188  1
  Br  Br31  1  0.613657  0.956564  0.836727  1
  Br  Br32  1  0.359420  0.563548  0.498538  1
