# generated using pymatgen
data_IrRuRhSe8
_symmetry_space_group_name_H-M   'P 1'
_cell_length_a   6.03265477
_cell_length_b   6.05400103
_cell_length_c   6.03370066
_cell_angle_alpha   90.11684559
_cell_angle_beta   90.39681275
_cell_angle_gamma   90.01261424
_symmetry_Int_Tables_number   1
_chemical_formula_structural   IrRuRhSe8
_chemical_formula_sum   'Ir1 Ru1 Rh1 Se8'
_cell_volume   220.35524541
_cell_formula_units_Z   1
loop_
 _symmetry_equiv_pos_site_id
 _symmetry_equiv_pos_as_xyz
  1  'x, y, z'
loop_
 _atom_site_type_symbol
 _atom_site_label
 _atom_site_symmetry_multiplicity
 _atom_site_fract_x
 _atom_site_fract_y
 _atom_site_fract_z
 _atom_site_occupancy
  Ir  Ir0  1  0.000000  0.500000  0.500000  1
  Ru  Ru1  1  0.500000  0.000000  0.500000  1
  Rh  Rh2  1  0.500000  0.500000  0.000000  1
  Se  Se3  1  0.386813  0.883112  0.118624  1
  Se  Se4  1  0.114010  0.381953  0.882280  1
  Se  Se5  1  0.879340  0.115198  0.383601  1
  Se  Se6  1  0.613187  0.116888  0.881376  1
  Se  Se7  1  0.885990  0.618047  0.117720  1
  Se  Se8  1  0.120660  0.884802  0.616399  1
  Se  Se9  1  0.620517  0.625060  0.618667  1
  Se  Se10  1  0.379483  0.374940  0.381333  1
