# generated using pymatgen
data_Y15Tm(MgSn4)4
_symmetry_space_group_name_H-M   'P 1'
_cell_length_a   7.68366262
_cell_length_b   8.23853416
_cell_length_c   15.35547400
_cell_angle_alpha   90.02132085
_cell_angle_beta   90.02439556
_cell_angle_gamma   90.05668210
_symmetry_Int_Tables_number   1
_chemical_formula_structural   Y15Tm(MgSn4)4
_chemical_formula_sum   'Y15 Tm1 Mg4 Sn16'
_cell_volume   972.03338098
_cell_formula_units_Z   1
loop_
 _symmetry_equiv_pos_site_id
 _symmetry_equiv_pos_as_xyz
  1  'x, y, z'
loop_
 _atom_site_type_symbol
 _atom_site_label
 _atom_site_symmetry_multiplicity
 _atom_site_fract_x
 _atom_site_fract_y
 _atom_site_fract_z
 _atom_site_occupancy
  Y  Y0  1  0.836934  0.670923  0.628778  1
  Y  Y1  1  0.662118  0.170578  0.371318  1
  Y  Y2  1  0.162197  0.330444  0.127175  1
  Y  Y3  1  0.660250  0.169880  0.128344  1
  Y  Y4  1  0.161391  0.328409  0.371159  1
  Y  Y5  1  0.340446  0.829367  0.629125  1
  Y  Y6  1  0.836703  0.670045  0.871981  1
  Y  Y7  1  0.501555  0.316874  0.908614  1
  Y  Y8  1  0.003515  0.183459  0.593125  1
  Y  Y9  1  0.499431  0.683443  0.408797  1
  Y  Y10  1  0.996988  0.815286  0.090847  1
  Y  Y11  1  0.497237  0.683682  0.090277  1
  Y  Y12  1  0.999076  0.817142  0.408141  1
  Y  Y13  1  0.501090  0.316578  0.592523  1
  Y  Y14  1  0.001985  0.184948  0.907102  1
  Tm  Tm15  1  0.339359  0.830666  0.871731  1
  Mg  Mg16  1  0.162462  0.495451  0.750032  1
  Mg  Mg17  1  0.666242  0.005468  0.751388  1
  Mg  Mg18  1  0.835886  0.505218  0.249912  1
  Mg  Mg19  1  0.335402  0.993231  0.250553  1
  Sn  Sn20  1  0.316659  0.036090  0.036807  1
  Sn  Sn21  1  0.818779  0.462364  0.462903  1
  Sn  Sn22  1  0.684526  0.964019  0.537918  1
  Sn  Sn23  1  0.182845  0.538875  0.960344  1
  Sn  Sn24  1  0.681307  0.964120  0.961286  1
  Sn  Sn25  1  0.182588  0.537628  0.537465  1
  Sn  Sn26  1  0.317950  0.037816  0.463311  1
  Sn  Sn27  1  0.816515  0.462042  0.037652  1
  Sn  Sn28  1  0.524046  0.592680  0.751526  1
  Sn  Sn29  1  0.029310  0.904533  0.751284  1
  Sn  Sn30  1  0.473404  0.408335  0.249804  1
  Sn  Sn31  1  0.973559  0.091571  0.248835  1
  Sn  Sn32  1  0.306433  0.150406  0.751158  1
  Sn  Sn33  1  0.803842  0.349393  0.749774  1
  Sn  Sn34  1  0.693958  0.847897  0.249459  1
  Sn  Sn35  1  0.194013  0.651136  0.249551  1
