# generated using pymatgen
data_Tb8Dy12Si15Rh
_symmetry_space_group_name_H-M   'P 1'
_cell_length_a   7.37354900
_cell_length_b   7.76374600
_cell_length_c   14.62856900
_cell_angle_alpha   90.00000000
_cell_angle_beta   90.00000000
_cell_angle_gamma   90.00119555
_symmetry_Int_Tables_number   1
_chemical_formula_structural   Tb8Dy12Si15Rh
_chemical_formula_sum   'Tb8 Dy12 Si15 Rh1'
_cell_volume   837.43235000
_cell_formula_units_Z   1
loop_
 _symmetry_equiv_pos_site_id
 _symmetry_equiv_pos_as_xyz
  1  'x, y, z'
loop_
 _atom_site_type_symbol
 _atom_site_label
 _atom_site_symmetry_multiplicity
 _atom_site_fract_x
 _atom_site_fract_y
 _atom_site_fract_z
 _atom_site_occupancy
  Tb  Tb0  1  0.021296  0.184725  0.096451  1
  Tb  Tb1  1  0.982042  0.822346  0.905583  1
  Tb  Tb2  1  0.480070  0.681079  0.905184  1
  Tb  Tb3  1  0.982042  0.822346  0.594417  1
  Tb  Tb4  1  0.520487  0.318768  0.095781  1
  Tb  Tb5  1  0.021296  0.184725  0.403549  1
  Tb  Tb6  1  0.520487  0.318768  0.404219  1
  Tb  Tb7  1  0.480070  0.681079  0.594816  1
  Dy  Dy8  1  0.152508  0.518646  0.750000  1
  Dy  Dy9  1  0.843473  0.485458  0.250000  1
  Dy  Dy10  1  0.343881  0.016944  0.250000  1
  Dy  Dy11  1  0.665123  0.985506  0.750000  1
  Dy  Dy12  1  0.314561  0.175115  0.626389  1
  Dy  Dy13  1  0.678306  0.822142  0.376545  1
  Dy  Dy14  1  0.176632  0.681672  0.376723  1
  Dy  Dy15  1  0.678306  0.822142  0.123455  1
  Dy  Dy16  1  0.830591  0.316286  0.625274  1
  Dy  Dy17  1  0.314561  0.175115  0.873611  1
  Dy  Dy18  1  0.830591  0.316286  0.874726  1
  Dy  Dy19  1  0.176632  0.681672  0.123277  1
  Si  Si20  1  0.971147  0.896859  0.250000  1
  Si  Si21  1  0.472329  0.607199  0.250000  1
  Si  Si22  1  0.526544  0.396752  0.750000  1
  Si  Si23  1  0.277013  0.866836  0.750000  1
  Si  Si24  1  0.725680  0.127516  0.250000  1
  Si  Si25  1  0.226976  0.374902  0.250000  1
  Si  Si26  1  0.765237  0.622026  0.750000  1
  Si  Si27  1  0.153726  0.471846  0.538309  1
  Si  Si28  1  0.849035  0.530425  0.461946  1
  Si  Si29  1  0.348476  0.971401  0.461414  1
  Si  Si30  1  0.849035  0.530425  0.038054  1
  Si  Si31  1  0.648855  0.030565  0.538836  1
  Si  Si32  1  0.153726  0.471846  0.961691  1
  Si  Si33  1  0.648855  0.030565  0.961164  1
  Si  Si34  1  0.348476  0.971401  0.038586  1
  Rh  Rh35  1  0.021933  0.088617  0.750000  1
