# generated using pymatgen
data_Tb15Ho5(Ir5Au)2
_symmetry_space_group_name_H-M   'P 1'
_cell_length_a   11.07792779
_cell_length_b   11.01076402
_cell_length_c   6.34146903
_cell_angle_alpha   90.00041045
_cell_angle_beta   89.87373682
_cell_angle_gamma   89.99318368
_symmetry_Int_Tables_number   1
_chemical_formula_structural   Tb15Ho5(Ir5Au)2
_chemical_formula_sum   'Tb15 Ho5 Ir10 Au2'
_cell_volume   773.50798799
_cell_formula_units_Z   1
loop_
 _symmetry_equiv_pos_site_id
 _symmetry_equiv_pos_as_xyz
  1  'x, y, z'
loop_
 _atom_site_type_symbol
 _atom_site_label
 _atom_site_symmetry_multiplicity
 _atom_site_fract_x
 _atom_site_fract_y
 _atom_site_fract_z
 _atom_site_occupancy
  Tb  Tb0  1  0.291694  0.088698  0.372018  1
  Tb  Tb1  1  0.291805  0.911509  0.872104  1
  Tb  Tb2  1  0.698383  0.092248  0.865646  1
  Tb  Tb3  1  0.698383  0.907730  0.365669  1
  Tb  Tb4  1  0.578105  0.789083  0.877178  1
  Tb  Tb5  1  0.578125  0.210907  0.377152  1
  Tb  Tb6  1  0.408286  0.790396  0.376960  1
  Tb  Tb7  1  0.408191  0.209637  0.877022  1
  Tb  Tb8  1  0.210149  0.411072  0.621203  1
  Tb  Tb9  1  0.210129  0.588599  0.121317  1
  Tb  Tb10  1  0.788983  0.419449  0.123158  1
  Tb  Tb11  1  0.788851  0.580481  0.623135  1
  Tb  Tb12  1  0.917368  0.705634  0.139041  1
  Tb  Tb13  1  0.917493  0.294295  0.639016  1
  Tb  Tb14  1  0.096169  0.702993  0.623961  1
  Ho  Ho15  1  0.096173  0.297409  0.123631  1
  Ho  Ho16  1  0.009536  0.997539  0.499776  1
  Ho  Ho17  1  0.009580  0.002742  0.999866  1
  Ho  Ho18  1  0.499692  0.498842  0.000677  1
  Ho  Ho19  1  0.499724  0.501131  0.500673  1
  Ir  Ir20  1  0.153154  0.153616  0.750975  1
  Ir  Ir21  1  0.153318  0.846668  0.250258  1
  Ir  Ir22  1  0.655056  0.346723  0.748357  1
  Ir  Ir23  1  0.655085  0.653252  0.248394  1
  Ir  Ir24  1  0.347480  0.346657  0.251307  1
  Ir  Ir25  1  0.347885  0.653226  0.751558  1
  Ir  Ir26  1  0.499821  0.999672  0.120683  1
  Ir  Ir27  1  0.499828  0.000328  0.620731  1
  Ir  Ir28  1  0.999824  0.500702  0.879447  1
  Ir  Ir29  1  0.999783  0.498645  0.378809  1
  Au  Au30  1  0.846036  0.154501  0.250105  1
  Au  Au31  1  0.845909  0.845617  0.750175  1
