# generated using pymatgen
data_LiTa(NiP)2
_symmetry_space_group_name_H-M   'P 1'
_cell_length_a   3.60493800
_cell_length_b   6.04701300
_cell_length_c   6.94165400
_cell_angle_alpha   90.00000000
_cell_angle_beta   90.00000000
_cell_angle_gamma   90.00000000
_symmetry_Int_Tables_number   1
_chemical_formula_structural   LiTa(NiP)2
_chemical_formula_sum   'Li2 Ta2 Ni4 P4'
_cell_volume   151.32185796
_cell_formula_units_Z   2
loop_
 _symmetry_equiv_pos_site_id
 _symmetry_equiv_pos_as_xyz
  1  'x, y, z'
loop_
 _atom_site_type_symbol
 _atom_site_label
 _atom_site_symmetry_multiplicity
 _atom_site_fract_x
 _atom_site_fract_y
 _atom_site_fract_z
 _atom_site_occupancy
  Li  Li0  1  0.250000  0.027906  0.819858  1
  Li  Li1  1  0.250000  0.527906  0.680142  1
  Ta  Ta2  1  0.750000  0.968108  0.174680  1
  Ta  Ta3  1  0.750000  0.468108  0.325320  1
  Ni  Ni4  1  0.250000  0.140839  0.444188  1
  Ni  Ni5  1  0.250000  0.640839  0.055812  1
  Ni  Ni6  1  0.750000  0.856315  0.564821  1
  Ni  Ni7  1  0.750000  0.356315  0.935179  1
  P  P8  1  0.250000  0.266573  0.121432  1
  P  P9  1  0.250000  0.766573  0.378568  1
  P  P10  1  0.750000  0.740259  0.876405  1
  P  P11  1  0.750000  0.240259  0.623595  1
