# generated using pymatgen
data_YNp3(B6W)2
_symmetry_space_group_name_H-M   'P 1'
_cell_length_a   3.63583000
_cell_length_b   9.32482807
_cell_length_c   11.38659308
_cell_angle_alpha   89.98629943
_cell_angle_beta   90.00000000
_cell_angle_gamma   90.00000000
_symmetry_Int_Tables_number   1
_chemical_formula_structural   YNp3(B6W)2
_chemical_formula_sum   'Y2 Np6 B24 W4'
_cell_volume   386.04522941
_cell_formula_units_Z   2
loop_
 _symmetry_equiv_pos_site_id
 _symmetry_equiv_pos_as_xyz
  1  'x, y, z'
loop_
 _atom_site_type_symbol
 _atom_site_label
 _atom_site_symmetry_multiplicity
 _atom_site_fract_x
 _atom_site_fract_y
 _atom_site_fract_z
 _atom_site_occupancy
  Y  Y0  1  0.000000  0.337754  0.407702  1
  Y  Y1  1  0.000000  0.662246  0.592298  1
  Np  Np2  1  0.000000  0.837970  0.092833  1
  Np  Np3  1  0.000000  0.162030  0.907167  1
  Np  Np4  1  0.000000  0.958971  0.400168  1
  Np  Np5  1  0.000000  0.041029  0.599832  1
  Np  Np6  1  0.000000  0.458801  0.099448  1
  Np  Np7  1  0.000000  0.541199  0.900552  1
  B  B8  1  0.500000  0.552115  0.431806  1
  B  B9  1  0.500000  0.447885  0.568194  1
  B  B10  1  0.500000  0.051275  0.067379  1
  B  B11  1  0.500000  0.948725  0.932621  1
  B  B12  1  0.500000  0.746018  0.423872  1
  B  B13  1  0.500000  0.253982  0.576128  1
  B  B14  1  0.500000  0.245407  0.075604  1
  B  B15  1  0.500000  0.754593  0.924396  1
  B  B16  1  0.500000  0.807021  0.273955  1
  B  B17  1  0.500000  0.192979  0.726045  1
  B  B18  1  0.500000  0.305742  0.224502  1
  B  B19  1  0.500000  0.694258  0.775498  1
  B  B20  1  0.500000  0.645807  0.186421  1
  B  B21  1  0.500000  0.354193  0.813579  1
  B  B22  1  0.500000  0.144611  0.312980  1
  B  B23  1  0.500000  0.855389  0.687020  1
  B  B24  1  0.500000  0.987268  0.221229  1
  B  B25  1  0.500000  0.012732  0.778771  1
  B  B26  1  0.500000  0.488491  0.278441  1
  B  B27  1  0.500000  0.511509  0.721559  1
  B  B28  1  0.500000  0.641434  0.039088  1
  B  B29  1  0.500000  0.358566  0.960912  1
  B  B30  1  0.500000  0.138116  0.461543  1
  B  B31  1  0.500000  0.861884  0.538457  1
  W  W32  1  0.000000  0.649744  0.315622  1
  W  W33  1  0.000000  0.350256  0.684378  1
  W  W34  1  0.000000  0.144906  0.178692  1
  W  W35  1  0.000000  0.855094  0.821308  1
