# generated using pymatgen
data_AcTh(Si4Ni9)2
_symmetry_space_group_name_H-M   'P 1'
_cell_length_a   7.97239201
_cell_length_b   7.97205497
_cell_length_c   7.97193274
_cell_angle_alpha   120.88600385
_cell_angle_beta   120.88533703
_cell_angle_gamma   88.47568153
_symmetry_Int_Tables_number   1
_chemical_formula_structural   AcTh(Si4Ni9)2
_chemical_formula_sum   'Ac1 Th1 Si8 Ni18'
_cell_volume   353.32634633
_cell_formula_units_Z   1
loop_
 _symmetry_equiv_pos_site_id
 _symmetry_equiv_pos_as_xyz
  1  'x, y, z'
loop_
 _atom_site_type_symbol
 _atom_site_label
 _atom_site_symmetry_multiplicity
 _atom_site_fract_x
 _atom_site_fract_y
 _atom_site_fract_z
 _atom_site_occupancy
  Ac  Ac0  1  0.750005  0.750006  0.999994  1
  Th  Th1  1  0.249969  0.249986  0.999973  1
  Si  Si2  1  0.443451  0.947398  0.158884  1
  Si  Si3  1  0.215438  0.711485  0.158905  1
  Si  Si4  1  0.711523  0.552581  0.496059  1
  Si  Si5  1  0.947454  0.788494  0.503973  1
  Si  Si6  1  0.284524  0.443485  0.496047  1
  Si  Si7  1  0.788531  0.284571  0.841090  1
  Si  Si8  1  0.552552  0.056501  0.841069  1
  Si  Si9  1  0.056525  0.215467  0.503956  1
  Ni  Ni10  1  0.567568  0.703735  0.273028  1
  Ni  Ni11  1  0.796289  0.932425  0.726978  1
  Ni  Ni12  1  0.315100  0.818530  0.762357  1
  Ni  Ni13  1  0.818549  0.056209  0.503461  1
  Ni  Ni14  1  0.430680  0.294543  0.726956  1
  Ni  Ni15  1  0.184915  0.947239  0.503440  1
  Ni  Ni16  1  0.443801  0.681455  0.496553  1
  Ni  Ni17  1  0.947264  0.443838  0.762369  1
  Ni  Ni18  1  0.681480  0.184904  0.237637  1
  Ni  Ni19  1  0.056167  0.552739  0.237656  1
  Ni  Ni20  1  0.499999  0.000002  0.499996  1
  Ni  Ni21  1  0.000011  0.500000  0.500013  1
  Ni  Ni22  1  0.294523  0.567583  0.863823  1
  Ni  Ni23  1  0.932424  0.205494  0.136198  1
  Ni  Ni24  1  0.069292  0.796241  0.863827  1
  Ni  Ni25  1  0.205435  0.069287  0.273002  1
  Ni  Ni26  1  0.552732  0.315096  0.496540  1
  Ni  Ni27  1  0.703802  0.430707  0.136214  1
