# generated using pymatgen
data_SrBiIrRhO7
_symmetry_space_group_name_H-M   'P 1'
_cell_length_a   7.41607996
_cell_length_b   7.38802196
_cell_length_c   7.38802137
_cell_angle_alpha   59.32264750
_cell_angle_beta   59.87430171
_cell_angle_gamma   59.87430294
_symmetry_Int_Tables_number   1
_chemical_formula_structural   SrBiIrRhO7
_chemical_formula_sum   'Sr2 Bi2 Ir2 Rh2 O14'
_cell_volume   284.19978489
_cell_formula_units_Z   2
loop_
 _symmetry_equiv_pos_site_id
 _symmetry_equiv_pos_as_xyz
  1  'x, y, z'
loop_
 _atom_site_type_symbol
 _atom_site_label
 _atom_site_symmetry_multiplicity
 _atom_site_fract_x
 _atom_site_fract_y
 _atom_site_fract_z
 _atom_site_occupancy
  Sr  Sr0  1  0.125000  0.625000  0.125000  1
  Sr  Sr1  1  0.125000  0.125000  0.625000  1
  Bi  Bi2  1  0.125000  0.125000  0.125000  1
  Bi  Bi3  1  0.625000  0.125000  0.125000  1
  Ir  Ir4  1  0.625000  0.625000  0.625000  1
  Ir  Ir5  1  0.125000  0.625000  0.625000  1
  Rh  Rh6  1  0.625000  0.625000  0.125000  1
  Rh  Rh7  1  0.625000  0.125000  0.625000  1
  O  O8  1  0.263280  0.236720  0.236720  1
  O  O9  1  0.295775  0.709655  0.299260  1
  O  O10  1  0.954225  0.950740  0.540345  1
  O  O11  1  0.554691  0.950740  0.540345  1
  O  O12  1  0.695309  0.709655  0.299260  1
  O  O13  1  0.944558  0.555442  0.555442  1
  O  O14  1  0.695309  0.299260  0.709655  1
  O  O15  1  0.295775  0.299260  0.709655  1
  O  O16  1  0.704801  0.295199  0.295199  1
  O  O17  1  0.305442  0.694558  0.694558  1
  O  O18  1  0.954225  0.540345  0.950740  1
  O  O19  1  0.554691  0.540345  0.950740  1
  O  O20  1  0.986720  0.013280  0.013280  1
  O  O21  1  0.545199  0.954801  0.954801  1
