# generated using pymatgen
data_Sr3YHgPb11
_symmetry_space_group_name_H-M   'P 1'
_cell_length_a   10.03924000
_cell_length_b   7.05156730
_cell_length_c   7.02469049
_cell_angle_alpha   88.70168317
_cell_angle_beta   90.00000000
_cell_angle_gamma   90.00000000
_symmetry_Int_Tables_number   1
_chemical_formula_structural   Sr3YHgPb11
_chemical_formula_sum   'Sr3 Y1 Hg1 Pb11'
_cell_volume   497.16686600
_cell_formula_units_Z   1
loop_
 _symmetry_equiv_pos_site_id
 _symmetry_equiv_pos_as_xyz
  1  'x, y, z'
loop_
 _atom_site_type_symbol
 _atom_site_label
 _atom_site_symmetry_multiplicity
 _atom_site_fract_x
 _atom_site_fract_y
 _atom_site_fract_z
 _atom_site_occupancy
  Sr  Sr0  1  0.250000  0.497582  0.504963  1
  Sr  Sr1  1  0.750000  0.996435  0.000920  1
  Sr  Sr2  1  0.750000  0.507901  0.498048  1
  Y  Y3  1  0.250000  0.006997  0.002554  1
  Hg  Hg4  1  0.750000  0.492827  0.997665  1
  Pb  Pb5  1  0.003117  0.236259  0.747641  1
  Pb  Pb6  1  0.498368  0.249879  0.243467  1
  Pb  Pb7  1  0.494123  0.756453  0.243756  1
  Pb  Pb8  1  0.002604  0.750271  0.759972  1
  Pb  Pb9  1  0.005877  0.756453  0.243756  1
  Pb  Pb10  1  0.497396  0.750271  0.759972  1
  Pb  Pb11  1  0.496883  0.236259  0.747641  1
  Pb  Pb12  1  0.001632  0.249879  0.243467  1
  Pb  Pb13  1  0.250000  0.997463  0.502302  1
  Pb  Pb14  1  0.250000  0.509092  0.003959  1
  Pb  Pb15  1  0.750000  0.005976  0.499916  1
