# generated using pymatgen
data_Zr2InGaNi2
_symmetry_space_group_name_H-M   'P 1'
_cell_length_a   7.12434400
_cell_length_b   7.12434410
_cell_length_c   6.91887600
_cell_angle_alpha   90.00000000
_cell_angle_beta   90.00000000
_cell_angle_gamma   119.99999955
_symmetry_Int_Tables_number   1
_chemical_formula_structural   Zr2InGaNi2
_chemical_formula_sum   'Zr6 In3 Ga3 Ni6'
_cell_volume   304.12768020
_cell_formula_units_Z   3
loop_
 _symmetry_equiv_pos_site_id
 _symmetry_equiv_pos_as_xyz
  1  'x, y, z'
loop_
 _atom_site_type_symbol
 _atom_site_label
 _atom_site_symmetry_multiplicity
 _atom_site_fract_x
 _atom_site_fract_y
 _atom_site_fract_z
 _atom_site_occupancy
  Zr  Zr0  1  0.393897  0.407645  0.742272  1
  Zr  Zr1  1  0.013749  0.606103  0.742272  1
  Zr  Zr2  1  0.592355  0.986251  0.742272  1
  Zr  Zr3  1  0.606103  0.013749  0.257728  1
  Zr  Zr4  1  0.986251  0.592355  0.257728  1
  Zr  Zr5  1  0.407645  0.393897  0.257728  1
  In  In6  1  0.253881  0.000000  0.000000  1
  In  In7  1  0.746119  0.746119  0.000000  1
  In  In8  1  0.000000  0.253881  0.000000  1
  Ga  Ga9  1  0.721339  0.721339  0.500000  1
  Ga  Ga10  1  0.278661  0.000000  0.500000  1
  Ga  Ga11  1  0.000000  0.278661  0.500000  1
  Ni  Ni12  1  0.666667  0.333333  0.961338  1
  Ni  Ni13  1  0.000000  0.000000  0.702651  1
  Ni  Ni14  1  0.666667  0.333333  0.533741  1
  Ni  Ni15  1  0.333333  0.666667  0.466259  1
  Ni  Ni16  1  0.333333  0.666667  0.038662  1
  Ni  Ni17  1  0.000000  0.000000  0.297349  1
