# generated using pymatgen
data_Tb15Dy5(Ir3Rh)3
_symmetry_space_group_name_H-M   'P 1'
_cell_length_a   10.91368702
_cell_length_b   10.91365902
_cell_length_c   6.40533102
_cell_angle_alpha   90.00591646
_cell_angle_beta   89.99407830
_cell_angle_gamma   89.99830968
_symmetry_Int_Tables_number   1
_chemical_formula_structural   Tb15Dy5(Ir3Rh)3
_chemical_formula_sum   'Tb15 Dy5 Ir9 Rh3'
_cell_volume   762.92781533
_cell_formula_units_Z   1
loop_
 _symmetry_equiv_pos_site_id
 _symmetry_equiv_pos_as_xyz
  1  'x, y, z'
loop_
 _atom_site_type_symbol
 _atom_site_label
 _atom_site_symmetry_multiplicity
 _atom_site_fract_x
 _atom_site_fract_y
 _atom_site_fract_z
 _atom_site_occupancy
  Tb  Tb0  1  0.290417  0.088823  0.379861  1
  Tb  Tb1  1  0.290336  0.910821  0.879758  1
  Tb  Tb2  1  0.709674  0.089197  0.879769  1
  Tb  Tb3  1  0.709532  0.911256  0.379947  1
  Tb  Tb4  1  0.589191  0.790330  0.879747  1
  Tb  Tb5  1  0.588744  0.209529  0.379949  1
  Tb  Tb6  1  0.411249  0.790472  0.379940  1
  Tb  Tb7  1  0.410774  0.209676  0.879789  1
  Tb  Tb8  1  0.208805  0.411138  0.619042  1
  Tb  Tb9  1  0.209232  0.588993  0.121391  1
  Tb  Tb10  1  0.790817  0.410865  0.121416  1
  Tb  Tb11  1  0.791146  0.588786  0.619049  1
  Tb  Tb12  1  0.910901  0.709268  0.121411  1
  Tb  Tb13  1  0.911283  0.291139  0.619048  1
  Tb  Tb14  1  0.088787  0.708871  0.619064  1
  Dy  Dy15  1  0.089088  0.290854  0.121329  1
  Dy  Dy16  1  0.000005  0.000018  0.500236  1
  Dy  Dy17  1  0.000043  0.000111  0.000103  1
  Dy  Dy18  1  0.499996  0.499983  0.000062  1
  Dy  Dy19  1  0.500000  0.500000  0.500244  1
  Ir  Ir20  1  0.846005  0.152972  0.249742  1
  Ir  Ir21  1  0.846113  0.846656  0.749785  1
  Ir  Ir22  1  0.153819  0.153447  0.750119  1
  Ir  Ir23  1  0.154123  0.847091  0.249837  1
  Ir  Ir24  1  0.653337  0.346123  0.749790  1
  Ir  Ir25  1  0.652905  0.654125  0.249828  1
  Ir  Ir26  1  0.346910  0.345835  0.249739  1
  Ir  Ir27  1  0.346654  0.653885  0.749800  1
  Ir  Ir28  1  0.000067  0.499857  0.375061  1
  Rh  Rh29  1  0.499991  0.000006  0.124290  1
  Rh  Rh30  1  0.500003  0.000000  0.624586  1
  Rh  Rh31  1  0.000054  0.499873  0.876269  1
