# generated using pymatgen
data_Sr7Pt16
_symmetry_space_group_name_H-M   'P 1'
_cell_length_a   9.58252778
_cell_length_b   9.58252793
_cell_length_c   9.58252800
_cell_angle_alpha   131.72420956
_cell_angle_beta   131.72421841
_cell_angle_gamma   70.66495618
_symmetry_Int_Tables_number   1
_chemical_formula_structural   Sr7Pt16
_chemical_formula_sum   'Sr7 Pt16'
_cell_volume   480.17091878
_cell_formula_units_Z   1
loop_
 _symmetry_equiv_pos_site_id
 _symmetry_equiv_pos_as_xyz
  1  'x, y, z'
loop_
 _atom_site_type_symbol
 _atom_site_label
 _atom_site_symmetry_multiplicity
 _atom_site_fract_x
 _atom_site_fract_y
 _atom_site_fract_z
 _atom_site_occupancy
  Sr  Sr0  1  0.111483  0.111483  0.449688  1
  Sr  Sr1  1  0.661794  0.661794  0.550312  1
  Sr  Sr2  1  0.888517  0.338206  0.000000  1
  Sr  Sr3  1  0.750000  0.250000  0.500000  1
  Sr  Sr4  1  0.500000  0.500000  0.000000  1
  Sr  Sr5  1  0.338206  0.888517  0.000000  1
  Sr  Sr6  1  0.250000  0.750000  0.500000  1
  Pt  Pt7  1  0.434894  0.190034  0.000000  1
  Pt  Pt8  1  0.685280  0.936321  0.492974  1
  Pt  Pt9  1  0.936321  0.685280  0.492974  1
  Pt  Pt10  1  0.190034  0.434894  0.000000  1
  Pt  Pt11  1  0.314720  0.807693  0.251039  1
  Pt  Pt12  1  0.938863  0.678882  0.000000  1
  Pt  Pt13  1  0.809966  0.809966  0.244861  1
  Pt  Pt14  1  0.063679  0.556652  0.748961  1
  Pt  Pt15  1  0.061137  0.061137  0.740019  1
  Pt  Pt16  1  0.678882  0.938863  0.000000  1
  Pt  Pt17  1  0.565106  0.565106  0.755139  1
  Pt  Pt18  1  0.807693  0.314720  0.251039  1
  Pt  Pt19  1  0.556652  0.063679  0.748961  1
  Pt  Pt20  1  0.192307  0.443348  0.507026  1
  Pt  Pt21  1  0.321118  0.321118  0.259981  1
  Pt  Pt22  1  0.443348  0.192307  0.507026  1
