# generated using pymatgen
data_LaPrFe14(CoP5)2
_symmetry_space_group_name_H-M   'P 1'
_cell_length_a   3.60144000
_cell_length_b   9.14332800
_cell_length_c   10.53729800
_cell_angle_alpha   90.00000000
_cell_angle_beta   90.00000000
_cell_angle_gamma   90.00000000
_symmetry_Int_Tables_number   1
_chemical_formula_structural   LaPrFe14(CoP5)2
_chemical_formula_sum   'La1 Pr1 Fe14 Co2 P10'
_cell_volume   346.98423685
_cell_formula_units_Z   1
loop_
 _symmetry_equiv_pos_site_id
 _symmetry_equiv_pos_as_xyz
  1  'x, y, z'
loop_
 _atom_site_type_symbol
 _atom_site_label
 _atom_site_symmetry_multiplicity
 _atom_site_fract_x
 _atom_site_fract_y
 _atom_site_fract_z
 _atom_site_occupancy
  La  La0  1  0.750000  0.820511  0.750000  1
  Pr  Pr1  1  0.250000  0.179920  0.250000  1
  Fe  Fe2  1  0.750000  0.518364  0.919201  1
  Fe  Fe3  1  0.750000  0.518364  0.580799  1
  Fe  Fe4  1  0.250000  0.480930  0.081042  1
  Fe  Fe5  1  0.250000  0.480930  0.418958  1
  Fe  Fe6  1  0.750000  0.109863  0.991534  1
  Fe  Fe7  1  0.750000  0.109863  0.508466  1
  Fe  Fe8  1  0.250000  0.890647  0.009170  1
  Fe  Fe9  1  0.250000  0.890647  0.490830  1
  Fe  Fe10  1  0.750000  0.693790  0.106063  1
  Fe  Fe11  1  0.750000  0.693790  0.393937  1
  Fe  Fe12  1  0.250000  0.306310  0.893694  1
  Fe  Fe13  1  0.250000  0.306310  0.606306  1
  Fe  Fe14  1  0.750000  0.152952  0.750000  1
  Fe  Fe15  1  0.250000  0.846928  0.250000  1
  Co  Co16  1  0.250000  0.545841  0.750000  1
  Co  Co17  1  0.750000  0.454061  0.250000  1
  P  P18  1  0.750000  0.933739  0.130637  1
  P  P19  1  0.750000  0.933739  0.369363  1
  P  P20  1  0.250000  0.066727  0.869936  1
  P  P21  1  0.250000  0.066727  0.630064  1
  P  P22  1  0.750000  0.339293  0.059467  1
  P  P23  1  0.750000  0.339293  0.440533  1
  P  P24  1  0.250000  0.660271  0.941164  1
  P  P25  1  0.250000  0.660271  0.558836  1
  P  P26  1  0.750000  0.388828  0.750000  1
  P  P27  1  0.250000  0.611091  0.250000  1
