# generated using pymatgen
data_Gd8DyHoRu4
_symmetry_space_group_name_H-M   'P 1'
_cell_length_a   8.83036781
_cell_length_b   8.83036935
_cell_length_c   7.07804000
_cell_angle_alpha   85.63255948
_cell_angle_beta   85.63255221
_cell_angle_gamma   43.29687551
_symmetry_Int_Tables_number   1
_chemical_formula_structural   Gd8DyHoRu4
_chemical_formula_sum   'Gd8 Dy1 Ho1 Ru4'
_cell_volume   377.21770635
_cell_formula_units_Z   1
loop_
 _symmetry_equiv_pos_site_id
 _symmetry_equiv_pos_as_xyz
  1  'x, y, z'
loop_
 _atom_site_type_symbol
 _atom_site_label
 _atom_site_symmetry_multiplicity
 _atom_site_fract_x
 _atom_site_fract_y
 _atom_site_fract_z
 _atom_site_occupancy
  Gd  Gd0  1  0.201074  0.983575  0.586438  1
  Gd  Gd1  1  0.016425  0.798926  0.913562  1
  Gd  Gd2  1  0.208269  0.361051  0.312131  1
  Gd  Gd3  1  0.638949  0.791731  0.187869  1
  Gd  Gd4  1  0.791876  0.638640  0.687973  1
  Gd  Gd5  1  0.361360  0.208124  0.812027  1
  Gd  Gd6  1  0.983303  0.201298  0.086204  1
  Gd  Gd7  1  0.798702  0.016697  0.413796  1
  Dy  Dy8  1  0.429717  0.570283  0.250000  1
  Ho  Ho9  1  0.570438  0.429562  0.750000  1
  Ru  Ru10  1  0.174975  0.603163  0.573643  1
  Ru  Ru11  1  0.396837  0.825025  0.926357  1
  Ru  Ru12  1  0.825365  0.397292  0.426176  1
  Ru  Ru13  1  0.602708  0.174635  0.073824  1
