# generated using pymatgen
data_Tb12Ga8Ru5Rh3
_symmetry_space_group_name_H-M   'P 1'
_cell_length_a   5.58174521
_cell_length_b   7.83179318
_cell_length_c   13.68044694
_cell_angle_alpha   90.13441499
_cell_angle_beta   90.05426515
_cell_angle_gamma   90.16176035
_symmetry_Int_Tables_number   1
_chemical_formula_structural   Tb12Ga8Ru5Rh3
_chemical_formula_sum   'Tb12 Ga8 Ru5 Rh3'
_cell_volume   598.03745023
_cell_formula_units_Z   1
loop_
 _symmetry_equiv_pos_site_id
 _symmetry_equiv_pos_as_xyz
  1  'x, y, z'
loop_
 _atom_site_type_symbol
 _atom_site_label
 _atom_site_symmetry_multiplicity
 _atom_site_fract_x
 _atom_site_fract_y
 _atom_site_fract_z
 _atom_site_occupancy
  Tb  Tb0  1  0.619615  0.260103  0.252301  1
  Tb  Tb1  1  0.377304  0.740813  0.750051  1
  Tb  Tb2  1  0.375554  0.767705  0.250378  1
  Tb  Tb3  1  0.626649  0.230623  0.750291  1
  Tb  Tb4  1  0.153271  0.399264  0.096200  1
  Tb  Tb5  1  0.846084  0.600601  0.904020  1
  Tb  Tb6  1  0.843722  0.599057  0.595560  1
  Tb  Tb7  1  0.846409  0.900377  0.404750  1
  Tb  Tb8  1  0.153267  0.404774  0.403439  1
  Tb  Tb9  1  0.154839  0.095692  0.595438  1
  Tb  Tb10  1  0.152478  0.095935  0.904402  1
  Tb  Tb11  1  0.848278  0.904148  0.095629  1
  Ga  Ga12  1  0.121580  0.108217  0.250408  1
  Ga  Ga13  1  0.876150  0.889551  0.749483  1
  Ga  Ga14  1  0.875594  0.607653  0.249331  1
  Ga  Ga15  1  0.122551  0.392133  0.750241  1
  Ga  Ga16  1  0.641485  0.249159  0.998770  1
  Ga  Ga17  1  0.358869  0.751318  0.001088  1
  Ga  Ga18  1  0.362766  0.750279  0.498547  1
  Ga  Ga19  1  0.641516  0.250322  0.500134  1
  Ru  Ru20  1  0.350302  0.040820  0.092488  1
  Ru  Ru21  1  0.650284  0.959341  0.907513  1
  Ru  Ru22  1  0.646735  0.963765  0.592813  1
  Ru  Ru23  1  0.644268  0.532409  0.405554  1
  Ru  Ru24  1  0.353827  0.039853  0.407023  1
  Rh  Rh25  1  0.356548  0.465118  0.595278  1
  Rh  Rh26  1  0.356243  0.466346  0.905349  1
  Rh  Rh27  1  0.643815  0.534624  0.093522  1
