# generated using pymatgen
data_Zr6Zn19Cu3PRh
_symmetry_space_group_name_H-M   'P 1'
_cell_length_a   8.70807772
_cell_length_b   8.70419293
_cell_length_c   8.72880312
_cell_angle_alpha   59.93591151
_cell_angle_beta   60.13981228
_cell_angle_gamma   60.17232650
_symmetry_Int_Tables_number   1
_chemical_formula_structural   Zr6Zn19Cu3PRh
_chemical_formula_sum   'Zr6 Zn19 Cu3 P1 Rh1'
_cell_volume   468.70451432
_cell_formula_units_Z   1
loop_
 _symmetry_equiv_pos_site_id
 _symmetry_equiv_pos_as_xyz
  1  'x, y, z'
loop_
 _atom_site_type_symbol
 _atom_site_label
 _atom_site_symmetry_multiplicity
 _atom_site_fract_x
 _atom_site_fract_y
 _atom_site_fract_z
 _atom_site_occupancy
  Zr  Zr0  1  0.704731  0.294780  0.295269  1
  Zr  Zr1  1  0.295269  0.705220  0.704731  1
  Zr  Zr2  1  0.293950  0.706050  0.293950  1
  Zr  Zr3  1  0.706050  0.293950  0.706050  1
  Zr  Zr4  1  0.292679  0.292308  0.707321  1
  Zr  Zr5  1  0.707321  0.707692  0.292679  1
  Zn  Zn6  1  0.115620  0.124539  0.123111  1
  Zn  Zn7  1  0.884380  0.875461  0.876889  1
  Zn  Zn8  1  0.117337  0.118321  0.637625  1
  Zn  Zn9  1  0.123111  0.636730  0.115620  1
  Zn  Zn10  1  0.882663  0.881679  0.362375  1
  Zn  Zn11  1  0.876889  0.363270  0.884380  1
  Zn  Zn12  1  0.637625  0.126716  0.117337  1
  Zn  Zn13  1  0.362375  0.873284  0.882663  1
  Zn  Zn14  1  0.500000  0.000000  0.000000  1
  Zn  Zn15  1  0.000000  0.500000  0.500000  1
  Zn  Zn16  1  0.500000  0.000000  0.500000  1
  Zn  Zn17  1  0.334571  0.335433  0.328299  1
  Zn  Zn18  1  0.665429  0.664567  0.671701  1
  Zn  Zn19  1  0.330718  0.337440  0.000124  1
  Zn  Zn20  1  0.328299  0.001695  0.334571  1
  Zn  Zn21  1  0.669282  0.662560  0.999876  1
  Zn  Zn22  1  0.671701  0.998305  0.665429  1
  Zn  Zn23  1  0.000124  0.331718  0.330718  1
  Zn  Zn24  1  0.999876  0.668282  0.669282  1
  Cu  Cu25  1  0.000000  0.500000  0.000000  1
  Cu  Cu26  1  0.000000  0.000000  0.500000  1
  Cu  Cu27  1  0.500000  0.500000  0.000000  1
  P  P28  1  0.500000  0.500000  0.500000  1
  Rh  Rh29  1  0.000000  0.000000  0.000000  1
