# generated using pymatgen
data_Dy3Er9InCo4Ni
_symmetry_space_group_name_H-M   'P 1'
_cell_length_a   8.25058959
_cell_length_b   8.25058810
_cell_length_c   8.24810481
_cell_angle_alpha   110.63084686
_cell_angle_beta   110.87115341
_cell_angle_gamma   106.95377850
_symmetry_Int_Tables_number   1
_chemical_formula_structural   Dy3Er9InCo4Ni
_chemical_formula_sum   'Dy3 Er9 In1 Co4 Ni1'
_cell_volume   431.52169118
_cell_formula_units_Z   1
loop_
 _symmetry_equiv_pos_site_id
 _symmetry_equiv_pos_as_xyz
  1  'x, y, z'
loop_
 _atom_site_type_symbol
 _atom_site_label
 _atom_site_symmetry_multiplicity
 _atom_site_fract_x
 _atom_site_fract_y
 _atom_site_fract_z
 _atom_site_occupancy
  Dy  Dy0  1  0.186076  0.291110  0.477186  1
  Dy  Dy1  1  0.813422  0.708484  0.521905  1
  Dy  Dy2  1  0.186839  0.708935  0.895774  1
  Er  Er3  1  0.813583  0.291152  0.104734  1
  Er  Er4  1  0.314770  0.620659  0.305343  1
  Er  Er5  1  0.684868  0.379098  0.694940  1
  Er  Er6  1  0.315842  0.010072  0.694940  1
  Er  Er7  1  0.684683  0.990573  0.305343  1
  Er  Er8  1  0.407668  0.212322  0.194864  1
  Er  Er9  1  0.593136  0.788257  0.805579  1
  Er  Er10  1  0.017322  0.212443  0.805579  1
  Er  Er11  1  0.982543  0.787197  0.194864  1
  In  In12  1  0.500195  0.499787  0.999982  1
  Co  Co13  1  0.112300  0.612213  0.499170  1
  Co  Co14  1  0.886957  0.386870  0.499170  1
  Co  Co15  1  0.377525  0.000027  0.377552  1
  Co  Co16  1  0.622370  0.000424  0.622794  1
  Ni  Ni17  1  0.999902  0.000378  0.000280  1
