# generated using pymatgen
data_Cs5Rb(InBr4)6
_symmetry_space_group_name_H-M   'P 1'
_cell_length_a   14.40626898
_cell_length_b   14.45135644
_cell_length_c   14.42769023
_cell_angle_alpha   115.24743305
_cell_angle_beta   114.87555819
_cell_angle_gamma   114.77801472
_symmetry_Int_Tables_number   1
_chemical_formula_structural   Cs5Rb(InBr4)6
_chemical_formula_sum   'Cs5 Rb1 In6 Br24'
_cell_volume   1686.06555208
_cell_formula_units_Z   1
loop_
 _symmetry_equiv_pos_site_id
 _symmetry_equiv_pos_as_xyz
  1  'x, y, z'
loop_
 _atom_site_type_symbol
 _atom_site_label
 _atom_site_symmetry_multiplicity
 _atom_site_fract_x
 _atom_site_fract_y
 _atom_site_fract_z
 _atom_site_occupancy
  Cs  Cs0  1  0.878334  0.684845  0.093662  1
  Cs  Cs1  1  0.092175  0.879117  0.684630  1
  Cs  Cs2  1  0.684880  0.093726  0.878151  1
  Cs  Cs3  1  0.184692  0.378919  0.594927  1
  Cs  Cs4  1  0.592907  0.184139  0.377546  1
  Rb  Rb5  1  0.375197  0.591996  0.185078  1
  In  In6  1  0.865009  0.075500  0.678319  1
  In  In7  1  0.678725  0.865819  0.076285  1
  In  In8  1  0.077349  0.678339  0.867075  1
  In  In9  1  0.576126  0.367721  0.179478  1
  In  In10  1  0.179952  0.576151  0.364214  1
  In  In11  1  0.366039  0.178902  0.576536  1
  Br  Br12  1  0.962132  0.113455  0.897721  1
  Br  Br13  1  0.899251  0.963443  0.115946  1
  Br  Br14  1  0.117100  0.898932  0.964756  1
  Br  Br15  1  0.617581  0.464941  0.401491  1
  Br  Br16  1  0.399595  0.614441  0.456941  1
  Br  Br17  1  0.463443  0.398714  0.615886  1
  Br  Br18  1  0.068025  0.320076  0.779226  1
  Br  Br19  1  0.771888  0.064570  0.318702  1
  Br  Br20  1  0.317766  0.769031  0.064580  1
  Br  Br21  1  0.817337  0.562173  0.270511  1
  Br  Br22  1  0.271054  0.816659  0.562385  1
  Br  Br23  1  0.563361  0.271446  0.818257  1
  Br  Br24  1  0.626532  0.009160  0.552274  1
  Br  Br25  1  0.554595  0.628461  0.010851  1
  Br  Br26  1  0.011387  0.554911  0.628468  1
  Br  Br27  1  0.509112  0.128781  0.053112  1
  Br  Br28  1  0.057805  0.510682  0.126197  1
  Br  Br29  1  0.127940  0.054963  0.510933  1
  Br  Br30  1  0.791112  0.852415  0.476749  1
  Br  Br31  1  0.483081  0.798952  0.856914  1
  Br  Br32  1  0.857187  0.482974  0.799035  1
  Br  Br33  1  0.357815  0.304969  0.987920  1
  Br  Br34  1  0.985562  0.359252  0.299592  1
  Br  Br35  1  0.298751  0.982219  0.356452  1
