# generated using pymatgen
data_K4Pu2Si8O21
_symmetry_space_group_name_H-M   'P 1'
_cell_length_a   11.66705100
_cell_length_b   8.54030227
_cell_length_c   13.60743500
_cell_angle_alpha   51.38041066
_cell_angle_beta   90.00000000
_cell_angle_gamma   90.00000000
_symmetry_Int_Tables_number   1
_chemical_formula_structural   K4Pu2Si8O21
_chemical_formula_sum   'K8 Pu4 Si16 O42'
_cell_volume   1059.33272999
_cell_formula_units_Z   2
loop_
 _symmetry_equiv_pos_site_id
 _symmetry_equiv_pos_as_xyz
  1  'x, y, z'
loop_
 _atom_site_type_symbol
 _atom_site_label
 _atom_site_symmetry_multiplicity
 _atom_site_fract_x
 _atom_site_fract_y
 _atom_site_fract_z
 _atom_site_occupancy
  K  K0  1  0.352573  0.215161  0.800760  1
  K  K1  1  0.466354  0.792841  0.700318  1
  K  K2  1  0.647427  0.784839  0.199240  1
  K  K3  1  0.852573  0.784839  0.699240  1
  K  K4  1  0.033646  0.792841  0.200318  1
  K  K5  1  0.966354  0.207159  0.799682  1
  K  K6  1  0.533646  0.207159  0.299682  1
  K  K7  1  0.147427  0.215161  0.300760  1
  Pu  Pu8  1  0.662745  0.267581  0.545801  1
  Pu  Pu9  1  0.837255  0.267581  0.045801  1
  Pu  Pu10  1  0.162745  0.732419  0.954199  1
  Pu  Pu11  1  0.337255  0.732419  0.454199  1
  Si  Si12  1  0.461774  0.684684  0.000117  1
  Si  Si13  1  0.538226  0.315316  0.999883  1
  Si  Si14  1  0.328697  0.615212  0.214614  1
  Si  Si15  1  0.961774  0.315316  0.499883  1
  Si  Si16  1  0.368583  0.275170  0.500219  1
  Si  Si17  1  0.338187  0.032214  0.153845  1
  Si  Si18  1  0.661813  0.967786  0.846155  1
  Si  Si19  1  0.838187  0.967786  0.346155  1
  Si  Si20  1  0.131417  0.275170  0.000219  1
  Si  Si21  1  0.171303  0.615212  0.714614  1
  Si  Si22  1  0.828697  0.384788  0.285386  1
  Si  Si23  1  0.631417  0.724830  0.499781  1
  Si  Si24  1  0.671303  0.384788  0.785386  1
  Si  Si25  1  0.868583  0.724830  0.999781  1
  Si  Si26  1  0.038226  0.684684  0.500117  1
  Si  Si27  1  0.161813  0.032214  0.653845  1
  O  O28  1  0.070441  0.164274  0.536711  1
  O  O29  1  0.860941  0.595235  0.950905  1
  O  O30  1  0.865722  0.212619  0.269388  1
  O  O31  1  0.438694  0.589643  0.148398  1
  O  O32  1  0.847715  0.935862  0.242596  1
  O  O33  1  0.713434  0.927326  0.412739  1
  O  O34  1  0.360941  0.404765  0.549095  1
  O  O35  1  0.994447  0.804174  0.996922  1
  O  O36  1  0.938694  0.410357  0.351602  1
  O  O37  1  0.061306  0.589643  0.648398  1
  O  O38  1  0.139059  0.404765  0.049095  1
  O  O39  1  0.365722  0.787381  0.230612  1
  O  O40  1  0.787983  0.336975  0.860019  1
  O  O41  1  0.561306  0.410357  0.851602  1
  O  O42  1  0.144158  0.804480  0.407648  1
  O  O43  1  0.652285  0.935862  0.742596  1
  O  O44  1  0.505553  0.804174  0.496922  1
  O  O45  1  0.494447  0.195826  0.503078  1
  O  O46  1  0.212017  0.663025  0.139981  1
  O  O47  1  0.855842  0.195520  0.592352  1
  O  O48  1  0.213434  0.072674  0.087261  1
  O  O49  1  0.134278  0.787381  0.730612  1
  O  O50  1  0.815214  0.598631  0.144315  1
  O  O51  1  0.570441  0.835726  0.963289  1
  O  O52  1  0.355842  0.804480  0.907648  1
  O  O53  1  0.287983  0.663025  0.639981  1
  O  O54  1  0.712017  0.336975  0.360019  1
  O  O55  1  0.005553  0.195826  0.003078  1
  O  O56  1  0.152285  0.064138  0.757404  1
  O  O57  1  0.286566  0.072674  0.587261  1
  O  O58  1  0.500000  0.500000  0.000000  1
  O  O59  1  0.929559  0.835726  0.463289  1
  O  O60  1  0.315214  0.401369  0.355685  1
  O  O61  1  0.684786  0.598631  0.644315  1
  O  O62  1  0.786566  0.927326  0.912739  1
  O  O63  1  0.347715  0.064138  0.257404  1
  O  O64  1  0.184786  0.401369  0.855685  1
  O  O65  1  0.634278  0.212619  0.769388  1
  O  O66  1  0.644158  0.195520  0.092352  1
  O  O67  1  0.639059  0.595235  0.450905  1
  O  O68  1  0.429559  0.164274  0.036711  1
  O  O69  1  0.000000  0.500000  0.500000  1
