# generated using pymatgen
data_Bi3Te10Cl
_symmetry_space_group_name_H-M   'P 1'
_cell_length_a   24.09311689
_cell_length_b   24.09311642
_cell_length_c   3.15498700
_cell_angle_alpha   90.00000000
_cell_angle_beta   90.00000000
_cell_angle_gamma   166.62657607
_symmetry_Int_Tables_number   1
_chemical_formula_structural   Bi3Te10Cl
_chemical_formula_sum   'Bi3 Te10 Cl1'
_cell_volume   423.59703761
_cell_formula_units_Z   1
loop_
 _symmetry_equiv_pos_site_id
 _symmetry_equiv_pos_as_xyz
  1  'x, y, z'
loop_
 _atom_site_type_symbol
 _atom_site_label
 _atom_site_symmetry_multiplicity
 _atom_site_fract_x
 _atom_site_fract_y
 _atom_site_fract_z
 _atom_site_occupancy
  Bi  Bi0  1  0.680341  0.319659  0.250000  1
  Bi  Bi1  1  0.320720  0.679280  0.750000  1
  Bi  Bi2  1  0.885980  0.114020  0.250000  1
  Te  Te3  1  0.616064  0.383936  0.250000  1
  Te  Te4  1  0.385929  0.614071  0.750000  1
  Te  Te5  1  0.822137  0.177863  0.250000  1
  Te  Te6  1  0.184167  0.815833  0.750000  1
  Te  Te7  1  0.961484  0.038516  0.750000  1
  Te  Te8  1  0.031481  0.968519  0.250000  1
  Te  Te9  1  0.530078  0.469922  0.750000  1
  Te  Te10  1  0.463353  0.536647  0.250000  1
  Te  Te11  1  0.748427  0.251573  0.750000  1
  Te  Te12  1  0.254076  0.745924  0.250000  1
  Cl  Cl13  1  0.115762  0.884238  0.750000  1
