# generated using pymatgen
data_Dy2USi7Ru2
_symmetry_space_group_name_H-M   'P 1'
_cell_length_a   4.09360685
_cell_length_b   4.13910600
_cell_length_c   12.65523675
_cell_angle_alpha   90.00000000
_cell_angle_beta   99.30767123
_cell_angle_gamma   90.00000000
_symmetry_Int_Tables_number   1
_chemical_formula_structural   Dy2USi7Ru2
_chemical_formula_sum   'Dy2 U1 Si7 Ru2'
_cell_volume   211.60556671
_cell_formula_units_Z   1
loop_
 _symmetry_equiv_pos_site_id
 _symmetry_equiv_pos_as_xyz
  1  'x, y, z'
loop_
 _atom_site_type_symbol
 _atom_site_label
 _atom_site_symmetry_multiplicity
 _atom_site_fract_x
 _atom_site_fract_y
 _atom_site_fract_z
 _atom_site_occupancy
  Dy  Dy0  1  0.314841  0.000000  0.629683  1
  Dy  Dy1  1  0.685159  0.000000  0.370317  1
  U  U2  1  0.000000  0.500000  0.000000  1
  Si  Si3  1  0.500000  0.000000  0.000000  1
  Si  Si4  1  0.417595  0.500000  0.835190  1
  Si  Si5  1  0.582405  0.500000  0.164810  1
  Si  Si6  1  0.083290  0.000000  0.166579  1
  Si  Si7  1  0.916710  0.000000  0.833421  1
  Si  Si8  1  0.222438  0.500000  0.444876  1
  Si  Si9  1  0.777562  0.500000  0.555124  1
  Ru  Ru10  1  0.125733  0.500000  0.251464  1
  Ru  Ru11  1  0.874267  0.500000  0.748536  1
