# generated using pymatgen
data_Ta12Al7RuN4
_symmetry_space_group_name_H-M   'P 1'
_cell_length_a   7.04226785
_cell_length_b   7.04226785
_cell_length_c   7.04226755
_cell_angle_alpha   89.75263562
_cell_angle_beta   90.24736319
_cell_angle_gamma   90.24736645
_symmetry_Int_Tables_number   1
_chemical_formula_structural   Ta12Al7RuN4
_chemical_formula_sum   'Ta12 Al7 Ru1 N4'
_cell_volume   349.24121560
_cell_formula_units_Z   1
loop_
 _symmetry_equiv_pos_site_id
 _symmetry_equiv_pos_as_xyz
  1  'x, y, z'
loop_
 _atom_site_type_symbol
 _atom_site_label
 _atom_site_symmetry_multiplicity
 _atom_site_fract_x
 _atom_site_fract_y
 _atom_site_fract_z
 _atom_site_occupancy
  Ta  Ta0  1  0.794312  0.956206  0.374040  1
  Ta  Ta1  1  0.706614  0.044366  0.876512  1
  Ta  Ta2  1  0.206982  0.456268  0.122755  1
  Ta  Ta3  1  0.294022  0.545126  0.627443  1
  Ta  Ta4  1  0.955634  0.376512  0.793386  1
  Ta  Ta5  1  0.043794  0.874040  0.705688  1
  Ta  Ta6  1  0.454874  0.127443  0.205978  1
  Ta  Ta7  1  0.543732  0.622755  0.293018  1
  Ta  Ta8  1  0.377245  0.793018  0.956268  1
  Ta  Ta9  1  0.872557  0.705978  0.045126  1
  Ta  Ta10  1  0.125960  0.205688  0.456206  1
  Ta  Ta11  1  0.623488  0.293386  0.544366  1
  Al  Al12  1  0.321016  0.176183  0.820281  1
  Al  Al13  1  0.823817  0.320281  0.178984  1
  Al  Al14  1  0.679719  0.678984  0.676183  1
  Al  Al15  1  0.570597  0.429403  0.929403  1
  Al  Al16  1  0.421764  0.926016  0.562271  1
  Al  Al17  1  0.937729  0.578236  0.426016  1
  Al  Al18  1  0.073984  0.062271  0.078236  1
  Ru  Ru19  1  0.178877  0.821123  0.321123  1
  N  N20  1  0.876135  0.123865  0.623865  1
  N  N21  1  0.622962  0.877012  0.128802  1
  N  N22  1  0.122988  0.628802  0.877038  1
  N  N23  1  0.371198  0.377038  0.377012  1
