# generated using pymatgen
data_Tb6FeCo15(MoP6)2
_symmetry_space_group_name_H-M   'P 1'
_cell_length_a   3.72438100
_cell_length_b   10.58766200
_cell_length_c   12.25810000
_cell_angle_alpha   90.00000000
_cell_angle_beta   90.00000000
_cell_angle_gamma   90.00000000
_symmetry_Int_Tables_number   1
_chemical_formula_structural   Tb6FeCo15(MoP6)2
_chemical_formula_sum   'Tb6 Fe1 Co15 Mo2 P12'
_cell_volume   483.36737119
_cell_formula_units_Z   1
loop_
 _symmetry_equiv_pos_site_id
 _symmetry_equiv_pos_as_xyz
  1  'x, y, z'
loop_
 _atom_site_type_symbol
 _atom_site_label
 _atom_site_symmetry_multiplicity
 _atom_site_fract_x
 _atom_site_fract_y
 _atom_site_fract_z
 _atom_site_occupancy
  Tb  Tb0  1  0.000000  0.500000  0.523838  1
  Tb  Tb1  1  0.500000  0.000000  0.475980  1
  Tb  Tb2  1  0.500000  0.818357  0.204572  1
  Tb  Tb3  1  0.500000  0.181643  0.204572  1
  Tb  Tb4  1  0.000000  0.680057  0.795890  1
  Tb  Tb5  1  0.000000  0.319943  0.795890  1
  Fe  Fe6  1  0.000000  0.500000  0.986935  1
  Co  Co7  1  0.500000  0.500000  0.700456  1
  Co  Co8  1  0.000000  0.000000  0.299004  1
  Co  Co9  1  0.500000  0.000000  0.013867  1
  Co  Co10  1  0.500000  0.330586  0.991195  1
  Co  Co11  1  0.500000  0.669414  0.991195  1
  Co  Co12  1  0.000000  0.166855  0.009080  1
  Co  Co13  1  0.000000  0.833145  0.009080  1
  Co  Co14  1  0.500000  0.295528  0.431513  1
  Co  Co15  1  0.500000  0.704472  0.431513  1
  Co  Co16  1  0.000000  0.204511  0.568962  1
  Co  Co17  1  0.000000  0.795489  0.568962  1
  Co  Co18  1  0.500000  0.878740  0.707089  1
  Co  Co19  1  0.500000  0.121260  0.707089  1
  Co  Co20  1  0.000000  0.621740  0.292657  1
  Co  Co21  1  0.000000  0.378260  0.292657  1
  Mo  Mo22  1  0.500000  0.500000  0.155377  1
  Mo  Mo23  1  0.000000  0.000000  0.843923  1
  P  P24  1  0.500000  0.500000  0.883424  1
  P  P25  1  0.000000  0.000000  0.118637  1
  P  P26  1  0.500000  0.500000  0.347951  1
  P  P27  1  0.000000  0.000000  0.651542  1
  P  P28  1  0.500000  0.310320  0.615942  1
  P  P29  1  0.500000  0.689680  0.615942  1
  P  P30  1  0.000000  0.189736  0.384323  1
  P  P31  1  0.000000  0.810264  0.384323  1
  P  P32  1  0.500000  0.844915  0.893261  1
  P  P33  1  0.500000  0.155085  0.893261  1
  P  P34  1  0.000000  0.654299  0.105048  1
  P  P35  1  0.000000  0.345701  0.105048  1
