# generated using pymatgen
data_NaCe3(BrN)3
_symmetry_space_group_name_H-M   'P 1'
_cell_length_a   6.89128782
_cell_length_b   6.89128765
_cell_length_c   11.18769959
_cell_angle_alpha   84.10113187
_cell_angle_beta   84.10113315
_cell_angle_gamma   119.94396028
_symmetry_Int_Tables_number   1
_chemical_formula_structural   NaCe3(BrN)3
_chemical_formula_sum   'Na2 Ce6 Br6 N6'
_cell_volume   450.56729000
_cell_formula_units_Z   2
loop_
 _symmetry_equiv_pos_site_id
 _symmetry_equiv_pos_as_xyz
  1  'x, y, z'
loop_
 _atom_site_type_symbol
 _atom_site_label
 _atom_site_symmetry_multiplicity
 _atom_site_fract_x
 _atom_site_fract_y
 _atom_site_fract_z
 _atom_site_occupancy
  Na  Na0  1  0.666734  0.333266  0.000000  1
  Na  Na1  1  0.333266  0.666734  0.000000  1
  Ce  Ce2  1  0.209524  0.209524  0.374238  1
  Ce  Ce3  1  0.541374  0.875038  0.373366  1
  Ce  Ce4  1  0.875038  0.541374  0.373366  1
  Ce  Ce5  1  0.124962  0.458626  0.626634  1
  Ce  Ce6  1  0.458626  0.124962  0.626634  1
  Ce  Ce7  1  0.790476  0.790476  0.625762  1
  Br  Br8  1  0.056022  0.722684  0.830708  1
  Br  Br9  1  0.390250  0.390250  0.830531  1
  Br  Br10  1  0.722684  0.056022  0.830708  1
  Br  Br11  1  0.277316  0.943978  0.169292  1
  Br  Br12  1  0.609750  0.609750  0.169469  1
  Br  Br13  1  0.943978  0.277316  0.169292  1
  N  N14  1  0.139459  0.139459  0.581196  1
  N  N15  1  0.472127  0.806684  0.581057  1
  N  N16  1  0.806684  0.472127  0.581057  1
  N  N17  1  0.193316  0.527873  0.418943  1
  N  N18  1  0.527873  0.193316  0.418943  1
  N  N19  1  0.860541  0.860541  0.418804  1
