# generated using pymatgen
data_Sr3Sm(Sn2Pd)4
_symmetry_space_group_name_H-M   'P 1'
_cell_length_a   9.06042060
_cell_length_b   9.06042002
_cell_length_c   9.79302200
_cell_angle_alpha   90.00000000
_cell_angle_beta   90.00000000
_cell_angle_gamma   149.22711957
_symmetry_Int_Tables_number   1
_chemical_formula_structural   Sr3Sm(Sn2Pd)4
_chemical_formula_sum   'Sr3 Sm1 Sn8 Pd4'
_cell_volume   411.31516150
_cell_formula_units_Z   1
loop_
 _symmetry_equiv_pos_site_id
 _symmetry_equiv_pos_as_xyz
  1  'x, y, z'
loop_
 _atom_site_type_symbol
 _atom_site_label
 _atom_site_symmetry_multiplicity
 _atom_site_fract_x
 _atom_site_fract_y
 _atom_site_fract_z
 _atom_site_occupancy
  Sr  Sr0  1  0.500462  0.499538  0.501133  1
  Sr  Sr1  1  0.500462  0.499538  0.998867  1
  Sr  Sr2  1  0.699858  0.300142  0.750000  1
  Sm  Sm3  1  0.297551  0.702449  0.250000  1
  Sn  Sn4  1  0.907850  0.092150  0.750000  1
  Sn  Sn5  1  0.924397  0.075603  0.250000  1
  Sn  Sn6  1  0.091459  0.908541  0.250000  1
  Sn  Sn7  1  0.071782  0.928218  0.750000  1
  Sn  Sn8  1  0.697156  0.302844  0.404779  1
  Sn  Sn9  1  0.304683  0.695317  0.592545  1
  Sn  Sn10  1  0.304683  0.695317  0.907455  1
  Sn  Sn11  1  0.697156  0.302844  0.095221  1
  Pd  Pd12  1  0.151537  0.848463  0.504398  1
  Pd  Pd13  1  0.849713  0.150287  0.008120  1
  Pd  Pd14  1  0.151537  0.848463  0.995602  1
  Pd  Pd15  1  0.849713  0.150287  0.491880  1
