# generated using pymatgen
data_Y3Er2Ga2Sb
_symmetry_space_group_name_H-M   'P 1'
_cell_length_a   8.67183856
_cell_length_b   8.69606592
_cell_length_c   6.51555000
_cell_angle_alpha   90.00000000
_cell_angle_beta   90.00000000
_cell_angle_gamma   120.09247145
_symmetry_Int_Tables_number   1
_chemical_formula_structural   Y3Er2Ga2Sb
_chemical_formula_sum   'Y6 Er4 Ga4 Sb2'
_cell_volume   425.11877846
_cell_formula_units_Z   2
loop_
 _symmetry_equiv_pos_site_id
 _symmetry_equiv_pos_as_xyz
  1  'x, y, z'
loop_
 _atom_site_type_symbol
 _atom_site_label
 _atom_site_symmetry_multiplicity
 _atom_site_fract_x
 _atom_site_fract_y
 _atom_site_fract_z
 _atom_site_occupancy
  Y  Y0  1  0.987204  0.750373  0.750000  1
  Y  Y1  1  0.987204  0.236832  0.250000  1
  Y  Y2  1  0.764897  0.765140  0.250000  1
  Y  Y3  1  0.764897  0.999757  0.750000  1
  Y  Y4  1  0.237047  0.249434  0.750000  1
  Y  Y5  1  0.237047  0.987612  0.250000  1
  Er  Er6  1  0.331869  0.665935  0.500000  1
  Er  Er7  1  0.684797  0.342399  0.000000  1
  Er  Er8  1  0.684797  0.342399  0.500000  1
  Er  Er9  1  0.331869  0.665935  0.000000  1
  Ga  Ga10  1  0.001551  0.600618  0.250000  1
  Ga  Ga11  1  0.001551  0.400934  0.750000  1
  Ga  Ga12  1  0.597183  0.601008  0.750000  1
  Ga  Ga13  1  0.597183  0.996174  0.250000  1
  Sb  Sb14  1  0.395451  0.004241  0.750000  1
  Sb  Sb15  1  0.395451  0.391209  0.250000  1
