# generated using pymatgen
data_Ho5ThUO12
_symmetry_space_group_name_H-M   'P 1'
_cell_length_a   6.61682574
_cell_length_b   6.58168769
_cell_length_c   6.61279505
_cell_angle_alpha   99.19201113
_cell_angle_beta   99.09665303
_cell_angle_gamma   99.36413154
_symmetry_Int_Tables_number   1
_chemical_formula_structural   Ho5ThUO12
_chemical_formula_sum   'Ho5 Th1 U1 O12'
_cell_volume   275.44418901
_cell_formula_units_Z   1
loop_
 _symmetry_equiv_pos_site_id
 _symmetry_equiv_pos_as_xyz
  1  'x, y, z'
loop_
 _atom_site_type_symbol
 _atom_site_label
 _atom_site_symmetry_multiplicity
 _atom_site_fract_x
 _atom_site_fract_y
 _atom_site_fract_z
 _atom_site_occupancy
  Ho  Ho0  1  0.853008  0.387552  0.678278  1
  Ho  Ho1  1  0.690092  0.859141  0.395583  1
  Ho  Ho2  1  0.612307  0.312570  0.145926  1
  Ho  Ho3  1  0.136242  0.608216  0.314008  1
  Ho  Ho4  1  0.317444  0.142201  0.602265  1
  Th  Th5  1  0.393843  0.688533  0.859535  1
  U  U6  1  0.002967  0.006213  0.002502  1
  O  O7  1  0.176561  0.427880  0.584210  1
  O  O8  1  0.584605  0.177627  0.429115  1
  O  O9  1  0.427048  0.581615  0.178206  1
  O  O10  1  0.821093  0.570517  0.414443  1
  O  O11  1  0.414922  0.820621  0.565567  1
  O  O12  1  0.572151  0.411992  0.822178  1
  O  O13  1  0.916401  0.053246  0.688630  1
  O  O14  1  0.947481  0.317115  0.081403  1
  O  O15  1  0.317322  0.072449  0.938878  1
  O  O16  1  0.081321  0.947073  0.314066  1
  O  O17  1  0.046478  0.686784  0.920615  1
  O  O18  1  0.688714  0.928655  0.064594  1
