# generated using pymatgen
data_Zr12Ti4PtRh7N4
_symmetry_space_group_name_H-M   'P 1'
_cell_length_a   8.64819506
_cell_length_b   8.64819522
_cell_length_c   8.64819544
_cell_angle_alpha   60.10495279
_cell_angle_beta   60.10495656
_cell_angle_gamma   60.10494797
_symmetry_Int_Tables_number   1
_chemical_formula_structural   Zr12Ti4PtRh7N4
_chemical_formula_sum   'Zr12 Ti4 Pt1 Rh7 N4'
_cell_volume   458.45104405
_cell_formula_units_Z   1
loop_
 _symmetry_equiv_pos_site_id
 _symmetry_equiv_pos_as_xyz
  1  'x, y, z'
loop_
 _atom_site_type_symbol
 _atom_site_label
 _atom_site_symmetry_multiplicity
 _atom_site_fract_x
 _atom_site_fract_y
 _atom_site_fract_z
 _atom_site_occupancy
  Zr  Zr0  1  0.812114  0.812114  0.189844  1
  Zr  Zr1  1  0.187633  0.187633  0.812361  1
  Zr  Zr2  1  0.812114  0.189844  0.812114  1
  Zr  Zr3  1  0.187633  0.812361  0.187633  1
  Zr  Zr4  1  0.189844  0.812114  0.812114  1
  Zr  Zr5  1  0.812361  0.187633  0.187633  1
  Zr  Zr6  1  0.437276  0.437276  0.062682  1
  Zr  Zr7  1  0.062795  0.062795  0.436862  1
  Zr  Zr8  1  0.437276  0.062682  0.437276  1
  Zr  Zr9  1  0.062795  0.436862  0.062795  1
  Zr  Zr10  1  0.062682  0.437276  0.437276  1
  Zr  Zr11  1  0.436862  0.062795  0.062795  1
  Ti  Ti12  1  0.127666  0.623160  0.623160  1
  Ti  Ti13  1  0.623160  0.127666  0.623160  1
  Ti  Ti14  1  0.623160  0.623160  0.127666  1
  Ti  Ti15  1  0.625159  0.625159  0.625159  1
  Pt  Pt16  1  0.834761  0.834761  0.834761  1
  Rh  Rh17  1  0.752792  0.415569  0.415569  1
  Rh  Rh18  1  0.415569  0.752792  0.415569  1
  Rh  Rh19  1  0.415569  0.415569  0.752792  1
  Rh  Rh20  1  0.415800  0.415800  0.415800  1
  Rh  Rh21  1  0.497236  0.833834  0.833834  1
  Rh  Rh22  1  0.833834  0.497236  0.833834  1
  Rh  Rh23  1  0.833834  0.833834  0.497236  1
  N  N24  1  0.624740  0.125066  0.125066  1
  N  N25  1  0.125066  0.624740  0.125066  1
  N  N26  1  0.125066  0.125066  0.624740  1
  N  N27  1  0.125203  0.125203  0.125203  1
