# generated using pymatgen
data_Y3Al8CoSi4Os3
_symmetry_space_group_name_H-M   'P 1'
_cell_length_a   8.67985916
_cell_length_b   8.67985773
_cell_length_c   9.34477100
_cell_angle_alpha   90.00000000
_cell_angle_beta   90.00000000
_cell_angle_gamma   120.18373422
_symmetry_Int_Tables_number   1
_chemical_formula_structural   Y3Al8CoSi4Os3
_chemical_formula_sum   'Y6 Al16 Co2 Si8 Os6'
_cell_volume   608.57980138
_cell_formula_units_Z   2
loop_
 _symmetry_equiv_pos_site_id
 _symmetry_equiv_pos_as_xyz
  1  'x, y, z'
loop_
 _atom_site_type_symbol
 _atom_site_label
 _atom_site_symmetry_multiplicity
 _atom_site_fract_x
 _atom_site_fract_y
 _atom_site_fract_z
 _atom_site_occupancy
  Y  Y0  1  0.193543  0.390627  0.250000  1
  Y  Y1  1  0.806457  0.609373  0.750000  1
  Y  Y2  1  0.609373  0.806457  0.250000  1
  Y  Y3  1  0.390627  0.193543  0.750000  1
  Y  Y4  1  0.196157  0.803843  0.250000  1
  Y  Y5  1  0.803843  0.196157  0.750000  1
  Al  Al6  1  0.161654  0.321651  0.579887  1
  Al  Al7  1  0.838346  0.678349  0.420113  1
  Al  Al8  1  0.678349  0.838346  0.579887  1
  Al  Al9  1  0.838346  0.678349  0.079887  1
  Al  Al10  1  0.321651  0.161654  0.420113  1
  Al  Al11  1  0.161654  0.321651  0.920113  1
  Al  Al12  1  0.160766  0.839234  0.578671  1
  Al  Al13  1  0.321651  0.161654  0.079887  1
  Al  Al14  1  0.839234  0.160766  0.421329  1
  Al  Al15  1  0.678349  0.838346  0.920113  1
  Al  Al16  1  0.839234  0.160766  0.078671  1
  Al  Al17  1  0.160766  0.839234  0.921329  1
  Al  Al18  1  0.566346  0.433654  0.250000  1
  Al  Al19  1  0.433654  0.566346  0.750000  1
  Al  Al20  1  0.000407  0.999593  0.250000  1
  Al  Al21  1  0.999593  0.000407  0.750000  1
  Co  Co22  1  0.000000  0.000000  0.000000  1
  Co  Co23  1  0.000000  0.000000  0.500000  1
  Si  Si24  1  0.334830  0.665170  0.036313  1
  Si  Si25  1  0.665170  0.334830  0.963687  1
  Si  Si26  1  0.665170  0.334830  0.536313  1
  Si  Si27  1  0.334830  0.665170  0.463687  1
  Si  Si28  1  0.566206  0.128267  0.250000  1
  Si  Si29  1  0.433794  0.871733  0.750000  1
  Si  Si30  1  0.871733  0.433794  0.250000  1
  Si  Si31  1  0.128267  0.566206  0.750000  1
  Os  Os32  1  0.500000  0.000000  0.000000  1
  Os  Os33  1  0.000000  0.500000  0.000000  1
  Os  Os34  1  0.500000  0.000000  0.500000  1
  Os  Os35  1  0.500000  0.500000  0.000000  1
  Os  Os36  1  0.000000  0.500000  0.500000  1
  Os  Os37  1  0.500000  0.500000  0.500000  1
