# generated using pymatgen
data_NdLuTh7S17
_symmetry_space_group_name_H-M   'P 1'
_cell_length_a   8.06889156
_cell_length_b   8.03079254
_cell_length_c   10.68339700
_cell_angle_alpha   80.54545426
_cell_angle_beta   80.57469621
_cell_angle_gamma   65.00635229
_symmetry_Int_Tables_number   1
_chemical_formula_structural   NdLuTh7S17
_chemical_formula_sum   'Nd1 Lu1 Th7 S17'
_cell_volume   615.47121160
_cell_formula_units_Z   1
loop_
 _symmetry_equiv_pos_site_id
 _symmetry_equiv_pos_as_xyz
  1  'x, y, z'
loop_
 _atom_site_type_symbol
 _atom_site_label
 _atom_site_symmetry_multiplicity
 _atom_site_fract_x
 _atom_site_fract_y
 _atom_site_fract_z
 _atom_site_occupancy
  Nd  Nd0  1  0.810805  0.305204  0.299840  1
  Lu  Lu1  1  0.998026  0.002956  0.001765  1
  Th  Th2  1  0.303528  0.810822  0.297714  1
  Th  Th3  1  0.187621  0.696624  0.700660  1
  Th  Th4  1  0.697047  0.189255  0.699758  1
  Th  Th5  1  0.206973  0.205658  0.540095  1
  Th  Th6  1  0.792512  0.793366  0.457665  1
  Th  Th7  1  0.682577  0.681409  0.977771  1
  Th  Th8  1  0.316020  0.318391  0.025250  1
  S  S9  1  0.825410  0.430443  0.535489  1
  S  S10  1  0.430948  0.820218  0.532566  1
  S  S11  1  0.176929  0.568277  0.468073  1
  S  S12  1  0.569629  0.174438  0.470815  1
  S  S13  1  0.943353  0.334093  0.033991  1
  S  S14  1  0.331714  0.943152  0.034551  1
  S  S15  1  0.057947  0.669371  0.961954  1
  S  S16  1  0.667381  0.059619  0.962665  1
  S  S17  1  0.213407  0.203390  0.278954  1
  S  S18  1  0.792251  0.791686  0.721908  1
  S  S19  1  0.063242  0.062103  0.764213  1
  S  S20  1  0.942356  0.931601  0.237079  1
  S  S21  1  0.304440  0.302784  0.754417  1
  S  S22  1  0.690847  0.703659  0.244270  1
  S  S23  1  0.519595  0.522190  0.831251  1
  S  S24  1  0.474181  0.483693  0.164315  1
  S  S25  1  0.001263  0.995601  0.502972  1
