# generated using pymatgen
data_TbDy9(SnBi)4
_symmetry_space_group_name_H-M   'P 1'
_cell_length_a   8.18644800
_cell_length_b   8.22505004
_cell_length_c   15.64990008
_cell_angle_alpha   90.01154471
_cell_angle_beta   90.00000000
_cell_angle_gamma   90.00000000
_symmetry_Int_Tables_number   1
_chemical_formula_structural   TbDy9(SnBi)4
_chemical_formula_sum   'Tb2 Dy18 Sn8 Bi8'
_cell_volume   1053.76948143
_cell_formula_units_Z   2
loop_
 _symmetry_equiv_pos_site_id
 _symmetry_equiv_pos_as_xyz
  1  'x, y, z'
loop_
 _atom_site_type_symbol
 _atom_site_label
 _atom_site_symmetry_multiplicity
 _atom_site_fract_x
 _atom_site_fract_y
 _atom_site_fract_z
 _atom_site_occupancy
  Tb  Tb0  1  0.552946  0.328028  0.610072  1
  Tb  Tb1  1  0.052946  0.171972  0.889928  1
  Dy  Dy2  1  0.386177  0.838246  0.876467  1
  Dy  Dy3  1  0.886177  0.661754  0.623533  1
  Dy  Dy4  1  0.613894  0.161715  0.376407  1
  Dy  Dy5  1  0.113894  0.338285  0.123593  1
  Dy  Dy6  1  0.613873  0.161698  0.123562  1
  Dy  Dy7  1  0.113873  0.338302  0.376438  1
  Dy  Dy8  1  0.386157  0.838251  0.623559  1
  Dy  Dy9  1  0.886157  0.661749  0.876441  1
  Dy  Dy10  1  0.553041  0.328144  0.889723  1
  Dy  Dy11  1  0.053041  0.171856  0.610277  1
  Dy  Dy12  1  0.446963  0.671846  0.389764  1
  Dy  Dy13  1  0.946963  0.828154  0.110236  1
  Dy  Dy14  1  0.446966  0.671868  0.110245  1
  Dy  Dy15  1  0.946966  0.828132  0.389755  1
  Dy  Dy16  1  0.217466  0.498160  0.749994  1
  Dy  Dy17  1  0.717466  0.001840  0.750006  1
  Dy  Dy18  1  0.782497  0.501907  0.250004  1
  Dy  Dy19  1  0.282497  0.998093  0.249996  1
  Sn  Sn20  1  0.582644  0.626451  0.750044  1
  Sn  Sn21  1  0.082644  0.873549  0.749956  1
  Sn  Sn22  1  0.417405  0.373662  0.249992  1
  Sn  Sn23  1  0.917405  0.126338  0.250008  1
  Sn  Sn24  1  0.356490  0.143749  0.750071  1
  Sn  Sn25  1  0.856490  0.356251  0.749929  1
  Sn  Sn26  1  0.643454  0.856084  0.250002  1
  Sn  Sn27  1  0.143454  0.643916  0.249998  1
  Bi  Bi28  1  0.270502  0.020653  0.044267  1
  Bi  Bi29  1  0.770502  0.479347  0.455733  1
  Bi  Bi30  1  0.729725  0.979076  0.544129  1
  Bi  Bi31  1  0.229725  0.520924  0.955871  1
  Bi  Bi32  1  0.729406  0.979075  0.955875  1
  Bi  Bi33  1  0.229406  0.520925  0.544125  1
  Bi  Bi34  1  0.270395  0.020790  0.455851  1
  Bi  Bi35  1  0.770395  0.479210  0.044149  1
