# generated using pymatgen
data_Pr11Cd9Pd4
_symmetry_space_group_name_H-M   'P 1'
_cell_length_a   13.59666769
_cell_length_b   13.59666879
_cell_length_c   3.85516100
_cell_angle_alpha   90.00000000
_cell_angle_beta   90.00000000
_cell_angle_gamma   112.62545298
_symmetry_Int_Tables_number   1
_chemical_formula_structural   Pr11Cd9Pd4
_chemical_formula_sum   'Pr11 Cd9 Pd4'
_cell_volume   657.85134086
_cell_formula_units_Z   1
loop_
 _symmetry_equiv_pos_site_id
 _symmetry_equiv_pos_as_xyz
  1  'x, y, z'
loop_
 _atom_site_type_symbol
 _atom_site_label
 _atom_site_symmetry_multiplicity
 _atom_site_fract_x
 _atom_site_fract_y
 _atom_site_fract_z
 _atom_site_occupancy
  Pr  Pr0  1  0.417187  0.074009  0.000000  1
  Pr  Pr1  1  0.582813  0.925991  0.000000  1
  Pr  Pr2  1  0.074009  0.417187  0.000000  1
  Pr  Pr3  1  0.925991  0.582813  0.000000  1
  Pr  Pr4  1  0.163570  0.836430  0.000000  1
  Pr  Pr5  1  0.836430  0.163570  0.000000  1
  Pr  Pr6  1  0.372031  0.627969  0.000000  1
  Pr  Pr7  1  0.627969  0.372031  0.000000  1
  Pr  Pr8  1  0.305729  0.305729  0.000000  1
  Pr  Pr9  1  0.694271  0.694271  0.000000  1
  Pr  Pr10  1  0.000000  0.000000  0.000000  1
  Cd  Cd11  1  0.365308  0.839059  0.500000  1
  Cd  Cd12  1  0.634692  0.160941  0.500000  1
  Cd  Cd13  1  0.839059  0.365308  0.500000  1
  Cd  Cd14  1  0.160941  0.634692  0.500000  1
  Cd  Cd15  1  0.215004  0.071975  0.500000  1
  Cd  Cd16  1  0.784996  0.928025  0.500000  1
  Cd  Cd17  1  0.071975  0.215004  0.500000  1
  Cd  Cd18  1  0.928025  0.784996  0.500000  1
  Cd  Cd19  1  0.500000  0.500000  0.500000  1
  Pd  Pd20  1  0.450646  0.250618  0.500000  1
  Pd  Pd21  1  0.549354  0.749382  0.500000  1
  Pd  Pd22  1  0.250618  0.450646  0.500000  1
  Pd  Pd23  1  0.749382  0.549354  0.500000  1
