# generated using pymatgen
data_Ho3Er3ReSb2
_symmetry_space_group_name_H-M   'P 1'
_cell_length_a   8.08891700
_cell_length_b   8.08891672
_cell_length_c   4.29083200
_cell_angle_alpha   90.00000000
_cell_angle_beta   90.00000000
_cell_angle_gamma   120.00000523
_symmetry_Int_Tables_number   1
_chemical_formula_structural   Ho3Er3ReSb2
_chemical_formula_sum   'Ho3 Er3 Re1 Sb2'
_cell_volume   243.13801288
_cell_formula_units_Z   1
loop_
 _symmetry_equiv_pos_site_id
 _symmetry_equiv_pos_as_xyz
  1  'x, y, z'
loop_
 _atom_site_type_symbol
 _atom_site_label
 _atom_site_symmetry_multiplicity
 _atom_site_fract_x
 _atom_site_fract_y
 _atom_site_fract_z
 _atom_site_occupancy
  Ho  Ho0  1  0.605821  0.000000  0.000000  1
  Ho  Ho1  1  0.000000  0.605821  0.000000  1
  Ho  Ho2  1  0.394179  0.394179  0.000000  1
  Er  Er3  1  0.235395  0.000000  0.500000  1
  Er  Er4  1  0.000000  0.235395  0.500000  1
  Er  Er5  1  0.764605  0.764605  0.500000  1
  Re  Re6  1  0.000000  0.000000  0.000000  1
  Sb  Sb7  1  0.333333  0.666667  0.500000  1
  Sb  Sb8  1  0.666667  0.333333  0.500000  1
