# generated using pymatgen
data_ErTm3(Ga2Ag)4
_symmetry_space_group_name_H-M   'P 1'
_cell_length_a   4.35475200
_cell_length_b   6.89418270
_cell_length_c   10.20205919
_cell_angle_alpha   90.02556190
_cell_angle_beta   90.00000000
_cell_angle_gamma   90.00000000
_symmetry_Int_Tables_number   1
_chemical_formula_structural   ErTm3(Ga2Ag)4
_chemical_formula_sum   'Er1 Tm3 Ga8 Ag4'
_cell_volume   306.29084164
_cell_formula_units_Z   1
loop_
 _symmetry_equiv_pos_site_id
 _symmetry_equiv_pos_as_xyz
  1  'x, y, z'
loop_
 _atom_site_type_symbol
 _atom_site_label
 _atom_site_symmetry_multiplicity
 _atom_site_fract_x
 _atom_site_fract_y
 _atom_site_fract_z
 _atom_site_occupancy
  Er  Er0  1  0.250000  0.277702  0.675164  1
  Tm  Tm1  1  0.250000  0.777955  0.825280  1
  Tm  Tm2  1  0.750000  0.222317  0.174705  1
  Tm  Tm3  1  0.750000  0.722156  0.325523  1
  Ga  Ga4  1  0.250000  0.702909  0.536240  1
  Ga  Ga5  1  0.750000  0.298774  0.463123  1
  Ga  Ga6  1  0.750000  0.797176  0.036992  1
  Ga  Ga7  1  0.250000  0.200235  0.964352  1
  Ga  Ga8  1  0.250000  0.929548  0.155091  1
  Ga  Ga9  1  0.750000  0.069142  0.846328  1
  Ga  Ga10  1  0.750000  0.570796  0.653856  1
  Ga  Ga11  1  0.250000  0.430465  0.344968  1
  Ag  Ag12  1  0.250000  0.544233  0.096081  1
  Ag  Ag13  1  0.750000  0.455363  0.902813  1
  Ag  Ag14  1  0.750000  0.956116  0.596503  1
  Ag  Ag15  1  0.250000  0.045112  0.402977  1
