# generated using pymatgen
data_Tb3YAl18RePd5
_symmetry_space_group_name_H-M   'P 1'
_cell_length_a   7.65820674
_cell_length_b   7.65845948
_cell_length_c   9.53479705
_cell_angle_alpha   90.15381315
_cell_angle_beta   90.15395981
_cell_angle_gamma   119.83376287
_symmetry_Int_Tables_number   1
_chemical_formula_structural   Tb3YAl18RePd5
_chemical_formula_sum   'Tb3 Y1 Al18 Re1 Pd5'
_cell_volume   485.09792303
_cell_formula_units_Z   1
loop_
 _symmetry_equiv_pos_site_id
 _symmetry_equiv_pos_as_xyz
  1  'x, y, z'
loop_
 _atom_site_type_symbol
 _atom_site_label
 _atom_site_symmetry_multiplicity
 _atom_site_fract_x
 _atom_site_fract_y
 _atom_site_fract_z
 _atom_site_occupancy
  Tb  Tb0  1  0.993368  0.666497  0.248111  1
  Tb  Tb1  1  0.003185  0.330475  0.751573  1
  Tb  Tb2  1  0.669536  0.996794  0.248428  1
  Y  Y3  1  0.333496  0.006654  0.751930  1
  Al  Al4  1  0.127850  0.129404  0.249777  1
  Al  Al5  1  0.870585  0.872162  0.750218  1
  Al  Al6  1  0.999142  0.333765  0.074412  1
  Al  Al7  1  0.995426  0.660740  0.925248  1
  Al  Al8  1  0.000184  0.667955  0.577637  1
  Al  Al9  1  0.332039  0.999802  0.422336  1
  Al  Al10  1  0.001036  0.334427  0.423813  1
  Al  Al11  1  0.665578  0.998964  0.576186  1
  Al  Al12  1  0.666219  0.000867  0.925572  1
  Al  Al13  1  0.339265  0.004581  0.074746  1
  Al  Al14  1  0.333712  0.335076  0.559288  1
  Al  Al15  1  0.664936  0.666289  0.440720  1
  Al  Al16  1  0.667255  0.661152  0.053891  1
  Al  Al17  1  0.338858  0.332727  0.946091  1
  Al  Al18  1  0.336809  0.545988  0.249633  1
  Al  Al19  1  0.661660  0.455077  0.752951  1
  Al  Al20  1  0.544893  0.338336  0.247052  1
  Al  Al21  1  0.453994  0.663158  0.750361  1
  Re  Re22  1  0.673176  0.326943  0.000027  1
  Pd  Pd23  1  0.328376  0.671596  0.000005  1
  Pd  Pd24  1  0.327410  0.672564  0.499996  1
  Pd  Pd25  1  0.671566  0.328495  0.499993  1
  Pd  Pd26  1  0.000883  0.999083  0.000004  1
  Pd  Pd27  1  0.999560  0.000427  0.500001  1
