# generated using pymatgen
data_Dy4Y11Er(CdNi)4
_symmetry_space_group_name_H-M   'P 1'
_cell_length_a   9.53498095
_cell_length_b   9.57961362
_cell_length_c   9.57961405
_cell_angle_alpha   60.13549241
_cell_angle_beta   60.15401008
_cell_angle_gamma   60.15400556
_symmetry_Int_Tables_number   1
_chemical_formula_structural   Dy4Y11Er(CdNi)4
_chemical_formula_sum   'Dy4 Y11 Er1 Cd4 Ni4'
_cell_volume   620.80140110
_cell_formula_units_Z   1
loop_
 _symmetry_equiv_pos_site_id
 _symmetry_equiv_pos_as_xyz
  1  'x, y, z'
loop_
 _atom_site_type_symbol
 _atom_site_label
 _atom_site_symmetry_multiplicity
 _atom_site_fract_x
 _atom_site_fract_y
 _atom_site_fract_z
 _atom_site_occupancy
  Dy  Dy0  1  0.597498  0.597865  0.597865  1
  Dy  Dy1  1  0.599393  0.599037  0.202178  1
  Dy  Dy2  1  0.599393  0.202178  0.599037  1
  Dy  Dy3  1  0.206772  0.597865  0.597865  1
  Y  Y4  1  0.438511  0.061489  0.061489  1
  Y  Y5  1  0.438137  0.062232  0.439306  1
  Y  Y6  1  0.060325  0.439306  0.062232  1
  Y  Y7  1  0.438137  0.439306  0.062232  1
  Y  Y8  1  0.060325  0.062232  0.439306  1
  Y  Y9  1  0.185869  0.814131  0.814131  1
  Y  Y10  1  0.813031  0.186969  0.186969  1
  Y  Y11  1  0.813650  0.187558  0.812135  1
  Y  Y12  1  0.186657  0.812135  0.187558  1
  Y  Y13  1  0.813650  0.812135  0.187558  1
  Y  Y14  1  0.186657  0.187558  0.812135  1
  Er  Er15  1  0.058889  0.441111  0.441111  1
  Cd  Cd16  1  0.831275  0.830381  0.830381  1
  Cd  Cd17  1  0.831246  0.830829  0.506676  1
  Cd  Cd18  1  0.831246  0.506676  0.830829  1
  Cd  Cd19  1  0.507961  0.830381  0.830381  1
  Ni  Ni20  1  0.391575  0.393913  0.393913  1
  Ni  Ni21  1  0.394601  0.390118  0.820682  1
  Ni  Ni22  1  0.394601  0.820682  0.390118  1
  Ni  Ni23  1  0.820601  0.393913  0.393913  1
