# generated using pymatgen
data_Ta2V3Mo
_symmetry_space_group_name_H-M   'P 1'
_cell_length_a   5.09509808
_cell_length_b   5.09509845
_cell_length_c   5.09509888
_cell_angle_alpha   60.26779817
_cell_angle_beta   60.26779946
_cell_angle_gamma   60.26779283
_symmetry_Int_Tables_number   1
_chemical_formula_structural   Ta2V3Mo
_chemical_formula_sum   'Ta2 V3 Mo1'
_cell_volume   94.09513867
_cell_formula_units_Z   1
loop_
 _symmetry_equiv_pos_site_id
 _symmetry_equiv_pos_as_xyz
  1  'x, y, z'
loop_
 _atom_site_type_symbol
 _atom_site_label
 _atom_site_symmetry_multiplicity
 _atom_site_fract_x
 _atom_site_fract_y
 _atom_site_fract_z
 _atom_site_occupancy
  Ta  Ta0  1  0.249364  0.249364  0.249364  1
  Ta  Ta1  1  0.000636  0.000636  0.000636  1
  V  V2  1  0.625000  0.625000  0.125000  1
  V  V3  1  0.625000  0.125000  0.625000  1
  V  V4  1  0.125000  0.625000  0.625000  1
  Mo  Mo5  1  0.625000  0.625000  0.625000  1
