# generated using pymatgen
data_Eu4LuNb3O14
_symmetry_space_group_name_H-M   'P 1'
_cell_length_a   7.56305736
_cell_length_b   7.60833300
_cell_length_c   7.60833200
_cell_angle_alpha   60.00000435
_cell_angle_beta   59.80177684
_cell_angle_gamma   59.80177553
_symmetry_Int_Tables_number   1
_chemical_formula_structural   Eu4LuNb3O14
_chemical_formula_sum   'Eu4 Lu1 Nb3 O14'
_cell_volume   308.64102158
_cell_formula_units_Z   1
loop_
 _symmetry_equiv_pos_site_id
 _symmetry_equiv_pos_as_xyz
  1  'x, y, z'
loop_
 _atom_site_type_symbol
 _atom_site_label
 _atom_site_symmetry_multiplicity
 _atom_site_fract_x
 _atom_site_fract_y
 _atom_site_fract_z
 _atom_site_occupancy
  Eu  Eu0  1  0.625000  0.125000  0.125000  1
  Eu  Eu1  1  0.125000  0.625000  0.125000  1
  Eu  Eu2  1  0.125000  0.125000  0.625000  1
  Eu  Eu3  1  0.125000  0.125000  0.125000  1
  Lu  Lu4  1  0.125000  0.625000  0.625000  1
  Nb  Nb5  1  0.625000  0.125000  0.625000  1
  Nb  Nb6  1  0.625000  0.625000  0.125000  1
  Nb  Nb7  1  0.625000  0.625000  0.625000  1
  O  O8  1  0.254159  0.248614  0.248614  1
  O  O9  1  0.995841  0.001386  0.001386  1
  O  O10  1  0.679721  0.700817  0.309731  1
  O  O11  1  0.305763  0.277562  0.708338  1
  O  O12  1  0.679721  0.309731  0.700817  1
  O  O13  1  0.305763  0.708338  0.277562  1
  O  O14  1  0.305763  0.708338  0.708338  1
  O  O15  1  0.679721  0.309731  0.309731  1
  O  O16  1  0.570279  0.549183  0.940269  1
  O  O17  1  0.944237  0.972438  0.541662  1
  O  O18  1  0.570279  0.940269  0.549183  1
  O  O19  1  0.944237  0.541662  0.972438  1
  O  O20  1  0.944237  0.541662  0.541662  1
  O  O21  1  0.570279  0.940269  0.940269  1
