# generated using pymatgen
data_Tb5Ho3Cd2PdPt
_symmetry_space_group_name_H-M   'P 1'
_cell_length_a   9.69085323
_cell_length_b   9.69789988
_cell_length_c   9.67757055
_cell_angle_alpha   60.02117637
_cell_angle_beta   60.09348483
_cell_angle_gamma   60.14783811
_symmetry_Int_Tables_number   1
_chemical_formula_structural   Tb5Ho3Cd2PdPt
_chemical_formula_sum   'Tb10 Ho6 Cd4 Pd2 Pt2'
_cell_volume   644.39214254
_cell_formula_units_Z   2
loop_
 _symmetry_equiv_pos_site_id
 _symmetry_equiv_pos_as_xyz
  1  'x, y, z'
loop_
 _atom_site_type_symbol
 _atom_site_label
 _atom_site_symmetry_multiplicity
 _atom_site_fract_x
 _atom_site_fract_y
 _atom_site_fract_z
 _atom_site_occupancy
  Tb  Tb0  1  0.189915  0.809530  0.189797  1
  Tb  Tb1  1  0.809530  0.189915  0.810759  1
  Tb  Tb2  1  0.191069  0.191069  0.808931  1
  Tb  Tb3  1  0.810902  0.810902  0.189098  1
  Tb  Tb4  1  0.935622  0.565428  0.564326  1
  Tb  Tb5  1  0.565428  0.935622  0.934623  1
  Tb  Tb6  1  0.565351  0.935493  0.564474  1
  Tb  Tb7  1  0.935493  0.565351  0.934681  1
  Tb  Tb8  1  0.565669  0.565669  0.934331  1
  Tb  Tb9  1  0.935419  0.935419  0.564581  1
  Ho  Ho10  1  0.352881  0.352446  0.348473  1
  Ho  Ho11  1  0.352446  0.352881  0.946200  1
  Ho  Ho12  1  0.356467  0.939155  0.352286  1
  Ho  Ho13  1  0.939155  0.356467  0.352092  1
  Ho  Ho14  1  0.808815  0.190460  0.190305  1
  Ho  Ho15  1  0.190460  0.808815  0.810420  1
  Cd  Cd16  1  0.580966  0.581158  0.582863  1
  Cd  Cd17  1  0.581158  0.580966  0.255010  1
  Cd  Cd18  1  0.580227  0.255048  0.582171  1
  Cd  Cd19  1  0.255048  0.580227  0.582553  1
  Pd  Pd20  1  0.143068  0.143916  0.146803  1
  Pd  Pd21  1  0.143916  0.143068  0.566215  1
  Pt  Pt22  1  0.142044  0.568952  0.144024  1
  Pt  Pt23  1  0.568952  0.142044  0.144981  1
