# generated using pymatgen
data_PaNi6Sb
_symmetry_space_group_name_H-M   'P 1'
_cell_length_a   5.34602500
_cell_length_b   5.34602522
_cell_length_c   4.36786200
_cell_angle_alpha   90.00000000
_cell_angle_beta   90.00000000
_cell_angle_gamma   119.99999246
_symmetry_Int_Tables_number   1
_chemical_formula_structural   PaNi6Sb
_chemical_formula_sum   'Pa1 Ni6 Sb1'
_cell_volume   108.10892820
_cell_formula_units_Z   1
loop_
 _symmetry_equiv_pos_site_id
 _symmetry_equiv_pos_as_xyz
  1  'x, y, z'
loop_
 _atom_site_type_symbol
 _atom_site_label
 _atom_site_symmetry_multiplicity
 _atom_site_fract_x
 _atom_site_fract_y
 _atom_site_fract_z
 _atom_site_occupancy
  Pa  Pa0  1  0.333333  0.666667  0.750000  1
  Ni  Ni1  1  0.687422  0.843711  0.250000  1
  Ni  Ni2  1  0.156289  0.843711  0.250000  1
  Ni  Ni3  1  0.839984  0.679967  0.750000  1
  Ni  Ni4  1  0.320033  0.160016  0.750000  1
  Ni  Ni5  1  0.839984  0.160016  0.750000  1
  Ni  Ni6  1  0.156289  0.312578  0.250000  1
  Sb  Sb7  1  0.666667  0.333333  0.250000  1
