# generated using pymatgen
data_Er3LuPd3RuO14
_symmetry_space_group_name_H-M   'P 1'
_cell_length_a   7.17038348
_cell_length_b   7.17038249
_cell_length_c   7.22266211
_cell_angle_alpha   60.23915258
_cell_angle_beta   60.23915000
_cell_angle_gamma   59.99999299
_symmetry_Int_Tables_number   1
_chemical_formula_structural   Er3LuPd3RuO14
_chemical_formula_sum   'Er3 Lu1 Pd3 Ru1 O14'
_cell_volume   263.52840647
_cell_formula_units_Z   1
loop_
 _symmetry_equiv_pos_site_id
 _symmetry_equiv_pos_as_xyz
  1  'x, y, z'
loop_
 _atom_site_type_symbol
 _atom_site_label
 _atom_site_symmetry_multiplicity
 _atom_site_fract_x
 _atom_site_fract_y
 _atom_site_fract_z
 _atom_site_occupancy
  Er  Er0  1  0.125000  0.125000  0.125000  1
  Er  Er1  1  0.625000  0.125000  0.125000  1
  Er  Er2  1  0.125000  0.625000  0.125000  1
  Lu  Lu3  1  0.125000  0.125000  0.625000  1
  Pd  Pd4  1  0.625000  0.625000  0.625000  1
  Pd  Pd5  1  0.125000  0.625000  0.625000  1
  Pd  Pd6  1  0.625000  0.125000  0.625000  1
  Ru  Ru7  1  0.625000  0.625000  0.125000  1
  O  O8  1  0.288926  0.713318  0.284438  1
  O  O9  1  0.280848  0.280848  0.719552  1
  O  O10  1  0.536682  0.961074  0.965562  1
  O  O11  1  0.531249  0.969152  0.530448  1
  O  O12  1  0.536682  0.536682  0.965562  1
  O  O13  1  0.280848  0.718751  0.719552  1
  O  O14  1  0.961074  0.536682  0.965562  1
  O  O15  1  0.713318  0.288926  0.284438  1
  O  O16  1  0.718751  0.280848  0.719552  1
  O  O17  1  0.713318  0.713318  0.284438  1
  O  O18  1  0.248694  0.248694  0.253919  1
  O  O19  1  0.969152  0.969152  0.530448  1
  O  O20  1  0.969152  0.531249  0.530448  1
  O  O21  1  0.001306  0.001306  0.996081  1
