# generated using pymatgen
data_BaAlIO6
_symmetry_space_group_name_H-M   'P 1'
_cell_length_a   5.13030400
_cell_length_b   5.13030485
_cell_length_c   5.90180700
_cell_angle_alpha   90.00000000
_cell_angle_beta   90.00000000
_cell_angle_gamma   120.00000740
_symmetry_Int_Tables_number   1
_chemical_formula_structural   BaAlIO6
_chemical_formula_sum   'Ba1 Al1 I1 O6'
_cell_volume   134.52465139
_cell_formula_units_Z   1
loop_
 _symmetry_equiv_pos_site_id
 _symmetry_equiv_pos_as_xyz
  1  'x, y, z'
loop_
 _atom_site_type_symbol
 _atom_site_label
 _atom_site_symmetry_multiplicity
 _atom_site_fract_x
 _atom_site_fract_y
 _atom_site_fract_z
 _atom_site_occupancy
  Ba  Ba0  1  0.000000  0.000000  0.000000  1
  Al  Al1  1  0.666665  0.333333  0.500000  1
  I  I2  1  0.333334  0.666668  0.500000  1
  O  O3  1  0.003523  0.388090  0.316372  1
  O  O4  1  0.611911  0.615434  0.316372  1
  O  O5  1  0.384565  0.996477  0.316372  1
  O  O6  1  0.384566  0.388090  0.683628  1
  O  O7  1  0.003522  0.615434  0.683628  1
  O  O8  1  0.611911  0.996477  0.683628  1
