# generated using pymatgen
data_Gd4Al18Ir5Pd
_symmetry_space_group_name_H-M   'P 1'
_cell_length_a   7.55532244
_cell_length_b   7.55532334
_cell_length_c   9.44654600
_cell_angle_alpha   89.95396058
_cell_angle_beta   89.95396057
_cell_angle_gamma   119.62530840
_symmetry_Int_Tables_number   1
_chemical_formula_structural   Gd4Al18Ir5Pd
_chemical_formula_sum   'Gd4 Al18 Ir5 Pd1'
_cell_volume   468.74491424
_cell_formula_units_Z   1
loop_
 _symmetry_equiv_pos_site_id
 _symmetry_equiv_pos_as_xyz
  1  'x, y, z'
loop_
 _atom_site_type_symbol
 _atom_site_label
 _atom_site_symmetry_multiplicity
 _atom_site_fract_x
 _atom_site_fract_y
 _atom_site_fract_z
 _atom_site_occupancy
  Gd  Gd0  1  0.996007  0.670694  0.248960  1
  Gd  Gd1  1  0.003993  0.329306  0.751040  1
  Gd  Gd2  1  0.670507  0.995915  0.248964  1
  Gd  Gd3  1  0.329493  0.004085  0.751036  1
  Al  Al4  1  0.130042  0.129668  0.247851  1
  Al  Al5  1  0.869958  0.870332  0.752149  1
  Al  Al6  1  0.000560  0.334209  0.074334  1
  Al  Al7  1  0.999440  0.665791  0.925666  1
  Al  Al8  1  0.998286  0.661522  0.576760  1
  Al  Al9  1  0.338749  0.001931  0.423541  1
  Al  Al10  1  0.001714  0.338478  0.423240  1
  Al  Al11  1  0.661251  0.998069  0.576459  1
  Al  Al12  1  0.665417  0.999454  0.925809  1
  Al  Al13  1  0.334583  0.000546  0.074191  1
  Al  Al14  1  0.336998  0.337050  0.555050  1
  Al  Al15  1  0.663002  0.662950  0.444950  1
  Al  Al16  1  0.666412  0.666520  0.051887  1
  Al  Al17  1  0.333588  0.333480  0.948113  1
  Al  Al18  1  0.338485  0.547799  0.249482  1
  Al  Al19  1  0.661515  0.452201  0.750518  1
  Al  Al20  1  0.547964  0.339030  0.249605  1
  Al  Al21  1  0.452036  0.660970  0.750395  1
  Ir  Ir22  1  0.671771  0.328327  0.000093  1
  Ir  Ir23  1  0.328229  0.671673  0.999907  1
  Ir  Ir24  1  0.328133  0.671899  0.499918  1
  Ir  Ir25  1  0.671867  0.328101  0.500082  1
  Ir  Ir26  1  0.000000  0.000000  0.000000  1
  Pd  Pd27  1  0.000000  0.000000  0.500000  1
