# generated using pymatgen
data_Ba6TbSc(BO3)6
_symmetry_space_group_name_H-M   'P 1'
_cell_length_a   8.18216010
_cell_length_b   8.18215923
_cell_length_c   8.18215993
_cell_angle_alpha   105.75915739
_cell_angle_beta   105.75915609
_cell_angle_gamma   105.75916340
_symmetry_Int_Tables_number   1
_chemical_formula_structural   Ba6TbSc(BO3)6
_chemical_formula_sum   'Ba6 Tb1 Sc1 B6 O18'
_cell_volume   470.78314290
_cell_formula_units_Z   1
loop_
 _symmetry_equiv_pos_site_id
 _symmetry_equiv_pos_as_xyz
  1  'x, y, z'
loop_
 _atom_site_type_symbol
 _atom_site_label
 _atom_site_symmetry_multiplicity
 _atom_site_fract_x
 _atom_site_fract_y
 _atom_site_fract_z
 _atom_site_occupancy
  Ba  Ba0  1  0.348488  0.732870  0.836718  1
  Ba  Ba1  1  0.836718  0.348488  0.732870  1
  Ba  Ba2  1  0.732870  0.836718  0.348488  1
  Ba  Ba3  1  0.651512  0.267130  0.163282  1
  Ba  Ba4  1  0.163282  0.651512  0.267130  1
  Ba  Ba5  1  0.267130  0.163282  0.651512  1
  Tb  Tb6  1  0.000000  0.000000  0.000000  1
  Sc  Sc7  1  0.500000  0.500000  0.500000  1
  B  B8  1  0.376213  0.051251  0.293551  1
  B  B9  1  0.293551  0.376213  0.051251  1
  B  B10  1  0.051251  0.293551  0.376213  1
  B  B11  1  0.706449  0.623787  0.948749  1
  B  B12  1  0.948749  0.706449  0.623787  1
  B  B13  1  0.623787  0.948749  0.706449  1
  O  O14  1  0.426510  0.488964  0.225891  1
  O  O15  1  0.225891  0.426510  0.488964  1
  O  O16  1  0.810771  0.012574  0.738720  1
  O  O17  1  0.012574  0.738720  0.810771  1
  O  O18  1  0.738720  0.810771  0.012574  1
  O  O19  1  0.261280  0.189229  0.987426  1
  O  O20  1  0.189229  0.987426  0.261280  1
  O  O21  1  0.987426  0.261280  0.189229  1
  O  O22  1  0.548839  0.057120  0.797703  1
  O  O23  1  0.057120  0.797703  0.548839  1
  O  O24  1  0.797703  0.548839  0.057120  1
  O  O25  1  0.451161  0.942880  0.202297  1
  O  O26  1  0.942880  0.202297  0.451161  1
  O  O27  1  0.202297  0.451161  0.942880  1
  O  O28  1  0.511036  0.774109  0.573490  1
  O  O29  1  0.774109  0.573490  0.511036  1
  O  O30  1  0.573490  0.511036  0.774109  1
  O  O31  1  0.488964  0.225891  0.426510  1
