# generated using pymatgen
data_LuHg(Pd3O4)2
_symmetry_space_group_name_H-M   'P 1'
_cell_length_a   6.73234852
_cell_length_b   6.73234776
_cell_length_c   6.73234900
_cell_angle_alpha   59.99999884
_cell_angle_beta   60.00000257
_cell_angle_gamma   60.00000366
_symmetry_Int_Tables_number   1
_chemical_formula_structural   LuHg(Pd3O4)2
_chemical_formula_sum   'Lu1 Hg1 Pd6 O8'
_cell_volume   215.76687549
_cell_formula_units_Z   1
loop_
 _symmetry_equiv_pos_site_id
 _symmetry_equiv_pos_as_xyz
  1  'x, y, z'
loop_
 _atom_site_type_symbol
 _atom_site_label
 _atom_site_symmetry_multiplicity
 _atom_site_fract_x
 _atom_site_fract_y
 _atom_site_fract_z
 _atom_site_occupancy
  Lu  Lu0  1  0.000000  0.000000  0.000000  1
  Hg  Hg1  1  0.500000  0.500000  0.500000  1
  Pd  Pd2  1  0.000000  0.000000  0.500000  1
  Pd  Pd3  1  0.500000  0.000000  0.500000  1
  Pd  Pd4  1  0.000000  0.500000  0.500000  1
  Pd  Pd5  1  0.500000  0.500000  0.000000  1
  Pd  Pd6  1  0.000000  0.500000  0.000000  1
  Pd  Pd7  1  0.500000  0.000000  0.000000  1
  O  O8  1  0.861529  0.861529  0.415414  1
  O  O9  1  0.861529  0.415414  0.861529  1
  O  O10  1  0.415414  0.861529  0.861529  1
  O  O11  1  0.861529  0.861529  0.861529  1
  O  O12  1  0.138471  0.138471  0.584586  1
  O  O13  1  0.138471  0.584586  0.138471  1
  O  O14  1  0.584586  0.138471  0.138471  1
  O  O15  1  0.138471  0.138471  0.138471  1
