# generated using pymatgen
data_ErMgZr8In13Co7
_symmetry_space_group_name_H-M   'P 1'
_cell_length_a   9.54069058
_cell_length_b   9.48021445
_cell_length_c   9.48021446
_cell_angle_alpha   59.98031908
_cell_angle_beta   59.78875127
_cell_angle_gamma   59.78875447
_symmetry_Int_Tables_number   1
_chemical_formula_structural   ErMgZr8In13Co7
_chemical_formula_sum   'Er1 Mg1 Zr8 In13 Co7'
_cell_volume   604.28638293
_cell_formula_units_Z   1
loop_
 _symmetry_equiv_pos_site_id
 _symmetry_equiv_pos_as_xyz
  1  'x, y, z'
loop_
 _atom_site_type_symbol
 _atom_site_label
 _atom_site_symmetry_multiplicity
 _atom_site_fract_x
 _atom_site_fract_y
 _atom_site_fract_z
 _atom_site_occupancy
  Er  Er0  1  0.500000  0.494206  0.505794  1
  Mg  Mg1  1  0.500000  0.839982  0.160018  1
  Zr  Zr2  1  0.121501  0.636372  0.120628  1
  Zr  Zr3  1  0.360878  0.879352  0.878869  1
  Zr  Zr4  1  0.880899  0.879352  0.878869  1
  Zr  Zr5  1  0.639122  0.121131  0.120648  1
  Zr  Zr6  1  0.878499  0.879372  0.363628  1
  Zr  Zr7  1  0.119101  0.121131  0.120648  1
  Zr  Zr8  1  0.878881  0.362569  0.879668  1
  Zr  Zr9  1  0.121119  0.120332  0.637431  1
  In  In10  1  0.499275  0.845112  0.492310  1
  In  In11  1  0.499407  0.155096  0.500278  1
  In  In12  1  0.500593  0.499722  0.844904  1
  In  In13  1  0.155409  0.500034  0.499966  1
  In  In14  1  0.845219  0.155096  0.500278  1
  In  In15  1  0.163303  0.845112  0.492310  1
  In  In16  1  0.500000  0.148422  0.851578  1
  In  In17  1  0.154781  0.499722  0.844904  1
  In  In18  1  0.500725  0.507690  0.154888  1
  In  In19  1  0.844591  0.500034  0.499966  1
  In  In20  1  0.836697  0.507690  0.154888  1
  In  In21  1  0.252682  0.247046  0.247590  1
  In  In22  1  0.747318  0.752410  0.752954  1
  Co  Co23  1  0.782629  0.781982  0.218018  1
  Co  Co24  1  0.000000  0.999748  0.000252  1
  Co  Co25  1  0.217371  0.781982  0.218018  1
  Co  Co26  1  0.221210  0.778853  0.778728  1
  Co  Co27  1  0.220603  0.219589  0.780411  1
  Co  Co28  1  0.779397  0.219589  0.780411  1
  Co  Co29  1  0.778790  0.221272  0.221147  1
