# generated using pymatgen
data_HoTm7(OsI4)2
_symmetry_space_group_name_H-M   'P 1'
_cell_length_a   11.26098544
_cell_length_b   11.25718667
_cell_length_c   6.11614311
_cell_angle_alpha   89.22240830
_cell_angle_beta   89.25135681
_cell_angle_gamma   88.68066081
_symmetry_Int_Tables_number   1
_chemical_formula_structural   HoTm7(OsI4)2
_chemical_formula_sum   'Ho1 Tm7 Os2 I8'
_cell_volume   774.98520329
_cell_formula_units_Z   1
loop_
 _symmetry_equiv_pos_site_id
 _symmetry_equiv_pos_as_xyz
  1  'x, y, z'
loop_
 _atom_site_type_symbol
 _atom_site_label
 _atom_site_symmetry_multiplicity
 _atom_site_fract_x
 _atom_site_fract_y
 _atom_site_fract_z
 _atom_site_occupancy
  Ho  Ho0  1  0.198163  0.916498  0.995778  1
  Tm  Tm1  1  0.803887  0.082655  0.004355  1
  Tm  Tm2  1  0.082361  0.804006  0.504385  1
  Tm  Tm3  1  0.917271  0.196091  0.495641  1
  Tm  Tm4  1  0.805599  0.922128  0.507049  1
  Tm  Tm5  1  0.194087  0.078066  0.492974  1
  Tm  Tm6  1  0.077679  0.194468  0.992993  1
  Tm  Tm7  1  0.921785  0.805756  0.007066  1
  Os  Os8  1  0.999936  0.999886  0.250092  1
  Os  Os9  1  0.999483  0.000357  0.749955  1
  I  I10  1  0.356788  0.848455  0.512380  1
  I  I11  1  0.643135  0.151568  0.487336  1
  I  I12  1  0.151289  0.642695  0.987341  1
  I  I13  1  0.848443  0.356888  0.012648  1
  I  I14  1  0.352000  0.145598  0.995685  1
  I  I15  1  0.648073  0.854896  0.004319  1
  I  I16  1  0.854942  0.648117  0.504324  1
  I  I17  1  0.145077  0.351873  0.495680  1
