# generated using pymatgen
data_Zr6Ti7Al9(FeRh3)2
_symmetry_space_group_name_H-M   'P 1'
_cell_length_a   8.85471932
_cell_length_b   8.85471810
_cell_length_c   8.85471734
_cell_angle_alpha   59.93168503
_cell_angle_beta   59.93169055
_cell_angle_gamma   59.93169548
_symmetry_Int_Tables_number   1
_chemical_formula_structural   Zr6Ti7Al9(FeRh3)2
_chemical_formula_sum   'Zr6 Ti7 Al9 Fe2 Rh6'
_cell_volume   490.15768799
_cell_formula_units_Z   1
loop_
 _symmetry_equiv_pos_site_id
 _symmetry_equiv_pos_as_xyz
  1  'x, y, z'
loop_
 _atom_site_type_symbol
 _atom_site_label
 _atom_site_symmetry_multiplicity
 _atom_site_fract_x
 _atom_site_fract_y
 _atom_site_fract_z
 _atom_site_occupancy
  Zr  Zr0  1  0.203737  0.203737  0.795440  1
  Zr  Zr1  1  0.795440  0.203737  0.203737  1
  Zr  Zr2  1  0.203737  0.795440  0.203737  1
  Zr  Zr3  1  0.801307  0.801307  0.189912  1
  Zr  Zr4  1  0.189912  0.801307  0.801307  1
  Zr  Zr5  1  0.801307  0.189912  0.801307  1
  Ti  Ti6  1  0.382313  0.382313  0.382313  1
  Ti  Ti7  1  0.383199  0.853151  0.383199  1
  Ti  Ti8  1  0.853151  0.383199  0.383199  1
  Ti  Ti9  1  0.383199  0.383199  0.853151  1
  Ti  Ti10  1  0.834457  0.499742  0.834457  1
  Ti  Ti11  1  0.499742  0.834457  0.834457  1
  Ti  Ti12  1  0.834457  0.834457  0.499742  1
  Al  Al13  1  0.165143  0.165143  0.165143  1
  Al  Al14  1  0.167397  0.498835  0.167397  1
  Al  Al15  1  0.498835  0.167397  0.167397  1
  Al  Al16  1  0.167397  0.167397  0.498835  1
  Al  Al17  1  0.616288  0.616288  0.616288  1
  Al  Al18  1  0.616037  0.153208  0.616037  1
  Al  Al19  1  0.153208  0.616037  0.616037  1
  Al  Al20  1  0.616037  0.616037  0.153208  1
  Al  Al21  1  0.828007  0.828007  0.828007  1
  Fe  Fe22  1  0.500472  0.500472  0.500472  1
  Fe  Fe23  1  0.002194  0.002194  0.002194  1
  Rh  Rh24  1  0.001787  0.001787  0.496824  1
  Rh  Rh25  1  0.496824  0.001787  0.001787  1
  Rh  Rh26  1  0.001787  0.496824  0.001787  1
  Rh  Rh27  1  0.501000  0.501000  0.000632  1
  Rh  Rh28  1  0.000632  0.501000  0.501000  1
  Rh  Rh29  1  0.501000  0.000632  0.501000  1
