# generated using pymatgen
data_Nd8Be2ZnSi12Pd
_symmetry_space_group_name_H-M   'P 1'
_cell_length_a   8.09562900
_cell_length_b   8.09563016
_cell_length_c   8.57868600
_cell_angle_alpha   90.00000000
_cell_angle_beta   90.00000000
_cell_angle_gamma   119.99999118
_symmetry_Int_Tables_number   1
_chemical_formula_structural   Nd8Be2ZnSi12Pd
_chemical_formula_sum   'Nd8 Be2 Zn1 Si12 Pd1'
_cell_volume   486.91449049
_cell_formula_units_Z   1
loop_
 _symmetry_equiv_pos_site_id
 _symmetry_equiv_pos_as_xyz
  1  'x, y, z'
loop_
 _atom_site_type_symbol
 _atom_site_label
 _atom_site_symmetry_multiplicity
 _atom_site_fract_x
 _atom_site_fract_y
 _atom_site_fract_z
 _atom_site_occupancy
  Nd  Nd0  1  0.499622  0.500378  0.754150  1
  Nd  Nd1  1  0.499792  0.500208  0.245860  1
  Nd  Nd2  1  0.000756  0.500378  0.754150  1
  Nd  Nd3  1  0.000416  0.500208  0.245860  1
  Nd  Nd4  1  0.499622  0.999244  0.754150  1
  Nd  Nd5  1  0.499792  0.999584  0.245860  1
  Nd  Nd6  1  0.000000  0.000000  0.751299  1
  Nd  Nd7  1  0.000000  0.000000  0.248788  1
  Be  Be8  1  0.666667  0.333333  0.999023  1
  Be  Be9  1  0.333333  0.666667  0.000848  1
  Zn  Zn10  1  0.333333  0.666667  0.499432  1
  Si  Si11  1  0.827647  0.172353  0.000015  1
  Si  Si12  1  0.172201  0.827799  0.000065  1
  Si  Si13  1  0.344708  0.172353  0.000015  1
  Si  Si14  1  0.163982  0.836018  0.499821  1
  Si  Si15  1  0.655597  0.827799  0.000065  1
  Si  Si16  1  0.832082  0.167918  0.500199  1
  Si  Si17  1  0.827647  0.655292  0.000015  1
  Si  Si18  1  0.672037  0.836018  0.499821  1
  Si  Si19  1  0.172201  0.344403  0.000065  1
  Si  Si20  1  0.335834  0.167918  0.500199  1
  Si  Si21  1  0.163982  0.327963  0.499821  1
  Si  Si22  1  0.832082  0.664166  0.500199  1
  Pd  Pd23  1  0.666667  0.333333  0.500281  1
