# generated using pymatgen
data_Nd3Mg3CuPdRu
_symmetry_space_group_name_H-M   'P 1'
_cell_length_a   7.59091700
_cell_length_b   7.59091678
_cell_length_c   4.09184600
_cell_angle_alpha   90.00000000
_cell_angle_beta   90.00000000
_cell_angle_gamma   119.99999658
_symmetry_Int_Tables_number   1
_chemical_formula_structural   Nd3Mg3CuPdRu
_chemical_formula_sum   'Nd3 Mg3 Cu1 Pd1 Ru1'
_cell_volume   204.19184830
_cell_formula_units_Z   1
loop_
 _symmetry_equiv_pos_site_id
 _symmetry_equiv_pos_as_xyz
  1  'x, y, z'
loop_
 _atom_site_type_symbol
 _atom_site_label
 _atom_site_symmetry_multiplicity
 _atom_site_fract_x
 _atom_site_fract_y
 _atom_site_fract_z
 _atom_site_occupancy
  Nd  Nd0  1  0.576506  0.983579  0.000000  1
  Nd  Nd1  1  0.016421  0.592927  0.000000  1
  Nd  Nd2  1  0.407073  0.423494  0.000000  1
  Mg  Mg3  1  0.242839  0.999260  0.500000  1
  Mg  Mg4  1  0.000740  0.243579  0.500000  1
  Mg  Mg5  1  0.756421  0.757161  0.500000  1
  Cu  Cu6  1  0.666667  0.333333  0.500000  1
  Pd  Pd7  1  0.000000  0.000000  0.000000  1
  Ru  Ru8  1  0.333333  0.666667  0.500000  1
