# generated using pymatgen
data_Zn3GeP7N12
_symmetry_space_group_name_H-M   'P 1'
_cell_length_a   7.18700113
_cell_length_b   7.20809143
_cell_length_c   7.18700187
_cell_angle_alpha   109.53067691
_cell_angle_beta   109.41169888
_cell_angle_gamma   109.53067950
_symmetry_Int_Tables_number   1
_chemical_formula_structural   Zn3GeP7N12
_chemical_formula_sum   'Zn3 Ge1 P7 N12'
_cell_volume   286.40108217
_cell_formula_units_Z   1
loop_
 _symmetry_equiv_pos_site_id
 _symmetry_equiv_pos_as_xyz
  1  'x, y, z'
loop_
 _atom_site_type_symbol
 _atom_site_label
 _atom_site_symmetry_multiplicity
 _atom_site_fract_x
 _atom_site_fract_y
 _atom_site_fract_z
 _atom_site_occupancy
  Zn  Zn0  1  0.670231  0.671107  0.670231  1
  Zn  Zn1  1  0.329769  0.000877  0.000000  1
  Zn  Zn2  1  0.000000  0.000877  0.329769  1
  Ge  Ge3  1  0.000000  0.329073  0.000000  1
  P  P4  1  0.749882  0.251159  0.497499  1
  P  P5  1  0.252383  0.753660  0.502501  1
  P  P6  1  0.502501  0.753660  0.252383  1
  P  P7  1  0.497499  0.251159  0.749882  1
  P  P8  1  0.747617  0.501277  0.250118  1
  P  P9  1  0.250118  0.501277  0.747617  1
  P  P10  1  0.000000  0.974805  0.000000  1
  N  N11  1  0.558660  0.272069  0.000000  1
  N  N12  1  0.444180  0.445369  0.717203  1
  N  N13  1  0.000000  0.272069  0.558660  1
  N  N14  1  0.273023  0.001189  0.555820  1
  N  N15  1  0.717203  0.445369  0.444180  1
  N  N16  1  0.000000  0.558893  0.272606  1
  N  N17  1  0.555820  0.001189  0.273023  1
  N  N18  1  0.441340  0.713409  0.441340  1
  N  N19  1  0.272606  0.558893  0.000000  1
  N  N20  1  0.727394  0.286287  0.727394  1
  N  N21  1  0.726977  0.728166  0.282797  1
  N  N22  1  0.282797  0.728166  0.726977  1
