# generated using pymatgen
data_Nd2SmDy2(In2Pd)2
_symmetry_space_group_name_H-M   'P 1'
_cell_length_a   8.24999300
_cell_length_b   18.50101671
_cell_length_c   3.72861800
_cell_angle_alpha   90.00000000
_cell_angle_beta   90.00000000
_cell_angle_gamma   90.16282897
_symmetry_Int_Tables_number   1
_chemical_formula_structural   Nd2SmDy2(In2Pd)2
_chemical_formula_sum   'Nd4 Sm2 Dy4 In8 Pd4'
_cell_volume   569.10881632
_cell_formula_units_Z   2
loop_
 _symmetry_equiv_pos_site_id
 _symmetry_equiv_pos_as_xyz
  1  'x, y, z'
loop_
 _atom_site_type_symbol
 _atom_site_label
 _atom_site_symmetry_multiplicity
 _atom_site_fract_x
 _atom_site_fract_y
 _atom_site_fract_z
 _atom_site_occupancy
  Nd  Nd0  1  0.500000  0.500000  0.000000  1
  Nd  Nd1  1  0.000000  0.000000  0.000000  1
  Nd  Nd2  1  0.759874  0.783644  0.000000  1
  Nd  Nd3  1  0.240126  0.216356  0.000000  1
  Sm  Sm4  1  0.740261  0.283527  0.000000  1
  Sm  Sm5  1  0.259739  0.716473  0.000000  1
  Dy  Dy6  1  0.620359  0.084570  0.000000  1
  Dy  Dy7  1  0.379641  0.915430  0.000000  1
  Dy  Dy8  1  0.879913  0.584461  0.000000  1
  Dy  Dy9  1  0.120087  0.415539  0.000000  1
  In  In10  1  0.697798  0.935276  0.500000  1
  In  In11  1  0.302202  0.064724  0.500000  1
  In  In12  1  0.801347  0.434500  0.500000  1
  In  In13  1  0.198653  0.565500  0.500000  1
  In  In14  1  0.582606  0.651777  0.500000  1
  In  In15  1  0.417394  0.348223  0.500000  1
  In  In16  1  0.914559  0.152412  0.500000  1
  In  In17  1  0.085441  0.847588  0.500000  1
  Pd  Pd18  1  0.529139  0.194178  0.500000  1
  Pd  Pd19  1  0.470861  0.805822  0.500000  1
  Pd  Pd20  1  0.975464  0.693679  0.500000  1
  Pd  Pd21  1  0.024536  0.306321  0.500000  1
