# generated using pymatgen
data_Rb4Th6BBr18
_symmetry_space_group_name_H-M   'P 1'
_cell_length_a   11.10449866
_cell_length_b   11.36234241
_cell_length_c   11.43671426
_cell_angle_alpha   118.71178613
_cell_angle_beta   100.31278858
_cell_angle_gamma   103.92105601
_symmetry_Int_Tables_number   1
_chemical_formula_structural   Rb4Th6BBr18
_chemical_formula_sum   'Rb4 Th6 B1 Br18'
_cell_volume   1152.50948410
_cell_formula_units_Z   1
loop_
 _symmetry_equiv_pos_site_id
 _symmetry_equiv_pos_as_xyz
  1  'x, y, z'
loop_
 _atom_site_type_symbol
 _atom_site_label
 _atom_site_symmetry_multiplicity
 _atom_site_fract_x
 _atom_site_fract_y
 _atom_site_fract_z
 _atom_site_occupancy
  Rb  Rb0  1  0.188873  0.726920  0.566148  1
  Rb  Rb1  1  0.846311  0.962619  0.771697  1
  Rb  Rb2  1  0.153689  0.037381  0.228303  1
  Rb  Rb3  1  0.811127  0.273080  0.433852  1
  Th  Th4  1  0.342733  0.441483  0.756531  1
  Th  Th5  1  0.357963  0.636762  0.143599  1
  Th  Th6  1  0.649854  0.750834  0.045137  1
  Th  Th7  1  0.657267  0.558517  0.243469  1
  Th  Th8  1  0.350146  0.249166  0.954863  1
  Th  Th9  1  0.642037  0.363238  0.856401  1
  B  B10  1  0.500000  0.500000  0.000000  1
  Br  Br11  1  0.828725  0.418482  0.111379  1
  Br  Br12  1  0.518623  0.714345  0.426155  1
  Br  Br13  1  0.166950  0.969607  0.898063  1
  Br  Br14  1  0.171275  0.581518  0.888621  1
  Br  Br15  1  0.837886  0.841558  0.318009  1
  Br  Br16  1  0.506100  0.289242  0.219063  1
  Br  Br17  1  0.799019  0.212722  0.700140  1
  Br  Br18  1  0.162114  0.158442  0.681991  1
  Br  Br19  1  0.510351  0.926300  0.206681  1
  Br  Br20  1  0.823948  0.628780  0.899602  1
  Br  Br21  1  0.200981  0.787278  0.299860  1
  Br  Br22  1  0.155904  0.376530  0.487164  1
  Br  Br23  1  0.493900  0.710758  0.780937  1
  Br  Br24  1  0.833050  0.030393  0.101937  1
  Br  Br25  1  0.481377  0.285655  0.573845  1
  Br  Br26  1  0.176052  0.371220  0.100398  1
  Br  Br27  1  0.844096  0.623470  0.512836  1
  Br  Br28  1  0.489649  0.073700  0.793319  1
