# generated using pymatgen
data_SmY2Hf(Co4P3)2
_symmetry_space_group_name_H-M   'P 1'
_cell_length_a   3.74292600
_cell_length_b   10.73091600
_cell_length_c   12.44039700
_cell_angle_alpha   90.00000000
_cell_angle_beta   90.00000000
_cell_angle_gamma   90.00000000
_symmetry_Int_Tables_number   1
_chemical_formula_structural   SmY2Hf(Co4P3)2
_chemical_formula_sum   'Sm2 Y4 Hf2 Co16 P12'
_cell_volume   499.66885030
_cell_formula_units_Z   2
loop_
 _symmetry_equiv_pos_site_id
 _symmetry_equiv_pos_as_xyz
  1  'x, y, z'
loop_
 _atom_site_type_symbol
 _atom_site_label
 _atom_site_symmetry_multiplicity
 _atom_site_fract_x
 _atom_site_fract_y
 _atom_site_fract_z
 _atom_site_occupancy
  Sm  Sm0  1  0.000000  0.500000  0.529048  1
  Sm  Sm1  1  0.500000  0.000000  0.470952  1
  Y  Y2  1  0.500000  0.821374  0.204360  1
  Y  Y3  1  0.500000  0.178626  0.204360  1
  Y  Y4  1  0.000000  0.678626  0.795640  1
  Y  Y5  1  0.000000  0.321374  0.795640  1
  Hf  Hf6  1  0.500000  0.500000  0.155935  1
  Hf  Hf7  1  0.000000  0.000000  0.844065  1
  Co  Co8  1  0.500000  0.500000  0.704706  1
  Co  Co9  1  0.000000  0.000000  0.295294  1
  Co  Co10  1  0.000000  0.500000  0.986690  1
  Co  Co11  1  0.500000  0.000000  0.013310  1
  Co  Co12  1  0.500000  0.332024  0.993318  1
  Co  Co13  1  0.500000  0.667976  0.993318  1
  Co  Co14  1  0.000000  0.167976  0.006682  1
  Co  Co15  1  0.000000  0.832024  0.006682  1
  Co  Co16  1  0.500000  0.295175  0.432310  1
  Co  Co17  1  0.500000  0.704825  0.432310  1
  Co  Co18  1  0.000000  0.204825  0.567690  1
  Co  Co19  1  0.000000  0.795175  0.567690  1
  Co  Co20  1  0.500000  0.878321  0.704189  1
  Co  Co21  1  0.500000  0.121679  0.704189  1
  Co  Co22  1  0.000000  0.621679  0.295811  1
  Co  Co23  1  0.000000  0.378321  0.295811  1
  P  P24  1  0.500000  0.500000  0.883856  1
  P  P25  1  0.000000  0.000000  0.116144  1
  P  P26  1  0.500000  0.500000  0.359298  1
  P  P27  1  0.000000  0.000000  0.640702  1
  P  P28  1  0.500000  0.308064  0.616069  1
  P  P29  1  0.500000  0.691936  0.616069  1
  P  P30  1  0.000000  0.191936  0.383931  1
  P  P31  1  0.000000  0.808064  0.383931  1
  P  P32  1  0.500000  0.838964  0.893897  1
  P  P33  1  0.500000  0.161036  0.893897  1
  P  P34  1  0.000000  0.661036  0.106103  1
  P  P35  1  0.000000  0.338964  0.106103  1
