# generated using pymatgen
data_Ho10Tl7In(PdAu)2
_symmetry_space_group_name_H-M   'P 1'
_cell_length_a   3.63818900
_cell_length_b   8.25345920
_cell_length_c   18.46620611
_cell_angle_alpha   89.90121525
_cell_angle_beta   90.00000000
_cell_angle_gamma   90.00000000
_symmetry_Int_Tables_number   1
_chemical_formula_structural   Ho10Tl7In(PdAu)2
_chemical_formula_sum   'Ho10 Tl7 In1 Pd2 Au2'
_cell_volume   554.49584796
_cell_formula_units_Z   1
loop_
 _symmetry_equiv_pos_site_id
 _symmetry_equiv_pos_as_xyz
  1  'x, y, z'
loop_
 _atom_site_type_symbol
 _atom_site_label
 _atom_site_symmetry_multiplicity
 _atom_site_fract_x
 _atom_site_fract_y
 _atom_site_fract_z
 _atom_site_occupancy
  Ho  Ho0  1  0.000000  0.499747  0.499982  1
  Ho  Ho1  1  0.000000  0.000876  0.998833  1
  Ho  Ho2  1  0.000000  0.748207  0.283572  1
  Ho  Ho3  1  0.000000  0.251927  0.716963  1
  Ho  Ho4  1  0.000000  0.766400  0.780354  1
  Ho  Ho5  1  0.000000  0.233620  0.219792  1
  Ho  Ho6  1  0.000000  0.618735  0.081862  1
  Ho  Ho7  1  0.000000  0.379933  0.918106  1
  Ho  Ho8  1  0.000000  0.886959  0.584478  1
  Ho  Ho9  1  0.000000  0.113038  0.415780  1
  Tl  Tl10  1  0.500000  0.712593  0.933426  1
  Tl  Tl11  1  0.500000  0.289970  0.065533  1
  Tl  Tl12  1  0.500000  0.791765  0.434727  1
  Tl  Tl13  1  0.500000  0.208056  0.565631  1
  Tl  Tl14  1  0.500000  0.585519  0.646412  1
  Tl  Tl15  1  0.500000  0.414315  0.354326  1
  Tl  Tl16  1  0.500000  0.919779  0.147326  1
  In  In17  1  0.500000  0.080425  0.851091  1
  Pd  Pd18  1  0.500000  0.974286  0.697712  1
  Pd  Pd19  1  0.500000  0.026387  0.303608  1
  Au  Au20  1  0.500000  0.528211  0.198189  1
  Au  Au21  1  0.500000  0.469252  0.802296  1
