# generated using pymatgen
data_Er7Lu3(GaSb2)2
_symmetry_space_group_name_H-M   'P 1'
_cell_length_a   8.73912258
_cell_length_b   8.73462401
_cell_length_c   6.31496713
_cell_angle_alpha   90.02321073
_cell_angle_beta   89.98840469
_cell_angle_gamma   119.98296249
_symmetry_Int_Tables_number   1
_chemical_formula_structural   Er7Lu3(GaSb2)2
_chemical_formula_sum   'Er7 Lu3 Ga2 Sb4'
_cell_volume   417.53056338
_cell_formula_units_Z   1
loop_
 _symmetry_equiv_pos_site_id
 _symmetry_equiv_pos_as_xyz
  1  'x, y, z'
loop_
 _atom_site_type_symbol
 _atom_site_label
 _atom_site_symmetry_multiplicity
 _atom_site_fract_x
 _atom_site_fract_y
 _atom_site_fract_z
 _atom_site_occupancy
  Er  Er0  1  0.011612  0.767264  0.749962  1
  Er  Er1  1  0.011612  0.244347  0.250038  1
  Er  Er2  1  0.752481  0.753310  0.249952  1
  Er  Er3  1  0.752481  0.999173  0.750048  1
  Er  Er4  1  0.244470  0.232857  0.749819  1
  Er  Er5  1  0.244470  0.011613  0.250181  1
  Er  Er6  1  0.336230  0.668115  0.000000  1
  Lu  Lu7  1  0.336375  0.668188  0.500000  1
  Lu  Lu8  1  0.652170  0.326085  0.000000  1
  Lu  Lu9  1  0.652426  0.326213  0.500000  1
  Ga  Ga10  1  0.395310  0.997920  0.749446  1
  Ga  Ga11  1  0.395310  0.397390  0.250554  1
  Sb  Sb12  1  0.998290  0.606874  0.250254  1
  Sb  Sb13  1  0.998290  0.391416  0.749746  1
  Sb  Sb14  1  0.609237  0.606818  0.749420  1
  Sb  Sb15  1  0.609237  0.002418  0.250580  1
