# generated using pymatgen
data_Y8ReRu3C8
_symmetry_space_group_name_H-M   'P 1'
_cell_length_a   5.12413400
_cell_length_b   6.51882913
_cell_length_c   9.83180321
_cell_angle_alpha   89.97674650
_cell_angle_beta   90.00000000
_cell_angle_gamma   90.00000000
_symmetry_Int_Tables_number   1
_chemical_formula_structural   Y8ReRu3C8
_chemical_formula_sum   'Y8 Re1 Ru3 C8'
_cell_volume   328.41517585
_cell_formula_units_Z   1
loop_
 _symmetry_equiv_pos_site_id
 _symmetry_equiv_pos_as_xyz
  1  'x, y, z'
loop_
 _atom_site_type_symbol
 _atom_site_label
 _atom_site_symmetry_multiplicity
 _atom_site_fract_x
 _atom_site_fract_y
 _atom_site_fract_z
 _atom_site_occupancy
  Y  Y0  1  0.750000  0.527741  0.785616  1
  Y  Y1  1  0.250000  0.971323  0.284027  1
  Y  Y2  1  0.750000  0.677158  0.445062  1
  Y  Y3  1  0.250000  0.823429  0.945218  1
  Y  Y4  1  0.750000  0.182107  0.055991  1
  Y  Y5  1  0.250000  0.323848  0.555538  1
  Y  Y6  1  0.250000  0.470174  0.217461  1
  Y  Y7  1  0.750000  0.028424  0.713398  1
  Re  Re8  1  0.750000  0.721867  0.134622  1
  Ru  Ru9  1  0.250000  0.279104  0.863966  1
  Ru  Ru10  1  0.250000  0.779540  0.636587  1
  Ru  Ru11  1  0.750000  0.222331  0.366017  1
  C  C12  1  0.250000  0.674081  0.449243  1
  C  C13  1  0.250000  0.544440  0.758335  1
  C  C14  1  0.750000  0.456529  0.239317  1
  C  C15  1  0.750000  0.820676  0.947729  1
  C  C16  1  0.250000  0.044326  0.742369  1
  C  C17  1  0.250000  0.175316  0.051129  1
  C  C18  1  0.750000  0.322288  0.551291  1
  C  C19  1  0.750000  0.955298  0.257083  1
