# generated using pymatgen
data_CsBr4
_symmetry_space_group_name_H-M   'P 1'
_cell_length_a   8.31059500
_cell_length_b   9.89575715
_cell_length_c   11.09101171
_cell_angle_alpha   68.28943669
_cell_angle_beta   90.00000000
_cell_angle_gamma   90.00000000
_symmetry_Int_Tables_number   1
_chemical_formula_structural   CsBr4
_chemical_formula_sum   'Cs4 Br16'
_cell_volume   847.41885775
_cell_formula_units_Z   4
loop_
 _symmetry_equiv_pos_site_id
 _symmetry_equiv_pos_as_xyz
  1  'x, y, z'
loop_
 _atom_site_type_symbol
 _atom_site_label
 _atom_site_symmetry_multiplicity
 _atom_site_fract_x
 _atom_site_fract_y
 _atom_site_fract_z
 _atom_site_occupancy
  Cs  Cs0  1  0.631874  0.727414  0.696729  1
  Cs  Cs1  1  0.131874  0.272586  0.803271  1
  Cs  Cs2  1  0.368126  0.272586  0.303271  1
  Cs  Cs3  1  0.868126  0.727414  0.196729  1
  Br  Br4  1  0.366648  0.547195  0.512045  1
  Br  Br5  1  0.866648  0.452805  0.987955  1
  Br  Br6  1  0.633352  0.452805  0.487955  1
  Br  Br7  1  0.133352  0.547195  0.012045  1
  Br  Br8  1  0.050426  0.670177  0.551564  1
  Br  Br9  1  0.550426  0.329823  0.948436  1
  Br  Br10  1  0.949574  0.329823  0.448436  1
  Br  Br11  1  0.449574  0.670177  0.051564  1
  Br  Br12  1  0.208027  0.870534  0.608110  1
  Br  Br13  1  0.708027  0.129466  0.891890  1
  Br  Br14  1  0.791973  0.129466  0.391890  1
  Br  Br15  1  0.291973  0.870534  0.108110  1
  Br  Br16  1  0.376894  0.053410  0.660674  1
  Br  Br17  1  0.876894  0.946590  0.839326  1
  Br  Br18  1  0.623106  0.946590  0.339326  1
  Br  Br19  1  0.123106  0.053410  0.160674  1
