# generated using pymatgen
data_Yb(PuAs)3
_symmetry_space_group_name_H-M   'P 1'
_cell_length_a   7.60749536
_cell_length_b   7.62697913
_cell_length_c   7.60749583
_cell_angle_alpha   109.45500680
_cell_angle_beta   109.29681786
_cell_angle_gamma   109.45499997
_symmetry_Int_Tables_number   1
_chemical_formula_structural   Yb(PuAs)3
_chemical_formula_sum   'Yb2 Pu6 As6'
_cell_volume   340.65669445
_cell_formula_units_Z   2
loop_
 _symmetry_equiv_pos_site_id
 _symmetry_equiv_pos_as_xyz
  1  'x, y, z'
loop_
 _atom_site_type_symbol
 _atom_site_label
 _atom_site_symmetry_multiplicity
 _atom_site_fract_x
 _atom_site_fract_y
 _atom_site_fract_z
 _atom_site_occupancy
  Yb  Yb0  1  0.643644  0.499327  0.999257  1
  Yb  Yb1  1  0.499257  0.999327  0.143644  1
  Pu  Pu2  1  0.141435  0.494303  0.998002  1
  Pu  Pu3  1  0.498002  0.994303  0.641435  1
  Pu  Pu4  1  0.351235  0.357334  0.355855  1
  Pu  Pu5  1  0.006032  0.149150  0.504736  1
  Pu  Pu6  1  0.855855  0.857334  0.851235  1
  Pu  Pu7  1  0.004736  0.649150  0.506032  1
  As  As8  1  0.876058  0.250127  0.126466  1
  As  As9  1  0.124294  0.873674  0.247888  1
  As  As10  1  0.374596  0.626085  0.750502  1
  As  As11  1  0.250502  0.126085  0.874596  1
  As  As12  1  0.747888  0.373674  0.624294  1
  As  As13  1  0.626466  0.750127  0.376058  1
