# generated using pymatgen
data_Zr7Np(Si4Mo3)4
_symmetry_space_group_name_H-M   'P 1'
_cell_length_a   6.63583535
_cell_length_b   6.79094197
_cell_length_c   12.70300576
_cell_angle_alpha   90.07533317
_cell_angle_beta   89.87098002
_cell_angle_gamma   90.19305379
_symmetry_Int_Tables_number   1
_chemical_formula_structural   Zr7Np(Si4Mo3)4
_chemical_formula_sum   'Zr7 Np1 Si16 Mo12'
_cell_volume   572.43763443
_cell_formula_units_Z   1
loop_
 _symmetry_equiv_pos_site_id
 _symmetry_equiv_pos_as_xyz
  1  'x, y, z'
loop_
 _atom_site_type_symbol
 _atom_site_label
 _atom_site_symmetry_multiplicity
 _atom_site_fract_x
 _atom_site_fract_y
 _atom_site_fract_z
 _atom_site_occupancy
  Zr  Zr0  1  0.996175  0.171804  0.093857  1
  Zr  Zr1  1  0.003419  0.829641  0.908761  1
  Zr  Zr2  1  0.504248  0.671611  0.906729  1
  Zr  Zr3  1  0.002700  0.829794  0.591700  1
  Zr  Zr4  1  0.495801  0.328610  0.094069  1
  Zr  Zr5  1  0.994376  0.170938  0.405464  1
  Zr  Zr6  1  0.492839  0.328406  0.405173  1
  Np  Np7  1  0.505787  0.668080  0.596929  1
  Si  Si8  1  0.032889  0.124333  0.749593  1
  Si  Si9  1  0.966332  0.876267  0.248813  1
  Si  Si10  1  0.466883  0.624673  0.249940  1
  Si  Si11  1  0.536061  0.370183  0.751961  1
  Si  Si12  1  0.296236  0.866201  0.751314  1
  Si  Si13  1  0.700705  0.136409  0.249860  1
  Si  Si14  1  0.199585  0.364305  0.249670  1
  Si  Si15  1  0.806058  0.636345  0.752571  1
  Si  Si16  1  0.163550  0.457255  0.540887  1
  Si  Si17  1  0.835400  0.540080  0.454481  1
  Si  Si18  1  0.332153  0.959391  0.456464  1
  Si  Si19  1  0.834523  0.541122  0.043355  1
  Si  Si20  1  0.665505  0.044355  0.542624  1
  Si  Si21  1  0.167564  0.458384  0.957658  1
  Si  Si22  1  0.665279  0.041933  0.957624  1
  Si  Si23  1  0.334068  0.958572  0.043459  1
  Mo  Mo24  1  0.170477  0.508256  0.748668  1
  Mo  Mo25  1  0.833030  0.489402  0.248874  1
  Mo  Mo26  1  0.333282  0.012493  0.249800  1
  Mo  Mo27  1  0.665775  0.990403  0.749669  1
  Mo  Mo28  1  0.328838  0.164638  0.623605  1
  Mo  Mo29  1  0.668315  0.836127  0.375642  1
  Mo  Mo30  1  0.166284  0.666157  0.374259  1
  Mo  Mo31  1  0.668215  0.835142  0.123462  1
  Mo  Mo32  1  0.831563  0.336092  0.624965  1
  Mo  Mo33  1  0.331047  0.164249  0.876949  1
  Mo  Mo34  1  0.835866  0.333411  0.877783  1
  Mo  Mo35  1  0.169172  0.664940  0.123370  1
