# generated using pymatgen
data_Zr4TiAl5Au2
_symmetry_space_group_name_H-M   'P 1'
_cell_length_a   5.36303151
_cell_length_b   5.31964781
_cell_length_c   8.80207480
_cell_angle_alpha   89.99999843
_cell_angle_beta   90.13298268
_cell_angle_gamma   119.73275697
_symmetry_Int_Tables_number   1
_chemical_formula_structural   Zr4TiAl5Au2
_chemical_formula_sum   'Zr4 Ti1 Al5 Au2'
_cell_volume   218.05728295
_cell_formula_units_Z   1
loop_
 _symmetry_equiv_pos_site_id
 _symmetry_equiv_pos_as_xyz
  1  'x, y, z'
loop_
 _atom_site_type_symbol
 _atom_site_label
 _atom_site_symmetry_multiplicity
 _atom_site_fract_x
 _atom_site_fract_y
 _atom_site_fract_z
 _atom_site_occupancy
  Zr  Zr0  1  0.337765  0.674587  0.436713  1
  Zr  Zr1  1  0.664502  0.339783  0.942440  1
  Zr  Zr2  1  0.662235  0.336822  0.563287  1
  Zr  Zr3  1  0.335498  0.675282  0.057560  1
  Ti  Ti4  1  0.000000  0.997856  0.000000  1
  Al  Al5  1  0.346975  0.171242  0.252879  1
  Al  Al6  1  0.653025  0.824267  0.747121  1
  Al  Al7  1  0.000000  0.004113  0.500000  1
  Al  Al8  1  0.833798  0.654527  0.251295  1
  Al  Al9  1  0.166202  0.820728  0.748705  1
  Au  Au10  1  0.164539  0.332666  0.746690  1
  Au  Au11  1  0.835461  0.168128  0.253310  1
