# generated using pymatgen
data_Dy8In(Pd11Au)2
_symmetry_space_group_name_H-M   'P 1'
_cell_length_a   8.38984100
_cell_length_b   8.47402000
_cell_length_c   8.47222200
_cell_angle_alpha   90.00000000
_cell_angle_beta   90.00000000
_cell_angle_gamma   90.00000000
_symmetry_Int_Tables_number   1
_chemical_formula_structural   Dy8In(Pd11Au)2
_chemical_formula_sum   'Dy8 In1 Pd22 Au2'
_cell_volume   602.33838785
_cell_formula_units_Z   1
loop_
 _symmetry_equiv_pos_site_id
 _symmetry_equiv_pos_as_xyz
  1  'x, y, z'
loop_
 _atom_site_type_symbol
 _atom_site_label
 _atom_site_symmetry_multiplicity
 _atom_site_fract_x
 _atom_site_fract_y
 _atom_site_fract_z
 _atom_site_occupancy
  Dy  Dy0  1  0.251714  0.248080  0.256942  1
  Dy  Dy1  1  0.748286  0.751920  0.743058  1
  Dy  Dy2  1  0.748286  0.751920  0.256942  1
  Dy  Dy3  1  0.748286  0.248080  0.743058  1
  Dy  Dy4  1  0.251714  0.248080  0.743058  1
  Dy  Dy5  1  0.251714  0.751920  0.256942  1
  Dy  Dy6  1  0.251714  0.751920  0.743058  1
  Dy  Dy7  1  0.748286  0.248080  0.256942  1
  In  In8  1  0.000000  0.000000  0.000000  1
  Pd  Pd9  1  0.000000  0.264778  0.500000  1
  Pd  Pd10  1  0.500000  0.262517  0.000000  1
  Pd  Pd11  1  0.000000  0.735222  0.500000  1
  Pd  Pd12  1  0.500000  0.737483  0.000000  1
  Pd  Pd13  1  0.500000  0.000000  0.264806  1
  Pd  Pd14  1  0.265570  0.000000  0.500000  1
  Pd  Pd15  1  0.500000  0.000000  0.735194  1
  Pd  Pd16  1  0.734430  0.000000  0.500000  1
  Pd  Pd17  1  0.000000  0.500000  0.265591  1
  Pd  Pd18  1  0.000000  0.500000  0.734409  1
  Pd  Pd19  1  0.254348  0.500000  0.500000  1
  Pd  Pd20  1  0.745652  0.500000  0.500000  1
  Pd  Pd21  1  0.500000  0.254755  0.500000  1
  Pd  Pd22  1  0.500000  0.745245  0.500000  1
  Pd  Pd23  1  0.500000  0.500000  0.257113  1
  Pd  Pd24  1  0.500000  0.500000  0.742887  1
  Pd  Pd25  1  0.309737  0.000000  0.000000  1
  Pd  Pd26  1  0.690263  0.000000  0.000000  1
  Pd  Pd27  1  0.000000  0.306803  0.000000  1
  Pd  Pd28  1  0.000000  0.693197  0.000000  1
  Pd  Pd29  1  0.000000  0.000000  0.309000  1
  Pd  Pd30  1  0.000000  0.000000  0.691000  1
  Au  Au31  1  0.267223  0.500000  0.000000  1
  Au  Au32  1  0.732777  0.500000  0.000000  1
