# generated using pymatgen
data_Y8Mg5Sc7Sn16
_symmetry_space_group_name_H-M   'P 1'
_cell_length_a   7.56326504
_cell_length_b   8.05273578
_cell_length_c   14.85843066
_cell_angle_alpha   89.93340084
_cell_angle_beta   89.91468469
_cell_angle_gamma   89.83750585
_symmetry_Int_Tables_number   1
_chemical_formula_structural   Y8Mg5Sc7Sn16
_chemical_formula_sum   'Y8 Mg5 Sc7 Sn16'
_cell_volume   904.94709879
_cell_formula_units_Z   1
loop_
 _symmetry_equiv_pos_site_id
 _symmetry_equiv_pos_as_xyz
  1  'x, y, z'
loop_
 _atom_site_type_symbol
 _atom_site_label
 _atom_site_symmetry_multiplicity
 _atom_site_fract_x
 _atom_site_fract_y
 _atom_site_fract_z
 _atom_site_occupancy
  Y  Y0  1  0.503201  0.317694  0.906609  1
  Y  Y1  1  0.004809  0.179496  0.592417  1
  Y  Y2  1  0.498892  0.679349  0.407233  1
  Y  Y3  1  0.997712  0.818746  0.092142  1
  Y  Y4  1  0.495771  0.680291  0.091582  1
  Y  Y5  1  0.998868  0.822221  0.406703  1
  Y  Y6  1  0.501705  0.319093  0.592588  1
  Y  Y7  1  0.003977  0.181316  0.905422  1
  Mg  Mg8  1  0.330797  0.840564  0.878899  1
  Mg  Mg9  1  0.161390  0.502298  0.748485  1
  Mg  Mg10  1  0.665333  0.998262  0.750396  1
  Mg  Mg11  1  0.836245  0.497279  0.250616  1
  Mg  Mg12  1  0.337242  0.001750  0.251465  1
  Sc  Sc13  1  0.835208  0.668852  0.626332  1
  Sc  Sc14  1  0.664372  0.168577  0.373109  1
  Sc  Sc15  1  0.163093  0.335185  0.126816  1
  Sc  Sc16  1  0.661479  0.165927  0.127151  1
  Sc  Sc17  1  0.161956  0.331181  0.372527  1
  Sc  Sc18  1  0.340338  0.828845  0.625705  1
  Sc  Sc19  1  0.836298  0.667528  0.873240  1
  Sn  Sn20  1  0.322348  0.042316  0.042476  1
  Sn  Sn21  1  0.820052  0.457441  0.461456  1
  Sn  Sn22  1  0.682237  0.958623  0.539220  1
  Sn  Sn23  1  0.176893  0.539564  0.958803  1
  Sn  Sn24  1  0.683699  0.959771  0.962177  1
  Sn  Sn25  1  0.180425  0.541895  0.537451  1
  Sn  Sn26  1  0.319716  0.042801  0.461318  1
  Sn  Sn27  1  0.817858  0.456144  0.039090  1
  Sn  Sn28  1  0.527777  0.613975  0.753041  1
  Sn  Sn29  1  0.033371  0.881963  0.748806  1
  Sn  Sn30  1  0.469600  0.385077  0.249680  1
  Sn  Sn31  1  0.970235  0.115410  0.249125  1
  Sn  Sn32  1  0.303259  0.143181  0.749346  1
  Sn  Sn33  1  0.801541  0.357738  0.748978  1
  Sn  Sn34  1  0.696557  0.857218  0.249662  1
  Sn  Sn35  1  0.195750  0.642428  0.249935  1
