# generated using pymatgen
data_SmU7F30
_symmetry_space_group_name_H-M   'P 1'
_cell_length_a   8.73537639
_cell_length_b   8.75397119
_cell_length_c   8.73537604
_cell_angle_alpha   100.39416096
_cell_angle_beta   99.98690878
_cell_angle_gamma   100.39416734
_symmetry_Int_Tables_number   1
_chemical_formula_structural   SmU7F30
_chemical_formula_sum   'Sm1 U7 F30'
_cell_volume   631.42743335
_cell_formula_units_Z   1
loop_
 _symmetry_equiv_pos_site_id
 _symmetry_equiv_pos_as_xyz
  1  'x, y, z'
loop_
 _atom_site_type_symbol
 _atom_site_label
 _atom_site_symmetry_multiplicity
 _atom_site_fract_x
 _atom_site_fract_y
 _atom_site_fract_z
 _atom_site_occupancy
  Sm  Sm0  1  0.823867  0.250000  0.676133  1
  U  U1  1  0.250841  0.250000  0.249159  1
  U  U2  1  0.178085  0.750000  0.321915  1
  U  U3  1  0.247636  0.675905  0.822152  1
  U  U4  1  0.677848  0.824095  0.252364  1
  U  U5  1  0.749699  0.750000  0.750301  1
  U  U6  1  0.323012  0.177987  0.749172  1
  U  U7  1  0.750828  0.322013  0.176988  1
  F  F8  1  0.964769  0.536025  0.250863  1
  F  F9  1  0.812702  0.343598  0.440981  1
  F  F10  1  0.489590  0.721917  0.722002  1
  F  F11  1  0.348225  0.446668  0.816297  1
  F  F12  1  0.009668  0.778835  0.778149  1
  F  F13  1  0.749854  0.033580  0.460778  1
  F  F14  1  0.947644  0.844133  0.313730  1
  F  F15  1  0.219429  0.224276  0.991830  1
  F  F16  1  0.776068  0.003155  0.772704  1
  F  F17  1  0.314201  0.945168  0.842031  1
  F  F18  1  0.278866  0.278112  0.507424  1
  F  F19  1  0.447478  0.815643  0.349038  1
  F  F20  1  0.529874  0.250000  0.970126  1
  F  F21  1  0.277722  0.510002  0.273047  1
  F  F22  1  0.150962  0.684357  0.052522  1
  F  F23  1  0.838341  0.311708  0.949564  1
  F  F24  1  0.727296  0.496845  0.723932  1
  F  F25  1  0.462192  0.750000  0.037808  1
  F  F26  1  0.550436  0.188292  0.661659  1
  F  F27  1  0.721851  0.721165  0.490332  1
  F  F28  1  0.683703  0.053332  0.151775  1
  F  F29  1  0.226953  0.989998  0.222278  1
  F  F30  1  0.777998  0.778083  0.010410  1
  F  F31  1  0.059019  0.156402  0.687298  1
  F  F32  1  0.249137  0.963975  0.535231  1
  F  F33  1  0.992576  0.221888  0.221134  1
  F  F34  1  0.657969  0.554832  0.185799  1
  F  F35  1  0.508170  0.275724  0.280571  1
  F  F36  1  0.186270  0.655867  0.552356  1
  F  F37  1  0.039222  0.466420  0.750146  1
