# generated using pymatgen
data_Ca12Si8Ir3Pd5
_symmetry_space_group_name_H-M   'P 1'
_cell_length_a   5.74339199
_cell_length_b   7.85822999
_cell_length_c   13.38314211
_cell_angle_alpha   89.87826393
_cell_angle_beta   90.25632811
_cell_angle_gamma   89.73067000
_symmetry_Int_Tables_number   1
_chemical_formula_structural   Ca12Si8Ir3Pd5
_chemical_formula_sum   'Ca12 Si8 Ir3 Pd5'
_cell_volume   604.00584159
_cell_formula_units_Z   1
loop_
 _symmetry_equiv_pos_site_id
 _symmetry_equiv_pos_as_xyz
  1  'x, y, z'
loop_
 _atom_site_type_symbol
 _atom_site_label
 _atom_site_symmetry_multiplicity
 _atom_site_fract_x
 _atom_site_fract_y
 _atom_site_fract_z
 _atom_site_occupancy
  Ca  Ca0  1  0.135290  0.608684  0.104292  1
  Ca  Ca1  1  0.136797  0.893019  0.895570  1
  Ca  Ca2  1  0.863351  0.108742  0.395031  1
  Ca  Ca3  1  0.866537  0.386570  0.605622  1
  Ca  Ca4  1  0.869873  0.386007  0.899282  1
  Ca  Ca5  1  0.870472  0.113583  0.101221  1
  Ca  Ca6  1  0.129222  0.889516  0.602019  1
  Ca  Ca7  1  0.128468  0.613018  0.396981  1
  Ca  Ca8  1  0.357554  0.261178  0.248911  1
  Ca  Ca9  1  0.353403  0.238233  0.753093  1
  Ca  Ca10  1  0.644329  0.761038  0.248700  1
  Ca  Ca11  1  0.643170  0.742022  0.750709  1
  Si  Si12  1  0.410822  0.250451  0.000279  1
  Si  Si13  1  0.606247  0.755167  0.496198  1
  Si  Si14  1  0.620180  0.749798  0.000222  1
  Si  Si15  1  0.377142  0.241653  0.494867  1
  Si  Si16  1  0.835353  0.411399  0.246225  1
  Si  Si17  1  0.834195  0.091551  0.754956  1
  Si  Si18  1  0.163320  0.910929  0.254265  1
  Si  Si19  1  0.157252  0.593077  0.748212  1
  Ir  Ir20  1  0.627726  0.475587  0.087709  1
  Ir  Ir21  1  0.629626  0.024440  0.913286  1
  Ir  Ir22  1  0.373610  0.968346  0.410631  1
  Pd  Pd23  1  0.373384  0.524553  0.588508  1
  Pd  Pd24  1  0.370375  0.532642  0.907515  1
  Pd  Pd25  1  0.369044  0.967468  0.092474  1
  Pd  Pd26  1  0.625339  0.033299  0.592553  1
  Pd  Pd27  1  0.627915  0.468031  0.410671  1
