# generated using pymatgen
data_YbHo3Mg4(B6Os)4
_symmetry_space_group_name_H-M   'P 1'
_cell_length_a   3.56087900
_cell_length_b   8.89768984
_cell_length_c   11.25827097
_cell_angle_alpha   90.03600626
_cell_angle_beta   90.00000000
_cell_angle_gamma   90.00000000
_symmetry_Int_Tables_number   1
_chemical_formula_structural   YbHo3Mg4(B6Os)4
_chemical_formula_sum   'Yb1 Ho3 Mg4 B24 Os4'
_cell_volume   356.70244866
_cell_formula_units_Z   1
loop_
 _symmetry_equiv_pos_site_id
 _symmetry_equiv_pos_as_xyz
  1  'x, y, z'
loop_
 _atom_site_type_symbol
 _atom_site_label
 _atom_site_symmetry_multiplicity
 _atom_site_fract_x
 _atom_site_fract_y
 _atom_site_fract_z
 _atom_site_occupancy
  Yb  Yb0  1  0.000000  0.177662  0.913631  1
  Ho  Ho1  1  0.000000  0.323065  0.413764  1
  Ho  Ho2  1  0.000000  0.676795  0.586935  1
  Ho  Ho3  1  0.000000  0.824230  0.085145  1
  Mg  Mg4  1  0.000000  0.944319  0.372311  1
  Mg  Mg5  1  0.000000  0.056815  0.629921  1
  Mg  Mg6  1  0.000000  0.442944  0.126450  1
  Mg  Mg7  1  0.000000  0.555446  0.872479  1
  B  B8  1  0.500000  0.555405  0.432422  1
  B  B9  1  0.500000  0.444770  0.566974  1
  B  B10  1  0.500000  0.055090  0.067395  1
  B  B11  1  0.500000  0.945479  0.932110  1
  B  B12  1  0.500000  0.755538  0.418060  1
  B  B13  1  0.500000  0.244569  0.582318  1
  B  B14  1  0.500000  0.254919  0.081911  1
  B  B15  1  0.500000  0.744828  0.917700  1
  B  B16  1  0.500000  0.793845  0.263198  1
  B  B17  1  0.500000  0.206212  0.736910  1
  B  B18  1  0.500000  0.293440  0.237186  1
  B  B19  1  0.500000  0.705698  0.763060  1
  B  B20  1  0.500000  0.628042  0.182032  1
  B  B21  1  0.500000  0.371411  0.817630  1
  B  B22  1  0.500000  0.127854  0.318304  1
  B  B23  1  0.500000  0.871842  0.682625  1
  B  B24  1  0.500000  0.980486  0.213046  1
  B  B25  1  0.500000  0.020272  0.787482  1
  B  B26  1  0.500000  0.480315  0.286583  1
  B  B27  1  0.500000  0.519699  0.712792  1
  B  B28  1  0.500000  0.592320  0.025039  1
  B  B29  1  0.500000  0.407203  0.974647  1
  B  B30  1  0.500000  0.092569  0.474990  1
  B  B31  1  0.500000  0.907121  0.525691  1
  Os  Os32  1  0.000000  0.639763  0.318315  1
  Os  Os33  1  0.000000  0.361442  0.680905  1
  Os  Os34  1  0.000000  0.139991  0.182072  1
  Os  Os35  1  0.000000  0.858604  0.817965  1
