# generated using pymatgen
data_NaSm6IrBr12
_symmetry_space_group_name_H-M   'P 1'
_cell_length_a   9.45826144
_cell_length_b   9.44437820
_cell_length_c   9.44593781
_cell_angle_alpha   107.03475097
_cell_angle_beta   107.16141724
_cell_angle_gamma   107.18859235
_symmetry_Int_Tables_number   1
_chemical_formula_structural   NaSm6IrBr12
_chemical_formula_sum   'Na1 Sm6 Ir1 Br12'
_cell_volume   700.23477072
_cell_formula_units_Z   1
loop_
 _symmetry_equiv_pos_site_id
 _symmetry_equiv_pos_as_xyz
  1  'x, y, z'
loop_
 _atom_site_type_symbol
 _atom_site_label
 _atom_site_symmetry_multiplicity
 _atom_site_fract_x
 _atom_site_fract_y
 _atom_site_fract_z
 _atom_site_occupancy
  Na  Na0  1  0.500000  0.500000  0.500000  1
  Sm  Sm1  1  0.110044  0.319327  0.030338  1
  Sm  Sm2  1  0.321096  0.029968  0.111383  1
  Sm  Sm3  1  0.029725  0.110208  0.318589  1
  Sm  Sm4  1  0.970276  0.889792  0.681412  1
  Sm  Sm5  1  0.678904  0.970033  0.888617  1
  Sm  Sm6  1  0.889956  0.680673  0.969662  1
  Ir  Ir7  1  0.000000  0.000000  0.000000  1
  Br  Br8  1  0.216674  0.681941  0.072526  1
  Br  Br9  1  0.451388  0.370747  0.152339  1
  Br  Br10  1  0.682188  0.072760  0.216309  1
  Br  Br11  1  0.927344  0.782977  0.317222  1
  Br  Br12  1  0.152654  0.452270  0.371076  1
  Br  Br13  1  0.370307  0.152368  0.451785  1
  Br  Br14  1  0.629693  0.847632  0.548216  1
  Br  Br15  1  0.847347  0.547730  0.628924  1
  Br  Br16  1  0.072657  0.217023  0.682779  1
  Br  Br17  1  0.317813  0.927241  0.783691  1
  Br  Br18  1  0.548612  0.629253  0.847662  1
  Br  Br19  1  0.783326  0.318059  0.927474  1
