# generated using pymatgen
data_Li6Yb2NpN6
_symmetry_space_group_name_H-M   'P 1'
_cell_length_a   5.97290700
_cell_length_b   5.97290931
_cell_length_c   5.41116000
_cell_angle_alpha   90.00000000
_cell_angle_beta   90.00000000
_cell_angle_gamma   120.00000381
_symmetry_Int_Tables_number   1
_chemical_formula_structural   Li6Yb2NpN6
_chemical_formula_sum   'Li6 Yb2 Np1 N6'
_cell_volume   167.18321171
_cell_formula_units_Z   1
loop_
 _symmetry_equiv_pos_site_id
 _symmetry_equiv_pos_as_xyz
  1  'x, y, z'
loop_
 _atom_site_type_symbol
 _atom_site_label
 _atom_site_symmetry_multiplicity
 _atom_site_fract_x
 _atom_site_fract_y
 _atom_site_fract_z
 _atom_site_occupancy
  Li  Li0  1  0.987373  0.656403  0.611736  1
  Li  Li1  1  0.343597  0.330970  0.611736  1
  Li  Li2  1  0.669030  0.012627  0.611736  1
  Li  Li3  1  0.005132  0.335591  0.385351  1
  Li  Li4  1  0.664409  0.669541  0.385351  1
  Li  Li5  1  0.330459  0.994868  0.385351  1
  Yb  Yb6  1  0.000000  0.000000  0.998081  1
  Yb  Yb7  1  0.333333  0.666667  0.996746  1
  Np  Np8  1  0.666667  0.333333  0.003341  1
  N  N9  1  0.963078  0.630243  0.227631  1
  N  N10  1  0.369757  0.332835  0.227631  1
  N  N11  1  0.667165  0.036922  0.227631  1
  N  N12  1  0.961148  0.333655  0.775892  1
  N  N13  1  0.666345  0.627493  0.775892  1
  N  N14  1  0.372507  0.038852  0.775892  1
