# generated using pymatgen
data_Er4Tm16(Ir3Rh)3
_symmetry_space_group_name_H-M   'P 1'
_cell_length_a   10.74234500
_cell_length_b   10.74091800
_cell_length_c   6.32611800
_cell_angle_alpha   90.00000000
_cell_angle_beta   90.00000000
_cell_angle_gamma   90.00214426
_symmetry_Int_Tables_number   1
_chemical_formula_structural   Er4Tm16(Ir3Rh)3
_chemical_formula_sum   'Er4 Tm16 Ir9 Rh3'
_cell_volume   729.92423838
_cell_formula_units_Z   1
loop_
 _symmetry_equiv_pos_site_id
 _symmetry_equiv_pos_as_xyz
  1  'x, y, z'
loop_
 _atom_site_type_symbol
 _atom_site_label
 _atom_site_symmetry_multiplicity
 _atom_site_fract_x
 _atom_site_fract_y
 _atom_site_fract_z
 _atom_site_occupancy
  Er  Er0  1  0.290335  0.088232  0.377911  1
  Er  Er1  1  0.290288  0.911441  0.877681  1
  Er  Er2  1  0.709712  0.088559  0.877681  1
  Er  Er3  1  0.709665  0.911768  0.377911  1
  Tm  Tm4  1  0.588335  0.790337  0.877889  1
  Tm  Tm5  1  0.588024  0.209591  0.378142  1
  Tm  Tm6  1  0.411976  0.790409  0.378142  1
  Tm  Tm7  1  0.411665  0.209663  0.877889  1
  Tm  Tm8  1  0.208574  0.412046  0.620469  1
  Tm  Tm9  1  0.208898  0.588180  0.122818  1
  Tm  Tm10  1  0.791102  0.411820  0.122818  1
  Tm  Tm11  1  0.791426  0.587954  0.620469  1
  Tm  Tm12  1  0.911938  0.708739  0.122703  1
  Tm  Tm13  1  0.912178  0.291597  0.620333  1
  Tm  Tm14  1  0.087822  0.708403  0.620333  1
  Tm  Tm15  1  0.088062  0.291261  0.122703  1
  Tm  Tm16  1  0.000000  0.000000  0.500786  1
  Tm  Tm17  1  0.000000  0.000000  0.000581  1
  Tm  Tm18  1  0.500000  0.500000  0.000385  1
  Tm  Tm19  1  0.500000  0.500000  0.500601  1
  Ir  Ir20  1  0.846185  0.153639  0.250571  1
  Ir  Ir21  1  0.846420  0.845890  0.750707  1
  Ir  Ir22  1  0.153580  0.154110  0.750707  1
  Ir  Ir23  1  0.153815  0.846361  0.250571  1
  Ir  Ir24  1  0.653297  0.346476  0.749635  1
  Ir  Ir25  1  0.652807  0.653818  0.249459  1
  Ir  Ir26  1  0.347193  0.346182  0.249459  1
  Ir  Ir27  1  0.346703  0.653524  0.749635  1
  Ir  Ir28  1  0.000000  0.500000  0.375162  1
  Rh  Rh29  1  0.500000  0.000000  0.124816  1
  Rh  Rh30  1  0.500000  0.000000  0.625019  1
  Rh  Rh31  1  0.000000  0.500000  0.876012  1
