# generated using pymatgen
data_Ho10In2SnSb3
_symmetry_space_group_name_H-M   'P 1'
_cell_length_a   8.94099800
_cell_length_b   8.93532838
_cell_length_c   6.49469700
_cell_angle_alpha   90.00000000
_cell_angle_beta   90.00000000
_cell_angle_gamma   120.02099187
_symmetry_Int_Tables_number   1
_chemical_formula_structural   Ho10In2SnSb3
_chemical_formula_sum   'Ho10 In2 Sn1 Sb3'
_cell_volume   449.25626020
_cell_formula_units_Z   1
loop_
 _symmetry_equiv_pos_site_id
 _symmetry_equiv_pos_as_xyz
  1  'x, y, z'
loop_
 _atom_site_type_symbol
 _atom_site_label
 _atom_site_symmetry_multiplicity
 _atom_site_fract_x
 _atom_site_fract_y
 _atom_site_fract_z
 _atom_site_occupancy
  Ho  Ho0  1  0.331009  0.665375  0.000369  1
  Ho  Ho1  1  0.665635  0.334625  0.499631  1
  Ho  Ho2  1  0.665635  0.334625  0.000369  1
  Ho  Ho3  1  0.331009  0.665375  0.499631  1
  Ho  Ho4  1  0.760548  0.000000  0.750000  1
  Ho  Ho5  1  0.763278  0.759503  0.250000  1
  Ho  Ho6  1  0.003776  0.240497  0.250000  1
  Ho  Ho7  1  0.000848  0.762021  0.750000  1
  Ho  Ho8  1  0.238828  0.237979  0.750000  1
  Ho  Ho9  1  0.238318  0.000000  0.250000  1
  In  In10  1  0.395357  0.396488  0.250000  1
  In  In11  1  0.998867  0.603512  0.250000  1
  Sn  Sn12  1  0.395867  0.000000  0.750000  1
  Sb  Sb13  1  0.997918  0.392436  0.750000  1
  Sb  Sb14  1  0.605482  0.607564  0.750000  1
  Sb  Sb15  1  0.607622  0.000000  0.250000  1
