# generated using pymatgen
data_TbHo15In2(AgRh2)2
_symmetry_space_group_name_H-M   'P 1'
_cell_length_a   9.55623565
_cell_length_b   9.55623541
_cell_length_c   9.56915100
_cell_angle_alpha   59.95528495
_cell_angle_beta   59.95528580
_cell_angle_gamma   59.91645599
_symmetry_Int_Tables_number   1
_chemical_formula_structural   TbHo15In2(AgRh2)2
_chemical_formula_sum   'Tb1 Ho15 In2 Ag2 Rh4'
_cell_volume   617.11152959
_cell_formula_units_Z   1
loop_
 _symmetry_equiv_pos_site_id
 _symmetry_equiv_pos_as_xyz
  1  'x, y, z'
loop_
 _atom_site_type_symbol
 _atom_site_label
 _atom_site_symmetry_multiplicity
 _atom_site_fract_x
 _atom_site_fract_y
 _atom_site_fract_z
 _atom_site_occupancy
  Tb  Tb0  1  0.185807  0.185807  0.814193  1
  Ho  Ho1  1  0.600331  0.600331  0.198406  1
  Ho  Ho2  1  0.439072  0.060607  0.439593  1
  Ho  Ho3  1  0.440955  0.440955  0.059045  1
  Ho  Ho4  1  0.812418  0.182454  0.814683  1
  Ho  Ho5  1  0.182454  0.812418  0.190445  1
  Ho  Ho6  1  0.439072  0.060607  0.060728  1
  Ho  Ho7  1  0.182454  0.812418  0.814683  1
  Ho  Ho8  1  0.060607  0.439072  0.060728  1
  Ho  Ho9  1  0.811824  0.811824  0.188176  1
  Ho  Ho10  1  0.197842  0.601270  0.600444  1
  Ho  Ho11  1  0.060607  0.439072  0.439593  1
  Ho  Ho12  1  0.061871  0.061871  0.438129  1
  Ho  Ho13  1  0.812418  0.182454  0.190445  1
  Ho  Ho14  1  0.601270  0.197842  0.600444  1
  Ho  Ho15  1  0.600331  0.600331  0.600933  1
  In  In16  1  0.508415  0.832835  0.829375  1
  In  In17  1  0.832835  0.508415  0.829375  1
  Ag  Ag18  1  0.833853  0.833853  0.831798  1
  Ag  Ag19  1  0.833853  0.833853  0.500497  1
  Rh  Rh20  1  0.393204  0.822202  0.392297  1
  Rh  Rh21  1  0.393153  0.393153  0.391614  1
  Rh  Rh22  1  0.822202  0.393204  0.392297  1
  Rh  Rh23  1  0.393153  0.393153  0.822080  1
