# generated using pymatgen
data_Lu6Al24Fe7Pt
_symmetry_space_group_name_H-M   'P 1'
_cell_length_a   8.56652934
_cell_length_b   8.56652870
_cell_length_c   9.27422000
_cell_angle_alpha   89.61805334
_cell_angle_beta   90.38194663
_cell_angle_gamma   119.94613356
_symmetry_Int_Tables_number   1
_chemical_formula_structural   Lu6Al24Fe7Pt
_chemical_formula_sum   'Lu6 Al24 Fe7 Pt1'
_cell_volume   589.71260372
_cell_formula_units_Z   1
loop_
 _symmetry_equiv_pos_site_id
 _symmetry_equiv_pos_as_xyz
  1  'x, y, z'
loop_
 _atom_site_type_symbol
 _atom_site_label
 _atom_site_symmetry_multiplicity
 _atom_site_fract_x
 _atom_site_fract_y
 _atom_site_fract_z
 _atom_site_occupancy
  Lu  Lu0  1  0.192320  0.388842  0.251968  1
  Lu  Lu1  1  0.807680  0.611158  0.748032  1
  Lu  Lu2  1  0.611158  0.807680  0.251968  1
  Lu  Lu3  1  0.388842  0.192320  0.748032  1
  Lu  Lu4  1  0.194923  0.805077  0.252731  1
  Lu  Lu5  1  0.805077  0.194923  0.747269  1
  Al  Al6  1  0.327317  0.672683  0.016002  1
  Al  Al7  1  0.672683  0.327317  0.983998  1
  Al  Al8  1  0.666485  0.333515  0.515472  1
  Al  Al9  1  0.333515  0.666485  0.484528  1
  Al  Al10  1  0.160752  0.321902  0.575154  1
  Al  Al11  1  0.839248  0.678098  0.424846  1
  Al  Al12  1  0.678098  0.839248  0.575154  1
  Al  Al13  1  0.847873  0.680498  0.076644  1
  Al  Al14  1  0.321902  0.160752  0.424846  1
  Al  Al15  1  0.152127  0.319502  0.923356  1
  Al  Al16  1  0.161750  0.838250  0.575379  1
  Al  Al17  1  0.319502  0.152127  0.076644  1
  Al  Al18  1  0.838250  0.161750  0.424621  1
  Al  Al19  1  0.680498  0.847873  0.923356  1
  Al  Al20  1  0.839564  0.160436  0.076979  1
  Al  Al21  1  0.160436  0.839564  0.923021  1
  Al  Al22  1  0.558437  0.117557  0.249340  1
  Al  Al23  1  0.441563  0.882443  0.750660  1
  Al  Al24  1  0.882443  0.441563  0.249340  1
  Al  Al25  1  0.117557  0.558437  0.750660  1
  Al  Al26  1  0.561022  0.438978  0.258170  1
  Al  Al27  1  0.438978  0.561022  0.741830  1
  Al  Al28  1  0.999678  0.000322  0.250206  1
  Al  Al29  1  0.000322  0.999678  0.749794  1
  Fe  Fe30  1  0.500000  0.000000  0.000000  1
  Fe  Fe31  1  0.000000  0.500000  0.000000  1
  Fe  Fe32  1  0.500000  0.000000  0.500000  1
  Fe  Fe33  1  0.000000  0.500000  0.500000  1
  Fe  Fe34  1  0.500000  0.500000  0.500000  1
  Fe  Fe35  1  0.000000  0.000000  0.000000  1
  Fe  Fe36  1  0.000000  0.000000  0.500000  1
  Pt  Pt37  1  0.500000  0.500000  0.000000  1
