# generated using pymatgen
data_Cd2Ni2OF6
_symmetry_space_group_name_H-M   'P 1'
_cell_length_a   7.32415500
_cell_length_b   7.32415470
_cell_length_c   7.32415500
_cell_angle_alpha   59.99999415
_cell_angle_beta   59.99999547
_cell_angle_gamma   59.99999827
_symmetry_Int_Tables_number   1
_chemical_formula_structural   Cd2Ni2OF6
_chemical_formula_sum   'Cd4 Ni4 O2 F12'
_cell_volume   277.81617313
_cell_formula_units_Z   2
loop_
 _symmetry_equiv_pos_site_id
 _symmetry_equiv_pos_as_xyz
  1  'x, y, z'
loop_
 _atom_site_type_symbol
 _atom_site_label
 _atom_site_symmetry_multiplicity
 _atom_site_fract_x
 _atom_site_fract_y
 _atom_site_fract_z
 _atom_site_occupancy
  Cd  Cd0  1  0.625000  0.625000  0.125000  1
  Cd  Cd1  1  0.625000  0.125000  0.625000  1
  Cd  Cd2  1  0.125000  0.625000  0.625000  1
  Cd  Cd3  1  0.625000  0.625000  0.625000  1
  Ni  Ni4  1  0.125000  0.125000  0.625000  1
  Ni  Ni5  1  0.125000  0.625000  0.125000  1
  Ni  Ni6  1  0.625000  0.125000  0.125000  1
  Ni  Ni7  1  0.125000  0.125000  0.125000  1
  O  O8  1  0.750000  0.750000  0.750000  1
  O  O9  1  0.500000  0.500000  0.500000  1
  F  F10  1  0.046876  0.453124  0.046876  1
  F  F11  1  0.796876  0.203124  0.796876  1
  F  F12  1  0.046876  0.046876  0.453124  1
  F  F13  1  0.453124  0.046876  0.046876  1
  F  F14  1  0.046876  0.453124  0.453124  1
  F  F15  1  0.453124  0.453124  0.046876  1
  F  F16  1  0.453124  0.046876  0.453124  1
  F  F17  1  0.203124  0.796876  0.796876  1
  F  F18  1  0.796876  0.203124  0.203124  1
  F  F19  1  0.203124  0.796876  0.203124  1
  F  F20  1  0.796876  0.796876  0.203124  1
  F  F21  1  0.203124  0.203124  0.796876  1
