# generated using pymatgen
data_Sc12Co2OsBr16
_symmetry_space_group_name_H-M   'P 1'
_cell_length_a   8.87113142
_cell_length_b   10.98024369
_cell_length_c   11.61098754
_cell_angle_alpha   117.07049680
_cell_angle_beta   101.69384850
_cell_angle_gamma   101.35471183
_symmetry_Int_Tables_number   1
_chemical_formula_structural   Sc12Co2OsBr16
_chemical_formula_sum   'Sc12 Co2 Os1 Br16'
_cell_volume   930.39848413
_cell_formula_units_Z   1
loop_
 _symmetry_equiv_pos_site_id
 _symmetry_equiv_pos_as_xyz
  1  'x, y, z'
loop_
 _atom_site_type_symbol
 _atom_site_label
 _atom_site_symmetry_multiplicity
 _atom_site_fract_x
 _atom_site_fract_y
 _atom_site_fract_z
 _atom_site_occupancy
  Sc  Sc0  1  0.083751  0.257536  0.351148  1
  Sc  Sc1  1  0.916249  0.742464  0.648852  1
  Sc  Sc2  1  0.777491  0.537352  0.321140  1
  Sc  Sc3  1  0.222509  0.462648  0.678860  1
  Sc  Sc4  1  0.282043  0.742785  0.648729  1
  Sc  Sc5  1  0.717957  0.257215  0.351271  1
  Sc  Sc6  1  0.143144  0.537116  0.321257  1
  Sc  Sc7  1  0.856856  0.462884  0.678743  1
  Sc  Sc8  1  0.403488  0.355004  0.268829  1
  Sc  Sc9  1  0.596512  0.644996  0.731171  1
  Sc  Sc10  1  0.457169  0.302985  0.521026  1
  Sc  Sc11  1  0.542831  0.697015  0.478974  1
  Co  Co12  1  0.342430  0.500168  0.499526  1
  Co  Co13  1  0.657571  0.499832  0.500474  1
  Os  Os14  1  0.000000  0.500000  0.500000  1
  Br  Br15  1  0.398534  0.744158  0.888416  1
  Br  Br16  1  0.601466  0.255842  0.111584  1
  Br  Br17  1  0.191603  0.972966  0.786928  1
  Br  Br18  1  0.808397  0.027034  0.213072  1
  Br  Br19  1  0.334636  0.088343  0.246492  1
  Br  Br20  1  0.665364  0.911657  0.753508  1
  Br  Br21  1  0.557692  0.437943  0.803830  1
  Br  Br22  1  0.442308  0.562057  0.196170  1
  Br  Br23  1  0.311918  0.831234  0.462585  1
  Br  Br24  1  0.688082  0.168766  0.537415  1
  Br  Br25  1  0.167865  0.167509  0.533824  1
  Br  Br26  1  0.832135  0.832491  0.466176  1
  Br  Br27  1  0.926163  0.578587  0.157086  1
  Br  Br28  1  0.073837  0.421413  0.842914  1
  Br  Br29  1  0.924851  0.742852  0.888676  1
  Br  Br30  1  0.075149  0.257148  0.111324  1
