# generated using pymatgen
data_ErSb5(ClO4)2
_symmetry_space_group_name_H-M   'P 1'
_cell_length_a   5.64895300
_cell_length_b   5.63516999
_cell_length_c   8.97789006
_cell_angle_alpha   87.34217953
_cell_angle_beta   90.00000000
_cell_angle_gamma   90.00000000
_symmetry_Int_Tables_number   1
_chemical_formula_structural   ErSb5(ClO4)2
_chemical_formula_sum   'Er1 Sb5 Cl2 O8'
_cell_volume   285.48404151
_cell_formula_units_Z   1
loop_
 _symmetry_equiv_pos_site_id
 _symmetry_equiv_pos_as_xyz
  1  'x, y, z'
loop_
 _atom_site_type_symbol
 _atom_site_label
 _atom_site_symmetry_multiplicity
 _atom_site_fract_x
 _atom_site_fract_y
 _atom_site_fract_z
 _atom_site_occupancy
  Er  Er0  1  0.774658  0.750000  0.500000  1
  Sb  Sb1  1  0.692223  0.298579  0.789163  1
  Sb  Sb2  1  0.166855  0.250000  0.500000  1
  Sb  Sb3  1  0.692223  0.201421  0.210837  1
  Sb  Sb4  1  0.307740  0.695387  0.212343  1
  Sb  Sb5  1  0.307740  0.804613  0.787657  1
  Cl  Cl6  1  0.758162  0.750000  0.000000  1
  Cl  Cl7  1  0.253940  0.250000  0.000000  1
  O  O8  1  0.070690  0.913494  0.633335  1
  O  O9  1  0.070690  0.586506  0.366665  1
  O  O10  1  0.914761  0.089895  0.374813  1
  O  O11  1  0.914761  0.410105  0.625187  1
  O  O12  1  0.486655  0.551501  0.673911  1
  O  O13  1  0.551124  0.476146  0.320498  1
  O  O14  1  0.486655  0.948499  0.326089  1
  O  O15  1  0.551124  0.023854  0.679502  1
