# generated using pymatgen
data_NdHo2MoO7
_symmetry_space_group_name_H-M   'P 1'
_cell_length_a   6.46896028
_cell_length_b   6.46896069
_cell_length_c   7.58727600
_cell_angle_alpha   90.00000000
_cell_angle_beta   90.00000000
_cell_angle_gamma   109.17181730
_symmetry_Int_Tables_number   1
_chemical_formula_structural   NdHo2MoO7
_chemical_formula_sum   'Nd2 Ho4 Mo2 O14'
_cell_volume   299.89852029
_cell_formula_units_Z   2
loop_
 _symmetry_equiv_pos_site_id
 _symmetry_equiv_pos_as_xyz
  1  'x, y, z'
loop_
 _atom_site_type_symbol
 _atom_site_label
 _atom_site_symmetry_multiplicity
 _atom_site_fract_x
 _atom_site_fract_y
 _atom_site_fract_z
 _atom_site_occupancy
  Nd  Nd0  1  0.500000  0.500000  0.500000  1
  Nd  Nd1  1  0.500000  0.500000  0.000000  1
  Ho  Ho2  1  0.534641  0.001278  0.750000  1
  Ho  Ho3  1  0.001278  0.534641  0.250000  1
  Ho  Ho4  1  0.465359  0.998722  0.250000  1
  Ho  Ho5  1  0.998722  0.465359  0.750000  1
  Mo  Mo6  1  0.000000  0.000000  0.500000  1
  Mo  Mo7  1  0.000000  0.000000  0.000000  1
  O  O8  1  0.678664  0.928776  0.470189  1
  O  O9  1  0.928776  0.678664  0.529811  1
  O  O10  1  0.678664  0.928776  0.029811  1
  O  O11  1  0.928776  0.678664  0.970189  1
  O  O12  1  0.321336  0.071224  0.529811  1
  O  O13  1  0.071224  0.321336  0.470189  1
  O  O14  1  0.321336  0.071224  0.970189  1
  O  O15  1  0.071224  0.321336  0.029811  1
  O  O16  1  0.928728  0.071272  0.750000  1
  O  O17  1  0.071272  0.928728  0.250000  1
  O  O18  1  0.362237  0.637763  0.750000  1
  O  O19  1  0.637763  0.362237  0.250000  1
  O  O20  1  0.642051  0.357949  0.750000  1
  O  O21  1  0.357949  0.642051  0.250000  1
