# generated using pymatgen
data_CaTm(P2Rh3)2
_symmetry_space_group_name_H-M   'P 1'
_cell_length_a   3.93974500
_cell_length_b   11.27663800
_cell_length_c   12.87704300
_cell_angle_alpha   90.00047761
_cell_angle_beta   90.00000000
_cell_angle_gamma   90.00000000
_symmetry_Int_Tables_number   1
_chemical_formula_structural   CaTm(P2Rh3)2
_chemical_formula_sum   'Ca3 Tm3 P12 Rh18'
_cell_volume   572.08939605
_cell_formula_units_Z   3
loop_
 _symmetry_equiv_pos_site_id
 _symmetry_equiv_pos_as_xyz
  1  'x, y, z'
loop_
 _atom_site_type_symbol
 _atom_site_label
 _atom_site_symmetry_multiplicity
 _atom_site_fract_x
 _atom_site_fract_y
 _atom_site_fract_z
 _atom_site_occupancy
  Ca  Ca0  1  0.000000  0.499787  0.519821  1
  Ca  Ca1  1  0.500000  0.001161  0.480477  1
  Ca  Ca2  1  0.500000  0.816465  0.205135  1
  Tm  Tm3  1  0.500000  0.182087  0.204730  1
  Tm  Tm4  1  0.000000  0.681063  0.794805  1
  Tm  Tm5  1  0.000000  0.314710  0.794487  1
  P  P6  1  0.500000  0.499071  0.877285  1
  P  P7  1  0.000000  0.999287  0.121130  1
  P  P8  1  0.500000  0.502105  0.342995  1
  P  P9  1  0.000000  0.999994  0.656793  1
  P  P10  1  0.500000  0.314427  0.619213  1
  P  P11  1  0.500000  0.689232  0.621981  1
  P  P12  1  0.000000  0.188380  0.378858  1
  P  P13  1  0.000000  0.813588  0.381924  1
  P  P14  1  0.500000  0.842614  0.895324  1
  P  P15  1  0.500000  0.151240  0.892037  1
  P  P16  1  0.000000  0.650072  0.106776  1
  P  P17  1  0.000000  0.347044  0.106506  1
  Rh  Rh18  1  0.500000  0.497203  0.163414  1
  Rh  Rh19  1  0.000000  0.011790  0.836376  1
  Rh  Rh20  1  0.500000  0.500962  0.701334  1
  Rh  Rh21  1  0.000000  0.002961  0.298631  1
  Rh  Rh22  1  0.000000  0.497937  0.977302  1
  Rh  Rh23  1  0.500000  0.999955  0.018517  1
  Rh  Rh24  1  0.500000  0.331799  0.987806  1
  Rh  Rh25  1  0.500000  0.663893  0.991216  1
  Rh  Rh26  1  0.000000  0.167038  0.013625  1
  Rh  Rh27  1  0.000000  0.831989  0.004648  1
  Rh  Rh28  1  0.500000  0.290831  0.428076  1
  Rh  Rh29  1  0.500000  0.709834  0.431840  1
  Rh  Rh30  1  0.000000  0.210829  0.570450  1
  Rh  Rh31  1  0.000000  0.792794  0.572773  1
  Rh  Rh32  1  0.500000  0.873458  0.716852  1
  Rh  Rh33  1  0.500000  0.127999  0.710289  1
  Rh  Rh34  1  0.000000  0.624516  0.290865  1
  Rh  Rh35  1  0.000000  0.371886  0.285709  1
