# generated using pymatgen
data_Ba10Si5Hg
_symmetry_space_group_name_H-M   'P 1'
_cell_length_a   8.45907800
_cell_length_b   8.45907800
_cell_length_c   17.50831900
_cell_angle_alpha   90.00000000
_cell_angle_beta   90.00000000
_cell_angle_gamma   90.00000000
_symmetry_Int_Tables_number   1
_chemical_formula_structural   Ba10Si5Hg
_chemical_formula_sum   'Ba20 Si10 Hg2'
_cell_volume   1252.82528505
_cell_formula_units_Z   2
loop_
 _symmetry_equiv_pos_site_id
 _symmetry_equiv_pos_as_xyz
  1  'x, y, z'
loop_
 _atom_site_type_symbol
 _atom_site_label
 _atom_site_symmetry_multiplicity
 _atom_site_fract_x
 _atom_site_fract_y
 _atom_site_fract_z
 _atom_site_occupancy
  Ba  Ba0  1  0.318869  0.668096  0.114925  1
  Ba  Ba1  1  0.168096  0.181131  0.114925  1
  Ba  Ba2  1  0.500000  0.000000  0.729639  1
  Ba  Ba3  1  0.323585  0.689861  0.396749  1
  Ba  Ba4  1  0.668096  0.681131  0.885075  1
  Ba  Ba5  1  0.189861  0.176415  0.396749  1
  Ba  Ba6  1  0.676415  0.310139  0.396749  1
  Ba  Ba7  1  0.176415  0.810139  0.603251  1
  Ba  Ba8  1  0.331904  0.318869  0.885075  1
  Ba  Ba9  1  0.181131  0.831904  0.885075  1
  Ba  Ba10  1  0.500000  0.000000  0.246048  1
  Ba  Ba11  1  0.823585  0.189861  0.603251  1
  Ba  Ba12  1  0.310139  0.323585  0.603251  1
  Ba  Ba13  1  0.810139  0.823585  0.396749  1
  Ba  Ba14  1  0.818869  0.168096  0.885075  1
  Ba  Ba15  1  0.831904  0.818869  0.114925  1
  Ba  Ba16  1  0.000000  0.500000  0.270361  1
  Ba  Ba17  1  0.000000  0.500000  0.753952  1
  Ba  Ba18  1  0.681131  0.331904  0.114925  1
  Ba  Ba19  1  0.689861  0.676415  0.603251  1
  Si  Si20  1  0.100401  0.101008  0.743297  1
  Si  Si21  1  0.398992  0.600401  0.743297  1
  Si  Si22  1  0.600401  0.601008  0.256703  1
  Si  Si23  1  0.101008  0.899599  0.256703  1
  Si  Si24  1  0.601008  0.399599  0.743297  1
  Si  Si25  1  0.899599  0.898992  0.743297  1
  Si  Si26  1  0.399599  0.398992  0.256703  1
  Si  Si27  1  0.898992  0.100401  0.256703  1
  Si  Si28  1  0.500000  0.000000  0.511497  1
  Si  Si29  1  0.000000  0.500000  0.488503  1
  Hg  Hg30  1  0.000000  0.500000  0.992548  1
  Hg  Hg31  1  0.500000  0.000000  0.007452  1
