# generated using pymatgen
data_Li4MnNi3As4
_symmetry_space_group_name_H-M   'P 1'
_cell_length_a   6.49740402
_cell_length_b   3.86362600
_cell_length_c   6.76993940
_cell_angle_alpha   90.00000000
_cell_angle_beta   89.88737303
_cell_angle_gamma   90.00000000
_symmetry_Int_Tables_number   1
_chemical_formula_structural   Li4MnNi3As4
_chemical_formula_sum   'Li4 Mn1 Ni3 As4'
_cell_volume   169.94911000
_cell_formula_units_Z   1
loop_
 _symmetry_equiv_pos_site_id
 _symmetry_equiv_pos_as_xyz
  1  'x, y, z'
loop_
 _atom_site_type_symbol
 _atom_site_label
 _atom_site_symmetry_multiplicity
 _atom_site_fract_x
 _atom_site_fract_y
 _atom_site_fract_z
 _atom_site_occupancy
  Li  Li0  1  0.984694  0.750000  0.174021  1
  Li  Li1  1  0.488834  0.750000  0.332133  1
  Li  Li2  1  0.516113  0.249999  0.667369  1
  Li  Li3  1  0.010544  0.249999  0.824437  1
  Mn  Mn4  1  0.367350  0.750000  0.946206  1
  Ni  Ni5  1  0.635762  0.249999  0.051624  1
  Ni  Ni6  1  0.137317  0.249999  0.449670  1
  Ni  Ni7  1  0.865012  0.750000  0.550459  1
  As  As8  1  0.276073  0.249999  0.122098  1
  As  As9  1  0.781344  0.249999  0.371553  1
  As  As10  1  0.221561  0.750000  0.637358  1
  As  As11  1  0.715398  0.750000  0.873076  1
