# generated using pymatgen
data_Dy6Tm14Cd6TcRu
_symmetry_space_group_name_H-M   'P 1'
_cell_length_a   9.48429500
_cell_length_b   9.48429440
_cell_length_c   9.82300300
_cell_angle_alpha   90.00000000
_cell_angle_beta   90.00000000
_cell_angle_gamma   119.99999861
_symmetry_Int_Tables_number   1
_chemical_formula_structural   Dy6Tm14Cd6TcRu
_chemical_formula_sum   'Dy6 Tm14 Cd6 Tc1 Ru1'
_cell_volume   765.21767803
_cell_formula_units_Z   1
loop_
 _symmetry_equiv_pos_site_id
 _symmetry_equiv_pos_as_xyz
  1  'x, y, z'
loop_
 _atom_site_type_symbol
 _atom_site_label
 _atom_site_symmetry_multiplicity
 _atom_site_fract_x
 _atom_site_fract_y
 _atom_site_fract_z
 _atom_site_occupancy
  Dy  Dy0  1  0.539221  0.460779  0.250000  1
  Dy  Dy1  1  0.539221  0.078443  0.250000  1
  Dy  Dy2  1  0.921557  0.460779  0.250000  1
  Dy  Dy3  1  0.459615  0.540385  0.750000  1
  Dy  Dy4  1  0.459615  0.919232  0.750000  1
  Dy  Dy5  1  0.080768  0.540385  0.750000  1
  Tm  Tm6  1  0.000000  0.000000  0.500313  1
  Tm  Tm7  1  0.000000  0.000000  0.999687  1
  Tm  Tm8  1  0.210140  0.789860  0.441730  1
  Tm  Tm9  1  0.210140  0.420280  0.441730  1
  Tm  Tm10  1  0.579720  0.789860  0.441730  1
  Tm  Tm11  1  0.789642  0.210358  0.558909  1
  Tm  Tm12  1  0.789642  0.579280  0.558909  1
  Tm  Tm13  1  0.420720  0.210358  0.558909  1
  Tm  Tm14  1  0.789642  0.210358  0.941091  1
  Tm  Tm15  1  0.789642  0.579280  0.941091  1
  Tm  Tm16  1  0.420720  0.210358  0.941091  1
  Tm  Tm17  1  0.210140  0.789860  0.058270  1
  Tm  Tm18  1  0.210140  0.420280  0.058270  1
  Tm  Tm19  1  0.579720  0.789860  0.058270  1
  Cd  Cd20  1  0.886003  0.113997  0.250000  1
  Cd  Cd21  1  0.886003  0.772008  0.250000  1
  Cd  Cd22  1  0.227992  0.113997  0.250000  1
  Cd  Cd23  1  0.113754  0.886246  0.750000  1
  Cd  Cd24  1  0.113754  0.227507  0.750000  1
  Cd  Cd25  1  0.772493  0.886246  0.750000  1
  Tc  Tc26  1  0.333333  0.666667  0.250000  1
  Ru  Ru27  1  0.666667  0.333333  0.750000  1
