# generated using pymatgen
data_La3GaSn4
_symmetry_space_group_name_H-M   'P 1'
_cell_length_a   6.68238331
_cell_length_b   6.68238450
_cell_length_c   10.42480900
_cell_angle_alpha   90.00000000
_cell_angle_beta   90.00000000
_cell_angle_gamma   101.97266826
_symmetry_Int_Tables_number   1
_chemical_formula_structural   La3GaSn4
_chemical_formula_sum   'La6 Ga2 Sn8'
_cell_volume   455.38563736
_cell_formula_units_Z   2
loop_
 _symmetry_equiv_pos_site_id
 _symmetry_equiv_pos_as_xyz
  1  'x, y, z'
loop_
 _atom_site_type_symbol
 _atom_site_label
 _atom_site_symmetry_multiplicity
 _atom_site_fract_x
 _atom_site_fract_y
 _atom_site_fract_z
 _atom_site_occupancy
  La  La0  1  0.200092  0.792381  0.499976  1
  La  La1  1  0.799908  0.207619  0.999976  1
  La  La2  1  0.792381  0.200092  0.499976  1
  La  La3  1  0.207619  0.799908  0.999976  1
  La  La4  1  0.371032  0.371032  0.755781  1
  La  La5  1  0.628968  0.628968  0.255781  1
  Ga  Ga6  1  0.305167  0.305167  0.048623  1
  Ga  Ga7  1  0.694832  0.694832  0.548623  1
  Sn  Sn8  1  0.976683  0.976683  0.748090  1
  Sn  Sn9  1  0.023318  0.023318  0.248090  1
  Sn  Sn10  1  0.079350  0.490252  0.246063  1
  Sn  Sn11  1  0.920649  0.509746  0.746063  1
  Sn  Sn12  1  0.509746  0.920649  0.746063  1
  Sn  Sn13  1  0.490252  0.079350  0.246063  1
  Sn  Sn14  1  0.688739  0.688739  0.955426  1
  Sn  Sn15  1  0.311260  0.311260  0.455426  1
