# generated using pymatgen
data_Yb3ScPt2(RhO7)2
_symmetry_space_group_name_H-M   'P 1'
_cell_length_a   7.14280456
_cell_length_b   7.20187962
_cell_length_c   7.21669800
_cell_angle_alpha   59.93190353
_cell_angle_beta   59.65718148
_cell_angle_gamma   59.56655010
_symmetry_Int_Tables_number   1
_chemical_formula_structural   Yb3ScPt2(RhO7)2
_chemical_formula_sum   'Yb3 Sc1 Pt2 Rh2 O14'
_cell_volume   260.82147646
_cell_formula_units_Z   1
loop_
 _symmetry_equiv_pos_site_id
 _symmetry_equiv_pos_as_xyz
  1  'x, y, z'
loop_
 _atom_site_type_symbol
 _atom_site_label
 _atom_site_symmetry_multiplicity
 _atom_site_fract_x
 _atom_site_fract_y
 _atom_site_fract_z
 _atom_site_occupancy
  Yb  Yb0  1  0.625000  0.625000  0.125000  1
  Yb  Yb1  1  0.625000  0.625000  0.625000  1
  Yb  Yb2  1  0.625000  0.125000  0.625000  1
  Sc  Sc3  1  0.125000  0.625000  0.625000  1
  Pt  Pt4  1  0.625000  0.125000  0.125000  1
  Pt  Pt5  1  0.125000  0.625000  0.125000  1
  Rh  Rh6  1  0.125000  0.125000  0.125000  1
  Rh  Rh7  1  0.125000  0.125000  0.625000  1
  O  O8  1  0.058482  0.456334  0.457496  1
  O  O9  1  0.787011  0.786671  0.213158  1
  O  O10  1  0.792198  0.207022  0.210958  1
  O  O11  1  0.058482  0.456334  0.027689  1
  O  O12  1  0.457802  0.042978  0.460180  1
  O  O13  1  0.778679  0.740653  0.740333  1
  O  O14  1  0.060264  0.033937  0.452900  1
  O  O15  1  0.792198  0.207022  0.789820  1
  O  O16  1  0.471321  0.509347  0.509667  1
  O  O17  1  0.189736  0.216063  0.797100  1
  O  O18  1  0.191518  0.793666  0.222311  1
  O  O19  1  0.457802  0.042978  0.039042  1
  O  O20  1  0.462989  0.463329  0.036842  1
  O  O21  1  0.191518  0.793666  0.792504  1
