# generated using pymatgen
data_Ca6Al24Fe3Rh5
_symmetry_space_group_name_H-M   'P 1'
_cell_length_a   8.86614602
_cell_length_b   8.86471342
_cell_length_c   9.62218900
_cell_angle_alpha   90.00000000
_cell_angle_beta   89.86944185
_cell_angle_gamma   119.99463992
_symmetry_Int_Tables_number   1
_chemical_formula_structural   Ca6Al24Fe3Rh5
_chemical_formula_sum   'Ca6 Al24 Fe3 Rh5'
_cell_volume   654.97699448
_cell_formula_units_Z   1
loop_
 _symmetry_equiv_pos_site_id
 _symmetry_equiv_pos_as_xyz
  1  'x, y, z'
loop_
 _atom_site_type_symbol
 _atom_site_label
 _atom_site_symmetry_multiplicity
 _atom_site_fract_x
 _atom_site_fract_y
 _atom_site_fract_z
 _atom_site_occupancy
  Ca  Ca0  1  0.193599  0.388207  0.250458  1
  Ca  Ca1  1  0.806401  0.611793  0.749542  1
  Ca  Ca2  1  0.612991  0.806496  0.250830  1
  Ca  Ca3  1  0.387009  0.193504  0.749170  1
  Ca  Ca4  1  0.193599  0.805391  0.250458  1
  Ca  Ca5  1  0.806401  0.194609  0.749542  1
  Al  Al6  1  0.332792  0.666397  0.997324  1
  Al  Al7  1  0.667208  0.333603  0.002676  1
  Al  Al8  1  0.674103  0.337051  0.500626  1
  Al  Al9  1  0.325897  0.662949  0.499374  1
  Al  Al10  1  0.154335  0.317477  0.575729  1
  Al  Al11  1  0.845665  0.682523  0.424271  1
  Al  Al12  1  0.683517  0.841757  0.575297  1
  Al  Al13  1  0.842709  0.684373  0.076683  1
  Al  Al14  1  0.316483  0.158243  0.424703  1
  Al  Al15  1  0.157291  0.315627  0.923317  1
  Al  Al16  1  0.154335  0.836857  0.575729  1
  Al  Al17  1  0.314932  0.157467  0.076958  1
  Al  Al18  1  0.845665  0.163143  0.424271  1
  Al  Al19  1  0.685068  0.842533  0.923042  1
  Al  Al20  1  0.842709  0.158335  0.076683  1
  Al  Al21  1  0.157291  0.841665  0.923317  1
  Al  Al22  1  0.562600  0.124721  0.250226  1
  Al  Al23  1  0.437400  0.875279  0.749774  1
  Al  Al24  1  0.879226  0.439613  0.254874  1
  Al  Al25  1  0.120774  0.560387  0.745126  1
  Al  Al26  1  0.562600  0.437881  0.250226  1
  Al  Al27  1  0.437400  0.562119  0.749774  1
  Al  Al28  1  0.000281  0.000141  0.250092  1
  Al  Al29  1  0.999719  0.999859  0.749908  1
  Fe  Fe30  1  0.000000  0.500000  0.500000  1
  Fe  Fe31  1  0.000000  0.000000  0.000000  1
  Fe  Fe32  1  0.000000  0.000000  0.500000  1
  Rh  Rh33  1  0.500000  0.000000  0.000000  1
  Rh  Rh34  1  0.000000  0.500000  0.000000  1
  Rh  Rh35  1  0.500000  0.000000  0.500000  1
  Rh  Rh36  1  0.500000  0.500000  0.000000  1
  Rh  Rh37  1  0.500000  0.500000  0.500000  1
