# generated using pymatgen
data_Dy7Ti3Si8N3
_symmetry_space_group_name_H-M   'P 1'
_cell_length_a   9.94027900
_cell_length_b   9.94028000
_cell_length_c   4.12889800
_cell_angle_alpha   90.00000000
_cell_angle_beta   90.00000000
_cell_angle_gamma   120.00000000
_symmetry_Int_Tables_number   1
_chemical_formula_structural   Dy7Ti3Si8N3
_chemical_formula_sum   'Dy7 Ti3 Si8 N3'
_cell_volume   353.31492038
_cell_formula_units_Z   1
loop_
 _symmetry_equiv_pos_site_id
 _symmetry_equiv_pos_as_xyz
  1  'x, y, z'
loop_
 _atom_site_type_symbol
 _atom_site_label
 _atom_site_symmetry_multiplicity
 _atom_site_fract_x
 _atom_site_fract_y
 _atom_site_fract_z
 _atom_site_occupancy
  Dy  Dy0  1  0.216050  0.783950  0.000000  1
  Dy  Dy1  1  0.216050  0.432100  0.000000  1
  Dy  Dy2  1  0.783950  0.567900  0.000000  1
  Dy  Dy3  1  0.432100  0.216050  0.000000  1
  Dy  Dy4  1  0.000000  0.000000  0.000000  1
  Dy  Dy5  1  0.567900  0.783950  0.000000  1
  Dy  Dy6  1  0.783950  0.216050  0.000000  1
  Ti  Ti7  1  0.500000  0.000000  0.500000  1
  Ti  Ti8  1  0.000000  0.500000  0.500000  1
  Ti  Ti9  1  0.500000  0.500000  0.500000  1
  Si  Si10  1  0.666667  0.333333  0.500000  1
  Si  Si11  1  0.000000  0.766173  0.500000  1
  Si  Si12  1  0.333333  0.666667  0.500000  1
  Si  Si13  1  0.233827  0.233827  0.500000  1
  Si  Si14  1  0.766173  0.766173  0.500000  1
  Si  Si15  1  0.766173  0.000000  0.500000  1
  Si  Si16  1  0.233827  0.000000  0.500000  1
  Si  Si17  1  0.000000  0.233827  0.500000  1
  N  N18  1  0.500000  0.500000  0.000000  1
  N  N19  1  0.500000  0.000000  0.000000  1
  N  N20  1  0.000000  0.500000  0.000000  1
