# generated using pymatgen
data_Ta12MnAl8Pd3C4
_symmetry_space_group_name_H-M   'P 1'
_cell_length_a   8.34843664
_cell_length_b   8.28970582
_cell_length_c   8.28970500
_cell_angle_alpha   60.00000728
_cell_angle_beta   60.23244981
_cell_angle_gamma   60.23244998
_symmetry_Int_Tables_number   1
_chemical_formula_structural   Ta12MnAl8Pd3C4
_chemical_formula_sum   'Ta12 Mn1 Al8 Pd3 C4'
_cell_volume   407.08524261
_cell_formula_units_Z   1
loop_
 _symmetry_equiv_pos_site_id
 _symmetry_equiv_pos_as_xyz
  1  'x, y, z'
loop_
 _atom_site_type_symbol
 _atom_site_label
 _atom_site_symmetry_multiplicity
 _atom_site_fract_x
 _atom_site_fract_y
 _atom_site_fract_z
 _atom_site_occupancy
  Ta  Ta0  1  0.569448  0.937554  0.555443  1
  Ta  Ta1  1  0.320291  0.681325  0.681325  1
  Ta  Ta2  1  0.680552  0.312446  0.312446  1
  Ta  Ta3  1  0.320291  0.681325  0.317058  1
  Ta  Ta4  1  0.680552  0.694557  0.312446  1
  Ta  Ta5  1  0.320291  0.317058  0.681325  1
  Ta  Ta6  1  0.569448  0.555443  0.937554  1
  Ta  Ta7  1  0.929709  0.568675  0.568675  1
  Ta  Ta8  1  0.569448  0.937554  0.937554  1
  Ta  Ta9  1  0.929709  0.932942  0.568675  1
  Ta  Ta10  1  0.680552  0.312446  0.694557  1
  Ta  Ta11  1  0.929709  0.568675  0.932942  1
  Mn  Mn12  1  0.625000  0.125000  0.125000  1
  Al  Al13  1  0.912088  0.919985  0.919985  1
  Al  Al14  1  0.992866  0.335711  0.335711  1
  Al  Al15  1  0.337912  0.002057  0.330015  1
  Al  Al16  1  0.337912  0.330015  0.002057  1
  Al  Al17  1  0.912088  0.247943  0.919985  1
  Al  Al18  1  0.912088  0.919985  0.247943  1
  Al  Al19  1  0.257134  0.914289  0.914289  1
  Al  Al20  1  0.337912  0.330015  0.330015  1
  Pd  Pd21  1  0.125000  0.125000  0.125000  1
  Pd  Pd22  1  0.125000  0.625000  0.125000  1
  Pd  Pd23  1  0.125000  0.125000  0.625000  1
  C  C24  1  0.625000  0.625000  0.625000  1
  C  C25  1  0.125000  0.625000  0.625000  1
  C  C26  1  0.625000  0.125000  0.625000  1
  C  C27  1  0.625000  0.625000  0.125000  1
