# generated using pymatgen
data_Tb9Er(CoTe)4
_symmetry_space_group_name_H-M   'P 1'
_cell_length_a   7.80745216
_cell_length_b   7.80745195
_cell_length_c   15.08554600
_cell_angle_alpha   90.00000000
_cell_angle_beta   90.00000000
_cell_angle_gamma   150.33749492
_symmetry_Int_Tables_number   1
_chemical_formula_structural   Tb9Er(CoTe)4
_chemical_formula_sum   'Tb9 Er1 Co4 Te4'
_cell_volume   455.08075510
_cell_formula_units_Z   1
loop_
 _symmetry_equiv_pos_site_id
 _symmetry_equiv_pos_as_xyz
  1  'x, y, z'
loop_
 _atom_site_type_symbol
 _atom_site_label
 _atom_site_symmetry_multiplicity
 _atom_site_fract_x
 _atom_site_fract_y
 _atom_site_fract_z
 _atom_site_occupancy
  Tb  Tb0  1  0.606273  0.393727  0.250000  1
  Tb  Tb1  1  0.741644  0.258356  0.630993  1
  Tb  Tb2  1  0.961469  0.038531  0.125937  1
  Tb  Tb3  1  0.037997  0.962003  0.873364  1
  Tb  Tb4  1  0.961469  0.038531  0.374063  1
  Tb  Tb5  1  0.037997  0.962003  0.626636  1
  Tb  Tb6  1  0.258821  0.741179  0.130593  1
  Tb  Tb7  1  0.258821  0.741179  0.369407  1
  Tb  Tb8  1  0.741644  0.258356  0.869007  1
  Er  Er9  1  0.394017  0.605983  0.750000  1
  Co  Co10  1  0.411967  0.588033  0.250000  1
  Co  Co11  1  0.587532  0.412468  0.750000  1
  Co  Co12  1  0.820479  0.179521  0.250000  1
  Co  Co13  1  0.179975  0.820025  0.750000  1
  Te  Te14  1  0.617865  0.382135  0.038118  1
  Te  Te15  1  0.617865  0.382135  0.461882  1
  Te  Te16  1  0.382082  0.617918  0.539046  1
  Te  Te17  1  0.382082  0.617918  0.960954  1
