# generated using pymatgen
data_Ca20Ga11Sb
_symmetry_space_group_name_H-M   'P 1'
_cell_length_a   8.02160100
_cell_length_b   8.02160100
_cell_length_c   14.69950400
_cell_angle_alpha   90.00000000
_cell_angle_beta   90.00000000
_cell_angle_gamma   90.00000000
_symmetry_Int_Tables_number   1
_chemical_formula_structural   Ca20Ga11Sb
_chemical_formula_sum   'Ca20 Ga11 Sb1'
_cell_volume   945.85549861
_cell_formula_units_Z   1
loop_
 _symmetry_equiv_pos_site_id
 _symmetry_equiv_pos_as_xyz
  1  'x, y, z'
loop_
 _atom_site_type_symbol
 _atom_site_label
 _atom_site_symmetry_multiplicity
 _atom_site_fract_x
 _atom_site_fract_y
 _atom_site_fract_z
 _atom_site_occupancy
  Ca  Ca0  1  0.672410  0.179980  0.107847  1
  Ca  Ca1  1  0.177706  0.675672  0.606796  1
  Ca  Ca2  1  0.327590  0.820020  0.107847  1
  Ca  Ca3  1  0.822294  0.324328  0.606796  1
  Ca  Ca4  1  0.820020  0.672410  0.107847  1
  Ca  Ca5  1  0.324328  0.177706  0.606796  1
  Ca  Ca6  1  0.179980  0.327590  0.107847  1
  Ca  Ca7  1  0.675672  0.822294  0.606796  1
  Ca  Ca8  1  0.820020  0.327590  0.892153  1
  Ca  Ca9  1  0.324328  0.822294  0.393204  1
  Ca  Ca10  1  0.179980  0.672410  0.892153  1
  Ca  Ca11  1  0.675672  0.177706  0.393204  1
  Ca  Ca12  1  0.672410  0.820020  0.892153  1
  Ca  Ca13  1  0.177706  0.324328  0.393204  1
  Ca  Ca14  1  0.327590  0.179980  0.892153  1
  Ca  Ca15  1  0.822294  0.675672  0.393204  1
  Ca  Ca16  1  0.500000  0.500000  0.748435  1
  Ca  Ca17  1  0.000000  0.000000  0.251972  1
  Ca  Ca18  1  0.000000  0.000000  0.748028  1
  Ca  Ca19  1  0.500000  0.500000  0.251565  1
  Ga  Ga20  1  0.500000  0.500000  0.500000  1
  Ga  Ga21  1  0.500000  0.500000  0.000000  1
  Ga  Ga22  1  0.000000  0.000000  0.500000  1
  Ga  Ga23  1  0.612330  0.111196  0.750913  1
  Ga  Ga24  1  0.111196  0.612330  0.249087  1
  Ga  Ga25  1  0.888804  0.387670  0.249087  1
  Ga  Ga26  1  0.387670  0.888804  0.750913  1
  Ga  Ga27  1  0.888804  0.612330  0.750913  1
  Ga  Ga28  1  0.387670  0.111196  0.249087  1
  Ga  Ga29  1  0.111196  0.387670  0.750913  1
  Ga  Ga30  1  0.612330  0.888804  0.249087  1
  Sb  Sb31  1  0.000000  0.000000  0.000000  1
