# generated using pymatgen
data_La5IrPdO12
_symmetry_space_group_name_H-M   'P 1'
_cell_length_a   7.20856899
_cell_length_b   7.20856824
_cell_length_c   7.71678919
_cell_angle_alpha   74.48583139
_cell_angle_beta   74.48583514
_cell_angle_gamma   50.80293008
_symmetry_Int_Tables_number   1
_chemical_formula_structural   La5IrPdO12
_chemical_formula_sum   'La5 Ir1 Pd1 O12'
_cell_volume   296.82316757
_cell_formula_units_Z   1
loop_
 _symmetry_equiv_pos_site_id
 _symmetry_equiv_pos_as_xyz
  1  'x, y, z'
loop_
 _atom_site_type_symbol
 _atom_site_label
 _atom_site_symmetry_multiplicity
 _atom_site_fract_x
 _atom_site_fract_y
 _atom_site_fract_z
 _atom_site_occupancy
  La  La0  1  0.313255  0.297240  0.357161  1
  La  La1  1  0.702760  0.686745  0.642839  1
  La  La2  1  0.695944  0.691088  0.165108  1
  La  La3  1  0.308912  0.304056  0.834892  1
  La  La4  1  0.002771  0.997229  0.500000  1
  Ir  Ir5  1  0.241213  0.758787  0.000000  1
  Pd  Pd6  1  0.748869  0.251131  0.000000  1
  O  O7  1  0.098492  0.597859  0.574487  1
  O  O8  1  0.998592  0.000618  0.169783  1
  O  O9  1  0.402141  0.901508  0.425513  1
  O  O10  1  0.493983  0.506835  0.171743  1
  O  O11  1  0.102205  0.585975  0.078837  1
  O  O12  1  0.910040  0.399859  0.421625  1
  O  O13  1  0.999382  0.001408  0.830217  1
  O  O14  1  0.600141  0.089959  0.578375  1
  O  O15  1  0.493165  0.506017  0.828257  1
  O  O16  1  0.571405  0.097293  0.081152  1
  O  O17  1  0.414025  0.897795  0.921163  1
  O  O18  1  0.902707  0.428595  0.918848  1
