# generated using pymatgen
data_Yb11Pr8LuSn16
_symmetry_space_group_name_H-M   'P 1'
_cell_length_a   7.96630358
_cell_length_b   8.49400710
_cell_length_c   16.04070525
_cell_angle_alpha   90.09327489
_cell_angle_beta   90.15569121
_cell_angle_gamma   89.96928470
_symmetry_Int_Tables_number   1
_chemical_formula_structural   Yb11Pr8LuSn16
_chemical_formula_sum   'Yb11 Pr8 Lu1 Sn16'
_cell_volume   1085.40218336
_cell_formula_units_Z   1
loop_
 _symmetry_equiv_pos_site_id
 _symmetry_equiv_pos_as_xyz
  1  'x, y, z'
loop_
 _atom_site_type_symbol
 _atom_site_label
 _atom_site_symmetry_multiplicity
 _atom_site_fract_x
 _atom_site_fract_y
 _atom_site_fract_z
 _atom_site_occupancy
  Yb  Yb0  1  0.832052  0.671630  0.623629  1
  Yb  Yb1  1  0.667168  0.171765  0.376290  1
  Yb  Yb2  1  0.166654  0.328544  0.122816  1
  Yb  Yb3  1  0.667470  0.171530  0.122987  1
  Yb  Yb4  1  0.167298  0.328116  0.376380  1
  Yb  Yb5  1  0.333152  0.828581  0.623732  1
  Yb  Yb6  1  0.833064  0.672462  0.877389  1
  Yb  Yb7  1  0.160526  0.504395  0.749643  1
  Yb  Yb8  1  0.663258  0.995920  0.749440  1
  Yb  Yb9  1  0.838860  0.494312  0.250119  1
  Yb  Yb10  1  0.339055  0.004920  0.249654  1
  Pr  Pr11  1  0.494424  0.317229  0.904103  1
  Pr  Pr12  1  0.993490  0.184911  0.595679  1
  Pr  Pr13  1  0.506426  0.685142  0.403653  1
  Pr  Pr14  1  0.005521  0.814318  0.096494  1
  Pr  Pr15  1  0.506508  0.684420  0.096133  1
  Pr  Pr16  1  0.006222  0.814746  0.403911  1
  Pr  Pr17  1  0.493483  0.315956  0.596188  1
  Pr  Pr18  1  0.993891  0.185292  0.905272  1
  Lu  Lu19  1  0.333838  0.826762  0.875883  1
  Sn  Sn20  1  0.326629  0.033937  0.036054  1
  Sn  Sn21  1  0.829836  0.464424  0.460840  1
  Sn  Sn22  1  0.670106  0.964790  0.539056  1
  Sn  Sn23  1  0.175868  0.539726  0.959848  1
  Sn  Sn24  1  0.663795  0.962276  0.958918  1
  Sn  Sn25  1  0.170188  0.535547  0.539350  1
  Sn  Sn26  1  0.330203  0.035260  0.461016  1
  Sn  Sn27  1  0.828989  0.464300  0.038563  1
  Sn  Sn28  1  0.531674  0.607807  0.751244  1
  Sn  Sn29  1  0.037822  0.893017  0.753567  1
  Sn  Sn30  1  0.465970  0.396178  0.249810  1
  Sn  Sn31  1  0.966272  0.102911  0.250088  1
  Sn  Sn32  1  0.289466  0.139513  0.751969  1
  Sn  Sn33  1  0.787407  0.359634  0.750936  1
  Sn  Sn34  1  0.711868  0.858311  0.249644  1
  Sn  Sn35  1  0.211548  0.641416  0.249700  1
