# generated using pymatgen
data_Pr3Zr(PPt)4
_symmetry_space_group_name_H-M   'P 1'
_cell_length_a   4.15450700
_cell_length_b   4.15450709
_cell_length_c   16.06083800
_cell_angle_alpha   90.00000000
_cell_angle_beta   90.00000000
_cell_angle_gamma   119.99999129
_symmetry_Int_Tables_number   1
_chemical_formula_structural   Pr3Zr(PPt)4
_chemical_formula_sum   'Pr3 Zr1 P4 Pt4'
_cell_volume   240.06998834
_cell_formula_units_Z   1
loop_
 _symmetry_equiv_pos_site_id
 _symmetry_equiv_pos_as_xyz
  1  'x, y, z'
loop_
 _atom_site_type_symbol
 _atom_site_label
 _atom_site_symmetry_multiplicity
 _atom_site_fract_x
 _atom_site_fract_y
 _atom_site_fract_z
 _atom_site_occupancy
  Pr  Pr0  1  0.000000  0.000000  0.486481  1
  Pr  Pr1  1  0.000000  0.000000  0.013519  1
  Pr  Pr2  1  0.000000  0.000000  0.750000  1
  Zr  Zr3  1  0.000000  0.000000  0.250000  1
  P  P4  1  0.333333  0.666667  0.878894  1
  P  P5  1  0.666667  0.333333  0.127564  1
  P  P6  1  0.666667  0.333333  0.372436  1
  P  P7  1  0.333333  0.666667  0.621106  1
  Pt  Pt8  1  0.333333  0.666667  0.343096  1
  Pt  Pt9  1  0.666667  0.333333  0.618116  1
  Pt  Pt10  1  0.666667  0.333333  0.881884  1
  Pt  Pt11  1  0.333333  0.666667  0.156904  1
