# generated using pymatgen
data_YHo15In2(HgRh2)2
_symmetry_space_group_name_H-M   'P 1'
_cell_length_a   9.58855724
_cell_length_b   9.58855646
_cell_length_c   9.58598400
_cell_angle_alpha   60.00888127
_cell_angle_beta   60.00888397
_cell_angle_gamma   60.07801899
_symmetry_Int_Tables_number   1
_chemical_formula_structural   YHo15In2(HgRh2)2
_chemical_formula_sum   'Y1 Ho15 In2 Hg2 Rh4'
_cell_volume   623.65151192
_cell_formula_units_Z   1
loop_
 _symmetry_equiv_pos_site_id
 _symmetry_equiv_pos_as_xyz
  1  'x, y, z'
loop_
 _atom_site_type_symbol
 _atom_site_label
 _atom_site_symmetry_multiplicity
 _atom_site_fract_x
 _atom_site_fract_y
 _atom_site_fract_z
 _atom_site_occupancy
  Y  Y0  1  0.186488  0.186488  0.813512  1
  Ho  Ho1  1  0.600413  0.600413  0.199289  1
  Ho  Ho2  1  0.438820  0.060053  0.440666  1
  Ho  Ho3  1  0.440571  0.440571  0.059429  1
  Ho  Ho4  1  0.812148  0.184712  0.813820  1
  Ho  Ho5  1  0.184712  0.812148  0.189319  1
  Ho  Ho6  1  0.438820  0.060053  0.060462  1
  Ho  Ho7  1  0.184712  0.812148  0.813820  1
  Ho  Ho8  1  0.060053  0.438820  0.060462  1
  Ho  Ho9  1  0.812939  0.812939  0.187061  1
  Ho  Ho10  1  0.196862  0.601988  0.600575  1
  Ho  Ho11  1  0.060053  0.438820  0.440666  1
  Ho  Ho12  1  0.060962  0.060962  0.439038  1
  Ho  Ho13  1  0.812148  0.184712  0.189319  1
  Ho  Ho14  1  0.601988  0.196862  0.600575  1
  Ho  Ho15  1  0.600413  0.600413  0.599885  1
  In  In16  1  0.503630  0.832344  0.832013  1
  In  In17  1  0.832344  0.503630  0.832013  1
  Hg  Hg18  1  0.835486  0.835486  0.835805  1
  Hg  Hg19  1  0.835486  0.835486  0.493224  1
  Rh  Rh20  1  0.392491  0.822730  0.392390  1
  Rh  Rh21  1  0.392865  0.392865  0.392721  1
  Rh  Rh22  1  0.822730  0.392491  0.392390  1
  Rh  Rh23  1  0.392865  0.392865  0.821551  1
