# generated using pymatgen
data_Ta3Tl3Si2O13
_symmetry_space_group_name_H-M   'P 1'
_cell_length_a   9.24658200
_cell_length_b   9.24658208
_cell_length_c   7.96645600
_cell_angle_alpha   90.00000000
_cell_angle_beta   90.00000000
_cell_angle_gamma   119.99999972
_symmetry_Int_Tables_number   1
_chemical_formula_structural   Ta3Tl3Si2O13
_chemical_formula_sum   'Ta6 Tl6 Si4 O26'
_cell_volume   589.87263508
_cell_formula_units_Z   2
loop_
 _symmetry_equiv_pos_site_id
 _symmetry_equiv_pos_as_xyz
  1  'x, y, z'
loop_
 _atom_site_type_symbol
 _atom_site_label
 _atom_site_symmetry_multiplicity
 _atom_site_fract_x
 _atom_site_fract_y
 _atom_site_fract_z
 _atom_site_occupancy
  Ta  Ta0  1  0.762331  0.000000  0.500000  1
  Ta  Ta1  1  0.762331  0.000000  0.000000  1
  Ta  Ta2  1  0.237669  0.237669  0.000000  1
  Ta  Ta3  1  0.237669  0.237669  0.500000  1
  Ta  Ta4  1  0.000000  0.762331  0.500000  1
  Ta  Ta5  1  0.000000  0.762331  0.000000  1
  Tl  Tl6  1  0.383240  0.969010  0.250000  1
  Tl  Tl7  1  0.616760  0.585770  0.750000  1
  Tl  Tl8  1  0.030990  0.414230  0.250000  1
  Tl  Tl9  1  0.585770  0.616760  0.250000  1
  Tl  Tl10  1  0.414230  0.030990  0.750000  1
  Tl  Tl11  1  0.969010  0.383240  0.750000  1
  Si  Si12  1  0.333333  0.666667  0.954282  1
  Si  Si13  1  0.666667  0.333333  0.045718  1
  Si  Si14  1  0.666667  0.333333  0.454282  1
  Si  Si15  1  0.333333  0.666667  0.545718  1
  O  O16  1  0.485417  0.302674  0.982531  1
  O  O17  1  0.990988  0.744968  0.250000  1
  O  O18  1  0.009012  0.753980  0.750000  1
  O  O19  1  0.744968  0.990988  0.750000  1
  O  O20  1  0.753980  0.009012  0.250000  1
  O  O21  1  0.514583  0.817257  0.482531  1
  O  O22  1  0.182743  0.697326  0.017469  1
  O  O23  1  0.246020  0.255032  0.750000  1
  O  O24  1  0.817257  0.514583  0.982531  1
  O  O25  1  0.697326  0.182743  0.517469  1
  O  O26  1  0.828240  0.828240  0.500000  1
  O  O27  1  0.828240  0.828240  0.000000  1
  O  O28  1  0.697326  0.182743  0.982531  1
  O  O29  1  0.255032  0.246020  0.250000  1
  O  O30  1  0.817257  0.514583  0.517469  1
  O  O31  1  0.302674  0.485417  0.017469  1
  O  O32  1  0.514583  0.817257  0.017469  1
  O  O33  1  0.302674  0.485417  0.482531  1
  O  O34  1  0.171760  0.000000  0.500000  1
  O  O35  1  0.182743  0.697326  0.482531  1
  O  O36  1  0.666667  0.333333  0.250000  1
  O  O37  1  0.000000  0.171760  0.500000  1
  O  O38  1  0.485417  0.302674  0.517469  1
  O  O39  1  0.000000  0.171760  0.000000  1
  O  O40  1  0.171760  0.000000  0.000000  1
  O  O41  1  0.333333  0.666667  0.750000  1
