# generated using pymatgen
data_Dy6Cr4CoNi13P12
_symmetry_space_group_name_H-M   'P 1'
_cell_length_a   3.76836700
_cell_length_b   10.57215223
_cell_length_c   12.43821128
_cell_angle_alpha   89.97579906
_cell_angle_beta   90.00000000
_cell_angle_gamma   90.00000000
_symmetry_Int_Tables_number   1
_chemical_formula_structural   Dy6Cr4CoNi13P12
_chemical_formula_sum   'Dy6 Cr4 Co1 Ni13 P12'
_cell_volume   495.53517861
_cell_formula_units_Z   1
loop_
 _symmetry_equiv_pos_site_id
 _symmetry_equiv_pos_as_xyz
  1  'x, y, z'
loop_
 _atom_site_type_symbol
 _atom_site_label
 _atom_site_symmetry_multiplicity
 _atom_site_fract_x
 _atom_site_fract_y
 _atom_site_fract_z
 _atom_site_occupancy
  Dy  Dy0  1  0.000000  0.500572  0.521724  1
  Dy  Dy1  1  0.500000  0.998953  0.478427  1
  Dy  Dy2  1  0.500000  0.818931  0.204818  1
  Dy  Dy3  1  0.500000  0.181035  0.212057  1
  Dy  Dy4  1  0.000000  0.683030  0.793241  1
  Dy  Dy5  1  0.000000  0.317182  0.788187  1
  Cr  Cr6  1  0.500000  0.499446  0.153147  1
  Cr  Cr7  1  0.000000  0.998615  0.848845  1
  Cr  Cr8  1  0.500000  0.328201  0.999460  1
  Cr  Cr9  1  0.000000  0.175465  0.001266  1
  Co  Co10  1  0.500000  0.000682  0.012410  1
  Ni  Ni11  1  0.500000  0.500591  0.700393  1
  Ni  Ni12  1  0.000000  0.998750  0.297373  1
  Ni  Ni13  1  0.000000  0.500871  0.985486  1
  Ni  Ni14  1  0.500000  0.667432  0.988036  1
  Ni  Ni15  1  0.000000  0.832195  0.011115  1
  Ni  Ni16  1  0.500000  0.301888  0.428594  1
  Ni  Ni17  1  0.500000  0.697838  0.427861  1
  Ni  Ni18  1  0.000000  0.195924  0.572047  1
  Ni  Ni19  1  0.000000  0.802149  0.571639  1
  Ni  Ni20  1  0.500000  0.880023  0.711406  1
  Ni  Ni21  1  0.500000  0.118502  0.708171  1
  Ni  Ni22  1  0.000000  0.620318  0.289994  1
  Ni  Ni23  1  0.000000  0.381256  0.293032  1
  P  P24  1  0.500000  0.496695  0.877703  1
  P  P25  1  0.000000  0.004697  0.118082  1
  P  P26  1  0.500000  0.500690  0.344480  1
  P  P27  1  0.000000  0.998348  0.656908  1
  P  P28  1  0.500000  0.313433  0.612695  1
  P  P29  1  0.500000  0.687064  0.614288  1
  P  P30  1  0.000000  0.185386  0.387350  1
  P  P31  1  0.000000  0.813621  0.385347  1
  P  P32  1  0.500000  0.849550  0.892589  1
  P  P33  1  0.500000  0.150581  0.886770  1
  P  P34  1  0.000000  0.651413  0.109434  1
  P  P35  1  0.000000  0.348674  0.115623  1
