# generated using pymatgen
data_Lu3ScGe2(B2Ru5)2
_symmetry_space_group_name_H-M   'P 1'
_cell_length_a   9.46299837
_cell_length_b   9.46299837
_cell_length_c   3.06326800
_cell_angle_alpha   90.00000000
_cell_angle_beta   90.00000000
_cell_angle_gamma   89.71449557
_symmetry_Int_Tables_number   1
_chemical_formula_structural   Lu3ScGe2(B2Ru5)2
_chemical_formula_sum   'Lu3 Sc1 Ge2 B4 Ru10'
_cell_volume   274.30715318
_cell_formula_units_Z   1
loop_
 _symmetry_equiv_pos_site_id
 _symmetry_equiv_pos_as_xyz
  1  'x, y, z'
loop_
 _atom_site_type_symbol
 _atom_site_label
 _atom_site_symmetry_multiplicity
 _atom_site_fract_x
 _atom_site_fract_y
 _atom_site_fract_z
 _atom_site_occupancy
  Lu  Lu0  1  0.675960  0.175488  0.000000  1
  Lu  Lu1  1  0.324512  0.824040  0.000000  1
  Lu  Lu2  1  0.174867  0.325133  0.000000  1
  Sc  Sc3  1  0.825018  0.674982  0.000000  1
  Ge  Ge4  1  0.000267  0.001790  0.000000  1
  Ge  Ge5  1  0.498210  0.499733  0.000000  1
  B  B6  1  0.120804  0.623423  0.000000  1
  B  B7  1  0.876577  0.379196  0.000000  1
  B  B8  1  0.625048  0.874952  0.000000  1
  B  B9  1  0.378252  0.121748  0.000000  1
  Ru  Ru10  1  0.214803  0.069042  0.500000  1
  Ru  Ru11  1  0.788225  0.925764  0.500000  1
  Ru  Ru12  1  0.065080  0.785954  0.500000  1
  Ru  Ru13  1  0.714046  0.434920  0.500000  1
  Ru  Ru14  1  0.930283  0.215417  0.500000  1
  Ru  Ru15  1  0.284583  0.569717  0.500000  1
  Ru  Ru16  1  0.574236  0.711775  0.500000  1
  Ru  Ru17  1  0.430958  0.285197  0.500000  1
  Ru  Ru18  1  0.501524  0.998476  0.500000  1
  Ru  Ru19  1  0.996748  0.503252  0.500000  1
