# generated using pymatgen
data_HoLu3Mn4F28
_symmetry_space_group_name_H-M   'P 1'
_cell_length_a   5.37140573
_cell_length_b   8.57461605
_cell_length_c   11.56355897
_cell_angle_alpha   62.71210338
_cell_angle_beta   90.05942767
_cell_angle_gamma   90.03184781
_symmetry_Int_Tables_number   1
_chemical_formula_structural   HoLu3Mn4F28
_chemical_formula_sum   'Ho1 Lu3 Mn4 F28'
_cell_volume   473.32124140
_cell_formula_units_Z   1
loop_
 _symmetry_equiv_pos_site_id
 _symmetry_equiv_pos_as_xyz
  1  'x, y, z'
loop_
 _atom_site_type_symbol
 _atom_site_label
 _atom_site_symmetry_multiplicity
 _atom_site_fract_x
 _atom_site_fract_y
 _atom_site_fract_z
 _atom_site_occupancy
  Ho  Ho0  1  0.738688  0.811625  0.264881  1
  Lu  Lu1  1  0.761808  0.812159  0.764473  1
  Lu  Lu2  1  0.261948  0.188006  0.735625  1
  Lu  Lu3  1  0.238185  0.190251  0.235242  1
  Mn  Mn4  1  0.759121  0.274249  0.955888  1
  Mn  Mn5  1  0.258578  0.726314  0.544762  1
  Mn  Mn6  1  0.241346  0.726356  0.042315  1
  Mn  Mn7  1  0.741106  0.272002  0.457058  1
  F  F8  1  0.433274  0.704540  0.919930  1
  F  F9  1  0.933003  0.295125  0.579305  1
  F  F10  1  0.567656  0.295608  0.078831  1
  F  F11  1  0.069112  0.703832  0.421655  1
  F  F12  1  0.450231  0.277689  0.541684  1
  F  F13  1  0.949291  0.722029  0.958115  1
  F  F14  1  0.548550  0.720661  0.460987  1
  F  F15  1  0.049807  0.278448  0.041088  1
  F  F16  1  0.775113  0.515802  0.860898  1
  F  F17  1  0.274719  0.484373  0.639271  1
  F  F18  1  0.224794  0.484694  0.138505  1
  F  F19  1  0.724533  0.512459  0.361935  1
  F  F20  1  0.755541  0.034980  0.046228  1
  F  F21  1  0.255765  0.965689  0.452967  1
  F  F22  1  0.244510  0.966078  0.952165  1
  F  F23  1  0.744445  0.032723  0.548042  1
  F  F24  1  0.975672  0.727003  0.634885  1
  F  F25  1  0.476398  0.273195  0.865203  1
  F  F26  1  0.023550  0.273079  0.365796  1
  F  F27  1  0.523137  0.725732  0.132937  1
  F  F28  1  0.055938  0.743660  0.170930  1
  F  F29  1  0.551634  0.254740  0.328459  1
  F  F30  1  0.948699  0.255296  0.828043  1
  F  F31  1  0.448489  0.744964  0.672378  1
  F  F32  1  0.406513  0.972860  0.229286  1
  F  F33  1  0.913597  0.033777  0.270236  1
  F  F34  1  0.587607  0.029305  0.769905  1
  F  F35  1  0.087643  0.970696  0.730093  1
