# generated using pymatgen
data_Yb8Si12NiPt3
_symmetry_space_group_name_H-M   'P 1'
_cell_length_a   8.10545900
_cell_length_b   8.10545703
_cell_length_c   8.17852700
_cell_angle_alpha   90.00000000
_cell_angle_beta   90.00000000
_cell_angle_gamma   119.99999578
_symmetry_Int_Tables_number   1
_chemical_formula_structural   Yb8Si12NiPt3
_chemical_formula_sum   'Yb8 Si12 Ni1 Pt3'
_cell_volume   465.32979720
_cell_formula_units_Z   1
loop_
 _symmetry_equiv_pos_site_id
 _symmetry_equiv_pos_as_xyz
  1  'x, y, z'
loop_
 _atom_site_type_symbol
 _atom_site_label
 _atom_site_symmetry_multiplicity
 _atom_site_fract_x
 _atom_site_fract_y
 _atom_site_fract_z
 _atom_site_occupancy
  Yb  Yb0  1  0.499071  0.998143  0.248794  1
  Yb  Yb1  1  0.499274  0.998546  0.751277  1
  Yb  Yb2  1  0.001857  0.500929  0.248794  1
  Yb  Yb3  1  0.001454  0.500726  0.751277  1
  Yb  Yb4  1  0.499071  0.500929  0.248794  1
  Yb  Yb5  1  0.499274  0.500726  0.751277  1
  Yb  Yb6  1  0.000000  0.000000  0.247903  1
  Yb  Yb7  1  0.000000  0.000000  0.752127  1
  Si  Si8  1  0.169907  0.339813  0.000251  1
  Si  Si9  1  0.835820  0.671640  0.999763  1
  Si  Si10  1  0.660187  0.830093  0.000251  1
  Si  Si11  1  0.835070  0.670142  0.499574  1
  Si  Si12  1  0.328360  0.164180  0.999763  1
  Si  Si13  1  0.164661  0.329323  0.500519  1
  Si  Si14  1  0.169907  0.830093  0.000251  1
  Si  Si15  1  0.329858  0.164930  0.499574  1
  Si  Si16  1  0.835820  0.164180  0.999763  1
  Si  Si17  1  0.670677  0.835339  0.500519  1
  Si  Si18  1  0.835070  0.164930  0.499574  1
  Si  Si19  1  0.164661  0.835339  0.500519  1
  Ni  Ni20  1  0.333333  0.666667  0.999128  1
  Pt  Pt21  1  0.666667  0.333333  0.999916  1
  Pt  Pt22  1  0.666667  0.333333  0.499837  1
  Pt  Pt23  1  0.333333  0.666667  0.500551  1
