# generated using pymatgen
data_Tm10Ga3Bi2Rh
_symmetry_space_group_name_H-M   'P 1'
_cell_length_a   8.55360230
_cell_length_b   8.55360145
_cell_length_c   8.67026150
_cell_angle_alpha   125.01834386
_cell_angle_beta   125.01834019
_cell_angle_gamma   80.59975781
_symmetry_Int_Tables_number   1
_chemical_formula_structural   Tm10Ga3Bi2Rh
_chemical_formula_sum   'Tm10 Ga3 Bi2 Rh1'
_cell_volume   412.23500697
_cell_formula_units_Z   1
loop_
 _symmetry_equiv_pos_site_id
 _symmetry_equiv_pos_as_xyz
  1  'x, y, z'
loop_
 _atom_site_type_symbol
 _atom_site_label
 _atom_site_symmetry_multiplicity
 _atom_site_fract_x
 _atom_site_fract_y
 _atom_site_fract_z
 _atom_site_occupancy
  Tm  Tm0  1  0.000933  0.000684  0.001618  1
  Tm  Tm1  1  0.499316  0.499067  0.998382  1
  Tm  Tm2  1  0.783066  0.296564  0.797759  1
  Tm  Tm3  1  0.203436  0.716934  0.202241  1
  Tm  Tm4  1  0.485307  0.998805  0.202241  1
  Tm  Tm5  1  0.301804  0.466305  0.500000  1
  Tm  Tm6  1  0.033695  0.198196  0.500000  1
  Tm  Tm7  1  0.501195  0.014693  0.797759  1
  Tm  Tm8  1  0.705700  0.513679  0.500000  1
  Tm  Tm9  1  0.986321  0.794300  0.500000  1
  Ga  Ga10  1  0.142290  0.645037  0.787327  1
  Ga  Ga11  1  0.854963  0.357710  0.212673  1
  Ga  Ga12  1  0.638303  0.861697  0.500000  1
  Bi  Bi13  1  0.245098  0.254902  0.000000  1
  Bi  Bi14  1  0.745098  0.754902  0.000000  1
  Rh  Rh15  1  0.373474  0.126526  0.500000  1
