# generated using pymatgen
data_La3Sn5Au6
_symmetry_space_group_name_H-M   'P 1'
_cell_length_a   4.70629200
_cell_length_b   10.28718400
_cell_length_c   14.01242800
_cell_angle_alpha   90.00000000
_cell_angle_beta   90.00000000
_cell_angle_gamma   90.00000000
_symmetry_Int_Tables_number   1
_chemical_formula_structural   La3Sn5Au6
_chemical_formula_sum   'La6 Sn10 Au12'
_cell_volume   678.40457997
_cell_formula_units_Z   2
loop_
 _symmetry_equiv_pos_site_id
 _symmetry_equiv_pos_as_xyz
  1  'x, y, z'
loop_
 _atom_site_type_symbol
 _atom_site_label
 _atom_site_symmetry_multiplicity
 _atom_site_fract_x
 _atom_site_fract_y
 _atom_site_fract_z
 _atom_site_occupancy
  La  La0  1  0.000000  0.745904  0.810921  1
  La  La1  1  0.000000  0.745904  0.189079  1
  La  La2  1  0.500000  0.254096  0.689079  1
  La  La3  1  0.500000  0.254096  0.310921  1
  La  La4  1  0.000000  0.742749  0.500000  1
  La  La5  1  0.500000  0.257251  0.000000  1
  Sn  Sn6  1  0.000000  0.380893  0.839876  1
  Sn  Sn7  1  0.000000  0.380893  0.160124  1
  Sn  Sn8  1  0.500000  0.619107  0.660124  1
  Sn  Sn9  1  0.500000  0.619107  0.339876  1
  Sn  Sn10  1  0.000000  0.023687  0.359465  1
  Sn  Sn11  1  0.000000  0.023687  0.640535  1
  Sn  Sn12  1  0.500000  0.976313  0.140535  1
  Sn  Sn13  1  0.500000  0.976313  0.859465  1
  Sn  Sn14  1  0.000000  0.276525  0.500000  1
  Sn  Sn15  1  0.500000  0.723475  0.000000  1
  Au  Au16  1  0.000000  0.117737  0.838905  1
  Au  Au17  1  0.000000  0.117737  0.161095  1
  Au  Au18  1  0.500000  0.882263  0.661095  1
  Au  Au19  1  0.500000  0.882263  0.338905  1
  Au  Au20  1  0.000000  0.543286  0.000000  1
  Au  Au21  1  0.500000  0.456714  0.500000  1
  Au  Au22  1  0.000000  0.475489  0.352186  1
  Au  Au23  1  0.000000  0.475489  0.647814  1
  Au  Au24  1  0.500000  0.524511  0.147814  1
  Au  Au25  1  0.500000  0.524511  0.852186  1
  Au  Au26  1  0.000000  0.932923  0.000000  1
  Au  Au27  1  0.500000  0.067077  0.500000  1
