# generated using pymatgen
data_Tb2Tm10Co4BiRu
_symmetry_space_group_name_H-M   'P 1'
_cell_length_a   8.24348677
_cell_length_b   8.24348518
_cell_length_c   8.22990768
_cell_angle_alpha   110.73496510
_cell_angle_beta   111.13076234
_cell_angle_gamma   106.65652725
_symmetry_Int_Tables_number   1
_chemical_formula_structural   Tb2Tm10Co4BiRu
_chemical_formula_sum   'Tb2 Tm10 Co4 Bi1 Ru1'
_cell_volume   429.34809357
_cell_formula_units_Z   1
loop_
 _symmetry_equiv_pos_site_id
 _symmetry_equiv_pos_as_xyz
  1  'x, y, z'
loop_
 _atom_site_type_symbol
 _atom_site_label
 _atom_site_symmetry_multiplicity
 _atom_site_fract_x
 _atom_site_fract_y
 _atom_site_fract_z
 _atom_site_occupancy
  Tb  Tb0  1  0.284560  0.182871  0.467433  1
  Tb  Tb1  1  0.715440  0.817129  0.532567  1
  Tm  Tm2  1  0.283598  0.816312  0.099909  1
  Tm  Tm3  1  0.716402  0.183688  0.900091  1
  Tm  Tm4  1  0.620408  0.310513  0.308224  1
  Tm  Tm5  1  0.379592  0.689487  0.691776  1
  Tm  Tm6  1  0.002289  0.312183  0.691776  1
  Tm  Tm7  1  0.997711  0.687817  0.308224  1
  Tm  Tm8  1  0.211342  0.408630  0.195448  1
  Tm  Tm9  1  0.788658  0.591370  0.804552  1
  Tm  Tm10  1  0.213183  0.015895  0.804552  1
  Tm  Tm11  1  0.786817  0.984105  0.195448  1
  Co  Co12  1  0.000066  0.375754  0.375820  1
  Co  Co13  1  0.999934  0.624246  0.624180  1
  Co  Co14  1  0.388440  0.888440  0.500000  1
  Co  Co15  1  0.611560  0.111560  0.500000  1
  Bi  Bi16  1  0.500000  0.500000  0.000000  1
  Ru  Ru17  1  0.000000  0.000000  0.000000  1
