# generated using pymatgen
data_Pu3(ZnAs3)2
_symmetry_space_group_name_H-M   'P 1'
_cell_length_a   3.95337300
_cell_length_b   9.94786700
_cell_length_c   11.90339700
_cell_angle_alpha   90.00000000
_cell_angle_beta   90.00000000
_cell_angle_gamma   90.00000000
_symmetry_Int_Tables_number   1
_chemical_formula_structural   Pu3(ZnAs3)2
_chemical_formula_sum   'Pu6 Zn4 As12'
_cell_volume   468.13237874
_cell_formula_units_Z   2
loop_
 _symmetry_equiv_pos_site_id
 _symmetry_equiv_pos_as_xyz
  1  'x, y, z'
loop_
 _atom_site_type_symbol
 _atom_site_label
 _atom_site_symmetry_multiplicity
 _atom_site_fract_x
 _atom_site_fract_y
 _atom_site_fract_z
 _atom_site_occupancy
  Pu  Pu0  1  0.750000  0.267697  0.750000  1
  Pu  Pu1  1  0.750000  0.270938  0.413621  1
  Pu  Pu2  1  0.250000  0.729062  0.913621  1
  Pu  Pu3  1  0.250000  0.729062  0.586379  1
  Pu  Pu4  1  0.250000  0.732303  0.250000  1
  Pu  Pu5  1  0.750000  0.270938  0.086379  1
  Zn  Zn6  1  0.250000  0.001877  0.094560  1
  Zn  Zn7  1  0.250000  0.001877  0.405440  1
  Zn  Zn8  1  0.750000  0.998123  0.594560  1
  Zn  Zn9  1  0.750000  0.998123  0.905440  1
  As  As10  1  0.750000  0.503210  0.250000  1
  As  As11  1  0.750000  0.498074  0.916830  1
  As  As12  1  0.750000  0.829045  0.750000  1
  As  As13  1  0.750000  0.838141  0.416347  1
  As  As14  1  0.250000  0.161859  0.916347  1
  As  As15  1  0.250000  0.161859  0.583653  1
  As  As16  1  0.250000  0.170955  0.250000  1
  As  As17  1  0.250000  0.501926  0.083170  1
  As  As18  1  0.250000  0.496790  0.750000  1
  As  As19  1  0.250000  0.501926  0.416830  1
  As  As20  1  0.750000  0.498074  0.583170  1
  As  As21  1  0.750000  0.838141  0.083653  1
