# generated using pymatgen
data_Er2Tm2ReRu7
_symmetry_space_group_name_H-M   'P 1'
_cell_length_a   5.19028460
_cell_length_b   5.41116466
_cell_length_c   8.93088802
_cell_angle_alpha   90.00000020
_cell_angle_beta   90.00577044
_cell_angle_gamma   121.41804324
_symmetry_Int_Tables_number   1
_chemical_formula_structural   Er2Tm2ReRu7
_chemical_formula_sum   'Er2 Tm2 Re1 Ru7'
_cell_volume   214.05354427
_cell_formula_units_Z   1
loop_
 _symmetry_equiv_pos_site_id
 _symmetry_equiv_pos_as_xyz
  1  'x, y, z'
loop_
 _atom_site_type_symbol
 _atom_site_label
 _atom_site_symmetry_multiplicity
 _atom_site_fract_x
 _atom_site_fract_y
 _atom_site_fract_z
 _atom_site_occupancy
  Er  Er0  1  0.327885  0.663943  0.433213  1
  Er  Er1  1  0.654196  0.327097  0.565265  1
  Tm  Tm2  1  0.653790  0.326894  0.934854  1
  Tm  Tm3  1  0.328106  0.664054  0.066539  1
  Re  Re4  1  0.686194  0.843098  0.750549  1
  Ru  Ru5  1  0.975269  0.987635  0.499419  1
  Ru  Ru6  1  0.975207  0.987604  0.000649  1
  Ru  Ru7  1  0.837291  0.167882  0.249436  1
  Ru  Ru8  1  0.837291  0.669408  0.249436  1
  Ru  Ru9  1  0.357223  0.178611  0.249327  1
  Ru  Ru10  1  0.183775  0.828872  0.750657  1
  Ru  Ru11  1  0.183775  0.354904  0.750657  1
