# generated using pymatgen
data_Dy7Ho(BeB14)2
_symmetry_space_group_name_H-M   'P 1'
_cell_length_a   7.21260108
_cell_length_b   7.21292108
_cell_length_c   7.38940400
_cell_angle_alpha   90.00000000
_cell_angle_beta   90.00000000
_cell_angle_gamma   90.01730131
_symmetry_Int_Tables_number   1
_chemical_formula_structural   Dy7Ho(BeB14)2
_chemical_formula_sum   'Dy7 Ho1 Be2 B28'
_cell_volume   384.42576278
_cell_formula_units_Z   1
loop_
 _symmetry_equiv_pos_site_id
 _symmetry_equiv_pos_as_xyz
  1  'x, y, z'
loop_
 _atom_site_type_symbol
 _atom_site_label
 _atom_site_symmetry_multiplicity
 _atom_site_fract_x
 _atom_site_fract_y
 _atom_site_fract_z
 _atom_site_occupancy
  Dy  Dy0  1  0.194788  0.329035  0.000000  1
  Dy  Dy1  1  0.670953  0.194785  0.000000  1
  Dy  Dy2  1  0.329041  0.805219  0.000000  1
  Dy  Dy3  1  0.694815  0.170966  0.500000  1
  Dy  Dy4  1  0.305207  0.829069  0.500000  1
  Dy  Dy5  1  0.805215  0.670963  0.000000  1
  Dy  Dy6  1  0.829056  0.694774  0.500000  1
  Ho  Ho7  1  0.170950  0.305232  0.500000  1
  Be  Be8  1  0.000000  0.999998  0.000000  1
  Be  Be9  1  0.499918  0.499955  0.500000  1
  B  B10  1  0.173991  0.038977  0.228011  1
  B  B11  1  0.961149  0.174033  0.228045  1
  B  B12  1  0.038930  0.826036  0.227985  1
  B  B13  1  0.673963  0.461076  0.272046  1
  B  B14  1  0.325936  0.538831  0.272124  1
  B  B15  1  0.826034  0.961086  0.227984  1
  B  B16  1  0.538923  0.673964  0.272041  1
  B  B17  1  0.460970  0.325986  0.272099  1
  B  B18  1  0.826034  0.961086  0.772016  1
  B  B19  1  0.038930  0.826036  0.772015  1
  B  B20  1  0.961149  0.174033  0.771955  1
  B  B21  1  0.325936  0.538831  0.727876  1
  B  B22  1  0.673963  0.461076  0.727954  1
  B  B23  1  0.173991  0.038977  0.771989  1
  B  B24  1  0.460970  0.325986  0.727901  1
  B  B25  1  0.538923  0.673964  0.727959  1
  B  B26  1  0.088388  0.588312  0.250045  1
  B  B27  1  0.411617  0.088381  0.250017  1
  B  B28  1  0.588362  0.911640  0.250010  1
  B  B29  1  0.911719  0.411595  0.250080  1
  B  B30  1  0.911719  0.411595  0.749920  1
  B  B31  1  0.588362  0.911640  0.749990  1
  B  B32  1  0.411617  0.088381  0.749983  1
  B  B33  1  0.088388  0.588312  0.749955  1
  B  B34  1  0.000054  0.000095  0.387790  1
  B  B35  1  0.499993  0.499990  0.112280  1
  B  B36  1  0.000054  0.000095  0.612210  1
  B  B37  1  0.499993  0.499990  0.887720  1
