# generated using pymatgen
data_Zr3Nb7(ZnSn3)2
_symmetry_space_group_name_H-M   'P 1'
_cell_length_a   8.45294200
_cell_length_b   8.45294193
_cell_length_c   5.70461800
_cell_angle_alpha   90.00000000
_cell_angle_beta   90.00000000
_cell_angle_gamma   119.99999246
_symmetry_Int_Tables_number   1
_chemical_formula_structural   Zr3Nb7(ZnSn3)2
_chemical_formula_sum   'Zr3 Nb7 Zn2 Sn6'
_cell_volume   352.99861946
_cell_formula_units_Z   1
loop_
 _symmetry_equiv_pos_site_id
 _symmetry_equiv_pos_as_xyz
  1  'x, y, z'
loop_
 _atom_site_type_symbol
 _atom_site_label
 _atom_site_symmetry_multiplicity
 _atom_site_fract_x
 _atom_site_fract_y
 _atom_site_fract_z
 _atom_site_occupancy
  Zr  Zr0  1  0.261076  0.261076  0.250000  1
  Zr  Zr1  1  0.738924  0.000000  0.250000  1
  Zr  Zr2  1  0.000000  0.738924  0.250000  1
  Nb  Nb3  1  0.666667  0.333333  0.997477  1
  Nb  Nb4  1  0.333333  0.666667  0.997477  1
  Nb  Nb5  1  0.333333  0.666667  0.502523  1
  Nb  Nb6  1  0.666667  0.333333  0.502523  1
  Nb  Nb7  1  0.720259  0.720259  0.750000  1
  Nb  Nb8  1  0.279741  0.000000  0.750000  1
  Nb  Nb9  1  0.000000  0.279741  0.750000  1
  Zn  Zn10  1  0.000000  0.000000  0.976209  1
  Zn  Zn11  1  0.000000  0.000000  0.523791  1
  Sn  Sn12  1  0.382025  0.382025  0.750000  1
  Sn  Sn13  1  0.617975  0.000000  0.750000  1
  Sn  Sn14  1  0.000000  0.617975  0.750000  1
  Sn  Sn15  1  0.608305  0.608305  0.250000  1
  Sn  Sn16  1  0.391695  0.000000  0.250000  1
  Sn  Sn17  1  0.000000  0.391695  0.250000  1
