# generated using pymatgen
data_Tb5Gd2Er9(In3Co)2
_symmetry_space_group_name_H-M   'P 1'
_cell_length_a   10.32322503
_cell_length_b   10.32322438
_cell_length_c   7.05016401
_cell_angle_alpha   90.00079731
_cell_angle_beta   89.99919929
_cell_angle_gamma   119.99270703
_symmetry_Int_Tables_number   1
_chemical_formula_structural   Tb5Gd2Er9(In3Co)2
_chemical_formula_sum   'Tb5 Gd2 Er9 In6 Co2'
_cell_volume   650.71755672
_cell_formula_units_Z   1
loop_
 _symmetry_equiv_pos_site_id
 _symmetry_equiv_pos_as_xyz
  1  'x, y, z'
loop_
 _atom_site_type_symbol
 _atom_site_label
 _atom_site_symmetry_multiplicity
 _atom_site_fract_x
 _atom_site_fract_y
 _atom_site_fract_z
 _atom_site_occupancy
  Tb  Tb0  1  0.534924  0.070152  0.511651  1
  Tb  Tb1  1  0.929848  0.465076  0.511651  1
  Tb  Tb2  1  0.534889  0.465111  0.512064  1
  Tb  Tb3  1  0.464915  0.929460  0.011683  1
  Tb  Tb4  1  0.070540  0.535085  0.011683  1
  Gd  Gd5  1  0.000117  0.999883  0.501426  1
  Gd  Gd6  1  0.999902  0.000098  0.001586  1
  Er  Er7  1  0.464451  0.535549  0.012500  1
  Er  Er8  1  0.179059  0.357325  0.719410  1
  Er  Er9  1  0.642675  0.820941  0.719410  1
  Er  Er10  1  0.178559  0.821441  0.719062  1
  Er  Er11  1  0.820904  0.642812  0.218348  1
  Er  Er12  1  0.357188  0.179096  0.218348  1
  Er  Er13  1  0.821541  0.178459  0.218956  1
  Er  Er14  1  0.666376  0.333624  0.905682  1
  Er  Er15  1  0.333671  0.666329  0.405408  1
  In  In16  1  0.836469  0.672927  0.762117  1
  In  In17  1  0.327073  0.163531  0.762117  1
  In  In18  1  0.836325  0.163675  0.761712  1
  In  In19  1  0.164077  0.327621  0.261528  1
  In  In20  1  0.672379  0.835923  0.261528  1
  In  In21  1  0.163546  0.836454  0.262079  1
  Co  Co22  1  0.666633  0.333367  0.286865  1
  Co  Co23  1  0.333938  0.666062  0.787386  1
