# generated using pymatgen
data_Y17(HoRu2)7
_symmetry_space_group_name_H-M   'P 1'
_cell_length_a   11.35805265
_cell_length_b   8.40691500
_cell_length_c   11.26920454
_cell_angle_alpha   56.37752058
_cell_angle_beta   90.07731025
_cell_angle_gamma   90.06205755
_symmetry_Int_Tables_number   1
_chemical_formula_structural   Y17(HoRu2)7
_chemical_formula_sum   'Y17 Ho7 Ru14'
_cell_volume   896.03308569
_cell_formula_units_Z   1
loop_
 _symmetry_equiv_pos_site_id
 _symmetry_equiv_pos_as_xyz
  1  'x, y, z'
loop_
 _atom_site_type_symbol
 _atom_site_label
 _atom_site_symmetry_multiplicity
 _atom_site_fract_x
 _atom_site_fract_y
 _atom_site_fract_z
 _atom_site_occupancy
  Y  Y0  1  0.705411  0.243568  0.531101  1
  Y  Y1  1  0.205418  0.756270  0.968974  1
  Y  Y2  1  0.845062  0.508526  0.655249  1
  Y  Y3  1  0.345197  0.491180  0.845433  1
  Y  Y4  1  0.154402  0.491788  0.344399  1
  Y  Y5  1  0.654841  0.508387  0.155042  1
  Y  Y6  1  0.006172  0.854705  0.360062  1
  Y  Y7  1  0.506631  0.145537  0.140290  1
  Y  Y8  1  0.993360  0.145740  0.639615  1
  Y  Y9  1  0.493681  0.853966  0.860151  1
  Y  Y10  1  0.794567  0.243636  0.031327  1
  Y  Y11  1  0.294547  0.756385  0.468740  1
  Y  Y12  1  0.931108  0.777608  0.089325  1
  Y  Y13  1  0.431287  0.222126  0.410545  1
  Y  Y14  1  0.068613  0.222513  0.910685  1
  Y  Y15  1  0.568844  0.777948  0.589024  1
  Y  Y16  1  0.301391  0.240648  0.676118  1
  Ho  Ho17  1  0.801573  0.758783  0.823527  1
  Ho  Ho18  1  0.698560  0.758981  0.323485  1
  Ho  Ho19  1  0.198436  0.241076  0.176533  1
  Ho  Ho20  1  0.925538  0.281359  0.293306  1
  Ho  Ho21  1  0.425735  0.718267  0.206827  1
  Ho  Ho22  1  0.074531  0.718753  0.706764  1
  Ho  Ho23  1  0.574464  0.281567  0.793386  1
  Ru  Ru24  1  0.500822  0.500906  0.499364  1
  Ru  Ru25  1  0.000009  0.499943  0.000118  1
  Ru  Ru26  1  0.646705  0.927107  0.033065  1
  Ru  Ru27  1  0.147088  0.073843  0.466626  1
  Ru  Ru28  1  0.353716  0.072321  0.968455  1
  Ru  Ru29  1  0.853124  0.926240  0.533426  1
  Ru  Ru30  1  0.397629  0.483868  0.103714  1
  Ru  Ru31  1  0.897287  0.516126  0.396169  1
  Ru  Ru32  1  0.602457  0.516238  0.896252  1
  Ru  Ru33  1  0.101484  0.485221  0.603094  1
  Ru  Ru34  1  0.816442  0.095740  0.851462  1
  Ru  Ru35  1  0.316820  0.902729  0.648734  1
  Ru  Ru36  1  0.183361  0.904174  0.148630  1
  Ru  Ru37  1  0.683687  0.096227  0.350984  1
