# generated using pymatgen
data_Gd6Ho3ErSi6
_symmetry_space_group_name_H-M   'P 1'
_cell_length_a   8.46073400
_cell_length_b   8.46073300
_cell_length_c   6.35795000
_cell_angle_alpha   90.00000000
_cell_angle_beta   90.00000000
_cell_angle_gamma   119.99999609
_symmetry_Int_Tables_number   1
_chemical_formula_structural   Gd6Ho3ErSi6
_chemical_formula_sum   'Gd6 Ho3 Er1 Si6'
_cell_volume   394.15204872
_cell_formula_units_Z   1
loop_
 _symmetry_equiv_pos_site_id
 _symmetry_equiv_pos_as_xyz
  1  'x, y, z'
loop_
 _atom_site_type_symbol
 _atom_site_label
 _atom_site_symmetry_multiplicity
 _atom_site_fract_x
 _atom_site_fract_y
 _atom_site_fract_z
 _atom_site_occupancy
  Gd  Gd0  1  0.000007  0.747087  0.751571  1
  Gd  Gd1  1  0.000007  0.252922  0.248429  1
  Gd  Gd2  1  0.747078  0.747087  0.248429  1
  Gd  Gd3  1  0.747078  0.999993  0.751571  1
  Gd  Gd4  1  0.252913  0.252922  0.751571  1
  Gd  Gd5  1  0.252913  0.999993  0.248429  1
  Ho  Ho6  1  0.333333  0.666667  0.500000  1
  Ho  Ho7  1  0.666667  0.333333  0.000000  1
  Ho  Ho8  1  0.666667  0.333333  0.500000  1
  Er  Er9  1  0.333333  0.666667  0.000000  1
  Si  Si10  1  0.392531  0.999596  0.750819  1
  Si  Si11  1  0.392531  0.392934  0.249181  1
  Si  Si12  1  0.000404  0.607469  0.249181  1
  Si  Si13  1  0.000404  0.392934  0.750819  1
  Si  Si14  1  0.607066  0.607469  0.750819  1
  Si  Si15  1  0.607066  0.999596  0.249181  1
