# generated using pymatgen
data_Ba3H12RuPt
_symmetry_space_group_name_H-M   'P 1'
_cell_length_a   5.58558400
_cell_length_b   5.58558431
_cell_length_c   8.94346900
_cell_angle_alpha   90.00000000
_cell_angle_beta   90.00000000
_cell_angle_gamma   119.99999815
_symmetry_Int_Tables_number   1
_chemical_formula_structural   Ba3H12RuPt
_chemical_formula_sum   'Ba3 H12 Ru1 Pt1'
_cell_volume   241.64279195
_cell_formula_units_Z   1
loop_
 _symmetry_equiv_pos_site_id
 _symmetry_equiv_pos_as_xyz
  1  'x, y, z'
loop_
 _atom_site_type_symbol
 _atom_site_label
 _atom_site_symmetry_multiplicity
 _atom_site_fract_x
 _atom_site_fract_y
 _atom_site_fract_z
 _atom_site_occupancy
  Ba  Ba0  1  0.000000  0.000000  0.939252  1
  Ba  Ba1  1  0.666667  0.333333  0.379099  1
  Ba  Ba2  1  0.333333  0.666667  0.656269  1
  H  H3  1  0.188537  0.811463  0.347973  1
  H  H4  1  0.622927  0.811463  0.347973  1
  H  H5  1  0.188537  0.377073  0.347973  1
  H  H6  1  0.815975  0.184025  0.651152  1
  H  H7  1  0.368051  0.184025  0.651152  1
  H  H8  1  0.815975  0.631949  0.651152  1
  H  H9  1  0.524184  0.048368  0.875845  1
  H  H10  1  0.524184  0.475816  0.875845  1
  H  H11  1  0.951632  0.475816  0.875845  1
  H  H12  1  0.466609  0.933218  0.131755  1
  H  H13  1  0.466609  0.533391  0.131755  1
  H  H14  1  0.066782  0.533391  0.131755  1
  Ru  Ru15  1  0.666667  0.333333  0.760860  1
  Pt  Pt16  1  0.333333  0.666667  0.244339  1
