# generated using pymatgen
data_VGaFeNi3Pt2
_symmetry_space_group_name_H-M   'P 1'
_cell_length_a   3.73353200
_cell_length_b   3.70583800
_cell_length_c   7.48152000
_cell_angle_alpha   90.00000000
_cell_angle_beta   90.00000000
_cell_angle_gamma   90.00000000
_symmetry_Int_Tables_number   1
_chemical_formula_structural   VGaFeNi3Pt2
_chemical_formula_sum   'V1 Ga1 Fe1 Ni3 Pt2'
_cell_volume   103.51329892
_cell_formula_units_Z   1
loop_
 _symmetry_equiv_pos_site_id
 _symmetry_equiv_pos_as_xyz
  1  'x, y, z'
loop_
 _atom_site_type_symbol
 _atom_site_label
 _atom_site_symmetry_multiplicity
 _atom_site_fract_x
 _atom_site_fract_y
 _atom_site_fract_z
 _atom_site_occupancy
  V  V0  1  0.000000  0.000000  0.500000  1
  Ga  Ga1  1  0.000000  0.000000  0.000000  1
  Fe  Fe2  1  0.500000  0.500000  0.500000  1
  Ni  Ni3  1  0.500000  0.500000  0.000000  1
  Ni  Ni4  1  0.000000  0.500000  0.257933  1
  Ni  Ni5  1  0.000000  0.500000  0.742067  1
  Pt  Pt6  1  0.500000  0.000000  0.253668  1
  Pt  Pt7  1  0.500000  0.000000  0.746332  1
