# generated using pymatgen
data_TbHo7(CuP)12
_symmetry_space_group_name_H-M   'P 1'
_cell_length_a   3.85795900
_cell_length_b   10.67699402
_cell_length_c   12.95934700
_cell_angle_alpha   90.00305342
_cell_angle_beta   90.00000000
_cell_angle_gamma   90.00000000
_symmetry_Int_Tables_number   1
_chemical_formula_structural   TbHo7(CuP)12
_chemical_formula_sum   'Tb1 Ho7 Cu12 P12'
_cell_volume   533.81371205
_cell_formula_units_Z   1
loop_
 _symmetry_equiv_pos_site_id
 _symmetry_equiv_pos_as_xyz
  1  'x, y, z'
loop_
 _atom_site_type_symbol
 _atom_site_label
 _atom_site_symmetry_multiplicity
 _atom_site_fract_x
 _atom_site_fract_y
 _atom_site_fract_z
 _atom_site_occupancy
  Tb  Tb0  1  0.250000  0.930522  0.792901  1
  Ho  Ho1  1  0.750000  0.430342  0.707372  1
  Ho  Ho2  1  0.250000  0.569663  0.292629  1
  Ho  Ho3  1  0.750000  0.069715  0.207347  1
  Ho  Ho4  1  0.250000  0.841000  0.502831  1
  Ho  Ho5  1  0.750000  0.341247  0.996973  1
  Ho  Ho6  1  0.250000  0.658693  0.003136  1
  Ho  Ho7  1  0.750000  0.158809  0.496847  1
  Cu  Cu8  1  0.250000  0.403413  0.513821  1
  Cu  Cu9  1  0.750000  0.903090  0.986855  1
  Cu  Cu10  1  0.250000  0.096806  0.013877  1
  Cu  Cu11  1  0.750000  0.596545  0.486155  1
  Cu  Cu12  1  0.250000  0.273062  0.332152  1
  Cu  Cu13  1  0.750000  0.772971  0.167840  1
  Cu  Cu14  1  0.250000  0.227417  0.832390  1
  Cu  Cu15  1  0.750000  0.727019  0.667724  1
  Cu  Cu16  1  0.250000  0.860220  0.280120  1
  Cu  Cu17  1  0.750000  0.360153  0.219803  1
  Cu  Cu18  1  0.250000  0.639266  0.780266  1
  Cu  Cu19  1  0.750000  0.140518  0.719543  1
  P  P20  1  0.250000  0.241298  0.643245  1
  P  P21  1  0.750000  0.740331  0.857055  1
  P  P22  1  0.250000  0.258745  0.143235  1
  P  P23  1  0.750000  0.758676  0.356676  1
  P  P24  1  0.250000  0.604218  0.600949  1
  P  P25  1  0.750000  0.104639  0.899293  1
  P  P26  1  0.250000  0.895821  0.100886  1
  P  P27  1  0.750000  0.395795  0.399057  1
  P  P28  1  0.250000  0.057153  0.368898  1
  P  P29  1  0.750000  0.557107  0.131073  1
  P  P30  1  0.250000  0.442819  0.868982  1
  P  P31  1  0.750000  0.942926  0.630070  1
