# generated using pymatgen
data_HoEr3Ga4Ir3Pd
_symmetry_space_group_name_H-M   'P 1'
_cell_length_a   4.33439000
_cell_length_b   6.79462728
_cell_length_c   7.77762009
_cell_angle_alpha   90.15378492
_cell_angle_beta   90.00000000
_cell_angle_gamma   90.00000000
_symmetry_Int_Tables_number   1
_chemical_formula_structural   HoEr3Ga4Ir3Pd
_chemical_formula_sum   'Ho1 Er3 Ga4 Ir3 Pd1'
_cell_volume   229.05447725
_cell_formula_units_Z   1
loop_
 _symmetry_equiv_pos_site_id
 _symmetry_equiv_pos_as_xyz
  1  'x, y, z'
loop_
 _atom_site_type_symbol
 _atom_site_label
 _atom_site_symmetry_multiplicity
 _atom_site_fract_x
 _atom_site_fract_y
 _atom_site_fract_z
 _atom_site_occupancy
  Ho  Ho0  1  0.750000  0.021419  0.683654  1
  Er  Er1  1  0.250000  0.977008  0.312362  1
  Er  Er2  1  0.250000  0.479303  0.193732  1
  Er  Er3  1  0.750000  0.531866  0.811325  1
  Ga  Ga4  1  0.250000  0.346777  0.566803  1
  Ga  Ga5  1  0.250000  0.839735  0.931980  1
  Ga  Ga6  1  0.750000  0.654854  0.431085  1
  Ga  Ga7  1  0.750000  0.153743  0.068682  1
  Ir  Ir8  1  0.250000  0.732956  0.612643  1
  Ir  Ir9  1  0.750000  0.765776  0.111578  1
  Ir  Ir10  1  0.750000  0.265729  0.387863  1
  Pd  Pd11  1  0.250000  0.230835  0.888294  1
