# generated using pymatgen
data_Tb4Si3O11F2
_symmetry_space_group_name_H-M   'P 1'
_cell_length_a   6.56269413
_cell_length_b   6.68647350
_cell_length_c   13.42845000
_cell_angle_alpha   87.58115273
_cell_angle_beta   85.78704292
_cell_angle_gamma   60.84962757
_symmetry_Int_Tables_number   1
_chemical_formula_structural   Tb4Si3O11F2
_chemical_formula_sum   'Tb8 Si6 O22 F4'
_cell_volume   513.22024309
_cell_formula_units_Z   2
loop_
 _symmetry_equiv_pos_site_id
 _symmetry_equiv_pos_as_xyz
  1  'x, y, z'
loop_
 _atom_site_type_symbol
 _atom_site_label
 _atom_site_symmetry_multiplicity
 _atom_site_fract_x
 _atom_site_fract_y
 _atom_site_fract_z
 _atom_site_occupancy
  Tb  Tb0  1  0.677032  0.619699  0.796398  1
  Tb  Tb1  1  0.322968  0.380301  0.203602  1
  Tb  Tb2  1  0.061651  0.725837  0.973119  1
  Tb  Tb3  1  0.938349  0.274163  0.026881  1
  Tb  Tb4  1  0.781442  0.787649  0.470482  1
  Tb  Tb5  1  0.218558  0.212351  0.529518  1
  Tb  Tb6  1  0.179597  0.693263  0.670562  1
  Tb  Tb7  1  0.820403  0.306737  0.329438  1
  Si  Si8  1  0.508856  0.748089  0.065274  1
  Si  Si9  1  0.491144  0.251911  0.934726  1
  Si  Si10  1  0.766156  0.846156  0.216291  1
  Si  Si11  1  0.233844  0.153844  0.783709  1
  Si  Si12  1  0.732596  0.270068  0.579261  1
  Si  Si13  1  0.267404  0.729932  0.420739  1
  O  O14  1  0.733353  0.663133  0.980041  1
  O  O15  1  0.266647  0.336867  0.019959  1
  O  O16  1  0.746539  0.096235  0.980614  1
  O  O17  1  0.253461  0.903765  0.019386  1
  O  O18  1  0.445252  0.499323  0.886794  1
  O  O19  1  0.554748  0.500677  0.113206  1
  O  O20  1  0.534632  0.901408  0.152143  1
  O  O21  1  0.465368  0.098592  0.847857  1
  O  O22  1  0.795235  0.676989  0.312259  1
  O  O23  1  0.204765  0.323011  0.687741  1
  O  O24  1  0.312733  0.890297  0.753244  1
  O  O25  1  0.687267  0.109703  0.246756  1
  O  O26  1  0.993604  0.283460  0.855206  1
  O  O27  1  0.006396  0.716540  0.144794  1
  O  O28  1  0.594516  0.160427  0.521678  1
  O  O29  1  0.405484  0.839573  0.478322  1
  O  O30  1  0.578744  0.453468  0.667442  1
  O  O31  1  0.421256  0.546532  0.332558  1
  O  O32  1  0.174664  0.594091  0.507098  1
  O  O33  1  0.825336  0.405909  0.492902  1
  O  O34  1  0.984389  0.063056  0.612604  1
  O  O35  1  0.015611  0.936944  0.387396  1
  F  F36  1  0.962677  0.732649  0.814503  1
  F  F37  1  0.037323  0.267351  0.185497  1
  F  F38  1  0.797564  0.738312  0.644868  1
  F  F39  1  0.202436  0.261688  0.355132  1
