# generated using pymatgen
data_Rb2Na2Ti6FeBr18
_symmetry_space_group_name_H-M   'P 1'
_cell_length_a   10.27034661
_cell_length_b   10.33510295
_cell_length_c   10.44957740
_cell_angle_alpha   119.51031820
_cell_angle_beta   101.35036689
_cell_angle_gamma   100.73363141
_symmetry_Int_Tables_number   1
_chemical_formula_structural   Rb2Na2Ti6FeBr18
_chemical_formula_sum   'Rb2 Na2 Ti6 Fe1 Br18'
_cell_volume   892.75157912
_cell_formula_units_Z   1
loop_
 _symmetry_equiv_pos_site_id
 _symmetry_equiv_pos_as_xyz
  1  'x, y, z'
loop_
 _atom_site_type_symbol
 _atom_site_label
 _atom_site_symmetry_multiplicity
 _atom_site_fract_x
 _atom_site_fract_y
 _atom_site_fract_z
 _atom_site_occupancy
  Rb  Rb0  1  0.687352  0.227951  0.551916  1
  Rb  Rb1  1  0.312648  0.772049  0.448084  1
  Na  Na2  1  0.621709  0.530253  0.203974  1
  Na  Na3  1  0.378291  0.469747  0.796026  1
  Ti  Ti4  1  0.147391  0.068692  0.240548  1
  Ti  Ti5  1  0.852609  0.931308  0.759452  1
  Ti  Ti6  1  0.862934  0.144970  0.126379  1
  Ti  Ti7  1  0.137066  0.855030  0.873621  1
  Ti  Ti8  1  0.143126  0.223841  0.029590  1
  Ti  Ti9  1  0.856874  0.776159  0.970410  1
  Fe  Fe10  1  0.000000  0.000000  0.000000  1
  Br  Br11  1  0.006817  0.404634  0.167473  1
  Br  Br12  1  0.993183  0.595366  0.832527  1
  Br  Br13  1  0.317486  0.323566  0.297977  1
  Br  Br14  1  0.682514  0.676434  0.702023  1
  Br  Br15  1  0.320833  0.491852  0.070443  1
  Br  Br16  1  0.679167  0.508148  0.929557  1
  Br  Br17  1  0.004340  0.828856  0.232351  1
  Br  Br18  1  0.995660  0.171144  0.767649  1
  Br  Br19  1  0.705943  0.312344  0.271994  1
  Br  Br20  1  0.294057  0.687656  0.728006  1
  Br  Br21  1  0.305483  0.088059  0.894765  1
  Br  Br22  1  0.694517  0.911941  0.105235  1
  Br  Br23  1  0.013082  0.233582  0.402443  1
  Br  Br24  1  0.986918  0.766418  0.597557  1
  Br  Br25  1  0.311375  0.919021  0.127293  1
  Br  Br26  1  0.688625  0.080979  0.872707  1
  Br  Br27  1  0.327490  0.151178  0.524671  1
  Br  Br28  1  0.672510  0.848822  0.475329  1
