# generated using pymatgen
data_Nb5Fe2Ge(BRu2)4
_symmetry_space_group_name_H-M   'P 1'
_cell_length_a   9.25337800
_cell_length_b   9.25337800
_cell_length_c   3.00330000
_cell_angle_alpha   90.00000000
_cell_angle_beta   90.00000000
_cell_angle_gamma   90.00000000
_symmetry_Int_Tables_number   1
_chemical_formula_structural   Nb5Fe2Ge(BRu2)4
_chemical_formula_sum   'Nb5 Fe2 Ge1 B4 Ru8'
_cell_volume   257.15757575
_cell_formula_units_Z   1
loop_
 _symmetry_equiv_pos_site_id
 _symmetry_equiv_pos_as_xyz
  1  'x, y, z'
loop_
 _atom_site_type_symbol
 _atom_site_label
 _atom_site_symmetry_multiplicity
 _atom_site_fract_x
 _atom_site_fract_y
 _atom_site_fract_z
 _atom_site_occupancy
  Nb  Nb0  1  0.825668  0.672022  0.000000  1
  Nb  Nb1  1  0.174332  0.327978  0.000000  1
  Nb  Nb2  1  0.327978  0.825668  0.000000  1
  Nb  Nb3  1  0.672022  0.174332  0.000000  1
  Nb  Nb4  1  0.000000  0.000000  0.000000  1
  Fe  Fe5  1  0.500000  0.000000  0.500000  1
  Fe  Fe6  1  0.000000  0.500000  0.500000  1
  Ge  Ge7  1  0.500000  0.500000  0.000000  1
  B  B8  1  0.608416  0.882503  0.000000  1
  B  B9  1  0.391584  0.117497  0.000000  1
  B  B10  1  0.117497  0.608416  0.000000  1
  B  B11  1  0.882503  0.391584  0.000000  1
  Ru  Ru12  1  0.566678  0.717392  0.500000  1
  Ru  Ru13  1  0.433322  0.282608  0.500000  1
  Ru  Ru14  1  0.067654  0.775654  0.500000  1
  Ru  Ru15  1  0.932346  0.224346  0.500000  1
  Ru  Ru16  1  0.282608  0.566678  0.500000  1
  Ru  Ru17  1  0.717392  0.433322  0.500000  1
  Ru  Ru18  1  0.224346  0.067654  0.500000  1
  Ru  Ru19  1  0.775654  0.932346  0.500000  1
