# generated using pymatgen
data_VRe2Cl13
_symmetry_space_group_name_H-M   'P 1'
_cell_length_a   11.19501100
_cell_length_b   9.44627036
_cell_length_c   10.02222764
_cell_angle_alpha   82.85649707
_cell_angle_beta   90.00000000
_cell_angle_gamma   90.00000000
_symmetry_Int_Tables_number   1
_chemical_formula_structural   VRe2Cl13
_chemical_formula_sum   'V2 Re4 Cl26'
_cell_volume   1051.63475026
_cell_formula_units_Z   2
loop_
 _symmetry_equiv_pos_site_id
 _symmetry_equiv_pos_as_xyz
  1  'x, y, z'
loop_
 _atom_site_type_symbol
 _atom_site_label
 _atom_site_symmetry_multiplicity
 _atom_site_fract_x
 _atom_site_fract_y
 _atom_site_fract_z
 _atom_site_occupancy
  V  V0  1  0.250000  0.261467  0.503759  1
  V  V1  1  0.750000  0.738533  0.496241  1
  Re  Re2  1  0.250000  0.826408  0.091957  1
  Re  Re3  1  0.750000  0.173592  0.908043  1
  Re  Re4  1  0.250000  0.686110  0.869463  1
  Re  Re5  1  0.750000  0.313890  0.130537  1
  Cl  Cl6  1  0.595765  0.814978  0.586740  1
  Cl  Cl7  1  0.095765  0.185022  0.413260  1
  Cl  Cl8  1  0.750000  0.432628  0.900664  1
  Cl  Cl9  1  0.250000  0.567372  0.099336  1
  Cl  Cl10  1  0.906166  0.148922  0.078805  1
  Cl  Cl11  1  0.406166  0.851078  0.921195  1
  Cl  Cl12  1  0.093834  0.851078  0.921195  1
  Cl  Cl13  1  0.593834  0.148922  0.078805  1
  Cl  Cl14  1  0.750000  0.200020  0.347262  1
  Cl  Cl15  1  0.250000  0.799980  0.652738  1
  Cl  Cl16  1  0.897968  0.467325  0.178096  1
  Cl  Cl17  1  0.397968  0.532675  0.821904  1
  Cl  Cl18  1  0.102032  0.532675  0.821904  1
  Cl  Cl19  1  0.602032  0.467325  0.178096  1
  Cl  Cl20  1  0.750000  0.929455  0.917223  1
  Cl  Cl21  1  0.250000  0.070545  0.082777  1
  Cl  Cl22  1  0.897314  0.197411  0.747602  1
  Cl  Cl23  1  0.397314  0.802589  0.252398  1
  Cl  Cl24  1  0.102686  0.802589  0.252398  1
  Cl  Cl25  1  0.602686  0.197411  0.747602  1
  Cl  Cl26  1  0.750000  0.806661  0.287128  1
  Cl  Cl27  1  0.250000  0.193339  0.712872  1
  Cl  Cl28  1  0.750000  0.512822  0.523740  1
  Cl  Cl29  1  0.250000  0.487178  0.476260  1
  Cl  Cl30  1  0.904235  0.814978  0.586740  1
  Cl  Cl31  1  0.404235  0.185022  0.413260  1
