# generated using pymatgen
data_Er4Ga24IrPd8
_symmetry_space_group_name_H-M   'P 1'
_cell_length_a   7.45469834
_cell_length_b   7.54724758
_cell_length_c   13.42494018
_cell_angle_alpha   84.78554953
_cell_angle_beta   79.75305804
_cell_angle_gamma   60.50014928
_symmetry_Int_Tables_number   1
_chemical_formula_structural   Er4Ga24IrPd8
_chemical_formula_sum   'Er4 Ga24 Ir1 Pd8'
_cell_volume   646.90796720
_cell_formula_units_Z   1
loop_
 _symmetry_equiv_pos_site_id
 _symmetry_equiv_pos_as_xyz
  1  'x, y, z'
loop_
 _atom_site_type_symbol
 _atom_site_label
 _atom_site_symmetry_multiplicity
 _atom_site_fract_x
 _atom_site_fract_y
 _atom_site_fract_z
 _atom_site_occupancy
  Er  Er0  1  0.396204  0.169294  0.812079  1
  Er  Er1  1  0.603796  0.830706  0.187921  1
  Er  Er2  1  0.731580  0.497604  0.812574  1
  Er  Er3  1  0.268420  0.502396  0.187426  1
  Ga  Ga4  1  0.687936  0.832096  0.939296  1
  Ga  Ga5  1  0.312064  0.167904  0.060704  1
  Ga  Ga6  1  0.144230  0.833828  0.558706  1
  Ga  Ga7  1  0.855770  0.166172  0.441294  1
  Ga  Ga8  1  0.478325  0.166289  0.556292  1
  Ga  Ga9  1  0.521675  0.833711  0.443708  1
  Ga  Ga10  1  0.221029  0.165048  0.321873  1
  Ga  Ga11  1  0.778971  0.834952  0.678127  1
  Ga  Ga12  1  0.435771  0.504583  0.676888  1
  Ga  Ga13  1  0.564229  0.495417  0.323112  1
  Ga  Ga14  1  0.106973  0.161355  0.674952  1
  Ga  Ga15  1  0.893027  0.838645  0.325048  1
  Ga  Ga16  1  0.356564  0.498617  0.940521  1
  Ga  Ga17  1  0.643436  0.501383  0.059479  1
  Ga  Ga18  1  0.020096  0.171063  0.946077  1
  Ga  Ga19  1  0.979904  0.828937  0.053923  1
  Ga  Ga20  1  0.188355  0.498569  0.444566  1
  Ga  Ga21  1  0.811645  0.501431  0.555434  1
  Ga  Ga22  1  0.731690  0.162978  0.181944  1
  Ga  Ga23  1  0.268310  0.837022  0.818056  1
  Ga  Ga24  1  0.061846  0.628904  0.818662  1
  Ga  Ga25  1  0.938154  0.371096  0.181338  1
  Ga  Ga26  1  0.857452  0.042323  0.816599  1
  Ga  Ga27  1  0.142548  0.957677  0.183401  1
  Ir  Ir28  1  0.000000  0.500000  0.000000  1
  Pd  Pd29  1  0.114833  0.494854  0.641301  1
  Pd  Pd30  1  0.885167  0.505146  0.358699  1
  Pd  Pd31  1  0.661473  0.168006  0.998297  1
  Pd  Pd32  1  0.338527  0.831994  0.001703  1
  Pd  Pd33  1  0.541640  0.167134  0.360775  1
  Pd  Pd34  1  0.458360  0.832866  0.639225  1
  Pd  Pd35  1  0.777139  0.173745  0.637375  1
  Pd  Pd36  1  0.222861  0.826255  0.362625  1
