# generated using pymatgen
data_Ho5Er5NiBi4Ru
_symmetry_space_group_name_H-M   'P 1'
_cell_length_a   7.95344030
_cell_length_b   8.93459900
_cell_length_c   12.36233005
_cell_angle_alpha   90.00000000
_cell_angle_beta   90.55940407
_cell_angle_gamma   90.00000000
_symmetry_Int_Tables_number   1
_chemical_formula_structural   Ho5Er5NiBi4Ru
_chemical_formula_sum   'Ho10 Er10 Ni2 Bi8 Ru2'
_cell_volume   878.43519050
_cell_formula_units_Z   2
loop_
 _symmetry_equiv_pos_site_id
 _symmetry_equiv_pos_as_xyz
  1  'x, y, z'
loop_
 _atom_site_type_symbol
 _atom_site_label
 _atom_site_symmetry_multiplicity
 _atom_site_fract_x
 _atom_site_fract_y
 _atom_site_fract_z
 _atom_site_occupancy
  Ho  Ho0  1  0.344313  0.250000  0.703587  1
  Ho  Ho1  1  0.655687  0.750000  0.296413  1
  Ho  Ho2  1  0.377281  0.750000  0.694517  1
  Ho  Ho3  1  0.622719  0.250000  0.305483  1
  Ho  Ho4  1  0.878956  0.250000  0.813329  1
  Ho  Ho5  1  0.121044  0.750000  0.186671  1
  Ho  Ho6  1  0.947643  0.750000  0.503669  1
  Ho  Ho7  1  0.052357  0.250000  0.496331  1
  Ho  Ho8  1  0.450625  0.250000  0.999186  1
  Ho  Ho9  1  0.549375  0.750000  0.000814  1
  Er  Er10  1  0.836625  0.750000  0.790949  1
  Er  Er11  1  0.163375  0.250000  0.209051  1
  Er  Er12  1  0.675564  0.041525  0.564685  1
  Er  Er13  1  0.324436  0.958475  0.435315  1
  Er  Er14  1  0.175645  0.959496  0.935366  1
  Er  Er15  1  0.324436  0.541525  0.435315  1
  Er  Er16  1  0.824355  0.040504  0.064634  1
  Er  Er17  1  0.675564  0.458475  0.564685  1
  Er  Er18  1  0.824355  0.459496  0.064634  1
  Er  Er19  1  0.175645  0.540504  0.935366  1
  Ni  Ni20  1  0.069627  0.250000  0.994540  1
  Ni  Ni21  1  0.930373  0.750000  0.005460  1
  Bi  Bi22  1  0.570178  0.489798  0.828655  1
  Bi  Bi23  1  0.429822  0.510202  0.171345  1
  Bi  Bi24  1  0.066646  0.507313  0.675311  1
  Bi  Bi25  1  0.429822  0.989798  0.171345  1
  Bi  Bi26  1  0.933354  0.492687  0.324689  1
  Bi  Bi27  1  0.570178  0.010202  0.828655  1
  Bi  Bi28  1  0.933354  0.007313  0.324689  1
  Bi  Bi29  1  0.066646  0.992687  0.675311  1
  Ru  Ru30  1  0.574722  0.750000  0.513117  1
  Ru  Ru31  1  0.425278  0.250000  0.486883  1
