# generated using pymatgen
data_CeHf3ThGe4
_symmetry_space_group_name_H-M   'P 1'
_cell_length_a   7.37351500
_cell_length_b   7.45206600
_cell_length_c   14.07358700
_cell_angle_alpha   90.00000000
_cell_angle_beta   90.00000000
_cell_angle_gamma   90.00000000
_symmetry_Int_Tables_number   1
_chemical_formula_structural   CeHf3ThGe4
_chemical_formula_sum   'Ce4 Hf12 Th4 Ge16'
_cell_volume   773.31433867
_cell_formula_units_Z   4
loop_
 _symmetry_equiv_pos_site_id
 _symmetry_equiv_pos_as_xyz
  1  'x, y, z'
loop_
 _atom_site_type_symbol
 _atom_site_label
 _atom_site_symmetry_multiplicity
 _atom_site_fract_x
 _atom_site_fract_y
 _atom_site_fract_z
 _atom_site_occupancy
  Ce  Ce0  1  0.005818  0.326242  0.595648  1
  Ce  Ce1  1  0.505818  0.173758  0.904352  1
  Ce  Ce2  1  0.494182  0.826242  0.404352  1
  Ce  Ce3  1  0.994182  0.673758  0.095648  1
  Hf  Hf4  1  0.845171  0.834367  0.875704  1
  Hf  Hf5  1  0.345171  0.665633  0.624296  1
  Hf  Hf6  1  0.654829  0.334367  0.124296  1
  Hf  Hf7  1  0.154829  0.165633  0.375704  1
  Hf  Hf8  1  0.155640  0.165794  0.125047  1
  Hf  Hf9  1  0.655640  0.334206  0.374953  1
  Hf  Hf10  1  0.344360  0.665794  0.874953  1
  Hf  Hf11  1  0.844360  0.834206  0.625047  1
  Hf  Hf12  1  0.175937  0.000960  0.749957  1
  Hf  Hf13  1  0.675937  0.499040  0.750043  1
  Hf  Hf14  1  0.324063  0.500960  0.250043  1
  Hf  Hf15  1  0.824063  0.999040  0.249957  1
  Th  Th16  1  0.005931  0.327787  0.904957  1
  Th  Th17  1  0.505931  0.172213  0.595043  1
  Th  Th18  1  0.494069  0.827787  0.095043  1
  Th  Th19  1  0.994069  0.672213  0.404957  1
  Ge  Ge20  1  0.678739  0.542272  0.954831  1
  Ge  Ge21  1  0.178739  0.957728  0.545169  1
  Ge  Ge22  1  0.821261  0.042272  0.045169  1
  Ge  Ge23  1  0.321261  0.457728  0.454831  1
  Ge  Ge24  1  0.317485  0.458212  0.045733  1
  Ge  Ge25  1  0.817485  0.041788  0.454267  1
  Ge  Ge26  1  0.182515  0.958212  0.954267  1
  Ge  Ge27  1  0.682515  0.541788  0.545733  1
  Ge  Ge28  1  0.312938  0.365304  0.750551  1
  Ge  Ge29  1  0.812938  0.134696  0.749449  1
  Ge  Ge30  1  0.187062  0.865304  0.249449  1
  Ge  Ge31  1  0.687062  0.634696  0.250551  1
  Ge  Ge32  1  0.047095  0.633635  0.748971  1
  Ge  Ge33  1  0.547095  0.866365  0.751029  1
  Ge  Ge34  1  0.452905  0.133635  0.251029  1
  Ge  Ge35  1  0.952905  0.366365  0.248971  1
