# generated using pymatgen
data_LiHgF4
_symmetry_space_group_name_H-M   'P 1'
_cell_length_a   6.01250200
_cell_length_b   5.15941431
_cell_length_c   10.36713820
_cell_angle_alpha   84.67374807
_cell_angle_beta   90.00000000
_cell_angle_gamma   90.00000000
_symmetry_Int_Tables_number   1
_chemical_formula_structural   LiHgF4
_chemical_formula_sum   'Li4 Hg4 F16'
_cell_volume   320.21030201
_cell_formula_units_Z   4
loop_
 _symmetry_equiv_pos_site_id
 _symmetry_equiv_pos_as_xyz
  1  'x, y, z'
loop_
 _atom_site_type_symbol
 _atom_site_label
 _atom_site_symmetry_multiplicity
 _atom_site_fract_x
 _atom_site_fract_y
 _atom_site_fract_z
 _atom_site_occupancy
  Li  Li0  1  0.425990  0.500000  0.250000  1
  Li  Li1  1  0.912109  0.000000  0.750000  1
  Li  Li2  1  0.574010  0.500000  0.750000  1
  Li  Li3  1  0.087891  0.000000  0.250000  1
  Hg  Hg4  1  0.000000  0.500000  0.500000  1
  Hg  Hg5  1  0.000000  0.500000  0.000000  1
  Hg  Hg6  1  0.500000  0.000000  0.000000  1
  Hg  Hg7  1  0.500000  0.000000  0.500000  1
  F  F8  1  0.879052  0.814773  0.377211  1
  F  F9  1  0.120948  0.185227  0.622789  1
  F  F10  1  0.632836  0.314427  0.379805  1
  F  F11  1  0.120948  0.814773  0.877211  1
  F  F12  1  0.653084  0.197197  0.644527  1
  F  F13  1  0.166773  0.302304  0.359216  1
  F  F14  1  0.833227  0.697696  0.640784  1
  F  F15  1  0.833227  0.302304  0.859216  1
  F  F16  1  0.346916  0.197197  0.144527  1
  F  F17  1  0.166773  0.697696  0.140784  1
  F  F18  1  0.879052  0.185227  0.122789  1
  F  F19  1  0.632836  0.685573  0.120195  1
  F  F20  1  0.653084  0.802803  0.855473  1
  F  F21  1  0.346916  0.802803  0.355473  1
  F  F22  1  0.367164  0.685573  0.620195  1
  F  F23  1  0.367164  0.314427  0.879805  1
