# generated using pymatgen
data_Y11Tm5MgIn3Pt4
_symmetry_space_group_name_H-M   'P 1'
_cell_length_a   9.72947893
_cell_length_b   9.70707815
_cell_length_c   9.70707944
_cell_angle_alpha   59.76833443
_cell_angle_beta   60.06162024
_cell_angle_gamma   60.06161554
_symmetry_Int_Tables_number   1
_chemical_formula_structural   Y11Tm5MgIn3Pt4
_chemical_formula_sum   'Y11 Tm5 Mg1 In3 Pt4'
_cell_volume   647.72103508
_cell_formula_units_Z   1
loop_
 _symmetry_equiv_pos_site_id
 _symmetry_equiv_pos_as_xyz
  1  'x, y, z'
loop_
 _atom_site_type_symbol
 _atom_site_label
 _atom_site_symmetry_multiplicity
 _atom_site_fract_x
 _atom_site_fract_y
 _atom_site_fract_z
 _atom_site_occupancy
  Y  Y0  1  0.440158  0.059753  0.059753  1
  Y  Y1  1  0.438610  0.061860  0.439921  1
  Y  Y2  1  0.058436  0.443525  0.057572  1
  Y  Y3  1  0.438610  0.439921  0.061860  1
  Y  Y4  1  0.058436  0.057572  0.443525  1
  Y  Y5  1  0.186626  0.813313  0.813313  1
  Y  Y6  1  0.811875  0.187836  0.187836  1
  Y  Y7  1  0.814188  0.186764  0.811609  1
  Y  Y8  1  0.187120  0.810584  0.188729  1
  Y  Y9  1  0.814188  0.811609  0.186764  1
  Y  Y10  1  0.187120  0.188729  0.810584  1
  Tm  Tm11  1  0.599004  0.598817  0.598817  1
  Tm  Tm12  1  0.600241  0.598187  0.201700  1
  Tm  Tm13  1  0.600241  0.201700  0.598187  1
  Tm  Tm14  1  0.195298  0.601391  0.601391  1
  Tm  Tm15  1  0.058184  0.441524  0.441524  1
  Mg  Mg16  1  0.519130  0.826944  0.826944  1
  In  In17  1  0.833026  0.833509  0.833509  1
  In  In18  1  0.831985  0.833107  0.501882  1
  In  In19  1  0.831985  0.501882  0.833107  1
  Pt  Pt20  1  0.389664  0.395690  0.395690  1
  Pt  Pt21  1  0.392269  0.394105  0.817703  1
  Pt  Pt22  1  0.392269  0.817703  0.394105  1
  Pt  Pt23  1  0.821342  0.393977  0.393977  1
