# generated using pymatgen
data_V2Tc3As4
_symmetry_space_group_name_H-M   'P 1'
_cell_length_a   6.91799238
_cell_length_b   6.91799144
_cell_length_c   6.89573803
_cell_angle_alpha   93.16767082
_cell_angle_beta   93.07644252
_cell_angle_gamma   153.05274348
_symmetry_Int_Tables_number   1
_chemical_formula_structural   V2Tc3As4
_chemical_formula_sum   'V2 Tc3 As4'
_cell_volume   145.41218082
_cell_formula_units_Z   1
loop_
 _symmetry_equiv_pos_site_id
 _symmetry_equiv_pos_as_xyz
  1  'x, y, z'
loop_
 _atom_site_type_symbol
 _atom_site_label
 _atom_site_symmetry_multiplicity
 _atom_site_fract_x
 _atom_site_fract_y
 _atom_site_fract_z
 _atom_site_occupancy
  V  V0  1  0.001366  0.998267  0.999633  1
  V  V1  1  0.614867  0.300685  0.915552  1
  Tc  Tc2  1  0.388274  0.697815  0.086092  1
  Tc  Tc3  1  0.701270  0.615849  0.317122  1
  Tc  Tc4  1  0.300517  0.389407  0.689925  1
  As  As5  1  0.276203  0.933811  0.210017  1
  As  As6  1  0.063648  0.285044  0.348692  1
  As  As7  1  0.942761  0.714989  0.657753  1
  As  As8  1  0.711090  0.064129  0.775219  1
