# generated using pymatgen
data_Ho6TiAl23(FeOs3)2
_symmetry_space_group_name_H-M   'P 1'
_cell_length_a   8.80009700
_cell_length_b   8.80009677
_cell_length_c   9.51507400
_cell_angle_alpha   90.00000000
_cell_angle_beta   90.00000000
_cell_angle_gamma   120.00000464
_symmetry_Int_Tables_number   1
_chemical_formula_structural   Ho6TiAl23(FeOs3)2
_chemical_formula_sum   'Ho6 Ti1 Al23 Fe2 Os6'
_cell_volume   638.14252818
_cell_formula_units_Z   1
loop_
 _symmetry_equiv_pos_site_id
 _symmetry_equiv_pos_as_xyz
  1  'x, y, z'
loop_
 _atom_site_type_symbol
 _atom_site_label
 _atom_site_symmetry_multiplicity
 _atom_site_fract_x
 _atom_site_fract_y
 _atom_site_fract_z
 _atom_site_occupancy
  Ho  Ho0  1  0.194090  0.388180  0.249251  1
  Ho  Ho1  1  0.806484  0.612970  0.748581  1
  Ho  Ho2  1  0.611820  0.805910  0.249251  1
  Ho  Ho3  1  0.387030  0.193516  0.748581  1
  Ho  Ho4  1  0.194090  0.805910  0.249251  1
  Ho  Ho5  1  0.806484  0.193516  0.748581  1
  Ti  Ti6  1  0.333333  0.666667  0.991773  1
  Al  Al7  1  0.666667  0.333333  0.982214  1
  Al  Al8  1  0.666667  0.333333  0.515904  1
  Al  Al9  1  0.333333  0.666667  0.482955  1
  Al  Al10  1  0.158835  0.317669  0.573981  1
  Al  Al11  1  0.840774  0.681548  0.424973  1
  Al  Al12  1  0.682331  0.841165  0.573981  1
  Al  Al13  1  0.840526  0.681051  0.076715  1
  Al  Al14  1  0.318452  0.159226  0.424973  1
  Al  Al15  1  0.156061  0.312121  0.926921  1
  Al  Al16  1  0.158835  0.841165  0.573981  1
  Al  Al17  1  0.318949  0.159474  0.076715  1
  Al  Al18  1  0.840774  0.159226  0.424973  1
  Al  Al19  1  0.687879  0.843939  0.926921  1
  Al  Al20  1  0.840526  0.159474  0.076715  1
  Al  Al21  1  0.156061  0.843939  0.926921  1
  Al  Al22  1  0.561842  0.123685  0.252384  1
  Al  Al23  1  0.440306  0.880610  0.750108  1
  Al  Al24  1  0.876315  0.438158  0.252384  1
  Al  Al25  1  0.119390  0.559694  0.750108  1
  Al  Al26  1  0.561842  0.438158  0.252384  1
  Al  Al27  1  0.440306  0.559694  0.750108  1
  Al  Al28  1  0.000000  0.000000  0.251259  1
  Al  Al29  1  0.000000  0.000000  0.750613  1
  Fe  Fe30  1  0.000000  0.000000  0.002289  1
  Fe  Fe31  1  0.000000  0.000000  0.499853  1
  Os  Os32  1  0.498693  0.997386  0.003065  1
  Os  Os33  1  0.002614  0.501307  0.003065  1
  Os  Os34  1  0.499458  0.998916  0.501736  1
  Os  Os35  1  0.498693  0.501307  0.003065  1
  Os  Os36  1  0.001084  0.500542  0.501736  1
  Os  Os37  1  0.499458  0.500542  0.501736  1
