# generated using pymatgen
data_Yb12Ho5Lu3Si16
_symmetry_space_group_name_H-M   'P 1'
_cell_length_a   7.35254898
_cell_length_b   7.78365785
_cell_length_c   15.04667709
_cell_angle_alpha   90.02504876
_cell_angle_beta   89.96413582
_cell_angle_gamma   90.04718480
_symmetry_Int_Tables_number   1
_chemical_formula_structural   Yb12Ho5Lu3Si16
_chemical_formula_sum   'Yb12 Ho5 Lu3 Si16'
_cell_volume   861.11665827
_cell_formula_units_Z   1
loop_
 _symmetry_equiv_pos_site_id
 _symmetry_equiv_pos_as_xyz
  1  'x, y, z'
loop_
 _atom_site_type_symbol
 _atom_site_label
 _atom_site_symmetry_multiplicity
 _atom_site_fract_x
 _atom_site_fract_y
 _atom_site_fract_z
 _atom_site_occupancy
  Yb  Yb0  1  0.975407  0.816443  0.404525  1
  Yb  Yb1  1  0.476100  0.683109  0.095250  1
  Yb  Yb2  1  0.524448  0.316986  0.595967  1
  Yb  Yb3  1  0.023915  0.183081  0.904518  1
  Yb  Yb4  1  0.025464  0.183553  0.596197  1
  Yb  Yb5  1  0.525722  0.316576  0.904113  1
  Yb  Yb6  1  0.474686  0.683317  0.404180  1
  Yb  Yb7  1  0.973847  0.816239  0.095594  1
  Yb  Yb8  1  0.351248  0.020677  0.749840  1
  Yb  Yb9  1  0.851049  0.479302  0.750293  1
  Yb  Yb10  1  0.148724  0.521230  0.249818  1
  Yb  Yb11  1  0.648990  0.978844  0.249407  1
  Ho  Ho12  1  0.315264  0.176774  0.120714  1
  Ho  Ho13  1  0.815253  0.323614  0.378932  1
  Ho  Ho14  1  0.184754  0.676776  0.878967  1
  Ho  Ho15  1  0.685059  0.823036  0.621615  1
  Ho  Ho16  1  0.314652  0.176780  0.378700  1
  Lu  Lu17  1  0.815018  0.323835  0.121127  1
  Lu  Lu18  1  0.185185  0.676259  0.621782  1
  Lu  Lu19  1  0.685168  0.823760  0.878598  1
  Si  Si20  1  0.859222  0.534582  0.539083  1
  Si  Si21  1  0.360306  0.966219  0.961207  1
  Si  Si22  1  0.641899  0.032866  0.462110  1
  Si  Si23  1  0.139739  0.466083  0.038595  1
  Si  Si24  1  0.145364  0.467343  0.463075  1
  Si  Si25  1  0.647392  0.033768  0.037526  1
  Si  Si26  1  0.354138  0.965024  0.538685  1
  Si  Si27  1  0.852437  0.533952  0.962454  1
  Si  Si28  1  0.976831  0.879728  0.750810  1
  Si  Si29  1  0.476747  0.620188  0.749444  1
  Si  Si30  1  0.524150  0.381294  0.248744  1
  Si  Si31  1  0.022140  0.119290  0.249528  1
  Si  Si32  1  0.248347  0.396143  0.749165  1
  Si  Si33  1  0.748658  0.103683  0.751002  1
  Si  Si34  1  0.250162  0.895178  0.249632  1
  Si  Si35  1  0.752516  0.604471  0.248804  1
