# generated using pymatgen
data_Yb4Fe3IrO12
_symmetry_space_group_name_H-M   'P 1'
_cell_length_a   5.39741359
_cell_length_b   5.42272225
_cell_length_c   7.65413000
_cell_angle_alpha   89.60410426
_cell_angle_beta   89.78616260
_cell_angle_gamma   89.86924983
_symmetry_Int_Tables_number   1
_chemical_formula_structural   Yb4Fe3IrO12
_chemical_formula_sum   'Yb4 Fe3 Ir1 O12'
_cell_volume   224.01876340
_cell_formula_units_Z   1
loop_
 _symmetry_equiv_pos_site_id
 _symmetry_equiv_pos_as_xyz
  1  'x, y, z'
loop_
 _atom_site_type_symbol
 _atom_site_label
 _atom_site_symmetry_multiplicity
 _atom_site_fract_x
 _atom_site_fract_y
 _atom_site_fract_z
 _atom_site_occupancy
  Yb  Yb0  1  0.518939  0.559370  0.262806  1
  Yb  Yb1  1  0.993357  0.051413  0.264236  1
  Yb  Yb2  1  0.481061  0.440630  0.737194  1
  Yb  Yb3  1  0.006643  0.948587  0.735764  1
  Fe  Fe4  1  0.500000  0.000000  0.500000  1
  Fe  Fe5  1  0.000000  0.500000  0.500000  1
  Fe  Fe6  1  0.500000  0.000000  0.000000  1
  Ir  Ir7  1  0.000000  0.500000  0.000000  1
  O  O8  1  0.413056  0.977197  0.248841  1
  O  O9  1  0.104260  0.471050  0.241668  1
  O  O10  1  0.586944  0.022803  0.751159  1
  O  O11  1  0.895740  0.528950  0.758332  1
  O  O12  1  0.810423  0.796565  0.055871  1
  O  O13  1  0.714771  0.296581  0.456315  1
  O  O14  1  0.201957  0.212727  0.544178  1
  O  O15  1  0.294014  0.694704  0.946084  1
  O  O16  1  0.189577  0.203435  0.944129  1
  O  O17  1  0.285229  0.703419  0.543685  1
  O  O18  1  0.798043  0.787273  0.455822  1
  O  O19  1  0.705986  0.305296  0.053916  1
