# generated using pymatgen
data_Dy4Er8Co5Hg
_symmetry_space_group_name_H-M   'P 1'
_cell_length_a   8.19482877
_cell_length_b   8.19482955
_cell_length_c   8.19482908
_cell_angle_alpha   107.58490010
_cell_angle_beta   110.00252992
_cell_angle_gamma   110.84369494
_symmetry_Int_Tables_number   1
_chemical_formula_structural   Dy4Er8Co5Hg
_chemical_formula_sum   'Dy4 Er8 Co5 Hg1'
_cell_volume   423.27419702
_cell_formula_units_Z   1
loop_
 _symmetry_equiv_pos_site_id
 _symmetry_equiv_pos_as_xyz
  1  'x, y, z'
loop_
 _atom_site_type_symbol
 _atom_site_label
 _atom_site_symmetry_multiplicity
 _atom_site_fract_x
 _atom_site_fract_y
 _atom_site_fract_z
 _atom_site_occupancy
  Dy  Dy0  1  0.193393  0.212106  0.405500  1
  Dy  Dy1  1  0.806607  0.787894  0.594500  1
  Dy  Dy2  1  0.193393  0.787894  0.981286  1
  Dy  Dy3  1  0.806607  0.212106  0.018714  1
  Er  Er4  1  0.473240  0.290088  0.183152  1
  Er  Er5  1  0.106936  0.290088  0.816848  1
  Er  Er6  1  0.893064  0.709912  0.183152  1
  Er  Er7  1  0.526760  0.709912  0.816848  1
  Er  Er8  1  0.302812  0.619697  0.316885  1
  Er  Er9  1  0.302812  0.985927  0.683115  1
  Er  Er10  1  0.697188  0.380303  0.683115  1
  Er  Er11  1  0.697188  0.014073  0.316885  1
  Co  Co12  1  0.500000  0.614209  0.114209  1
  Co  Co13  1  0.500000  0.385791  0.885791  1
  Co  Co14  1  0.377754  0.000000  0.377754  1
  Co  Co15  1  0.622246  0.000000  0.622246  1
  Co  Co16  1  0.000000  0.000000  0.000000  1
  Hg  Hg17  1  0.000000  0.500000  0.500000  1
