# generated using pymatgen
data_KRb3(InI4)4
_symmetry_space_group_name_H-M   'P 1'
_cell_length_a   8.53905117
_cell_length_b   8.97354053
_cell_length_c   17.28329584
_cell_angle_alpha   85.34633889
_cell_angle_beta   90.14081181
_cell_angle_gamma   90.08376106
_symmetry_Int_Tables_number   1
_chemical_formula_structural   KRb3(InI4)4
_chemical_formula_sum   'K1 Rb3 In4 I16'
_cell_volume   1319.97059989
_cell_formula_units_Z   1
loop_
 _symmetry_equiv_pos_site_id
 _symmetry_equiv_pos_as_xyz
  1  'x, y, z'
loop_
 _atom_site_type_symbol
 _atom_site_label
 _atom_site_symmetry_multiplicity
 _atom_site_fract_x
 _atom_site_fract_y
 _atom_site_fract_z
 _atom_site_occupancy
  K  K0  1  0.998691  0.255865  0.138469  1
  Rb  Rb1  1  0.502233  0.256971  0.639535  1
  Rb  Rb2  1  0.002065  0.742929  0.860656  1
  Rb  Rb3  1  0.497465  0.743089  0.360370  1
  In  In4  1  0.356687  0.244720  0.360807  1
  In  In5  1  0.858081  0.755649  0.139018  1
  In  In6  1  0.642821  0.755285  0.638978  1
  In  In7  1  0.142481  0.244438  0.861254  1
  I  I8  1  0.854848  0.134684  0.910714  1
  I  I9  1  0.355074  0.864876  0.589147  1
  I  I10  1  0.144109  0.869802  0.089607  1
  I  I11  1  0.644304  0.135443  0.410593  1
  I  I12  1  0.386299  0.415535  0.221154  1
  I  I13  1  0.890186  0.580597  0.277200  1
  I  I14  1  0.610318  0.583106  0.778035  1
  I  I15  1  0.110559  0.417174  0.722353  1
  I  I16  1  0.657518  0.989516  0.161001  1
  I  I17  1  0.151037  0.014782  0.337960  1
  I  I18  1  0.347701  0.014728  0.838840  1
  I  I19  1  0.847797  0.985797  0.661282  1
  I  I20  1  0.243386  0.425898  0.469715  1
  I  I21  1  0.745770  0.570930  0.031232  1
  I  I22  1  0.756776  0.574195  0.530191  1
  I  I23  1  0.253794  0.423992  0.971892  1
