# generated using pymatgen
data_ErHg4Se2Cl5
_symmetry_space_group_name_H-M   'P 1'
_cell_length_a   8.47207662
_cell_length_b   10.46553100
_cell_length_c   9.15796936
_cell_angle_alpha   90.00000000
_cell_angle_beta   113.03532747
_cell_angle_gamma   90.00000000
_symmetry_Int_Tables_number   1
_chemical_formula_structural   ErHg4Se2Cl5
_chemical_formula_sum   'Er2 Hg8 Se4 Cl10'
_cell_volume   747.24436701
_cell_formula_units_Z   2
loop_
 _symmetry_equiv_pos_site_id
 _symmetry_equiv_pos_as_xyz
  1  'x, y, z'
loop_
 _atom_site_type_symbol
 _atom_site_label
 _atom_site_symmetry_multiplicity
 _atom_site_fract_x
 _atom_site_fract_y
 _atom_site_fract_z
 _atom_site_occupancy
  Er  Er0  1  0.499882  0.430853  0.503643  1
  Er  Er1  1  0.500118  0.930853  0.496357  1
  Hg  Hg2  1  0.928063  0.180884  0.330934  1
  Hg  Hg3  1  0.071937  0.680884  0.669066  1
  Hg  Hg4  1  0.954294  0.668656  0.358691  1
  Hg  Hg5  1  0.045706  0.168656  0.641309  1
  Hg  Hg6  1  0.497022  0.181457  0.986217  1
  Hg  Hg7  1  0.502978  0.681457  0.013783  1
  Hg  Hg8  1  0.807352  0.432364  0.013035  1
  Hg  Hg9  1  0.192648  0.932364  0.986965  1
  Se  Se10  1  0.807621  0.189356  0.020652  1
  Se  Se11  1  0.192379  0.689356  0.979348  1
  Se  Se12  1  0.186608  0.173527  0.951322  1
  Se  Se13  1  0.813392  0.673527  0.048678  1
  Cl  Cl14  1  0.825865  0.925446  0.678876  1
  Cl  Cl15  1  0.174135  0.425446  0.321124  1
  Cl  Cl16  1  0.828436  0.438188  0.696899  1
  Cl  Cl17  1  0.171564  0.938188  0.303101  1
  Cl  Cl18  1  0.416733  0.456167  0.753253  1
  Cl  Cl19  1  0.583267  0.956167  0.246747  1
  Cl  Cl20  1  0.592375  0.396641  0.265913  1
  Cl  Cl21  1  0.407625  0.896641  0.734087  1
  Cl  Cl22  1  0.497560  0.180061  0.551689  1
  Cl  Cl23  1  0.502440  0.680061  0.448311  1
