# generated using pymatgen
data_Ho2Tm10Co4BiOs
_symmetry_space_group_name_H-M   'P 1'
_cell_length_a   8.23771719
_cell_length_b   8.23771882
_cell_length_c   8.23215287
_cell_angle_alpha   110.53486903
_cell_angle_beta   111.50683557
_cell_angle_gamma   106.44492406
_symmetry_Int_Tables_number   1
_chemical_formula_structural   Ho2Tm10Co4BiOs
_chemical_formula_sum   'Ho2 Tm10 Co4 Bi1 Os1'
_cell_volume   428.94844159
_cell_formula_units_Z   1
loop_
 _symmetry_equiv_pos_site_id
 _symmetry_equiv_pos_as_xyz
  1  'x, y, z'
loop_
 _atom_site_type_symbol
 _atom_site_label
 _atom_site_symmetry_multiplicity
 _atom_site_fract_x
 _atom_site_fract_y
 _atom_site_fract_z
 _atom_site_occupancy
  Ho  Ho0  1  0.279299  0.180977  0.460276  1
  Ho  Ho1  1  0.720701  0.819023  0.539724  1
  Tm  Tm2  1  0.278680  0.818693  0.097378  1
  Tm  Tm3  1  0.721320  0.181307  0.902622  1
  Tm  Tm4  1  0.620653  0.311017  0.308619  1
  Tm  Tm5  1  0.379347  0.688983  0.691381  1
  Tm  Tm6  1  0.002409  0.312042  0.691397  1
  Tm  Tm7  1  0.997591  0.687958  0.308603  1
  Tm  Tm8  1  0.215633  0.413465  0.196721  1
  Tm  Tm9  1  0.784367  0.586535  0.803279  1
  Tm  Tm10  1  0.216757  0.018915  0.803282  1
  Tm  Tm11  1  0.783243  0.981085  0.196718  1
  Co  Co12  1  0.999925  0.375402  0.375326  1
  Co  Co13  1  0.000075  0.624598  0.624674  1
  Co  Co14  1  0.388597  0.888600  0.500004  1
  Co  Co15  1  0.611403  0.111400  0.499996  1
  Bi  Bi16  1  0.500000  0.500000  0.000000  1
  Os  Os17  1  0.000000  0.000000  0.000000  1
