# generated using pymatgen
data_Nd6BCCl6
_symmetry_space_group_name_H-M   'P 1'
_cell_length_a   9.69799073
_cell_length_b   9.69799101
_cell_length_c   9.78534700
_cell_angle_alpha   109.47845066
_cell_angle_beta   109.47844857
_cell_angle_gamma   109.09212902
_symmetry_Int_Tables_number   1
_chemical_formula_structural   Nd6BCCl6
_chemical_formula_sum   'Nd12 B2 C2 Cl12'
_cell_volume   711.62634568
_cell_formula_units_Z   2
loop_
 _symmetry_equiv_pos_site_id
 _symmetry_equiv_pos_as_xyz
  1  'x, y, z'
loop_
 _atom_site_type_symbol
 _atom_site_label
 _atom_site_symmetry_multiplicity
 _atom_site_fract_x
 _atom_site_fract_y
 _atom_site_fract_z
 _atom_site_occupancy
  Nd  Nd0  1  0.471086  0.480940  0.237842  1
  Nd  Nd1  1  0.743098  0.233243  0.262158  1
  Nd  Nd2  1  0.743879  0.012377  0.480821  1
  Nd  Nd3  1  0.236942  0.468447  0.480821  1
  Nd  Nd4  1  0.266757  0.756902  0.237842  1
  Nd  Nd5  1  0.031553  0.263058  0.019179  1
  Nd  Nd6  1  0.019060  0.028914  0.262158  1
  Nd  Nd7  1  0.487623  0.756121  0.019179  1
  Nd  Nd8  1  0.482488  0.232488  0.464976  1
  Nd  Nd9  1  0.012366  0.487634  0.750000  1
  Nd  Nd10  1  0.267512  0.017512  0.035024  1
  Nd  Nd11  1  0.237634  0.262366  0.750000  1
  B  B12  1  0.999554  0.249554  0.499108  1
  B  B13  1  0.250446  0.500446  0.000892  1
  C  C14  1  0.249534  0.250466  0.250000  1
  C  C15  1  0.500466  0.999534  0.250000  1
  Cl  Cl16  1  0.252034  0.757972  0.746702  1
  Cl  Cl17  1  0.511270  0.505332  0.753298  1
  Cl  Cl18  1  0.988772  0.746062  0.994420  1
  Cl  Cl19  1  0.742028  0.247966  0.753298  1
  Cl  Cl20  1  0.994668  0.988730  0.746702  1
  Cl  Cl21  1  0.251641  0.994352  0.505580  1
  Cl  Cl22  1  0.753938  0.511228  0.505580  1
  Cl  Cl23  1  0.505648  0.248359  0.994420  1
  Cl  Cl24  1  0.755143  0.744857  0.250000  1
  Cl  Cl25  1  0.744753  0.994753  0.989505  1
  Cl  Cl26  1  0.994857  0.505143  0.250000  1
  Cl  Cl27  1  0.505247  0.755247  0.510495  1
