# generated using pymatgen
data_Hf2ScSn3Ir2Rh
_symmetry_space_group_name_H-M   'P 1'
_cell_length_a   7.53581014
_cell_length_b   7.53581021
_cell_length_c   3.51175200
_cell_angle_alpha   90.00000000
_cell_angle_beta   90.00000000
_cell_angle_gamma   120.60563154
_symmetry_Int_Tables_number   1
_chemical_formula_structural   Hf2ScSn3Ir2Rh
_chemical_formula_sum   'Hf2 Sc1 Sn3 Ir2 Rh1'
_cell_volume   171.64513553
_cell_formula_units_Z   1
loop_
 _symmetry_equiv_pos_site_id
 _symmetry_equiv_pos_as_xyz
  1  'x, y, z'
loop_
 _atom_site_type_symbol
 _atom_site_label
 _atom_site_symmetry_multiplicity
 _atom_site_fract_x
 _atom_site_fract_y
 _atom_site_fract_z
 _atom_site_occupancy
  Hf  Hf0  1  0.604547  0.999601  0.500000  1
  Hf  Hf1  1  0.999601  0.604547  0.500000  1
  Sc  Sc2  1  0.394032  0.394032  0.500000  1
  Sn  Sn3  1  0.722141  0.722141  0.000000  1
  Sn  Sn4  1  0.271116  0.006399  0.000000  1
  Sn  Sn5  1  0.006399  0.271116  0.000000  1
  Ir  Ir6  1  0.676620  0.333198  0.000000  1
  Ir  Ir7  1  0.333198  0.676620  0.000000  1
  Rh  Rh8  1  0.992346  0.992346  0.500000  1
