# generated using pymatgen
data_Cs2NaTmBi2
_symmetry_space_group_name_H-M   'P 1'
_cell_length_a   10.51965047
_cell_length_b   10.51965104
_cell_length_c   10.51965002
_cell_angle_alpha   136.59574514
_cell_angle_beta   62.67639528
_cell_angle_gamma   137.09571986
_symmetry_Int_Tables_number   1
_chemical_formula_structural   Cs2NaTmBi2
_chemical_formula_sum   'Cs4 Na2 Tm2 Bi4'
_cell_volume   537.86977921
_cell_formula_units_Z   2
loop_
 _symmetry_equiv_pos_site_id
 _symmetry_equiv_pos_as_xyz
  1  'x, y, z'
loop_
 _atom_site_type_symbol
 _atom_site_label
 _atom_site_symmetry_multiplicity
 _atom_site_fract_x
 _atom_site_fract_y
 _atom_site_fract_z
 _atom_site_occupancy
  Cs  Cs0  1  0.324806  0.724722  0.049527  1
  Cs  Cs1  1  0.175194  0.224722  0.399917  1
  Cs  Cs2  1  0.824806  0.775279  0.600083  1
  Cs  Cs3  1  0.675194  0.275279  0.950473  1
  Na  Na4  1  0.249999  0.249999  0.000000  1
  Na  Na5  1  0.750000  0.750000  0.000000  1
  Tm  Tm6  1  0.749999  0.249999  0.500000  1
  Tm  Tm7  1  0.249999  0.750000  0.500000  1
  Bi  Bi8  1  0.906125  0.276021  0.182146  1
  Bi  Bi9  1  0.593875  0.776022  0.369897  1
  Bi  Bi10  1  0.406125  0.223979  0.630104  1
  Bi  Bi11  1  0.093875  0.723978  0.817853  1
