# generated using pymatgen
data_TaNb5Re2(Si3Ru2)2
_symmetry_space_group_name_H-M   'P 1'
_cell_length_a   7.47772969
_cell_length_b   7.49990474
_cell_length_c   7.47772884
_cell_angle_alpha   127.13528496
_cell_angle_beta   122.68834263
_cell_angle_gamma   81.65530499
_symmetry_Int_Tables_number   1
_chemical_formula_structural   TaNb5Re2(Si3Ru2)2
_chemical_formula_sum   'Ta1 Nb5 Re2 Si6 Ru4'
_cell_volume   270.95373092
_cell_formula_units_Z   1
loop_
 _symmetry_equiv_pos_site_id
 _symmetry_equiv_pos_as_xyz
  1  'x, y, z'
loop_
 _atom_site_type_symbol
 _atom_site_label
 _atom_site_symmetry_multiplicity
 _atom_site_fract_x
 _atom_site_fract_y
 _atom_site_fract_z
 _atom_site_occupancy
  Ta  Ta0  1  0.553025  0.095802  0.042778  1
  Nb  Nb1  1  0.438244  0.468716  0.530473  1
  Nb  Nb2  1  0.966938  0.497646  0.030708  1
  Nb  Nb3  1  0.043494  0.073177  0.529683  1
  Nb  Nb4  1  0.752843  0.919546  0.666703  1
  Nb  Nb5  1  0.248323  0.919810  0.171487  1
  Re  Re6  1  0.524038  0.248895  0.775945  1
  Re  Re7  1  0.972950  0.248895  0.224857  1
  Si  Si8  1  0.782104  0.560770  0.278665  1
  Si  Si9  1  0.224736  0.478728  0.753993  1
  Si  Si10  1  0.338314  0.822363  0.498192  1
  Si  Si11  1  0.667245  0.157241  0.489231  1
  Si  Si12  1  0.824171  0.822363  0.984050  1
  Si  Si13  1  0.168011  0.157241  0.989997  1
  Ru  Ru14  1  0.159195  0.745659  0.654555  1
  Ru  Ru15  1  0.840039  0.489842  0.584615  1
  Ru  Ru16  1  0.591105  0.745659  0.086465  1
  Ru  Ru17  1  0.405229  0.489842  0.149805  1
