# generated using pymatgen
data_Ho4Er4Ti9Si16Mo3
_symmetry_space_group_name_H-M   'P 1'
_cell_length_a   6.98442418
_cell_length_b   6.98437431
_cell_length_c   12.83543009
_cell_angle_alpha   90.01082199
_cell_angle_beta   89.98212280
_cell_angle_gamma   89.97960799
_symmetry_Int_Tables_number   1
_chemical_formula_structural   Ho4Er4Ti9Si16Mo3
_chemical_formula_sum   'Ho4 Er4 Ti9 Si16 Mo3'
_cell_volume   626.13572285
_cell_formula_units_Z   1
loop_
 _symmetry_equiv_pos_site_id
 _symmetry_equiv_pos_as_xyz
  1  'x, y, z'
loop_
 _atom_site_type_symbol
 _atom_site_label
 _atom_site_symmetry_multiplicity
 _atom_site_fract_x
 _atom_site_fract_y
 _atom_site_fract_z
 _atom_site_occupancy
  Ho  Ho0  1  0.158404  0.500426  0.783349  1
  Ho  Ho1  1  0.658942  0.999471  0.966847  1
  Ho  Ho2  1  0.002199  0.340561  0.533503  1
  Ho  Ho3  1  0.999422  0.658962  0.033188  1
  Er  Er4  1  0.340755  0.001956  0.466454  1
  Er  Er5  1  0.498902  0.842414  0.717818  1
  Er  Er6  1  0.500119  0.158277  0.216613  1
  Er  Er7  1  0.842349  0.498908  0.282128  1
  Ti  Ti8  1  0.672799  0.672942  0.499966  1
  Ti  Ti9  1  0.152088  0.008403  0.875908  1
  Ti  Ti10  1  0.491630  0.652140  0.125148  1
  Ti  Ti11  1  0.507463  0.347137  0.626792  1
  Ti  Ti12  1  0.652197  0.491576  0.874885  1
  Ti  Ti13  1  0.347260  0.507473  0.373133  1
  Ti  Ti14  1  0.848787  0.992074  0.374709  1
  Ti  Ti15  1  0.008416  0.152073  0.124120  1
  Ti  Ti16  1  0.992050  0.848805  0.625223  1
  Si  Si17  1  0.202495  0.130274  0.683964  1
  Si  Si18  1  0.369134  0.701513  0.934045  1
  Si  Si19  1  0.631032  0.297284  0.433957  1
  Si  Si20  1  0.701370  0.368957  0.066063  1
  Si  Si21  1  0.297483  0.631421  0.565908  1
  Si  Si22  1  0.797995  0.869212  0.184549  1
  Si  Si23  1  0.130696  0.202277  0.316027  1
  Si  Si24  1  0.869054  0.798148  0.815449  1
  Si  Si25  1  0.291807  0.952831  0.065169  1
  Si  Si26  1  0.546611  0.791216  0.315094  1
  Si  Si27  1  0.452539  0.208426  0.815180  1
  Si  Si28  1  0.790852  0.546808  0.684941  1
  Si  Si29  1  0.208572  0.452352  0.184830  1
  Si  Si30  1  0.707696  0.048007  0.565823  1
  Si  Si31  1  0.952641  0.291644  0.934938  1
  Si  Si32  1  0.048191  0.708047  0.434119  1
  Mo  Mo33  1  0.327168  0.327074  0.000104  1
  Mo  Mo34  1  0.173746  0.827294  0.249463  1
  Mo  Mo35  1  0.827137  0.173615  0.750593  1
