# generated using pymatgen
data_LiTi2Pt12W
_symmetry_space_group_name_H-M   'P 1'
_cell_length_a   5.58195900
_cell_length_b   5.58195899
_cell_length_c   9.05658000
_cell_angle_alpha   90.00000000
_cell_angle_beta   90.00000000
_cell_angle_gamma   120.00000597
_symmetry_Int_Tables_number   1
_chemical_formula_structural   LiTi2Pt12W
_chemical_formula_sum   'Li1 Ti2 Pt12 W1'
_cell_volume   244.38138244
_cell_formula_units_Z   1
loop_
 _symmetry_equiv_pos_site_id
 _symmetry_equiv_pos_as_xyz
  1  'x, y, z'
loop_
 _atom_site_type_symbol
 _atom_site_label
 _atom_site_symmetry_multiplicity
 _atom_site_fract_x
 _atom_site_fract_y
 _atom_site_fract_z
 _atom_site_occupancy
  Li  Li0  1  0.333333  0.666667  0.249174  1
  Ti  Ti1  1  0.000000  0.000000  0.005520  1
  Ti  Ti2  1  0.666667  0.333333  0.754537  1
  Pt  Pt3  1  0.501135  0.498865  0.501688  1
  Pt  Pt4  1  0.501135  0.002270  0.501688  1
  Pt  Pt5  1  0.997730  0.498865  0.501688  1
  Pt  Pt6  1  0.501126  0.498874  0.998219  1
  Pt  Pt7  1  0.501126  0.002252  0.998219  1
  Pt  Pt8  1  0.997748  0.498874  0.998219  1
  Pt  Pt9  1  0.833112  0.666224  0.250257  1
  Pt  Pt10  1  0.333776  0.166888  0.250257  1
  Pt  Pt11  1  0.833112  0.166888  0.250257  1
  Pt  Pt12  1  0.165984  0.331968  0.749207  1
  Pt  Pt13  1  0.668032  0.834016  0.749207  1
  Pt  Pt14  1  0.165984  0.834016  0.749207  1
  W  W15  1  0.000000  0.000000  0.492656  1
