# generated using pymatgen
data_K12V3PO16
_symmetry_space_group_name_H-M   'P 1'
_cell_length_a   6.35602233
_cell_length_b   8.57691700
_cell_length_c   11.93203400
_cell_angle_alpha   90.00000000
_cell_angle_beta   88.83478940
_cell_angle_gamma   90.00000000
_symmetry_Int_Tables_number   1
_chemical_formula_structural   K12V3PO16
_chemical_formula_sum   'K12 V3 P1 O16'
_cell_volume   650.34123142
_cell_formula_units_Z   1
loop_
 _symmetry_equiv_pos_site_id
 _symmetry_equiv_pos_as_xyz
  1  'x, y, z'
loop_
 _atom_site_type_symbol
 _atom_site_label
 _atom_site_symmetry_multiplicity
 _atom_site_fract_x
 _atom_site_fract_y
 _atom_site_fract_z
 _atom_site_occupancy
  K  K0  1  0.369396  0.250000  0.562328  1
  K  K1  1  0.190326  0.509829  0.355080  1
  K  K2  1  0.137776  0.250000  0.075215  1
  K  K3  1  0.697513  0.017750  0.154411  1
  K  K4  1  0.851201  0.750000  0.930894  1
  K  K5  1  0.800100  0.016410  0.640564  1
  K  K6  1  0.800100  0.483590  0.640564  1
  K  K7  1  0.297777  0.986898  0.850618  1
  K  K8  1  0.643071  0.750000  0.427990  1
  K  K9  1  0.697513  0.482250  0.154411  1
  K  K10  1  0.190326  0.990171  0.355080  1
  K  K11  1  0.297777  0.513102  0.850618  1
  V  V12  1  0.723171  0.250000  0.885607  1
  V  V13  1  0.221073  0.750000  0.611814  1
  V  V14  1  0.272544  0.750000  0.117650  1
  P  P15  1  0.787967  0.250000  0.385026  1
  O  O16  1  0.646613  0.100035  0.391073  1
  O  O17  1  0.114500  0.916973  0.120686  1
  O  O18  1  0.379095  0.583030  0.605996  1
  O  O19  1  0.881551  0.416592  0.887178  1
  O  O20  1  0.920994  0.250000  0.272095  1
  O  O21  1  0.433254  0.750000  0.995408  1
  O  O22  1  0.551804  0.250000  0.004038  1
  O  O23  1  0.945884  0.250000  0.485713  1
  O  O24  1  0.881551  0.083408  0.887178  1
  O  O25  1  0.114500  0.583027  0.120686  1
  O  O26  1  0.379095  0.916970  0.605996  1
  O  O27  1  0.073310  0.750000  0.737506  1
  O  O28  1  0.646613  0.399965  0.391073  1
  O  O29  1  0.047170  0.750000  0.498242  1
  O  O30  1  0.431954  0.750000  0.236891  1
  O  O31  1  0.574483  0.250000  0.762373  1
