# generated using pymatgen
data_Dy7YTc3B24Os
_symmetry_space_group_name_H-M   'P 1'
_cell_length_a   3.68231500
_cell_length_b   9.16633674
_cell_length_c   11.55403604
_cell_angle_alpha   89.96051444
_cell_angle_beta   90.00000000
_cell_angle_gamma   90.00000000
_symmetry_Int_Tables_number   1
_chemical_formula_structural   Dy7YTc3B24Os
_chemical_formula_sum   'Dy7 Y1 Tc3 B24 Os1'
_cell_volume   389.98720561
_cell_formula_units_Z   1
loop_
 _symmetry_equiv_pos_site_id
 _symmetry_equiv_pos_as_xyz
  1  'x, y, z'
loop_
 _atom_site_type_symbol
 _atom_site_label
 _atom_site_symmetry_multiplicity
 _atom_site_fract_x
 _atom_site_fract_y
 _atom_site_fract_z
 _atom_site_occupancy
  Dy  Dy0  1  0.000000  0.675380  0.584332  1
  Dy  Dy1  1  0.000000  0.823082  0.087204  1
  Dy  Dy2  1  0.000000  0.177802  0.914599  1
  Dy  Dy3  1  0.000000  0.942347  0.369993  1
  Dy  Dy4  1  0.000000  0.058444  0.630110  1
  Dy  Dy5  1  0.000000  0.442659  0.130295  1
  Dy  Dy6  1  0.000000  0.557180  0.869327  1
  Y  Y7  1  0.000000  0.323675  0.413908  1
  Tc  Tc8  1  0.000000  0.638400  0.320661  1
  Tc  Tc9  1  0.000000  0.361777  0.679921  1
  Tc  Tc10  1  0.000000  0.137727  0.178134  1
  B  B11  1  0.500000  0.553257  0.432892  1
  B  B12  1  0.500000  0.447029  0.566998  1
  B  B13  1  0.500000  0.053058  0.066972  1
  B  B14  1  0.500000  0.946314  0.932847  1
  B  B15  1  0.500000  0.748218  0.418566  1
  B  B16  1  0.500000  0.251444  0.581601  1
  B  B17  1  0.500000  0.248707  0.081436  1
  B  B18  1  0.500000  0.751682  0.918242  1
  B  B19  1  0.500000  0.791288  0.265563  1
  B  B20  1  0.500000  0.208953  0.734974  1
  B  B21  1  0.500000  0.291164  0.234476  1
  B  B22  1  0.500000  0.709546  0.765406  1
  B  B23  1  0.500000  0.631082  0.185757  1
  B  B24  1  0.500000  0.368808  0.814689  1
  B  B25  1  0.500000  0.130458  0.313836  1
  B  B26  1  0.500000  0.868934  0.685980  1
  B  B27  1  0.500000  0.981992  0.211648  1
  B  B28  1  0.500000  0.016808  0.788339  1
  B  B29  1  0.500000  0.482487  0.288070  1
  B  B30  1  0.500000  0.517462  0.711656  1
  B  B31  1  0.500000  0.602084  0.028243  1
  B  B32  1  0.500000  0.398883  0.971633  1
  B  B33  1  0.500000  0.101794  0.471701  1
  B  B34  1  0.500000  0.898103  0.528742  1
  Os  Os35  1  0.000000  0.861971  0.821252  1
