# generated using pymatgen
data_Tb13Sm7Pb16
_symmetry_space_group_name_H-M   'P 1'
_cell_length_a   8.26621909
_cell_length_b   8.36629989
_cell_length_c   15.78227600
_cell_angle_alpha   90.01973709
_cell_angle_beta   90.10196665
_cell_angle_gamma   89.94835540
_symmetry_Int_Tables_number   1
_chemical_formula_structural   Tb13Sm7Pb16
_chemical_formula_sum   'Tb13 Sm7 Pb16'
_cell_volume   1091.46316585
_cell_formula_units_Z   1
loop_
 _symmetry_equiv_pos_site_id
 _symmetry_equiv_pos_as_xyz
  1  'x, y, z'
loop_
 _atom_site_type_symbol
 _atom_site_label
 _atom_site_symmetry_multiplicity
 _atom_site_fract_x
 _atom_site_fract_y
 _atom_site_fract_z
 _atom_site_occupancy
  Tb  Tb0  1  0.624732  0.159022  0.620595  1
  Tb  Tb1  1  0.125304  0.341080  0.879096  1
  Tb  Tb2  1  0.375102  0.841106  0.120807  1
  Tb  Tb3  1  0.875623  0.659133  0.379569  1
  Tb  Tb4  1  0.376032  0.840972  0.379556  1
  Tb  Tb5  1  0.874663  0.659069  0.120685  1
  Tb  Tb6  1  0.625030  0.158603  0.878886  1
  Tb  Tb7  1  0.124607  0.341001  0.620557  1
  Tb  Tb8  1  0.466289  0.676262  0.600533  1
  Tb  Tb9  1  0.791661  0.496097  0.749632  1
  Tb  Tb10  1  0.291862  0.004016  0.749705  1
  Tb  Tb11  1  0.208243  0.504076  0.250309  1
  Tb  Tb12  1  0.708446  0.995716  0.250055  1
  Sm  Sm13  1  0.968398  0.822494  0.899836  1
  Sm  Sm14  1  0.531616  0.322523  0.099632  1
  Sm  Sm15  1  0.032141  0.176990  0.400318  1
  Sm  Sm16  1  0.532109  0.323116  0.400468  1
  Sm  Sm17  1  0.031324  0.177166  0.099630  1
  Sm  Sm18  1  0.468812  0.677224  0.900420  1
  Sm  Sm19  1  0.968103  0.822441  0.599702  1
  Pb  Pb20  1  0.716057  0.965126  0.456662  1
  Pb  Pb21  1  0.215435  0.535929  0.042961  1
  Pb  Pb22  1  0.284580  0.035825  0.956962  1
  Pb  Pb23  1  0.782102  0.466383  0.543377  1
  Pb  Pb24  1  0.285030  0.034351  0.543222  1
  Pb  Pb25  1  0.784758  0.463686  0.956999  1
  Pb  Pb26  1  0.715451  0.964357  0.043006  1
  Pb  Pb27  1  0.216910  0.536819  0.458035  1
  Pb  Pb28  1  0.428220  0.373338  0.749904  1
  Pb  Pb29  1  0.928183  0.127165  0.749871  1
  Pb  Pb30  1  0.572065  0.627377  0.250127  1
  Pb  Pb31  1  0.071461  0.873031  0.250081  1
  Pb  Pb32  1  0.655837  0.848609  0.748970  1
  Pb  Pb33  1  0.157896  0.650374  0.749700  1
  Pb  Pb34  1  0.343126  0.150272  0.250084  1
  Pb  Pb35  1  0.842790  0.349247  0.250048  1
