# generated using pymatgen
data_YbPrNpO6
_symmetry_space_group_name_H-M   'P 1'
_cell_length_a   5.57402500
_cell_length_b   7.87801652
_cell_length_c   11.83788700
_cell_angle_alpha   74.10913681
_cell_angle_beta   90.00000000
_cell_angle_gamma   90.00000000
_symmetry_Int_Tables_number   1
_chemical_formula_structural   YbPrNpO6
_chemical_formula_sum   'Yb4 Pr4 Np4 O24'
_cell_volume   499.96313449
_cell_formula_units_Z   4
loop_
 _symmetry_equiv_pos_site_id
 _symmetry_equiv_pos_as_xyz
  1  'x, y, z'
loop_
 _atom_site_type_symbol
 _atom_site_label
 _atom_site_symmetry_multiplicity
 _atom_site_fract_x
 _atom_site_fract_y
 _atom_site_fract_z
 _atom_site_occupancy
  Yb  Yb0  1  0.185987  0.205537  0.419554  1
  Yb  Yb1  1  0.185987  0.794463  0.080446  1
  Yb  Yb2  1  0.814013  0.794463  0.580446  1
  Yb  Yb3  1  0.814013  0.205537  0.919554  1
  Pr  Pr4  1  0.688402  0.500000  0.250000  1
  Pr  Pr5  1  0.311598  0.500000  0.750000  1
  Pr  Pr6  1  0.746709  0.000000  0.250000  1
  Pr  Pr7  1  0.253291  0.000000  0.750000  1
  Np  Np8  1  0.252725  0.277234  0.111272  1
  Np  Np9  1  0.252725  0.722766  0.388728  1
  Np  Np10  1  0.747275  0.722766  0.888728  1
  Np  Np11  1  0.747275  0.277234  0.611272  1
  O  O12  1  0.444334  0.209283  0.267581  1
  O  O13  1  0.444334  0.790717  0.232419  1
  O  O14  1  0.555666  0.790717  0.732419  1
  O  O15  1  0.555666  0.209283  0.767581  1
  O  O16  1  0.059134  0.063194  0.101455  1
  O  O17  1  0.059134  0.936806  0.398545  1
  O  O18  1  0.940866  0.936806  0.898545  1
  O  O19  1  0.940866  0.063194  0.601455  1
  O  O20  1  0.973078  0.284220  0.228986  1
  O  O21  1  0.973078  0.715780  0.271014  1
  O  O22  1  0.026922  0.715780  0.771014  1
  O  O23  1  0.026922  0.284220  0.728986  1
  O  O24  1  0.868465  0.371725  0.447413  1
  O  O25  1  0.868465  0.628275  0.052587  1
  O  O26  1  0.131535  0.628275  0.552587  1
  O  O27  1  0.131535  0.371725  0.947413  1
  O  O28  1  0.627912  0.514362  0.608615  1
  O  O29  1  0.627912  0.485638  0.891385  1
  O  O30  1  0.372088  0.485638  0.391385  1
  O  O31  1  0.372088  0.514362  0.108615  1
  O  O32  1  0.460949  0.154401  0.565522  1
  O  O33  1  0.460949  0.845599  0.934478  1
  O  O34  1  0.539051  0.845599  0.434478  1
  O  O35  1  0.539051  0.154401  0.065522  1
