# generated using pymatgen
data_MnCdSnO4
_symmetry_space_group_name_H-M   'P 1'
_cell_length_a   6.43890823
_cell_length_b   6.52720596
_cell_length_c   6.51629655
_cell_angle_alpha   120.05818832
_cell_angle_beta   119.60867755
_cell_angle_gamma   90.00083946
_symmetry_Int_Tables_number   1
_chemical_formula_structural   MnCdSnO4
_chemical_formula_sum   'Mn2 Cd2 Sn2 O8'
_cell_volume   194.62015847
_cell_formula_units_Z   2
loop_
 _symmetry_equiv_pos_site_id
 _symmetry_equiv_pos_as_xyz
  1  'x, y, z'
loop_
 _atom_site_type_symbol
 _atom_site_label
 _atom_site_symmetry_multiplicity
 _atom_site_fract_x
 _atom_site_fract_y
 _atom_site_fract_z
 _atom_site_occupancy
  Mn  Mn0  1  0.500308  0.499990  0.000107  1
  Mn  Mn1  1  0.999828  0.500089  0.000146  1
  Cd  Cd2  1  0.359040  0.109082  0.218105  1
  Cd  Cd3  1  0.640910  0.890884  0.781812  1
  Sn  Sn4  1  0.999989  0.999987  0.499982  1
  Sn  Sn5  1  0.999983  0.499998  0.499973  1
  O  O6  1  0.785650  0.253741  0.507524  1
  O  O7  1  0.221859  0.253747  0.507524  1
  O  O8  1  0.778128  0.746248  0.492440  1
  O  O9  1  0.214317  0.746246  0.492433  1
  O  O10  1  0.222546  0.248532  0.945130  1
  O  O11  1  0.222556  0.696582  0.945083  1
  O  O12  1  0.777432  0.751540  0.054854  1
  O  O13  1  0.777454  0.303332  0.054886  1
