# generated using pymatgen
data_NdY4Hf3(Ni4P3)4
_symmetry_space_group_name_H-M   'P 1'
_cell_length_a   12.36560300
_cell_length_b   12.36560210
_cell_length_c   3.81391200
_cell_angle_alpha   90.00000000
_cell_angle_beta   90.00000000
_cell_angle_gamma   120.00000509
_symmetry_Int_Tables_number   1
_chemical_formula_structural   NdY4Hf3(Ni4P3)4
_chemical_formula_sum   'Nd1 Y4 Hf3 Ni16 P12'
_cell_volume   505.04705665
_cell_formula_units_Z   1
loop_
 _symmetry_equiv_pos_site_id
 _symmetry_equiv_pos_as_xyz
  1  'x, y, z'
loop_
 _atom_site_type_symbol
 _atom_site_label
 _atom_site_symmetry_multiplicity
 _atom_site_fract_x
 _atom_site_fract_y
 _atom_site_fract_z
 _atom_site_occupancy
  Nd  Nd0  1  0.333333  0.666667  0.000000  1
  Y  Y1  1  0.184811  0.185022  0.500000  1
  Y  Y2  1  0.814978  0.999789  0.500000  1
  Y  Y3  1  0.000211  0.815189  0.500000  1
  Y  Y4  1  0.666667  0.333333  0.000000  1
  Hf  Hf5  1  0.562830  0.561695  0.000000  1
  Hf  Hf6  1  0.438305  0.001135  0.000000  1
  Hf  Hf7  1  0.998865  0.437170  0.000000  1
  Ni  Ni8  1  0.726638  0.725027  0.500000  1
  Ni  Ni9  1  0.274973  0.001611  0.500000  1
  Ni  Ni10  1  0.998389  0.273362  0.500000  1
  Ni  Ni11  1  0.183368  0.375103  0.000000  1
  Ni  Ni12  1  0.624897  0.808265  0.000000  1
  Ni  Ni13  1  0.191735  0.816632  0.000000  1
  Ni  Ni14  1  0.808015  0.622957  0.000000  1
  Ni  Ni15  1  0.814941  0.191985  0.000000  1
  Ni  Ni16  1  0.377043  0.185059  0.000000  1
  Ni  Ni17  1  0.361923  0.482559  0.500000  1
  Ni  Ni18  1  0.517441  0.879365  0.500000  1
  Ni  Ni19  1  0.120635  0.638077  0.500000  1
  Ni  Ni20  1  0.875680  0.514152  0.500000  1
  Ni  Ni21  1  0.638473  0.124320  0.500000  1
  Ni  Ni22  1  0.485848  0.361527  0.500000  1
  Ni  Ni23  1  0.000000  0.000000  0.000000  1
  P  P24  1  0.822619  0.822163  0.000000  1
  P  P25  1  0.177837  0.000456  0.000000  1
  P  P26  1  0.999544  0.177381  0.000000  1
  P  P27  1  0.167354  0.472417  0.500000  1
  P  P28  1  0.527583  0.694937  0.500000  1
  P  P29  1  0.305063  0.832646  0.500000  1
  P  P30  1  0.694477  0.523896  0.500000  1
  P  P31  1  0.829419  0.305523  0.500000  1
  P  P32  1  0.476104  0.170581  0.500000  1
  P  P33  1  0.357136  0.357535  0.000000  1
  P  P34  1  0.642465  0.999601  0.000000  1
  P  P35  1  0.000399  0.642864  0.000000  1
