# generated using pymatgen
data_Ho3ErLuBiAu2
_symmetry_space_group_name_H-M   'P 1'
_cell_length_a   8.66056000
_cell_length_b   8.66055951
_cell_length_c   8.66039489
_cell_angle_alpha   124.24339722
_cell_angle_beta   124.24339992
_cell_angle_gamma   82.79625826
_symmetry_Int_Tables_number   1
_chemical_formula_structural   Ho3ErLuBiAu2
_chemical_formula_sum   'Ho6 Er2 Lu2 Bi2 Au4'
_cell_volume   426.15496121
_cell_formula_units_Z   2
loop_
 _symmetry_equiv_pos_site_id
 _symmetry_equiv_pos_as_xyz
  1  'x, y, z'
loop_
 _atom_site_type_symbol
 _atom_site_label
 _atom_site_symmetry_multiplicity
 _atom_site_fract_x
 _atom_site_fract_y
 _atom_site_fract_z
 _atom_site_occupancy
  Ho  Ho0  1  0.515074  0.704950  0.500000  1
  Ho  Ho1  1  0.204950  0.015074  0.500000  1
  Ho  Ho2  1  0.984917  0.484917  0.189801  1
  Ho  Ho3  1  0.295116  0.795116  0.810199  1
  Ho  Ho4  1  0.485090  0.295090  0.500000  1
  Ho  Ho5  1  0.795090  0.985090  0.500000  1
  Er  Er6  1  0.015141  0.515141  0.809757  1
  Er  Er7  1  0.705384  0.205384  0.190243  1
  Lu  Lu8  1  0.999914  0.999914  0.000000  1
  Lu  Lu9  1  0.499914  0.499914  0.000000  1
  Bi  Bi10  1  0.750003  0.750003  0.000000  1
  Bi  Bi11  1  0.250003  0.250003  0.000000  1
  Au  Au12  1  0.638584  0.138584  0.777387  1
  Au  Au13  1  0.361197  0.861197  0.222613  1
  Au  Au14  1  0.138279  0.361346  0.500000  1
  Au  Au15  1  0.861346  0.638279  0.500000  1
