# generated using pymatgen
data_K8HoNp3F20
_symmetry_space_group_name_H-M   'P 1'
_cell_length_a   6.70953034
_cell_length_b   7.62458500
_cell_length_c   11.11168667
_cell_angle_alpha   90.00000000
_cell_angle_beta   90.25390754
_cell_angle_gamma   90.00000000
_symmetry_Int_Tables_number   1
_chemical_formula_structural   K8HoNp3F20
_chemical_formula_sum   'K8 Ho1 Np3 F20'
_cell_volume   568.43924402
_cell_formula_units_Z   1
loop_
 _symmetry_equiv_pos_site_id
 _symmetry_equiv_pos_as_xyz
  1  'x, y, z'
loop_
 _atom_site_type_symbol
 _atom_site_label
 _atom_site_symmetry_multiplicity
 _atom_site_fract_x
 _atom_site_fract_y
 _atom_site_fract_z
 _atom_site_occupancy
  K  K0  1  0.526777  0.500823  0.831028  1
  K  K1  1  0.471776  0.505559  0.168329  1
  K  K2  1  0.027671  0.505272  0.675333  1
  K  K3  1  0.471776  0.994441  0.168329  1
  K  K4  1  0.972102  0.498985  0.324631  1
  K  K5  1  0.526777  0.999177  0.831028  1
  K  K6  1  0.972102  0.001015  0.324631  1
  K  K7  1  0.027671  0.994728  0.675333  1
  Ho  Ho8  1  0.939398  0.750000  0.001610  1
  Np  Np9  1  0.560207  0.750000  0.500869  1
  Np  Np10  1  0.438575  0.250000  0.498869  1
  Np  Np11  1  0.058992  0.250000  0.996207  1
  F  F12  1  0.840283  0.750000  0.811267  1
  F  F13  1  0.159011  0.250000  0.196479  1
  F  F14  1  0.330657  0.250000  0.699910  1
  F  F15  1  0.667795  0.750000  0.301580  1
  F  F16  1  0.360809  0.750000  0.671744  1
  F  F17  1  0.636894  0.250000  0.327162  1
  F  F18  1  0.855978  0.250000  0.829478  1
  F  F19  1  0.134373  0.750000  0.161296  1
  F  F20  1  0.906763  0.750000  0.510742  1
  F  F21  1  0.093729  0.250000  0.490392  1
  F  F22  1  0.404325  0.250000  0.990236  1
  F  F23  1  0.611918  0.750000  0.012152  1
  F  F24  1  0.641659  0.028773  0.589316  1
  F  F25  1  0.356873  0.970709  0.410445  1
  F  F26  1  0.145468  0.957974  0.921934  1
  F  F27  1  0.356873  0.529291  0.410445  1
  F  F28  1  0.857819  0.018050  0.078987  1
  F  F29  1  0.641659  0.471227  0.589316  1
  F  F30  1  0.857819  0.481950  0.078987  1
  F  F31  1  0.145468  0.542026  0.921934  1
