# generated using pymatgen
data_Cs12Cr3FeS12
_symmetry_space_group_name_H-M   'P 1'
_cell_length_a   10.50283479
_cell_length_b   10.50283477
_cell_length_c   13.34287324
_cell_angle_alpha   89.82755359
_cell_angle_beta   89.82755499
_cell_angle_gamma   139.41471913
_symmetry_Int_Tables_number   1
_chemical_formula_structural   Cs12Cr3FeS12
_chemical_formula_sum   'Cs12 Cr3 Fe1 S12'
_cell_volume   957.51637088
_cell_formula_units_Z   1
loop_
 _symmetry_equiv_pos_site_id
 _symmetry_equiv_pos_as_xyz
  1  'x, y, z'
loop_
 _atom_site_type_symbol
 _atom_site_label
 _atom_site_symmetry_multiplicity
 _atom_site_fract_x
 _atom_site_fract_y
 _atom_site_fract_z
 _atom_site_occupancy
  Cs  Cs0  1  0.877224  0.873449  0.680045  1
  Cs  Cs1  1  0.126551  0.122776  0.319955  1
  Cs  Cs2  1  0.623000  0.623010  0.182190  1
  Cs  Cs3  1  0.376990  0.377000  0.817810  1
  Cs  Cs4  1  0.168701  0.527118  0.127785  1
  Cs  Cs5  1  0.472882  0.831299  0.872215  1
  Cs  Cs6  1  0.969334  0.328548  0.629811  1
  Cs  Cs7  1  0.671452  0.030666  0.370189  1
  Cs  Cs8  1  0.829618  0.473351  0.872860  1
  Cs  Cs9  1  0.526649  0.170382  0.127140  1
  Cs  Cs10  1  0.019388  0.663254  0.373996  1
  Cs  Cs11  1  0.336746  0.980612  0.626004  1
  Cr  Cr12  1  0.923040  0.076960  0.000000  1
  Cr  Cr13  1  0.427521  0.572479  0.500000  1
  Cr  Cr14  1  0.076284  0.923716  0.000000  1
  Fe  Fe15  1  0.577214  0.422786  0.500000  1
  S  S16  1  0.292444  0.297439  0.565374  1
  S  S17  1  0.702561  0.707556  0.434626  1
  S  S18  1  0.203712  0.204519  0.064887  1
  S  S19  1  0.795481  0.796288  0.935113  1
  S  S20  1  0.716892  0.008888  0.113891  1
  S  S21  1  0.991112  0.283108  0.886109  1
  S  S22  1  0.487314  0.768167  0.612759  1
  S  S23  1  0.231833  0.512686  0.387241  1
  S  S24  1  0.280195  0.990182  0.885315  1
  S  S25  1  0.009818  0.719805  0.114685  1
  S  S26  1  0.504178  0.218135  0.383111  1
  S  S27  1  0.781865  0.495822  0.616889  1
