# generated using pymatgen
data_Hf5BeAs3
_symmetry_space_group_name_H-M   'P 1'
_cell_length_a   3.63909200
_cell_length_b   10.31186400
_cell_length_c   17.45641100
_cell_angle_alpha   90.00000000
_cell_angle_beta   90.00000000
_cell_angle_gamma   90.00000000
_symmetry_Int_Tables_number   1
_chemical_formula_structural   Hf5BeAs3
_chemical_formula_sum   'Hf20 Be4 As12'
_cell_volume   655.06616824
_cell_formula_units_Z   4
loop_
 _symmetry_equiv_pos_site_id
 _symmetry_equiv_pos_as_xyz
  1  'x, y, z'
loop_
 _atom_site_type_symbol
 _atom_site_label
 _atom_site_symmetry_multiplicity
 _atom_site_fract_x
 _atom_site_fract_y
 _atom_site_fract_z
 _atom_site_occupancy
  Hf  Hf0  1  0.250000  0.186857  0.369931  1
  Hf  Hf1  1  0.750000  0.813143  0.630069  1
  Hf  Hf2  1  0.750000  0.686857  0.130069  1
  Hf  Hf3  1  0.250000  0.313143  0.869931  1
  Hf  Hf4  1  0.250000  0.878259  0.477972  1
  Hf  Hf5  1  0.750000  0.121741  0.522028  1
  Hf  Hf6  1  0.750000  0.378259  0.022028  1
  Hf  Hf7  1  0.250000  0.621741  0.977972  1
  Hf  Hf8  1  0.250000  0.940434  0.079774  1
  Hf  Hf9  1  0.750000  0.059566  0.920226  1
  Hf  Hf10  1  0.750000  0.440434  0.420226  1
  Hf  Hf11  1  0.250000  0.559566  0.579774  1
  Hf  Hf12  1  0.250000  0.243554  0.168112  1
  Hf  Hf13  1  0.750000  0.756446  0.831888  1
  Hf  Hf14  1  0.750000  0.743554  0.331888  1
  Hf  Hf15  1  0.250000  0.256446  0.668112  1
  Hf  Hf16  1  0.250000  0.519124  0.273605  1
  Hf  Hf17  1  0.750000  0.480876  0.726395  1
  Hf  Hf18  1  0.750000  0.019124  0.226395  1
  Hf  Hf19  1  0.250000  0.980876  0.773605  1
  Be  Be20  1  0.250000  0.628118  0.414195  1
  Be  Be21  1  0.750000  0.371882  0.585805  1
  Be  Be22  1  0.750000  0.128118  0.085805  1
  Be  Be23  1  0.250000  0.871882  0.914195  1
  As  As24  1  0.250000  0.490920  0.117732  1
  As  As25  1  0.750000  0.509080  0.882268  1
  As  As26  1  0.750000  0.990920  0.382268  1
  As  As27  1  0.250000  0.009080  0.617732  1
  As  As28  1  0.250000  0.811345  0.221171  1
  As  As29  1  0.750000  0.188655  0.778829  1
  As  As30  1  0.750000  0.311345  0.278829  1
  As  As31  1  0.250000  0.688655  0.721171  1
  As  As32  1  0.250000  0.183467  0.010261  1
  As  As33  1  0.750000  0.816533  0.989739  1
  As  As34  1  0.750000  0.683467  0.489739  1
  As  As35  1  0.250000  0.316533  0.510261  1
