# generated using pymatgen
data_Ho2TmSc2(In2Pt)2
_symmetry_space_group_name_H-M   'P 1'
_cell_length_a   3.58856200
_cell_length_b   7.93505491
_cell_length_c   17.79942615
_cell_angle_alpha   90.12787889
_cell_angle_beta   90.00000000
_cell_angle_gamma   90.00000000
_symmetry_Int_Tables_number   1
_chemical_formula_structural   Ho2TmSc2(In2Pt)2
_chemical_formula_sum   'Ho4 Tm2 Sc4 In8 Pt4'
_cell_volume   506.84516707
_cell_formula_units_Z   2
loop_
 _symmetry_equiv_pos_site_id
 _symmetry_equiv_pos_as_xyz
  1  'x, y, z'
loop_
 _atom_site_type_symbol
 _atom_site_label
 _atom_site_symmetry_multiplicity
 _atom_site_fract_x
 _atom_site_fract_y
 _atom_site_fract_z
 _atom_site_occupancy
  Ho  Ho0  1  0.000000  0.242709  0.217597  1
  Ho  Ho1  1  0.000000  0.757291  0.782403  1
  Ho  Ho2  1  0.000000  0.000000  0.000000  1
  Ho  Ho3  1  0.000000  0.500000  0.500000  1
  Tm  Tm4  1  0.000000  0.256708  0.718097  1
  Tm  Tm5  1  0.000000  0.743292  0.281903  1
  Sc  Sc6  1  0.000000  0.117275  0.414052  1
  Sc  Sc7  1  0.000000  0.882725  0.585948  1
  Sc  Sc8  1  0.000000  0.382407  0.914062  1
  Sc  Sc9  1  0.000000  0.617593  0.085938  1
  In  In10  1  0.500000  0.415810  0.351570  1
  In  In11  1  0.500000  0.584190  0.648430  1
  In  In12  1  0.500000  0.085447  0.851481  1
  In  In13  1  0.500000  0.914553  0.148519  1
  In  In14  1  0.500000  0.305942  0.060803  1
  In  In15  1  0.500000  0.694058  0.939197  1
  In  In16  1  0.500000  0.195366  0.561252  1
  In  In17  1  0.500000  0.804634  0.438748  1
  Pt  Pt18  1  0.500000  0.029385  0.307438  1
  Pt  Pt19  1  0.500000  0.970615  0.692562  1
  Pt  Pt20  1  0.500000  0.467683  0.807153  1
  Pt  Pt21  1  0.500000  0.532317  0.192847  1
