# generated using pymatgen
data_La2AlZn3
_symmetry_space_group_name_H-M   'P 1'
_cell_length_a   5.94702989
_cell_length_b   5.83442180
_cell_length_c   5.83442282
_cell_angle_alpha   132.32076095
_cell_angle_beta   99.78233965
_cell_angle_gamma   98.66327948
_symmetry_Int_Tables_number   1
_chemical_formula_structural   La2AlZn3
_chemical_formula_sum   'La2 Al1 Zn3'
_cell_volume   137.40204777
_cell_formula_units_Z   1
loop_
 _symmetry_equiv_pos_site_id
 _symmetry_equiv_pos_as_xyz
  1  'x, y, z'
loop_
 _atom_site_type_symbol
 _atom_site_label
 _atom_site_symmetry_multiplicity
 _atom_site_fract_x
 _atom_site_fract_y
 _atom_site_fract_z
 _atom_site_occupancy
  La  La0  1  0.206532  0.750225  0.456308  1
  La  La1  1  0.795567  0.253377  0.542189  1
  Al  Al2  1  0.398909  0.560915  0.837994  1
  Zn  Zn3  1  0.601770  0.438692  0.163078  1
  Zn  Zn4  1  0.224882  0.060638  0.164244  1
  Zn  Zn5  1  0.772341  0.936153  0.836188  1
