# generated using pymatgen
data_Na12SiAs7Pt8
_symmetry_space_group_name_H-M   'P 1'
_cell_length_a   5.84565700
_cell_length_b   7.80314859
_cell_length_c   13.14461600
_cell_angle_alpha   90.09438245
_cell_angle_beta   90.00000000
_cell_angle_gamma   90.00000000
_symmetry_Int_Tables_number   1
_chemical_formula_structural   Na12SiAs7Pt8
_chemical_formula_sum   'Na12 Si1 As7 Pt8'
_cell_volume   599.58466948
_cell_formula_units_Z   1
loop_
 _symmetry_equiv_pos_site_id
 _symmetry_equiv_pos_as_xyz
  1  'x, y, z'
loop_
 _atom_site_type_symbol
 _atom_site_label
 _atom_site_symmetry_multiplicity
 _atom_site_fract_x
 _atom_site_fract_y
 _atom_site_fract_z
 _atom_site_occupancy
  Na  Na0  1  0.653299  0.223862  0.250960  1
  Na  Na1  1  0.348719  0.776975  0.747679  1
  Na  Na2  1  0.348719  0.723025  0.252321  1
  Na  Na3  1  0.653299  0.276138  0.749040  1
  Na  Na4  1  0.126892  0.380923  0.103824  1
  Na  Na5  1  0.874677  0.620176  0.895187  1
  Na  Na6  1  0.874600  0.620715  0.603938  1
  Na  Na7  1  0.874600  0.879285  0.396062  1
  Na  Na8  1  0.122945  0.380944  0.397618  1
  Na  Na9  1  0.122945  0.119056  0.602382  1
  Na  Na10  1  0.126892  0.119077  0.896176  1
  Na  Na11  1  0.874677  0.879824  0.104813  1
  Si  Si12  1  0.586252  0.250000  0.500000  1
  As  As13  1  0.159084  0.078086  0.248878  1
  As  As14  1  0.839067  0.929490  0.748226  1
  As  As15  1  0.839067  0.570510  0.251774  1
  As  As16  1  0.159084  0.421914  0.751122  1
  As  As17  1  0.619288  0.250000  0.000000  1
  As  As18  1  0.383789  0.750000  0.000000  1
  As  As19  1  0.393379  0.750000  0.500000  1
  Pt  Pt20  1  0.384663  0.037115  0.092544  1
  Pt  Pt21  1  0.618646  0.961487  0.906140  1
  Pt  Pt22  1  0.624673  0.979950  0.587862  1
  Pt  Pt23  1  0.624673  0.520050  0.412138  1
  Pt  Pt24  1  0.381382  0.037969  0.405599  1
  Pt  Pt25  1  0.381382  0.462031  0.594401  1
  Pt  Pt26  1  0.384663  0.462885  0.907456  1
  Pt  Pt27  1  0.618646  0.538513  0.093860  1
