# generated using pymatgen
data_Er3GaHg2Pd3
_symmetry_space_group_name_H-M   'P 1'
_cell_length_a   7.72939833
_cell_length_b   7.72939697
_cell_length_c   3.64880300
_cell_angle_alpha   90.00000000
_cell_angle_beta   90.00000000
_cell_angle_gamma   120.56614275
_symmetry_Int_Tables_number   1
_chemical_formula_structural   Er3GaHg2Pd3
_chemical_formula_sum   'Er3 Ga1 Hg2 Pd3'
_cell_volume   187.70091786
_cell_formula_units_Z   1
loop_
 _symmetry_equiv_pos_site_id
 _symmetry_equiv_pos_as_xyz
  1  'x, y, z'
loop_
 _atom_site_type_symbol
 _atom_site_label
 _atom_site_symmetry_multiplicity
 _atom_site_fract_x
 _atom_site_fract_y
 _atom_site_fract_z
 _atom_site_occupancy
  Er  Er0  1  0.606190  0.999328  0.000000  1
  Er  Er1  1  0.999328  0.606190  0.000000  1
  Er  Er2  1  0.402724  0.402724  0.000000  1
  Ga  Ga3  1  0.728415  0.728415  0.500000  1
  Hg  Hg4  1  0.271640  0.003932  0.500000  1
  Hg  Hg5  1  0.003932  0.271640  0.500000  1
  Pd  Pd6  1  0.964824  0.964824  0.000000  1
  Pd  Pd7  1  0.350471  0.672476  0.500000  1
  Pd  Pd8  1  0.672476  0.350471  0.500000  1
