# generated using pymatgen
data_Er3Fe7Co2
_symmetry_space_group_name_H-M   'P 1'
_cell_length_a   8.60817527
_cell_length_b   8.60817488
_cell_length_c   8.60918413
_cell_angle_alpha   34.13459888
_cell_angle_beta   34.13460302
_cell_angle_gamma   34.24363503
_symmetry_Int_Tables_number   1
_chemical_formula_structural   Er3Fe7Co2
_chemical_formula_sum   'Er3 Fe7 Co2'
_cell_volume   179.43989099
_cell_formula_units_Z   1
loop_
 _symmetry_equiv_pos_site_id
 _symmetry_equiv_pos_as_xyz
  1  'x, y, z'
loop_
 _atom_site_type_symbol
 _atom_site_label
 _atom_site_symmetry_multiplicity
 _atom_site_fract_x
 _atom_site_fract_y
 _atom_site_fract_z
 _atom_site_occupancy
  Er  Er0  1  0.143122  0.143122  0.141169  1
  Er  Er1  1  0.000410  0.000410  0.999938  1
  Er  Er2  1  0.858628  0.858628  0.858991  1
  Fe  Fe3  1  0.918298  0.416639  0.418367  1
  Fe  Fe4  1  0.581771  0.080661  0.582406  1
  Fe  Fe5  1  0.582769  0.582769  0.081739  1
  Fe  Fe6  1  0.416639  0.918298  0.418367  1
  Fe  Fe7  1  0.080661  0.581771  0.582406  1
  Fe  Fe8  1  0.334581  0.334581  0.329624  1
  Fe  Fe9  1  0.665684  0.665684  0.668910  1
  Co  Co10  1  0.417649  0.417649  0.919024  1
  Co  Co11  1  0.499787  0.499787  0.499058  1
