# generated using pymatgen
data_LaPr3(Ga5Pt3)2
_symmetry_space_group_name_H-M   'P 1'
_cell_length_a   8.65982961
_cell_length_b   8.66230362
_cell_length_c   8.66230264
_cell_angle_alpha   138.61818746
_cell_angle_beta   106.74746258
_cell_angle_gamma   87.79910214
_symmetry_Int_Tables_number   1
_chemical_formula_structural   LaPr3(Ga5Pt3)2
_chemical_formula_sum   'La1 Pr3 Ga10 Pt6'
_cell_volume   394.78284972
_cell_formula_units_Z   1
loop_
 _symmetry_equiv_pos_site_id
 _symmetry_equiv_pos_as_xyz
  1  'x, y, z'
loop_
 _atom_site_type_symbol
 _atom_site_label
 _atom_site_symmetry_multiplicity
 _atom_site_fract_x
 _atom_site_fract_y
 _atom_site_fract_z
 _atom_site_occupancy
  La  La0  1  0.863700  0.631021  0.232678  1
  Pr  Pr1  1  0.136900  0.369232  0.767668  1
  Pr  Pr2  1  0.398654  0.131004  0.267650  1
  Pr  Pr3  1  0.601251  0.868738  0.732512  1
  Ga  Ga4  1  0.499048  0.749849  0.249506  1
  Ga  Ga5  1  0.499048  0.249542  0.749199  1
  Ga  Ga6  1  0.225524  0.975724  0.750917  1
  Ga  Ga7  1  0.775243  0.525234  0.749355  1
  Ga  Ga8  1  0.775243  0.025888  0.250008  1
  Ga  Ga9  1  0.225524  0.474607  0.249800  1
  Ga  Ga10  1  0.047220  0.895562  0.151658  1
  Ga  Ga11  1  0.953733  0.104900  0.848833  1
  Ga  Ga12  1  0.743311  0.394641  0.348671  1
  Ga  Ga13  1  0.256067  0.604609  0.651457  1
  Pt  Pt14  1  0.999948  0.749970  0.750164  1
  Pt  Pt15  1  0.999948  0.249785  0.249979  1
  Pt  Pt16  1  0.250057  0.861149  0.388910  1
  Pt  Pt17  1  0.749192  0.138355  0.610834  1
  Pt  Pt18  1  0.472846  0.361494  0.111352  1
  Pt  Pt19  1  0.527543  0.638694  0.888848  1
