# generated using pymatgen
data_Sm2Y3HoCoI10
_symmetry_space_group_name_H-M   'P 1'
_cell_length_a   7.74466892
_cell_length_b   9.74016088
_cell_length_c   9.70186591
_cell_angle_alpha   106.91951716
_cell_angle_beta   96.49884842
_cell_angle_gamma   104.92038376
_symmetry_Int_Tables_number   1
_chemical_formula_structural   Sm2Y3HoCoI10
_chemical_formula_sum   'Sm2 Y3 Ho1 Co1 I10'
_cell_volume   662.41276241
_cell_formula_units_Z   1
loop_
 _symmetry_equiv_pos_site_id
 _symmetry_equiv_pos_as_xyz
  1  'x, y, z'
loop_
 _atom_site_type_symbol
 _atom_site_label
 _atom_site_symmetry_multiplicity
 _atom_site_fract_x
 _atom_site_fract_y
 _atom_site_fract_z
 _atom_site_occupancy
  Sm  Sm0  1  0.888917  0.958938  0.229403  1
  Sm  Sm1  1  0.111084  0.040611  0.770434  1
  Y  Y2  1  0.969818  0.282405  0.084558  1
  Y  Y3  1  0.656751  0.877337  0.836651  1
  Y  Y4  1  0.343366  0.122394  0.163338  1
  Ho  Ho5  1  0.029686  0.718950  0.915640  1
  Co  Co6  1  0.000002  0.999285  0.999774  1
  I  I7  1  0.650285  0.550521  0.728952  1
  I  I8  1  0.350802  0.449628  0.271499  1
  I  I9  1  0.738652  0.911709  0.540269  1
  I  I10  1  0.261306  0.088392  0.459770  1
  I  I11  1  0.085135  0.374672  0.820719  1
  I  I12  1  0.915020  0.625614  0.178793  1
  I  I13  1  0.451728  0.815786  0.091908  1
  I  I14  1  0.547806  0.184056  0.907806  1
  I  I15  1  0.223022  0.741092  0.655818  1
  I  I16  1  0.776620  0.258610  0.344669  1
