# generated using pymatgen
data_Hf2MgCo8NiB6
_symmetry_space_group_name_H-M   'P 1'
_cell_length_a   5.67498292
_cell_length_b   5.68099196
_cell_length_c   5.68099135
_cell_angle_alpha   94.89866792
_cell_angle_beta   95.23849984
_cell_angle_gamma   95.23848685
_symmetry_Int_Tables_number   1
_chemical_formula_structural   Hf2MgCo8NiB6
_chemical_formula_sum   'Hf2 Mg1 Co8 Ni1 B6'
_cell_volume   180.81264305
_cell_formula_units_Z   1
loop_
 _symmetry_equiv_pos_site_id
 _symmetry_equiv_pos_as_xyz
  1  'x, y, z'
loop_
 _atom_site_type_symbol
 _atom_site_label
 _atom_site_symmetry_multiplicity
 _atom_site_fract_x
 _atom_site_fract_y
 _atom_site_fract_z
 _atom_site_occupancy
  Hf  Hf0  1  0.677645  0.673246  0.673246  1
  Hf  Hf1  1  0.322355  0.326754  0.326754  1
  Mg  Mg2  1  0.000000  0.000000  0.000000  1
  Co  Co3  1  0.000000  0.500000  0.000000  1
  Co  Co4  1  0.000000  0.000000  0.500000  1
  Co  Co5  1  0.699298  0.201461  0.700320  1
  Co  Co6  1  0.699298  0.700320  0.201461  1
  Co  Co7  1  0.202303  0.699296  0.699296  1
  Co  Co8  1  0.300702  0.798539  0.299680  1
  Co  Co9  1  0.300702  0.299680  0.798539  1
  Co  Co10  1  0.797697  0.300704  0.300704  1
  Ni  Ni11  1  0.500000  0.000000  0.000000  1
  B  B12  1  0.381963  0.001034  0.613526  1
  B  B13  1  0.618037  0.386474  0.998966  1
  B  B14  1  0.000000  0.618695  0.381305  1
  B  B15  1  0.618037  0.998966  0.386474  1
  B  B16  1  0.381963  0.613526  0.001034  1
  B  B17  1  0.000000  0.381305  0.618695  1
