# generated using pymatgen
data_Tm2Zn14CoCu2
_symmetry_space_group_name_H-M   'P 1'
_cell_length_a   6.68460921
_cell_length_b   6.68472538
_cell_length_c   6.69216079
_cell_angle_alpha   82.75619814
_cell_angle_beta   97.24237210
_cell_angle_gamma   97.14202760
_symmetry_Int_Tables_number   1
_chemical_formula_structural   Tm2Zn14CoCu2
_chemical_formula_sum   'Tm2 Zn14 Co1 Cu2'
_cell_volume   292.49234945
_cell_formula_units_Z   1
loop_
 _symmetry_equiv_pos_site_id
 _symmetry_equiv_pos_as_xyz
  1  'x, y, z'
loop_
 _atom_site_type_symbol
 _atom_site_label
 _atom_site_symmetry_multiplicity
 _atom_site_fract_x
 _atom_site_fract_y
 _atom_site_fract_z
 _atom_site_occupancy
  Tm  Tm0  1  0.665822  0.334179  0.342794  1
  Tm  Tm1  1  0.334177  0.665822  0.657205  1
  Zn  Zn2  1  0.299861  0.299863  0.000000  1
  Zn  Zn3  1  0.700139  0.700137  0.000000  1
  Zn  Zn4  1  0.899282  0.100719  0.114046  1
  Zn  Zn5  1  0.352596  0.647402  0.156995  1
  Zn  Zn6  1  0.999630  0.706760  0.297230  1
  Zn  Zn7  1  0.293242  0.000370  0.297233  1
  Zn  Zn8  1  0.652628  0.851669  0.351377  1
  Zn  Zn9  1  0.148331  0.347372  0.351375  1
  Zn  Zn10  1  0.851669  0.652627  0.648625  1
  Zn  Zn11  1  0.347372  0.148331  0.648623  1
  Zn  Zn12  1  0.000370  0.293240  0.702770  1
  Zn  Zn13  1  0.706758  0.999630  0.702766  1
  Zn  Zn14  1  0.647404  0.352598  0.843004  1
  Zn  Zn15  1  0.100717  0.899281  0.885954  1
  Co  Co16  1  0.000000  0.000000  0.500000  1
  Cu  Cu17  1  0.500000  0.000000  0.999999  1
  Cu  Cu18  1  0.000000  0.499998  0.000000  1
