# generated using pymatgen
data_KTcNiAs2
_symmetry_space_group_name_H-M   'P 1'
_cell_length_a   7.52788608
_cell_length_b   7.52788565
_cell_length_c   7.52788655
_cell_angle_alpha   149.73873004
_cell_angle_beta   149.73872749
_cell_angle_gamma   43.32505378
_symmetry_Int_Tables_number   1
_chemical_formula_structural   KTcNiAs2
_chemical_formula_sum   'K1 Tc1 Ni1 As2'
_cell_volume   108.04872005
_cell_formula_units_Z   1
loop_
 _symmetry_equiv_pos_site_id
 _symmetry_equiv_pos_as_xyz
  1  'x, y, z'
loop_
 _atom_site_type_symbol
 _atom_site_label
 _atom_site_symmetry_multiplicity
 _atom_site_fract_x
 _atom_site_fract_y
 _atom_site_fract_z
 _atom_site_occupancy
  K  K0  1  0.000000  0.000000  0.000000  1
  Tc  Tc1  1  0.250000  0.750000  0.500000  1
  Ni  Ni2  1  0.750000  0.250000  0.500000  1
  As  As3  1  0.649168  0.649168  0.000000  1
  As  As4  1  0.350832  0.350832  0.000000  1
