# generated using pymatgen
data_Nb8AlGaTe8
_symmetry_space_group_name_H-M   'P 1'
_cell_length_a   4.90009600
_cell_length_b   11.12189200
_cell_length_c   19.29137200
_cell_angle_alpha   90.00000000
_cell_angle_beta   90.00000000
_cell_angle_gamma   90.00000000
_symmetry_Int_Tables_number   1
_chemical_formula_structural   Nb8AlGaTe8
_chemical_formula_sum   'Nb16 Al2 Ga2 Te16'
_cell_volume   1051.34772142
_cell_formula_units_Z   2
loop_
 _symmetry_equiv_pos_site_id
 _symmetry_equiv_pos_as_xyz
  1  'x, y, z'
loop_
 _atom_site_type_symbol
 _atom_site_label
 _atom_site_symmetry_multiplicity
 _atom_site_fract_x
 _atom_site_fract_y
 _atom_site_fract_z
 _atom_site_occupancy
  Nb  Nb0  1  0.500060  0.565476  0.380889  1
  Nb  Nb1  1  0.500060  0.434524  0.619111  1
  Nb  Nb2  1  0.499940  0.065476  0.119111  1
  Nb  Nb3  1  0.499940  0.934524  0.880889  1
  Nb  Nb4  1  0.498152  0.707613  0.537098  1
  Nb  Nb5  1  0.498152  0.292387  0.462902  1
  Nb  Nb6  1  0.501848  0.207613  0.962902  1
  Nb  Nb7  1  0.501848  0.792387  0.037098  1
  Nb  Nb8  1  0.001565  0.692847  0.441957  1
  Nb  Nb9  1  0.001565  0.307153  0.558043  1
  Nb  Nb10  1  0.998435  0.192847  0.058043  1
  Nb  Nb11  1  0.998435  0.807153  0.941957  1
  Nb  Nb12  1  0.000025  0.399319  0.389488  1
  Nb  Nb13  1  0.000025  0.600681  0.610512  1
  Nb  Nb14  1  0.999975  0.899319  0.110512  1
  Nb  Nb15  1  0.999975  0.100681  0.889488  1
  Al  Al16  1  0.749990  0.500000  0.500000  1
  Al  Al17  1  0.250010  0.000000  0.000000  1
  Ga  Ga18  1  0.249870  0.500000  0.500000  1
  Ga  Ga19  1  0.750130  0.000000  0.000000  1
  Te  Te20  1  0.998579  0.843975  0.561870  1
  Te  Te21  1  0.998579  0.156025  0.438130  1
  Te  Te22  1  0.001421  0.343975  0.938130  1
  Te  Te23  1  0.001421  0.656025  0.061870  1
  Te  Te24  1  0.499568  0.334314  0.316730  1
  Te  Te25  1  0.499568  0.665686  0.683270  1
  Te  Te26  1  0.500432  0.834314  0.183270  1
  Te  Te27  1  0.500432  0.165686  0.816730  1
  Te  Te28  1  0.501339  0.819484  0.403524  1
  Te  Te29  1  0.501339  0.180516  0.596476  1
  Te  Te30  1  0.498661  0.319484  0.096476  1
  Te  Te31  1  0.498661  0.680516  0.903524  1
  Te  Te32  1  0.000432  0.607217  0.302459  1
  Te  Te33  1  0.000432  0.392783  0.697541  1
  Te  Te34  1  0.999568  0.107217  0.197541  1
  Te  Te35  1  0.999568  0.892783  0.802459  1
