# generated using pymatgen
data_Ho8Ti3Si16Mo8W
_symmetry_space_group_name_H-M   'P 1'
_cell_length_a   6.89423763
_cell_length_b   6.89423719
_cell_length_c   12.77575355
_cell_angle_alpha   89.98741262
_cell_angle_beta   90.01258575
_cell_angle_gamma   89.86441333
_symmetry_Int_Tables_number   1
_chemical_formula_structural   Ho8Ti3Si16Mo8W
_chemical_formula_sum   'Ho8 Ti3 Si16 Mo8 W1'
_cell_volume   607.23634523
_cell_formula_units_Z   1
loop_
 _symmetry_equiv_pos_site_id
 _symmetry_equiv_pos_as_xyz
  1  'x, y, z'
loop_
 _atom_site_type_symbol
 _atom_site_label
 _atom_site_symmetry_multiplicity
 _atom_site_fract_x
 _atom_site_fract_y
 _atom_site_fract_z
 _atom_site_occupancy
  Ho  Ho0  1  0.339627  0.001975  0.468556  1
  Ho  Ho1  1  0.497084  0.838920  0.719181  1
  Ho  Ho2  1  0.499315  0.161394  0.217459  1
  Ho  Ho3  1  0.838920  0.497084  0.280819  1
  Ho  Ho4  1  0.161394  0.499315  0.782541  1
  Ho  Ho5  1  0.659466  0.999612  0.968720  1
  Ho  Ho6  1  0.001975  0.339627  0.531444  1
  Ho  Ho7  1  0.999612  0.659466  0.031280  1
  Ti  Ti8  1  0.170414  0.831361  0.248622  1
  Ti  Ti9  1  0.831361  0.170414  0.751378  1
  Ti  Ti10  1  0.669091  0.669091  0.500000  1
  Si  Si11  1  0.200401  0.129214  0.683448  1
  Si  Si12  1  0.373311  0.697649  0.933884  1
  Si  Si13  1  0.628881  0.299028  0.433633  1
  Si  Si14  1  0.697649  0.373311  0.066116  1
  Si  Si15  1  0.299028  0.628881  0.566367  1
  Si  Si16  1  0.797380  0.871701  0.184168  1
  Si  Si17  1  0.129214  0.200401  0.316552  1
  Si  Si18  1  0.871701  0.797380  0.815832  1
  Si  Si19  1  0.288330  0.962861  0.062150  1
  Si  Si20  1  0.539882  0.791033  0.313686  1
  Si  Si21  1  0.458417  0.210276  0.814531  1
  Si  Si22  1  0.791033  0.539882  0.686314  1
  Si  Si23  1  0.210276  0.458417  0.185469  1
  Si  Si24  1  0.710127  0.041325  0.563877  1
  Si  Si25  1  0.962861  0.288330  0.937850  1
  Si  Si26  1  0.041325  0.710127  0.436123  1
  Mo  Mo27  1  0.156907  0.002673  0.873550  1
  Mo  Mo28  1  0.495164  0.665160  0.124579  1
  Mo  Mo29  1  0.505713  0.340552  0.624634  1
  Mo  Mo30  1  0.665160  0.495164  0.875421  1
  Mo  Mo31  1  0.340552  0.505713  0.375366  1
  Mo  Mo32  1  0.840725  0.993642  0.374344  1
  Mo  Mo33  1  0.002673  0.156907  0.126450  1
  Mo  Mo34  1  0.993642  0.840725  0.625656  1
  W  W35  1  0.331390  0.331390  0.000000  1
