# generated using pymatgen
data_NdAg3(Ir2O7)2
_symmetry_space_group_name_H-M   'P 1'
_cell_length_a   7.29799114
_cell_length_b   7.29799127
_cell_length_c   7.29799166
_cell_angle_alpha   59.49859782
_cell_angle_beta   59.49859801
_cell_angle_gamma   59.49859567
_symmetry_Int_Tables_number   1
_chemical_formula_structural   NdAg3(Ir2O7)2
_chemical_formula_sum   'Nd1 Ag3 Ir4 O14'
_cell_volume   271.71535030
_cell_formula_units_Z   1
loop_
 _symmetry_equiv_pos_site_id
 _symmetry_equiv_pos_as_xyz
  1  'x, y, z'
loop_
 _atom_site_type_symbol
 _atom_site_label
 _atom_site_symmetry_multiplicity
 _atom_site_fract_x
 _atom_site_fract_y
 _atom_site_fract_z
 _atom_site_occupancy
  Nd  Nd0  1  0.125000  0.125000  0.125000  1
  Ag  Ag1  1  0.625000  0.125000  0.125000  1
  Ag  Ag2  1  0.125000  0.625000  0.125000  1
  Ag  Ag3  1  0.125000  0.125000  0.625000  1
  Ir  Ir4  1  0.125000  0.625000  0.625000  1
  Ir  Ir5  1  0.625000  0.125000  0.625000  1
  Ir  Ir6  1  0.625000  0.625000  0.125000  1
  Ir  Ir7  1  0.625000  0.625000  0.625000  1
  O  O8  1  0.693997  0.693997  0.304193  1
  O  O9  1  0.296230  0.296230  0.706136  1
  O  O10  1  0.693997  0.304193  0.693997  1
  O  O11  1  0.296230  0.706136  0.296230  1
  O  O12  1  0.304193  0.693997  0.693997  1
  O  O13  1  0.706136  0.296230  0.296230  1
  O  O14  1  0.556003  0.556003  0.945807  1
  O  O15  1  0.953770  0.953770  0.543864  1
  O  O16  1  0.556003  0.945807  0.556003  1
  O  O17  1  0.953770  0.543864  0.953770  1
  O  O18  1  0.945807  0.556003  0.556003  1
  O  O19  1  0.543864  0.953770  0.953770  1
  O  O20  1  0.259069  0.259069  0.259069  1
  O  O21  1  0.990931  0.990931  0.990931  1
