# generated using pymatgen
data_AcNd(WN3)2
_symmetry_space_group_name_H-M   'P 1'
_cell_length_a   7.63405267
_cell_length_b   7.63405260
_cell_length_c   6.31223500
_cell_angle_alpha   78.90327209
_cell_angle_beta   78.90327985
_cell_angle_gamma   90.25991157
_symmetry_Int_Tables_number   1
_chemical_formula_structural   AcNd(WN3)2
_chemical_formula_sum   'Ac2 Nd2 W4 N12'
_cell_volume   353.91182538
_cell_formula_units_Z   2
loop_
 _symmetry_equiv_pos_site_id
 _symmetry_equiv_pos_as_xyz
  1  'x, y, z'
loop_
 _atom_site_type_symbol
 _atom_site_label
 _atom_site_symmetry_multiplicity
 _atom_site_fract_x
 _atom_site_fract_y
 _atom_site_fract_z
 _atom_site_occupancy
  Ac  Ac0  1  0.307453  0.692547  0.750000  1
  Ac  Ac1  1  0.692547  0.307453  0.250000  1
  Nd  Nd2  1  0.093767  0.906233  0.250000  1
  Nd  Nd3  1  0.906233  0.093767  0.750000  1
  W  W4  1  0.377483  0.202495  0.766054  1
  W  W5  1  0.622517  0.797505  0.233946  1
  W  W6  1  0.797505  0.622517  0.733946  1
  W  W7  1  0.202495  0.377483  0.266054  1
  N  N8  1  0.993087  0.784722  0.646823  1
  N  N9  1  0.867167  0.398725  0.831679  1
  N  N10  1  0.784722  0.993087  0.146823  1
  N  N11  1  0.132833  0.601275  0.168321  1
  N  N12  1  0.006913  0.215278  0.353177  1
  N  N13  1  0.215278  0.006913  0.853177  1
  N  N14  1  0.601275  0.132833  0.668321  1
  N  N15  1  0.635303  0.672643  0.988410  1
  N  N16  1  0.364697  0.327357  0.011590  1
  N  N17  1  0.398725  0.867167  0.331679  1
  N  N18  1  0.672643  0.635303  0.488410  1
  N  N19  1  0.327357  0.364697  0.511590  1
