# generated using pymatgen
data_Dy3Y(Pd2Pb)2
_symmetry_space_group_name_H-M   'P 1'
_cell_length_a   7.91273667
_cell_length_b   7.91273667
_cell_length_c   3.64406100
_cell_angle_alpha   90.00000000
_cell_angle_beta   90.00000000
_cell_angle_gamma   89.67072431
_symmetry_Int_Tables_number   1
_chemical_formula_structural   Dy3Y(Pd2Pb)2
_chemical_formula_sum   'Dy3 Y1 Pd4 Pb2'
_cell_volume   228.15599884
_cell_formula_units_Z   1
loop_
 _symmetry_equiv_pos_site_id
 _symmetry_equiv_pos_as_xyz
  1  'x, y, z'
loop_
 _atom_site_type_symbol
 _atom_site_label
 _atom_site_symmetry_multiplicity
 _atom_site_fract_x
 _atom_site_fract_y
 _atom_site_fract_z
 _atom_site_occupancy
  Dy  Dy0  1  0.671888  0.171888  0.500000  1
  Dy  Dy1  1  0.172376  0.327331  0.500000  1
  Dy  Dy2  1  0.827331  0.672376  0.500000  1
  Y  Y3  1  0.327867  0.827867  0.500000  1
  Pd  Pd4  1  0.874632  0.374632  0.000000  1
  Pd  Pd5  1  0.375497  0.126099  0.000000  1
  Pd  Pd6  1  0.626099  0.875497  0.000000  1
  Pd  Pd7  1  0.123851  0.623851  0.000000  1
  Pb  Pb8  1  0.000143  0.000316  0.000000  1
  Pb  Pb9  1  0.500316  0.500143  0.000000  1
