# generated using pymatgen
data_Er5Tm15(SnPb)8
_symmetry_space_group_name_H-M   'P 1'
_cell_length_a   8.05608610
_cell_length_b   8.11460502
_cell_length_c   15.39083517
_cell_angle_alpha   90.00385167
_cell_angle_beta   89.98342403
_cell_angle_gamma   89.99201396
_symmetry_Int_Tables_number   1
_chemical_formula_structural   Er5Tm15(SnPb)8
_chemical_formula_sum   'Er5 Tm15 Sn8 Pb8'
_cell_volume   1006.12895728
_cell_formula_units_Z   1
loop_
 _symmetry_equiv_pos_site_id
 _symmetry_equiv_pos_as_xyz
  1  'x, y, z'
loop_
 _atom_site_type_symbol
 _atom_site_label
 _atom_site_symmetry_multiplicity
 _atom_site_fract_x
 _atom_site_fract_y
 _atom_site_fract_z
 _atom_site_occupancy
  Er  Er0  1  0.964578  0.823533  0.102602  1
  Er  Er1  1  0.464564  0.676472  0.102555  1
  Er  Er2  1  0.964555  0.823490  0.397465  1
  Er  Er3  1  0.535433  0.323534  0.602534  1
  Er  Er4  1  0.035400  0.176477  0.897417  1
  Tm  Tm5  1  0.378225  0.839830  0.876741  1
  Tm  Tm6  1  0.878278  0.660198  0.623271  1
  Tm  Tm7  1  0.621707  0.160210  0.376743  1
  Tm  Tm8  1  0.121745  0.339778  0.123263  1
  Tm  Tm9  1  0.621719  0.160235  0.123234  1
  Tm  Tm10  1  0.121740  0.339767  0.376780  1
  Tm  Tm11  1  0.378269  0.839799  0.623242  1
  Tm  Tm12  1  0.878218  0.660171  0.876723  1
  Tm  Tm13  1  0.535489  0.323536  0.897322  1
  Tm  Tm14  1  0.035521  0.176434  0.602695  1
  Tm  Tm15  1  0.464475  0.676417  0.397328  1
  Tm  Tm16  1  0.209151  0.504108  0.750012  1
  Tm  Tm17  1  0.709149  0.995887  0.749986  1
  Tm  Tm18  1  0.790809  0.495844  0.250046  1
  Tm  Tm19  1  0.290903  0.004155  0.250024  1
  Sn  Sn20  1  0.574070  0.623333  0.749999  1
  Sn  Sn21  1  0.074043  0.876638  0.750004  1
  Sn  Sn22  1  0.425933  0.376665  0.250001  1
  Sn  Sn23  1  0.925936  0.123441  0.250020  1
  Sn  Sn24  1  0.344233  0.149747  0.750102  1
  Sn  Sn25  1  0.844223  0.350256  0.749896  1
  Sn  Sn26  1  0.655660  0.850262  0.250166  1
  Sn  Sn27  1  0.155933  0.649527  0.250063  1
  Pb  Pb28  1  0.282131  0.033856  0.041451  1
  Pb  Pb29  1  0.781750  0.466433  0.458462  1
  Pb  Pb30  1  0.718290  0.966480  0.541544  1
  Pb  Pb31  1  0.218251  0.533549  0.958484  1
  Pb  Pb32  1  0.717634  0.966351  0.958537  1
  Pb  Pb33  1  0.217878  0.533844  0.541305  1
  Pb  Pb34  1  0.282136  0.033817  0.458708  1
  Pb  Pb35  1  0.781972  0.465924  0.041278  1
