# generated using pymatgen
data_Pu2P7Ru12
_symmetry_space_group_name_H-M   'P 1'
_cell_length_a   9.45378701
_cell_length_b   9.45378629
_cell_length_c   3.92688800
_cell_angle_alpha   90.00000000
_cell_angle_beta   90.00000000
_cell_angle_gamma   119.99999495
_symmetry_Int_Tables_number   1
_chemical_formula_structural   Pu2P7Ru12
_chemical_formula_sum   'Pu2 P7 Ru12'
_cell_volume   303.94203204
_cell_formula_units_Z   1
loop_
 _symmetry_equiv_pos_site_id
 _symmetry_equiv_pos_as_xyz
  1  'x, y, z'
loop_
 _atom_site_type_symbol
 _atom_site_label
 _atom_site_symmetry_multiplicity
 _atom_site_fract_x
 _atom_site_fract_y
 _atom_site_fract_z
 _atom_site_occupancy
  Pu  Pu0  1  0.666667  0.333333  0.500000  1
  Pu  Pu1  1  0.333333  0.666667  0.000000  1
  P  P2  1  0.599847  0.716116  0.500000  1
  P  P3  1  0.000000  0.000000  0.000000  1
  P  P4  1  0.283884  0.883731  0.500000  1
  P  P5  1  0.116269  0.400153  0.500000  1
  P  P6  1  0.888236  0.579286  0.000000  1
  P  P7  1  0.420714  0.308950  0.000000  1
  P  P8  1  0.691050  0.111764  0.000000  1
  Ru  Ru9  1  0.559818  0.952337  0.500000  1
  Ru  Ru10  1  0.392521  0.440182  0.500000  1
  Ru  Ru11  1  0.911145  0.123711  0.500000  1
  Ru  Ru12  1  0.212566  0.088855  0.500000  1
  Ru  Ru13  1  0.876289  0.787434  0.500000  1
  Ru  Ru14  1  0.727837  0.888508  0.000000  1
  Ru  Ru15  1  0.111492  0.839328  0.000000  1
  Ru  Ru16  1  0.160672  0.272163  0.000000  1
  Ru  Ru17  1  0.429328  0.071148  0.000000  1
  Ru  Ru18  1  0.928852  0.358181  0.000000  1
  Ru  Ru19  1  0.641819  0.570672  0.000000  1
  Ru  Ru20  1  0.047663  0.607479  0.500000  1
