# generated using pymatgen
data_Zr11Nb8Si16Mo
_symmetry_space_group_name_H-M   'P 1'
_cell_length_a   6.94576251
_cell_length_b   6.94194670
_cell_length_c   12.85794064
_cell_angle_alpha   90.01022234
_cell_angle_beta   89.84798264
_cell_angle_gamma   90.02212285
_symmetry_Int_Tables_number   1
_chemical_formula_structural   Zr11Nb8Si16Mo
_chemical_formula_sum   'Zr11 Nb8 Si16 Mo1'
_cell_volume   619.97053989
_cell_formula_units_Z   1
loop_
 _symmetry_equiv_pos_site_id
 _symmetry_equiv_pos_as_xyz
  1  'x, y, z'
loop_
 _atom_site_type_symbol
 _atom_site_label
 _atom_site_symmetry_multiplicity
 _atom_site_fract_x
 _atom_site_fract_y
 _atom_site_fract_z
 _atom_site_occupancy
  Zr  Zr0  1  0.500270  0.350849  0.622479  1
  Zr  Zr1  1  0.501477  0.649140  0.124238  1
  Zr  Zr2  1  0.148496  0.999553  0.873879  1
  Zr  Zr3  1  0.003130  0.655563  0.033548  1
  Zr  Zr4  1  0.997234  0.344174  0.531637  1
  Zr  Zr5  1  0.655916  0.001663  0.967797  1
  Zr  Zr6  1  0.155640  0.498218  0.782407  1
  Zr  Zr7  1  0.845588  0.502345  0.282945  1
  Zr  Zr8  1  0.499337  0.156349  0.218066  1
  Zr  Zr9  1  0.501168  0.844246  0.717326  1
  Zr  Zr10  1  0.342797  0.999457  0.467688  1
  Nb  Nb11  1  0.347524  0.508180  0.376631  1
  Nb  Nb12  1  0.851831  0.998079  0.374215  1
  Nb  Nb13  1  0.005772  0.154025  0.125829  1
  Nb  Nb14  1  0.990504  0.847100  0.627632  1
  Nb  Nb15  1  0.670380  0.673185  0.499705  1
  Nb  Nb16  1  0.827299  0.169626  0.749556  1
  Nb  Nb17  1  0.172498  0.832196  0.251354  1
  Nb  Nb18  1  0.329203  0.327604  0.999770  1
  Si  Si19  1  0.045488  0.704613  0.437433  1
  Si  Si20  1  0.950566  0.300778  0.936075  1
  Si  Si21  1  0.702973  0.045159  0.561626  1
  Si  Si22  1  0.201506  0.452638  0.187661  1
  Si  Si23  1  0.797688  0.546178  0.688472  1
  Si  Si24  1  0.456829  0.204684  0.813920  1
  Si  Si25  1  0.549207  0.800709  0.314541  1
  Si  Si26  1  0.297739  0.955142  0.064345  1
  Si  Si27  1  0.855391  0.784336  0.823477  1
  Si  Si28  1  0.137795  0.209742  0.322566  1
  Si  Si29  1  0.799403  0.865960  0.179268  1
  Si  Si30  1  0.287792  0.643430  0.571966  1
  Si  Si31  1  0.709955  0.357572  0.069987  1
  Si  Si32  1  0.636836  0.293639  0.424715  1
  Si  Si33  1  0.370379  0.698802  0.925582  1
  Si  Si34  1  0.200810  0.135399  0.676362  1
  Mo  Mo35  1  0.653575  0.489667  0.875306  1
