# generated using pymatgen
data_ErTm11(SiPd)12
_symmetry_space_group_name_H-M   'P 1'
_cell_length_a   4.34659100
_cell_length_b   7.41423303
_cell_length_c   20.89956000
_cell_angle_alpha   90.00502308
_cell_angle_beta   90.00000000
_cell_angle_gamma   90.00000000
_symmetry_Int_Tables_number   1
_chemical_formula_structural   ErTm11(SiPd)12
_chemical_formula_sum   'Er1 Tm11 Si12 Pd12'
_cell_volume   673.52256346
_cell_formula_units_Z   1
loop_
 _symmetry_equiv_pos_site_id
 _symmetry_equiv_pos_as_xyz
  1  'x, y, z'
loop_
 _atom_site_type_symbol
 _atom_site_label
 _atom_site_symmetry_multiplicity
 _atom_site_fract_x
 _atom_site_fract_y
 _atom_site_fract_z
 _atom_site_occupancy
  Er  Er0  1  0.250000  0.789462  0.500937  1
  Tm  Tm1  1  0.250000  0.705451  0.332744  1
  Tm  Tm2  1  0.750000  0.294310  0.667164  1
  Tm  Tm3  1  0.750000  0.205649  0.167199  1
  Tm  Tm4  1  0.250000  0.794335  0.832904  1
  Tm  Tm5  1  0.250000  0.792127  0.166660  1
  Tm  Tm6  1  0.750000  0.207929  0.833434  1
  Tm  Tm7  1  0.750000  0.292108  0.333273  1
  Tm  Tm8  1  0.250000  0.707766  0.666625  1
  Tm  Tm9  1  0.250000  0.711042  0.001033  1
  Tm  Tm10  1  0.750000  0.288928  0.999077  1
  Tm  Tm11  1  0.750000  0.211350  0.498922  1
  Si  Si12  1  0.250000  0.089195  0.071623  1
  Si  Si13  1  0.750000  0.910805  0.928423  1
  Si  Si14  1  0.750000  0.589014  0.428218  1
  Si  Si15  1  0.250000  0.410732  0.571567  1
  Si  Si16  1  0.250000  0.085023  0.271333  1
  Si  Si17  1  0.750000  0.914915  0.728699  1
  Si  Si18  1  0.750000  0.585086  0.228602  1
  Si  Si19  1  0.250000  0.414933  0.771446  1
  Si  Si20  1  0.250000  0.087062  0.395378  1
  Si  Si21  1  0.750000  0.913038  0.604605  1
  Si  Si22  1  0.750000  0.587025  0.104419  1
  Si  Si23  1  0.250000  0.413010  0.895593  1
  Pd  Pd24  1  0.250000  0.416560  0.237112  1
  Pd  Pd25  1  0.750000  0.583339  0.762847  1
  Pd  Pd26  1  0.750000  0.916563  0.262708  1
  Pd  Pd27  1  0.250000  0.083439  0.737313  1
  Pd  Pd28  1  0.250000  0.416524  0.437365  1
  Pd  Pd29  1  0.750000  0.582892  0.562931  1
  Pd  Pd30  1  0.750000  0.916748  0.062562  1
  Pd  Pd31  1  0.250000  0.083218  0.937267  1
  Pd  Pd32  1  0.250000  0.419574  0.093313  1
  Pd  Pd33  1  0.750000  0.580415  0.906530  1
  Pd  Pd34  1  0.750000  0.919669  0.406500  1
  Pd  Pd35  1  0.250000  0.080767  0.593675  1
