# generated using pymatgen
data_Sr2CuNiSn4
_symmetry_space_group_name_H-M   'P 1'
_cell_length_a   9.82381672
_cell_length_b   9.82381657
_cell_length_c   4.52053100
_cell_angle_alpha   90.00000000
_cell_angle_beta   90.00000000
_cell_angle_gamma   152.05376063
_symmetry_Int_Tables_number   1
_chemical_formula_structural   Sr2CuNiSn4
_chemical_formula_sum   'Sr2 Cu1 Ni1 Sn4'
_cell_volume   204.45228906
_cell_formula_units_Z   1
loop_
 _symmetry_equiv_pos_site_id
 _symmetry_equiv_pos_as_xyz
  1  'x, y, z'
loop_
 _atom_site_type_symbol
 _atom_site_label
 _atom_site_symmetry_multiplicity
 _atom_site_fract_x
 _atom_site_fract_y
 _atom_site_fract_z
 _atom_site_occupancy
  Sr  Sr0  1  0.388468  0.611532  0.750000  1
  Sr  Sr1  1  0.608721  0.391279  0.250000  1
  Cu  Cu2  1  0.822274  0.177726  0.250000  1
  Ni  Ni3  1  0.180889  0.819111  0.750000  1
  Sn  Sn4  1  0.956815  0.043185  0.250000  1
  Sn  Sn5  1  0.745932  0.254068  0.750000  1
  Sn  Sn6  1  0.248428  0.751572  0.250000  1
  Sn  Sn7  1  0.048474  0.951526  0.750000  1
