# generated using pymatgen
data_Y15HoMgCd3Co4
_symmetry_space_group_name_H-M   'P 1'
_cell_length_a   9.53836842
_cell_length_b   9.54424364
_cell_length_c   9.57632576
_cell_angle_alpha   60.11076828
_cell_angle_beta   60.09817644
_cell_angle_gamma   59.97962882
_symmetry_Int_Tables_number   1
_chemical_formula_structural   Y15HoMgCd3Co4
_chemical_formula_sum   'Y15 Ho1 Mg1 Cd3 Co4'
_cell_volume   617.32858689
_cell_formula_units_Z   1
loop_
 _symmetry_equiv_pos_site_id
 _symmetry_equiv_pos_as_xyz
  1  'x, y, z'
loop_
 _atom_site_type_symbol
 _atom_site_label
 _atom_site_symmetry_multiplicity
 _atom_site_fract_x
 _atom_site_fract_y
 _atom_site_fract_z
 _atom_site_occupancy
  Y  Y0  1  0.938925  0.938256  0.560951  1
  Y  Y1  1  0.811809  0.188815  0.186519  1
  Y  Y2  1  0.938925  0.561867  0.560951  1
  Y  Y3  1  0.940070  0.561250  0.937428  1
  Y  Y4  1  0.811809  0.812859  0.186519  1
  Y  Y5  1  0.345727  0.343789  0.346723  1
  Y  Y6  1  0.562294  0.938701  0.936920  1
  Y  Y7  1  0.562933  0.937556  0.561955  1
  Y  Y8  1  0.187931  0.812211  0.809920  1
  Y  Y9  1  0.187931  0.189939  0.809920  1
  Y  Y10  1  0.348062  0.346558  0.958822  1
  Y  Y11  1  0.345727  0.963761  0.346723  1
  Y  Y12  1  0.811133  0.189535  0.809799  1
  Y  Y13  1  0.562294  0.562085  0.936920  1
  Y  Y14  1  0.187297  0.812725  0.187254  1
  Ho  Ho15  1  0.964595  0.344185  0.347035  1
  Mg  Mg16  1  0.575561  0.576132  0.272177  1
  Cd  Cd17  1  0.257177  0.581095  0.580634  1
  Cd  Cd18  1  0.580249  0.580814  0.580343  1
  Cd  Cd19  1  0.580249  0.258597  0.580343  1
  Co  Co20  1  0.577982  0.140592  0.140836  1
  Co  Co21  1  0.140577  0.141655  0.142076  1
  Co  Co22  1  0.140577  0.575692  0.142076  1
  Co  Co23  1  0.140171  0.141334  0.577162  1
