# generated using pymatgen
data_Tb2YMg(Co4P3)2
_symmetry_space_group_name_H-M   'P 1'
_cell_length_a   3.74350600
_cell_length_b   10.65606000
_cell_length_c   12.31564900
_cell_angle_alpha   90.00000000
_cell_angle_beta   90.00000000
_cell_angle_gamma   90.00000000
_symmetry_Int_Tables_number   1
_chemical_formula_structural   Tb2YMg(Co4P3)2
_chemical_formula_sum   'Tb4 Y2 Mg2 Co16 P12'
_cell_volume   491.28385656
_cell_formula_units_Z   2
loop_
 _symmetry_equiv_pos_site_id
 _symmetry_equiv_pos_as_xyz
  1  'x, y, z'
loop_
 _atom_site_type_symbol
 _atom_site_label
 _atom_site_symmetry_multiplicity
 _atom_site_fract_x
 _atom_site_fract_y
 _atom_site_fract_z
 _atom_site_occupancy
  Tb  Tb0  1  0.000000  0.500000  0.525890  1
  Tb  Tb1  1  0.500000  0.000000  0.474033  1
  Tb  Tb2  1  0.000000  0.678013  0.793787  1
  Tb  Tb3  1  0.000000  0.321987  0.793787  1
  Y  Y4  1  0.500000  0.821896  0.206094  1
  Y  Y5  1  0.500000  0.178104  0.206094  1
  Mg  Mg6  1  0.500000  0.500000  0.156173  1
  Mg  Mg7  1  0.000000  0.000000  0.843850  1
  Co  Co8  1  0.500000  0.500000  0.705380  1
  Co  Co9  1  0.000000  0.000000  0.294678  1
  Co  Co10  1  0.000000  0.500000  0.989121  1
  Co  Co11  1  0.500000  0.000000  0.011172  1
  Co  Co12  1  0.500000  0.332458  0.996914  1
  Co  Co13  1  0.500000  0.667542  0.996914  1
  Co  Co14  1  0.000000  0.167316  0.003327  1
  Co  Co15  1  0.000000  0.832684  0.003327  1
  Co  Co16  1  0.500000  0.296289  0.431811  1
  Co  Co17  1  0.500000  0.703711  0.431811  1
  Co  Co18  1  0.000000  0.203597  0.567964  1
  Co  Co19  1  0.000000  0.796403  0.567964  1
  Co  Co20  1  0.500000  0.878103  0.705353  1
  Co  Co21  1  0.500000  0.121897  0.705353  1
  Co  Co22  1  0.000000  0.622020  0.294494  1
  Co  Co23  1  0.000000  0.377980  0.294494  1
  P  P24  1  0.500000  0.500000  0.885901  1
  P  P25  1  0.000000  0.000000  0.114567  1
  P  P26  1  0.500000  0.500000  0.354837  1
  P  P27  1  0.000000  0.000000  0.645130  1
  P  P28  1  0.500000  0.308832  0.615011  1
  P  P29  1  0.500000  0.691168  0.615011  1
  P  P30  1  0.000000  0.190932  0.384684  1
  P  P31  1  0.000000  0.809068  0.384684  1
  P  P32  1  0.500000  0.839209  0.893485  1
  P  P33  1  0.500000  0.160791  0.893485  1
  P  P34  1  0.000000  0.660903  0.106708  1
  P  P35  1  0.000000  0.339097  0.106708  1
