# generated using pymatgen
data_Sr8Mg7Si16Hg
_symmetry_space_group_name_H-M   'P 1'
_cell_length_a   4.41920200
_cell_length_b   11.44214839
_cell_length_c   14.45321678
_cell_angle_alpha   90.11110459
_cell_angle_beta   90.00000000
_cell_angle_gamma   90.00000000
_symmetry_Int_Tables_number   1
_chemical_formula_structural   Sr8Mg7Si16Hg
_chemical_formula_sum   'Sr8 Mg7 Si16 Hg1'
_cell_volume   730.82791785
_cell_formula_units_Z   1
loop_
 _symmetry_equiv_pos_site_id
 _symmetry_equiv_pos_as_xyz
  1  'x, y, z'
loop_
 _atom_site_type_symbol
 _atom_site_label
 _atom_site_symmetry_multiplicity
 _atom_site_fract_x
 _atom_site_fract_y
 _atom_site_fract_z
 _atom_site_occupancy
  Sr  Sr0  1  0.250000  0.522387  0.197482  1
  Sr  Sr1  1  0.250000  0.740512  0.938640  1
  Sr  Sr2  1  0.750000  0.259373  0.061367  1
  Sr  Sr3  1  0.750000  0.243066  0.559940  1
  Sr  Sr4  1  0.250000  0.757275  0.439346  1
  Sr  Sr5  1  0.250000  0.976011  0.696694  1
  Sr  Sr6  1  0.750000  0.025111  0.303194  1
  Sr  Sr7  1  0.750000  0.476147  0.803104  1
  Mg  Mg8  1  0.750000  0.556496  0.558137  1
  Mg  Mg9  1  0.750000  0.941975  0.059525  1
  Mg  Mg10  1  0.250000  0.058175  0.940773  1
  Mg  Mg11  1  0.250000  0.680238  0.690574  1
  Mg  Mg12  1  0.750000  0.321274  0.310306  1
  Mg  Mg13  1  0.750000  0.179470  0.809934  1
  Mg  Mg14  1  0.250000  0.819676  0.189647  1
  Si  Si15  1  0.750000  0.952557  0.867649  1
  Si  Si16  1  0.250000  0.453363  0.635676  1
  Si  Si17  1  0.750000  0.548931  0.365206  1
  Si  Si18  1  0.250000  0.029873  0.466932  1
  Si  Si19  1  0.250000  0.047715  0.132791  1
  Si  Si20  1  0.250000  0.273344  0.722376  1
  Si  Si21  1  0.750000  0.726837  0.277669  1
  Si  Si22  1  0.750000  0.773982  0.777567  1
  Si  Si23  1  0.250000  0.210659  0.391858  1
  Si  Si24  1  0.750000  0.970089  0.533690  1
  Si  Si25  1  0.750000  0.528928  0.034447  1
  Si  Si26  1  0.250000  0.471572  0.965389  1
  Si  Si27  1  0.250000  0.286842  0.893572  1
  Si  Si28  1  0.750000  0.786223  0.606462  1
  Si  Si29  1  0.750000  0.713073  0.106391  1
  Si  Si30  1  0.250000  0.225998  0.221981  1
  Hg  Hg31  1  0.250000  0.442826  0.441680  1
