# generated using pymatgen
data_Eu2DyY3(RuO7)2
_symmetry_space_group_name_H-M   'P 1'
_cell_length_a   6.44133571
_cell_length_b   6.44666322
_cell_length_c   7.46154800
_cell_angle_alpha   90.00000000
_cell_angle_beta   90.00000000
_cell_angle_gamma   109.45880500
_symmetry_Int_Tables_number   1
_chemical_formula_structural   Eu2DyY3(RuO7)2
_chemical_formula_sum   'Eu2 Dy1 Y3 Ru2 O14'
_cell_volume   292.14392111
_cell_formula_units_Z   1
loop_
 _symmetry_equiv_pos_site_id
 _symmetry_equiv_pos_as_xyz
  1  'x, y, z'
loop_
 _atom_site_type_symbol
 _atom_site_label
 _atom_site_symmetry_multiplicity
 _atom_site_fract_x
 _atom_site_fract_y
 _atom_site_fract_z
 _atom_site_occupancy
  Eu  Eu0  1  0.999999  0.999919  0.499869  1
  Eu  Eu1  1  0.999999  0.999919  0.000131  1
  Dy  Dy2  1  0.068464  0.517842  0.250000  1
  Y  Y3  1  0.482147  0.931749  0.750000  1
  Y  Y4  1  0.517796  0.068230  0.250000  1
  Y  Y5  1  0.931629  0.482064  0.750000  1
  Ru  Ru6  1  0.500226  0.500064  0.499840  1
  Ru  Ru7  1  0.500226  0.500064  0.000160  1
  O  O8  1  0.589263  0.589191  0.750000  1
  O  O9  1  0.410321  0.410892  0.250000  1
  O  O10  1  0.841016  0.114826  0.750000  1
  O  O11  1  0.158830  0.884971  0.250000  1
  O  O12  1  0.114763  0.841093  0.750000  1
  O  O13  1  0.885348  0.159471  0.250000  1
  O  O14  1  0.444791  0.184585  0.961875  1
  O  O15  1  0.555191  0.815437  0.461864  1
  O  O16  1  0.184340  0.444897  0.962334  1
  O  O17  1  0.815664  0.554933  0.461316  1
  O  O18  1  0.444791  0.184585  0.538125  1
  O  O19  1  0.555191  0.815437  0.038136  1
  O  O20  1  0.815664  0.554933  0.038684  1
  O  O21  1  0.184340  0.444897  0.537666  1
