# generated using pymatgen
data_Mn5Si2Ir
_symmetry_space_group_name_H-M   'P 1'
_cell_length_a   4.08273100
_cell_length_b   4.08272955
_cell_length_c   7.06668000
_cell_angle_alpha   73.20956730
_cell_angle_beta   90.00000000
_cell_angle_gamma   119.99998747
_symmetry_Int_Tables_number   1
_chemical_formula_structural   Mn5Si2Ir
_chemical_formula_sum   'Mn5 Si2 Ir1'
_cell_volume   96.16880292
_cell_formula_units_Z   1
loop_
 _symmetry_equiv_pos_site_id
 _symmetry_equiv_pos_as_xyz
  1  'x, y, z'
loop_
 _atom_site_type_symbol
 _atom_site_label
 _atom_site_symmetry_multiplicity
 _atom_site_fract_x
 _atom_site_fract_y
 _atom_site_fract_z
 _atom_site_occupancy
  Mn  Mn0  1  0.499997  0.999995  0.500008  1
  Mn  Mn1  1  0.250582  0.501164  0.248254  1
  Mn  Mn2  1  0.749113  0.498226  0.752661  1
  Mn  Mn3  1  0.870741  0.741481  0.387777  1
  Mn  Mn4  1  0.380847  0.761693  0.857460  1
  Si  Si5  1  0.620801  0.241601  0.137598  1
  Si  Si6  1  0.128957  0.257912  0.613131  1
  Ir  Ir7  1  0.998963  0.997927  0.003109  1
