# generated using pymatgen
data_Hf16Ir7PtO4
_symmetry_space_group_name_H-M   'P 1'
_cell_length_a   8.75363226
_cell_length_b   8.73145065
_cell_length_c   8.73145000
_cell_angle_alpha   59.99999490
_cell_angle_beta   60.08378327
_cell_angle_gamma   60.08377352
_symmetry_Int_Tables_number   1
_chemical_formula_structural   Hf16Ir7PtO4
_chemical_formula_sum   'Hf16 Ir7 Pt1 O4'
_cell_volume   472.49242598
_cell_formula_units_Z   1
loop_
 _symmetry_equiv_pos_site_id
 _symmetry_equiv_pos_as_xyz
  1  'x, y, z'
loop_
 _atom_site_type_symbol
 _atom_site_label
 _atom_site_symmetry_multiplicity
 _atom_site_fract_x
 _atom_site_fract_y
 _atom_site_fract_z
 _atom_site_occupancy
  Hf  Hf0  1  0.815716  0.184068  0.816148  1
  Hf  Hf1  1  0.185460  0.814739  0.185062  1
  Hf  Hf2  1  0.435301  0.064739  0.435223  1
  Hf  Hf3  1  0.435301  0.064739  0.064739  1
  Hf  Hf4  1  0.066502  0.436252  0.436252  1
  Hf  Hf5  1  0.066502  0.436252  0.060994  1
  Hf  Hf6  1  0.185460  0.185062  0.814739  1
  Hf  Hf7  1  0.435301  0.435223  0.064739  1
  Hf  Hf8  1  0.128250  0.623917  0.623917  1
  Hf  Hf9  1  0.623537  0.625833  0.124798  1
  Hf  Hf10  1  0.623537  0.625833  0.625833  1
  Hf  Hf11  1  0.623537  0.124798  0.625833  1
  Hf  Hf12  1  0.185460  0.814739  0.814739  1
  Hf  Hf13  1  0.815716  0.184068  0.184068  1
  Hf  Hf14  1  0.066502  0.060994  0.436252  1
  Hf  Hf15  1  0.815716  0.816148  0.184068  1
  Ir  Ir16  1  0.403264  0.787373  0.404681  1
  Ir  Ir17  1  0.844879  0.843279  0.468562  1
  Ir  Ir18  1  0.844879  0.843279  0.843279  1
  Ir  Ir19  1  0.466839  0.844387  0.844387  1
  Ir  Ir20  1  0.403264  0.404681  0.404681  1
  Ir  Ir21  1  0.403264  0.404681  0.787373  1
  Ir  Ir22  1  0.844879  0.468562  0.843279  1
  Pt  Pt23  1  0.783434  0.405522  0.405522  1
  O  O24  1  0.124141  0.125378  0.625101  1
  O  O25  1  0.625077  0.124974  0.124974  1
  O  O26  1  0.124141  0.125378  0.125378  1
  O  O27  1  0.124141  0.625101  0.125378  1
