# generated using pymatgen
data_NdThCdNi2
_symmetry_space_group_name_H-M   'P 1'
_cell_length_a   7.62876800
_cell_length_b   7.62685700
_cell_length_c   3.73053500
_cell_angle_alpha   90.00000000
_cell_angle_beta   90.00000000
_cell_angle_gamma   90.00000000
_symmetry_Int_Tables_number   1
_chemical_formula_structural   NdThCdNi2
_chemical_formula_sum   'Nd2 Th2 Cd2 Ni4'
_cell_volume   217.05566757
_cell_formula_units_Z   2
loop_
 _symmetry_equiv_pos_site_id
 _symmetry_equiv_pos_as_xyz
  1  'x, y, z'
loop_
 _atom_site_type_symbol
 _atom_site_label
 _atom_site_symmetry_multiplicity
 _atom_site_fract_x
 _atom_site_fract_y
 _atom_site_fract_z
 _atom_site_occupancy
  Nd  Nd0  1  0.174586  0.326361  0.500000  1
  Nd  Nd1  1  0.674586  0.173639  0.500000  1
  Th  Th2  1  0.325940  0.828443  0.500000  1
  Th  Th3  1  0.825940  0.671557  0.500000  1
  Cd  Cd4  1  0.998607  0.005642  0.000000  1
  Cd  Cd5  1  0.498607  0.494358  0.000000  1
  Ni  Ni6  1  0.379151  0.102862  0.000000  1
  Ni  Ni7  1  0.879151  0.397138  0.000000  1
  Ni  Ni8  1  0.121716  0.635861  0.000000  1
  Ni  Ni9  1  0.621716  0.864139  0.000000  1
