# generated using pymatgen
data_NaLi6BiO6
_symmetry_space_group_name_H-M   'P 1'
_cell_length_a   5.47169416
_cell_length_b   5.47169415
_cell_length_c   5.47169434
_cell_angle_alpha   101.55165565
_cell_angle_beta   101.55164934
_cell_angle_gamma   101.55165877
_symmetry_Int_Tables_number   1
_chemical_formula_structural   NaLi6BiO6
_chemical_formula_sum   'Na1 Li6 Bi1 O6'
_cell_volume   152.24088318
_cell_formula_units_Z   1
loop_
 _symmetry_equiv_pos_site_id
 _symmetry_equiv_pos_as_xyz
  1  'x, y, z'
loop_
 _atom_site_type_symbol
 _atom_site_label
 _atom_site_symmetry_multiplicity
 _atom_site_fract_x
 _atom_site_fract_y
 _atom_site_fract_z
 _atom_site_occupancy
  Na  Na0  1  0.500000  0.500000  0.500000  1
  Li  Li1  1  0.000000  0.344517  0.655483  1
  Li  Li2  1  0.655483  0.000000  0.344517  1
  Li  Li3  1  0.655483  0.344517  0.000000  1
  Li  Li4  1  0.344517  0.000000  0.655483  1
  Li  Li5  1  0.000000  0.655483  0.344517  1
  Li  Li6  1  0.344517  0.655483  0.000000  1
  Bi  Bi7  1  0.000000  0.000000  0.000000  1
  O  O8  1  0.282273  0.908519  0.282273  1
  O  O9  1  0.908519  0.282273  0.282273  1
  O  O10  1  0.717727  0.717727  0.091481  1
  O  O11  1  0.717727  0.091481  0.717727  1
  O  O12  1  0.091481  0.717727  0.717727  1
  O  O13  1  0.282273  0.282273  0.908519  1
