# generated using pymatgen
data_LaScP7Ru12
_symmetry_space_group_name_H-M   'P 1'
_cell_length_a   9.44366000
_cell_length_b   9.44365946
_cell_length_c   3.94842000
_cell_angle_alpha   90.00000000
_cell_angle_beta   90.00000000
_cell_angle_gamma   119.99999393
_symmetry_Int_Tables_number   1
_chemical_formula_structural   LaScP7Ru12
_chemical_formula_sum   'La1 Sc1 P7 Ru12'
_cell_volume   304.95423030
_cell_formula_units_Z   1
loop_
 _symmetry_equiv_pos_site_id
 _symmetry_equiv_pos_as_xyz
  1  'x, y, z'
loop_
 _atom_site_type_symbol
 _atom_site_label
 _atom_site_symmetry_multiplicity
 _atom_site_fract_x
 _atom_site_fract_y
 _atom_site_fract_z
 _atom_site_occupancy
  La  La0  1  0.333333  0.666667  0.000000  1
  Sc  Sc1  1  0.666667  0.333333  0.500000  1
  P  P2  1  0.606620  0.718825  0.500000  1
  P  P3  1  0.000000  0.000000  0.000000  1
  P  P4  1  0.281175  0.887795  0.500000  1
  P  P5  1  0.112205  0.393380  0.500000  1
  P  P6  1  0.885121  0.569232  0.000000  1
  P  P7  1  0.430768  0.315888  0.000000  1
  P  P8  1  0.684112  0.114879  0.000000  1
  Ru  Ru9  1  0.560636  0.958784  0.500000  1
  Ru  Ru10  1  0.398148  0.439364  0.500000  1
  Ru  Ru11  1  0.914516  0.118595  0.500000  1
  Ru  Ru12  1  0.204079  0.085484  0.500000  1
  Ru  Ru13  1  0.881405  0.795921  0.500000  1
  Ru  Ru14  1  0.727988  0.892175  0.000000  1
  Ru  Ru15  1  0.107825  0.835812  0.000000  1
  Ru  Ru16  1  0.164188  0.272012  0.000000  1
  Ru  Ru17  1  0.423744  0.072965  0.000000  1
  Ru  Ru18  1  0.927035  0.350781  0.000000  1
  Ru  Ru19  1  0.649219  0.576256  0.000000  1
  Ru  Ru20  1  0.041216  0.601852  0.500000  1
