# generated using pymatgen
data_Ba12Sn3PI8
_symmetry_space_group_name_H-M   'P 1'
_cell_length_a   16.78111652
_cell_length_b   16.00661655
_cell_length_c   8.73912524
_cell_angle_alpha   79.50112854
_cell_angle_beta   69.69821336
_cell_angle_gamma   31.30355653
_symmetry_Int_Tables_number   1
_chemical_formula_structural   Ba12Sn3PI8
_chemical_formula_sum   'Ba12 Sn3 P1 I8'
_cell_volume   1112.00207605
_cell_formula_units_Z   1
loop_
 _symmetry_equiv_pos_site_id
 _symmetry_equiv_pos_as_xyz
  1  'x, y, z'
loop_
 _atom_site_type_symbol
 _atom_site_label
 _atom_site_symmetry_multiplicity
 _atom_site_fract_x
 _atom_site_fract_y
 _atom_site_fract_z
 _atom_site_occupancy
  Ba  Ba0  1  0.374340  0.940610  0.599305  1
  Ba  Ba1  1  0.587937  0.091367  0.386743  1
  Ba  Ba2  1  0.302833  0.872147  0.149213  1
  Ba  Ba3  1  0.940610  0.374340  0.085747  1
  Ba  Ba4  1  0.471554  0.027360  0.030757  1
  Ba  Ba5  1  0.872147  0.302833  0.675806  1
  Ba  Ba6  1  0.091367  0.587937  0.933954  1
  Ba  Ba7  1  0.662845  0.160003  0.860182  1
  Ba  Ba8  1  0.791197  0.217969  0.210263  1
  Ba  Ba9  1  0.217969  0.791197  0.780571  1
  Ba  Ba10  1  0.160003  0.662845  0.316968  1
  Ba  Ba11  1  0.027360  0.471554  0.470329  1
  Sn  Sn12  1  0.919116  0.919116  0.080884  1
  Sn  Sn13  1  0.164013  0.164013  0.335987  1
  Sn  Sn14  1  0.333872  0.333872  0.166128  1
  P  P15  1  0.084102  0.084102  0.915898  1
  I  I16  1  0.668545  0.668545  0.831455  1
  I  I17  1  0.745172  0.745172  0.254828  1
  I  I18  1  0.250490  0.250490  0.749510  1
  I  I19  1  0.579719  0.579719  0.420281  1
  I  I20  1  0.998520  0.998520  0.501480  1
  I  I21  1  0.828251  0.828251  0.671749  1
  I  I22  1  0.423878  0.423878  0.576122  1
  I  I23  1  0.504157  0.504157  0.995843  1
