# generated using pymatgen
data_Y2LuTh(Ga3Rh)6
_symmetry_space_group_name_H-M   'P 1'
_cell_length_a   7.60283110
_cell_length_b   7.61290093
_cell_length_c   9.51448000
_cell_angle_alpha   90.00000000
_cell_angle_beta   90.00000000
_cell_angle_gamma   119.65663349
_symmetry_Int_Tables_number   1
_chemical_formula_structural   Y2LuTh(Ga3Rh)6
_chemical_formula_sum   'Y2 Lu1 Th1 Ga18 Rh6'
_cell_volume   478.55679746
_cell_formula_units_Z   1
loop_
 _symmetry_equiv_pos_site_id
 _symmetry_equiv_pos_as_xyz
  1  'x, y, z'
loop_
 _atom_site_type_symbol
 _atom_site_label
 _atom_site_symmetry_multiplicity
 _atom_site_fract_x
 _atom_site_fract_y
 _atom_site_fract_z
 _atom_site_occupancy
  Y  Y0  1  0.002199  0.330076  0.750000  1
  Y  Y1  1  0.670885  0.996808  0.250000  1
  Lu  Lu2  1  0.329300  0.002503  0.750000  1
  Th  Th3  1  0.996946  0.669288  0.250000  1
  Ga  Ga4  1  0.342169  0.547799  0.250000  1
  Ga  Ga5  1  0.659288  0.449478  0.750000  1
  Ga  Ga6  1  0.543309  0.335786  0.250000  1
  Ga  Ga7  1  0.450602  0.663173  0.750000  1
  Ga  Ga8  1  0.000469  0.329045  0.076338  1
  Ga  Ga9  1  0.000866  0.665760  0.912945  1
  Ga  Ga10  1  0.000866  0.665760  0.587055  1
  Ga  Ga11  1  0.341334  0.005626  0.423981  1
  Ga  Ga12  1  0.000469  0.329045  0.423662  1
  Ga  Ga13  1  0.664031  0.001176  0.581109  1
  Ga  Ga14  1  0.664031  0.001176  0.918891  1
  Ga  Ga15  1  0.341334  0.005626  0.076019  1
  Ga  Ga16  1  0.331288  0.330440  0.569453  1
  Ga  Ga17  1  0.662259  0.667391  0.440662  1
  Ga  Ga18  1  0.662259  0.667391  0.059338  1
  Ga  Ga19  1  0.331288  0.330440  0.930547  1
  Ga  Ga20  1  0.129751  0.131601  0.250000  1
  Ga  Ga21  1  0.873007  0.875451  0.750000  1
  Rh  Rh22  1  0.673778  0.331435  0.999990  1
  Rh  Rh23  1  0.325987  0.670727  0.999998  1
  Rh  Rh24  1  0.325987  0.670727  0.500002  1
  Rh  Rh25  1  0.673778  0.331435  0.500010  1
  Rh  Rh26  1  0.001261  0.997420  0.999932  1
  Rh  Rh27  1  0.001261  0.997420  0.500068  1
