# generated using pymatgen
data_NdMg(Si7Ir3)2
_symmetry_space_group_name_H-M   'P 1'
_cell_length_a   8.03662581
_cell_length_b   8.03662541
_cell_length_c   8.03662510
_cell_angle_alpha   56.65537892
_cell_angle_beta   56.65538170
_cell_angle_gamma   56.65537936
_symmetry_Int_Tables_number   1
_chemical_formula_structural   NdMg(Si7Ir3)2
_chemical_formula_sum   'Nd1 Mg1 Si14 Ir6'
_cell_volume   338.68094671
_cell_formula_units_Z   1
loop_
 _symmetry_equiv_pos_site_id
 _symmetry_equiv_pos_as_xyz
  1  'x, y, z'
loop_
 _atom_site_type_symbol
 _atom_site_label
 _atom_site_symmetry_multiplicity
 _atom_site_fract_x
 _atom_site_fract_y
 _atom_site_fract_z
 _atom_site_occupancy
  Nd  Nd0  1  0.500000  0.500000  0.500000  1
  Mg  Mg1  1  0.000000  0.000000  0.000000  1
  Si  Si2  1  0.852638  0.062364  0.675285  1
  Si  Si3  1  0.675285  0.852638  0.062364  1
  Si  Si4  1  0.062364  0.675285  0.852638  1
  Si  Si5  1  0.651998  0.828717  0.433480  1
  Si  Si6  1  0.250318  0.250318  0.250318  1
  Si  Si7  1  0.749682  0.749682  0.749682  1
  Si  Si8  1  0.171283  0.566520  0.348002  1
  Si  Si9  1  0.566520  0.348002  0.171283  1
  Si  Si10  1  0.348002  0.171283  0.566520  1
  Si  Si11  1  0.937636  0.324715  0.147362  1
  Si  Si12  1  0.324715  0.147362  0.937636  1
  Si  Si13  1  0.147362  0.937636  0.324715  1
  Si  Si14  1  0.828717  0.433480  0.651998  1
  Si  Si15  1  0.433480  0.651998  0.828717  1
  Ir  Ir16  1  0.752101  0.069923  0.426977  1
  Ir  Ir17  1  0.426977  0.752101  0.069923  1
  Ir  Ir18  1  0.069923  0.426977  0.752101  1
  Ir  Ir19  1  0.247899  0.930077  0.573023  1
  Ir  Ir20  1  0.573023  0.247899  0.930077  1
  Ir  Ir21  1  0.930077  0.573023  0.247899  1
