# generated using pymatgen
data_LaNd2Th(CoB10)2
_symmetry_space_group_name_H-M   'P 1'
_cell_length_a   4.19959000
_cell_length_b   5.64004671
_cell_length_c   11.24617503
_cell_angle_alpha   90.05208688
_cell_angle_beta   90.00000000
_cell_angle_gamma   90.00000000
_symmetry_Int_Tables_number   1
_chemical_formula_structural   LaNd2Th(CoB10)2
_chemical_formula_sum   'La1 Nd2 Th1 Co2 B20'
_cell_volume   266.37548438
_cell_formula_units_Z   1
loop_
 _symmetry_equiv_pos_site_id
 _symmetry_equiv_pos_as_xyz
  1  'x, y, z'
loop_
 _atom_site_type_symbol
 _atom_site_label
 _atom_site_symmetry_multiplicity
 _atom_site_fract_x
 _atom_site_fract_y
 _atom_site_fract_z
 _atom_site_occupancy
  La  La0  1  0.500000  0.301428  0.865382  1
  Nd  Nd1  1  0.500000  0.700316  0.133574  1
  Nd  Nd2  1  0.500000  0.801970  0.634836  1
  Th  Th3  1  0.500000  0.199782  0.366480  1
  Co  Co4  1  0.000000  0.497437  0.498943  1
  Co  Co5  1  0.000000  0.999267  0.000869  1
  B  B6  1  0.000000  0.126805  0.539915  1
  B  B7  1  0.000000  0.872019  0.459598  1
  B  B8  1  0.000000  0.627593  0.959375  1
  B  B9  1  0.000000  0.372358  0.041256  1
  B  B10  1  0.000000  0.155775  0.697199  1
  B  B11  1  0.000000  0.846608  0.303186  1
  B  B12  1  0.298785  0.201377  0.113403  1
  B  B13  1  0.298225  0.799508  0.887243  1
  B  B14  1  0.700969  0.700215  0.386301  1
  B  B15  1  0.701128  0.297799  0.612387  1
  B  B16  1  0.701775  0.799508  0.887243  1
  B  B17  1  0.701215  0.201377  0.113403  1
  B  B18  1  0.298872  0.297799  0.612387  1
  B  B19  1  0.299031  0.700215  0.386301  1
  B  B20  1  0.000000  0.035132  0.187654  1
  B  B21  1  0.000000  0.965569  0.813302  1
  B  B22  1  0.000000  0.534610  0.312945  1
  B  B23  1  0.000000  0.465805  0.686257  1
  B  B24  1  0.000000  0.344083  0.197793  1
  B  B25  1  0.000000  0.655644  0.802770  1
