# generated using pymatgen
data_Pr3YHf4F28
_symmetry_space_group_name_H-M   'P 1'
_cell_length_a   5.85843727
_cell_length_b   9.31331794
_cell_length_c   12.48356600
_cell_angle_alpha   62.00638162
_cell_angle_beta   90.01742804
_cell_angle_gamma   89.97666342
_symmetry_Int_Tables_number   1
_chemical_formula_structural   Pr3YHf4F28
_chemical_formula_sum   'Pr3 Y1 Hf4 F28'
_cell_volume   601.43045197
_cell_formula_units_Z   1
loop_
 _symmetry_equiv_pos_site_id
 _symmetry_equiv_pos_as_xyz
  1  'x, y, z'
loop_
 _atom_site_type_symbol
 _atom_site_label
 _atom_site_symmetry_multiplicity
 _atom_site_fract_x
 _atom_site_fract_y
 _atom_site_fract_z
 _atom_site_occupancy
  Pr  Pr0  1  0.743117  0.809665  0.266582  1
  Pr  Pr1  1  0.242952  0.187403  0.233363  1
  Pr  Pr2  1  0.256564  0.184180  0.733638  1
  Y  Y3  1  0.757833  0.811202  0.766241  1
  Hf  Hf4  1  0.745830  0.269586  0.457731  1
  Hf  Hf5  1  0.244877  0.726221  0.039730  1
  Hf  Hf6  1  0.256482  0.726563  0.549589  1
  Hf  Hf7  1  0.755518  0.279148  0.953035  1
  F  F8  1  0.464443  0.713477  0.920941  1
  F  F9  1  0.959068  0.287614  0.576561  1
  F  F10  1  0.542190  0.290890  0.074103  1
  F  F11  1  0.042055  0.713082  0.429029  1
  F  F12  1  0.464744  0.282222  0.546526  1
  F  F13  1  0.963990  0.719060  0.947128  1
  F  F14  1  0.532964  0.716730  0.456559  1
  F  F15  1  0.036033  0.287137  0.043606  1
  F  F16  1  0.763186  0.524093  0.858533  1
  F  F17  1  0.265113  0.483167  0.642168  1
  F  F18  1  0.232571  0.483772  0.136560  1
  F  F19  1  0.734638  0.513665  0.362912  1
  F  F20  1  0.760895  0.036267  0.053671  1
  F  F21  1  0.260992  0.968642  0.447376  1
  F  F22  1  0.240122  0.969488  0.944019  1
  F  F23  1  0.740791  0.027193  0.558920  1
  F  F24  1  0.992668  0.735459  0.650235  1
  F  F25  1  0.491853  0.267773  0.854418  1
  F  F26  1  0.011704  0.266476  0.357881  1
  F  F27  1  0.507899  0.732567  0.140832  1
  F  F28  1  0.039907  0.744030  0.163624  1
  F  F29  1  0.543004  0.254004  0.333073  1
  F  F30  1  0.959356  0.258855  0.830408  1
  F  F31  1  0.468759  0.747931  0.670296  1
  F  F32  1  0.418221  0.967718  0.232457  1
  F  F33  1  0.917282  0.030407  0.267482  1
  F  F34  1  0.579212  0.018040  0.765776  1
  F  F35  1  0.063163  0.966273  0.734991  1
