# generated using pymatgen
data_Li12Pr12MnW7O48
_symmetry_space_group_name_H-M   'P 1'
_cell_length_a   10.98780635
_cell_length_b   10.98780651
_cell_length_c   10.98780705
_cell_angle_alpha   109.47644603
_cell_angle_beta   109.47645235
_cell_angle_gamma   109.47644173
_symmetry_Int_Tables_number   1
_chemical_formula_structural   Li12Pr12MnW7O48
_chemical_formula_sum   'Li12 Pr12 Mn1 W7 O48'
_cell_volume   1021.00312963
_cell_formula_units_Z   1
loop_
 _symmetry_equiv_pos_site_id
 _symmetry_equiv_pos_as_xyz
  1  'x, y, z'
loop_
 _atom_site_type_symbol
 _atom_site_label
 _atom_site_symmetry_multiplicity
 _atom_site_fract_x
 _atom_site_fract_y
 _atom_site_fract_z
 _atom_site_occupancy
  Li  Li0  1  0.252133  0.875776  0.124726  1
  Li  Li1  1  0.375274  0.247867  0.124224  1
  Li  Li2  1  0.124613  0.375159  0.250609  1
  Li  Li3  1  0.624225  0.875275  0.247868  1
  Li  Li4  1  0.124842  0.749392  0.375388  1
  Li  Li5  1  0.750609  0.624613  0.375159  1
  Li  Li6  1  0.249392  0.375388  0.624842  1
  Li  Li7  1  0.875159  0.250608  0.624613  1
  Li  Li8  1  0.375776  0.124726  0.752133  1
  Li  Li9  1  0.875388  0.624842  0.749392  1
  Li  Li10  1  0.624725  0.752133  0.875776  1
  Li  Li11  1  0.747866  0.124224  0.875274  1
  Pr  Pr12  1  0.746922  0.371342  0.123037  1
  Pr  Pr13  1  0.875191  0.749050  0.124961  1
  Pr  Pr14  1  0.375039  0.624809  0.250950  1
  Pr  Pr15  1  0.871343  0.123038  0.246922  1
  Pr  Pr16  1  0.249050  0.124961  0.375191  1
  Pr  Pr17  1  0.623038  0.246922  0.371343  1
  Pr  Pr18  1  0.750950  0.875039  0.624809  1
  Pr  Pr19  1  0.376963  0.753078  0.628658  1
  Pr  Pr20  1  0.128657  0.876961  0.753078  1
  Pr  Pr21  1  0.624962  0.375191  0.749051  1
  Pr  Pr22  1  0.253078  0.628657  0.876962  1
  Pr  Pr23  1  0.124809  0.250951  0.875040  1
  Mn  Mn24  1  0.499999  0.000000  0.000000  1
  W  W25  1  0.000000  0.000000  0.000000  1
  W  W26  1  0.499999  0.499999  0.000000  1
  W  W27  1  0.000000  0.500000  0.000000  1
  W  W28  1  0.000000  0.000000  0.500000  1
  W  W29  1  0.499999  0.000000  0.500000  1
  W  W30  1  0.000000  0.500001  0.500001  1
  W  W31  1  0.500001  0.500001  0.500001  1
  O  O32  1  0.828191  0.906750  0.021680  1
  O  O33  1  0.694229  0.115042  0.027561  1
  O  O34  1  0.194616  0.672071  0.079657  1
  O  O35  1  0.385603  0.407232  0.079342  1
  O  O36  1  0.478319  0.671807  0.093249  1
  O  O37  1  0.115123  0.420690  0.092425  1
  O  O38  1  0.527561  0.194228  0.115040  1
  O  O39  1  0.092768  0.920658  0.114398  1
  O  O40  1  0.978483  0.592887  0.171674  1
  O  O41  1  0.694182  0.578932  0.171334  1
  O  O42  1  0.078931  0.171333  0.194181  1
  O  O43  1  0.615041  0.027561  0.194228  1
  O  O44  1  0.827930  0.920344  0.305383  1
  O  O45  1  0.977352  0.385020  0.305856  1
  O  O46  1  0.406751  0.021680  0.328192  1
  O  O47  1  0.420343  0.305384  0.327929  1
  O  O48  1  0.079311  0.907576  0.384877  1
  O  O49  1  0.805856  0.477352  0.385021  1
  O  O50  1  0.328324  0.521518  0.407112  1
  O  O51  1  0.579342  0.885603  0.407232  1
  O  O52  1  0.592425  0.615124  0.420690  1
  O  O53  1  0.328667  0.805819  0.421069  1
  O  O54  1  0.092885  0.171674  0.478482  1
  O  O55  1  0.885021  0.305855  0.477352  1
  O  O56  1  0.114979  0.694144  0.522648  1
  O  O57  1  0.907114  0.828326  0.521518  1
  O  O58  1  0.407574  0.384876  0.579310  1
  O  O59  1  0.671333  0.194182  0.578932  1
  O  O60  1  0.671674  0.478483  0.592886  1
  O  O61  1  0.420657  0.114397  0.592767  1
  O  O62  1  0.194144  0.522648  0.614979  1
  O  O63  1  0.920690  0.092426  0.615124  1
  O  O64  1  0.579657  0.694616  0.672070  1
  O  O65  1  0.593250  0.978319  0.671808  1
  O  O66  1  0.172070  0.079656  0.694616  1
  O  O67  1  0.022648  0.614979  0.694145  1
  O  O68  1  0.384958  0.972439  0.805771  1
  O  O69  1  0.921069  0.828667  0.805818  1
  O  O70  1  0.305819  0.421069  0.828667  1
  O  O71  1  0.021519  0.407114  0.828326  1
  O  O72  1  0.472438  0.805770  0.884958  1
  O  O73  1  0.907232  0.079343  0.885603  1
  O  O74  1  0.521680  0.328192  0.906750  1
  O  O75  1  0.884877  0.579311  0.907575  1
  O  O76  1  0.614398  0.592769  0.920657  1
  O  O77  1  0.805383  0.327929  0.920342  1
  O  O78  1  0.305771  0.884959  0.972438  1
  O  O79  1  0.171807  0.093249  0.978319  1
