# generated using pymatgen
data_Cs4TaSbI12
_symmetry_space_group_name_H-M   'P 1'
_cell_length_a   8.46852200
_cell_length_b   8.46852200
_cell_length_c   12.21174000
_cell_angle_alpha   90.00000000
_cell_angle_beta   90.00000000
_cell_angle_gamma   90.00000000
_symmetry_Int_Tables_number   1
_chemical_formula_structural   Cs4TaSbI12
_chemical_formula_sum   'Cs4 Ta1 Sb1 I12'
_cell_volume   875.77549560
_cell_formula_units_Z   1
loop_
 _symmetry_equiv_pos_site_id
 _symmetry_equiv_pos_as_xyz
  1  'x, y, z'
loop_
 _atom_site_type_symbol
 _atom_site_label
 _atom_site_symmetry_multiplicity
 _atom_site_fract_x
 _atom_site_fract_y
 _atom_site_fract_z
 _atom_site_occupancy
  Cs  Cs0  1  0.500000  0.000000  0.718866  1
  Cs  Cs1  1  0.000000  0.500000  0.281134  1
  Cs  Cs2  1  0.500000  0.000000  0.281134  1
  Cs  Cs3  1  0.000000  0.500000  0.718866  1
  Ta  Ta4  1  0.000000  0.000000  0.000000  1
  Sb  Sb5  1  0.500000  0.500000  0.500000  1
  I  I6  1  0.000000  0.000000  0.771230  1
  I  I7  1  0.500000  0.500000  0.248846  1
  I  I8  1  0.754199  0.754199  0.500000  1
  I  I9  1  0.231302  0.231302  0.000000  1
  I  I10  1  0.754199  0.245801  0.500000  1
  I  I11  1  0.231302  0.768698  0.000000  1
  I  I12  1  0.000000  0.000000  0.228770  1
  I  I13  1  0.500000  0.500000  0.751154  1
  I  I14  1  0.245801  0.245801  0.500000  1
  I  I15  1  0.768698  0.768698  0.000000  1
  I  I16  1  0.245801  0.754199  0.500000  1
  I  I17  1  0.768698  0.231302  0.000000  1
