# generated using pymatgen
data_Tb3Dy(Er2Os)4
_symmetry_space_group_name_H-M   'P 1'
_cell_length_a   6.29586613
_cell_length_b   7.38128597
_cell_length_c   9.00984900
_cell_angle_alpha   90.00000000
_cell_angle_beta   90.00000000
_cell_angle_gamma   89.96009602
_symmetry_Int_Tables_number   1
_chemical_formula_structural   Tb3Dy(Er2Os)4
_chemical_formula_sum   'Tb3 Dy1 Er8 Os4'
_cell_volume   418.70189213
_cell_formula_units_Z   1
loop_
 _symmetry_equiv_pos_site_id
 _symmetry_equiv_pos_as_xyz
  1  'x, y, z'
loop_
 _atom_site_type_symbol
 _atom_site_label
 _atom_site_symmetry_multiplicity
 _atom_site_fract_x
 _atom_site_fract_y
 _atom_site_fract_z
 _atom_site_occupancy
  Tb  Tb0  1  0.870164  0.538041  0.250000  1
  Tb  Tb1  1  0.629961  0.038133  0.250000  1
  Tb  Tb2  1  0.130171  0.461811  0.750000  1
  Dy  Dy3  1  0.369751  0.961731  0.750000  1
  Er  Er4  1  0.332858  0.675742  0.062897  1
  Er  Er5  1  0.167541  0.174866  0.437193  1
  Er  Er6  1  0.666949  0.324453  0.563070  1
  Er  Er7  1  0.832209  0.824893  0.936815  1
  Er  Er8  1  0.666949  0.324453  0.936930  1
  Er  Er9  1  0.832209  0.824893  0.563185  1
  Er  Er10  1  0.332858  0.675742  0.437103  1
  Er  Er11  1  0.167541  0.174866  0.062807  1
  Os  Os12  1  0.042920  0.883146  0.250000  1
  Os  Os13  1  0.457137  0.383125  0.250000  1
  Os  Os14  1  0.958273  0.116807  0.750000  1
  Os  Os15  1  0.542508  0.617298  0.750000  1
