# generated using pymatgen
data_NdSmDy4IrBr10
_symmetry_space_group_name_H-M   'P 1'
_cell_length_a   7.44607084
_cell_length_b   9.34902330
_cell_length_c   9.35524500
_cell_angle_alpha   107.64051578
_cell_angle_beta   95.88017743
_cell_angle_gamma   105.87179886
_symmetry_Int_Tables_number   1
_chemical_formula_structural   NdSmDy4IrBr10
_chemical_formula_sum   'Nd1 Sm1 Dy4 Ir1 Br10'
_cell_volume   584.63822269
_cell_formula_units_Z   1
loop_
 _symmetry_equiv_pos_site_id
 _symmetry_equiv_pos_as_xyz
  1  'x, y, z'
loop_
 _atom_site_type_symbol
 _atom_site_label
 _atom_site_symmetry_multiplicity
 _atom_site_fract_x
 _atom_site_fract_y
 _atom_site_fract_z
 _atom_site_occupancy
  Nd  Nd0  1  0.129355  0.049617  0.752774  1
  Sm  Sm1  1  0.870996  0.950551  0.241728  1
  Dy  Dy2  1  0.973325  0.300818  0.097683  1
  Dy  Dy3  1  0.026748  0.700346  0.905276  1
  Dy  Dy4  1  0.640630  0.864806  0.821739  1
  Dy  Dy5  1  0.360171  0.135081  0.176528  1
  Ir  Ir6  1  0.000513  0.000834  0.998988  1
  Br  Br7  1  0.554550  0.177588  0.920734  1
  Br  Br8  1  0.450729  0.824587  0.082913  1
  Br  Br9  1  0.741877  0.914202  0.544828  1
  Br  Br10  1  0.250804  0.082465  0.447907  1
  Br  Br11  1  0.084164  0.379070  0.835998  1
  Br  Br12  1  0.913413  0.626628  0.169602  1
  Br  Br13  1  0.221925  0.738808  0.659036  1
  Br  Br14  1  0.779616  0.254599  0.343587  1
  Br  Br15  1  0.651685  0.551000  0.729018  1
  Br  Br16  1  0.349498  0.449000  0.271662  1
