# generated using pymatgen
data_Hf3AlTc3As2
_symmetry_space_group_name_H-M   'P 1'
_cell_length_a   7.82540943
_cell_length_b   7.82541004
_cell_length_c   7.82541027
_cell_angle_alpha   126.85549692
_cell_angle_beta   126.96316477
_cell_angle_gamma   78.39869063
_symmetry_Int_Tables_number   1
_chemical_formula_structural   Hf3AlTc3As2
_chemical_formula_sum   'Hf6 Al2 Tc6 As4'
_cell_volume   296.67939371
_cell_formula_units_Z   2
loop_
 _symmetry_equiv_pos_site_id
 _symmetry_equiv_pos_as_xyz
  1  'x, y, z'
loop_
 _atom_site_type_symbol
 _atom_site_label
 _atom_site_symmetry_multiplicity
 _atom_site_fract_x
 _atom_site_fract_y
 _atom_site_fract_z
 _atom_site_occupancy
  Hf  Hf0  1  0.451818  0.656915  0.705097  1
  Hf  Hf1  1  0.548182  0.253278  0.205097  1
  Hf  Hf2  1  0.749903  0.850295  0.600392  1
  Hf  Hf3  1  0.250097  0.850490  0.100392  1
  Hf  Hf4  1  0.048735  0.253250  0.704515  1
  Hf  Hf5  1  0.951265  0.655779  0.204515  1
  Al  Al6  1  0.250457  0.253860  0.503404  1
  Al  Al7  1  0.749543  0.252947  0.003404  1
  Tc  Tc8  1  0.500000  0.510556  0.010556  1
  Tc  Tc9  1  0.000000  0.510556  0.510556  1
  Tc  Tc10  1  0.127988  0.253216  0.124068  1
  Tc  Tc11  1  0.872012  0.996080  0.125228  1
  Tc  Tc12  1  0.370852  0.996080  0.624068  1
  Tc  Tc13  1  0.629148  0.253216  0.625228  1
  As  As14  1  0.333135  0.586579  0.253098  1
  As  As15  1  0.666865  0.919963  0.253443  1
  As  As16  1  0.166520  0.919963  0.753098  1
  As  As17  1  0.833480  0.586579  0.753443  1
