# generated using pymatgen
data_LuCrTeO6
_symmetry_space_group_name_H-M   'P 1'
_cell_length_a   5.16291900
_cell_length_b   5.16293120
_cell_length_c   9.54735800
_cell_angle_alpha   90.00012368
_cell_angle_beta   89.99948466
_cell_angle_gamma   120.00019045
_symmetry_Int_Tables_number   1
_chemical_formula_structural   LuCrTeO6
_chemical_formula_sum   'Lu2 Cr2 Te2 O12'
_cell_volume   220.39648082
_cell_formula_units_Z   2
loop_
 _symmetry_equiv_pos_site_id
 _symmetry_equiv_pos_as_xyz
  1  'x, y, z'
loop_
 _atom_site_type_symbol
 _atom_site_label
 _atom_site_symmetry_multiplicity
 _atom_site_fract_x
 _atom_site_fract_y
 _atom_site_fract_z
 _atom_site_occupancy
  Lu  Lu0  1  0.999986  0.999994  0.999998  1
  Lu  Lu1  1  0.999993  0.000001  0.499995  1
  Cr  Cr2  1  0.333327  0.666671  0.250006  1
  Cr  Cr3  1  0.666681  0.333336  0.750002  1
  Te  Te4  1  0.666666  0.333330  0.249999  1
  Te  Te5  1  0.333338  0.666667  0.750000  1
  O  O6  1  0.648935  0.639301  0.136906  1
  O  O7  1  0.360699  0.009633  0.136902  1
  O  O8  1  0.990375  0.351067  0.136904  1
  O  O9  1  0.360698  0.351064  0.363096  1
  O  O10  1  0.990365  0.639301  0.363096  1
  O  O11  1  0.648935  0.009631  0.363098  1
  O  O12  1  0.351066  0.990371  0.636903  1
  O  O13  1  0.639302  0.648933  0.636903  1
  O  O14  1  0.009632  0.360695  0.636902  1
  O  O15  1  0.009631  0.648936  0.863096  1
  O  O16  1  0.639301  0.990368  0.863098  1
  O  O17  1  0.351063  0.360695  0.863096  1
