# generated using pymatgen
data_Y7Pa(Ta3Ge4)4
_symmetry_space_group_name_H-M   'P 1'
_cell_length_a   7.00903600
_cell_length_b   7.16887606
_cell_length_c   13.55695200
_cell_angle_alpha   90.00720905
_cell_angle_beta   90.00085015
_cell_angle_gamma   90.00039152
_symmetry_Int_Tables_number   1
_chemical_formula_structural   Y7Pa(Ta3Ge4)4
_chemical_formula_sum   'Y7 Pa1 Ta12 Ge16'
_cell_volume   681.19494652
_cell_formula_units_Z   1
loop_
 _symmetry_equiv_pos_site_id
 _symmetry_equiv_pos_as_xyz
  1  'x, y, z'
loop_
 _atom_site_type_symbol
 _atom_site_label
 _atom_site_symmetry_multiplicity
 _atom_site_fract_x
 _atom_site_fract_y
 _atom_site_fract_z
 _atom_site_occupancy
  Y  Y0  1  0.493413  0.326417  0.094204  1
  Y  Y1  1  0.995397  0.173557  0.406173  1
  Y  Y2  1  0.504477  0.673616  0.594345  1
  Y  Y3  1  0.004164  0.827038  0.905289  1
  Y  Y4  1  0.504550  0.673461  0.904560  1
  Y  Y5  1  0.004164  0.826439  0.594435  1
  Y  Y6  1  0.495539  0.326155  0.406681  1
  Pa  Pa7  1  0.995826  0.173830  0.093928  1
  Ta  Ta8  1  0.663704  0.013948  0.749706  1
  Ta  Ta9  1  0.165342  0.486109  0.750299  1
  Ta  Ta10  1  0.332834  0.987563  0.249071  1
  Ta  Ta11  1  0.836192  0.510494  0.248609  1
  Ta  Ta12  1  0.840538  0.330829  0.626714  1
  Ta  Ta13  1  0.339350  0.168196  0.873864  1
  Ta  Ta14  1  0.158860  0.667921  0.126876  1
  Ta  Ta15  1  0.658635  0.829188  0.372965  1
  Ta  Ta16  1  0.160733  0.668878  0.373556  1
  Ta  Ta17  1  0.663693  0.834840  0.126146  1
  Ta  Ta18  1  0.842589  0.329489  0.875337  1
  Ta  Ta19  1  0.340538  0.169314  0.626557  1
  Ge  Ge20  1  0.805825  0.639527  0.749769  1
  Ge  Ge21  1  0.304988  0.860591  0.749729  1
  Ge  Ge22  1  0.195183  0.361546  0.251792  1
  Ge  Ge23  1  0.691794  0.139627  0.251010  1
  Ge  Ge24  1  0.540196  0.378343  0.750217  1
  Ge  Ge25  1  0.039022  0.121356  0.749759  1
  Ge  Ge26  1  0.460934  0.622420  0.249239  1
  Ge  Ge27  1  0.961059  0.878334  0.250894  1
  Ge  Ge28  1  0.675159  0.039383  0.542532  1
  Ge  Ge29  1  0.176044  0.460876  0.956755  1
  Ge  Ge30  1  0.326737  0.957486  0.041922  1
  Ge  Ge31  1  0.825007  0.539541  0.457616  1
  Ge  Ge32  1  0.324772  0.960640  0.457705  1
  Ge  Ge33  1  0.822044  0.542211  0.042428  1
  Ge  Ge34  1  0.675445  0.040226  0.956619  1
  Ge  Ge35  1  0.175255  0.460611  0.542701  1
