# generated using pymatgen
data_YbDyIrRu3
_symmetry_space_group_name_H-M   'P 1'
_cell_length_a   5.22949178
_cell_length_b   5.22949099
_cell_length_c   8.98122500
_cell_angle_alpha   90.00081722
_cell_angle_beta   89.99917976
_cell_angle_gamma   120.06648915
_symmetry_Int_Tables_number   1
_chemical_formula_structural   YbDyIrRu3
_chemical_formula_sum   'Yb2 Dy2 Ir2 Ru6'
_cell_volume   212.56597529
_cell_formula_units_Z   2
loop_
 _symmetry_equiv_pos_site_id
 _symmetry_equiv_pos_as_xyz
  1  'x, y, z'
loop_
 _atom_site_type_symbol
 _atom_site_label
 _atom_site_symmetry_multiplicity
 _atom_site_fract_x
 _atom_site_fract_y
 _atom_site_fract_z
 _atom_site_occupancy
  Yb  Yb0  1  0.333385  0.666615  0.061433  1
  Yb  Yb1  1  0.666615  0.333385  0.938567  1
  Dy  Dy2  1  0.666617  0.333383  0.574342  1
  Dy  Dy3  1  0.333383  0.666617  0.425658  1
  Ir  Ir4  1  0.000000  0.000000  0.500000  1
  Ir  Ir5  1  0.000000  0.000000  0.000000  1
  Ru  Ru6  1  0.170640  0.341430  0.749349  1
  Ru  Ru7  1  0.170774  0.829226  0.749339  1
  Ru  Ru8  1  0.658570  0.829360  0.749349  1
  Ru  Ru9  1  0.829360  0.658570  0.250651  1
  Ru  Ru10  1  0.829226  0.170774  0.250661  1
  Ru  Ru11  1  0.341430  0.170640  0.250651  1
