# generated using pymatgen
data_La7Pr3Co4
_symmetry_space_group_name_H-M   'P 1'
_cell_length_a   9.14766021
_cell_length_b   9.14822900
_cell_length_c   7.10611419
_cell_angle_alpha   86.41737354
_cell_angle_beta   86.51989715
_cell_angle_gamma   42.65229788
_symmetry_Int_Tables_number   1
_chemical_formula_structural   La7Pr3Co4
_chemical_formula_sum   'La7 Pr3 Co4'
_cell_volume   402.03718289
_cell_formula_units_Z   1
loop_
 _symmetry_equiv_pos_site_id
 _symmetry_equiv_pos_as_xyz
  1  'x, y, z'
loop_
 _atom_site_type_symbol
 _atom_site_label
 _atom_site_symmetry_multiplicity
 _atom_site_fract_x
 _atom_site_fract_y
 _atom_site_fract_z
 _atom_site_occupancy
  La  La0  1  0.015642  0.796062  0.898452  1
  La  La1  1  0.200494  0.986299  0.601686  1
  La  La2  1  0.986230  0.200798  0.101880  1
  La  La3  1  0.798800  0.012153  0.396097  1
  La  La4  1  0.360536  0.217450  0.829833  1
  La  La5  1  0.783649  0.638722  0.666617  1
  La  La6  1  0.640469  0.782295  0.167132  1
  Pr  Pr7  1  0.215364  0.358119  0.328311  1
  Pr  Pr8  1  0.572175  0.428671  0.751496  1
  Pr  Pr9  1  0.426465  0.571546  0.252009  1
  Co  Co10  1  0.171279  0.610425  0.588111  1
  Co  Co11  1  0.396510  0.829323  0.918705  1
  Co  Co12  1  0.828476  0.396194  0.418725  1
  Co  Co13  1  0.603912  0.171944  0.080947  1
