# generated using pymatgen
data_Pr16MgIn3Ir4
_symmetry_space_group_name_H-M   'P 1'
_cell_length_a   10.06261584
_cell_length_b   10.11189540
_cell_length_c   10.11189500
_cell_angle_alpha   59.99867073
_cell_angle_beta   59.83688274
_cell_angle_gamma   59.83688327
_symmetry_Int_Tables_number   1
_chemical_formula_structural   Pr16MgIn3Ir4
_chemical_formula_sum   'Pr16 Mg1 In3 Ir4'
_cell_volume   725.74074007
_cell_formula_units_Z   1
loop_
 _symmetry_equiv_pos_site_id
 _symmetry_equiv_pos_as_xyz
  1  'x, y, z'
loop_
 _atom_site_type_symbol
 _atom_site_label
 _atom_site_symmetry_multiplicity
 _atom_site_fract_x
 _atom_site_fract_y
 _atom_site_fract_z
 _atom_site_occupancy
  Pr  Pr0  1  0.348573  0.346922  0.346922  1
  Pr  Pr1  1  0.348572  0.346928  0.957581  1
  Pr  Pr2  1  0.348572  0.957581  0.346928  1
  Pr  Pr3  1  0.956449  0.347851  0.347851  1
  Pr  Pr4  1  0.807201  0.193269  0.193269  1
  Pr  Pr5  1  0.189712  0.809848  0.809848  1
  Pr  Pr6  1  0.189724  0.809841  0.190592  1
  Pr  Pr7  1  0.807203  0.193258  0.806263  1
  Pr  Pr8  1  0.189724  0.190592  0.809841  1
  Pr  Pr9  1  0.807203  0.806263  0.193258  1
  Pr  Pr10  1  0.936835  0.561818  0.561818  1
  Pr  Pr11  1  0.560826  0.940306  0.940306  1
  Pr  Pr12  1  0.560800  0.940321  0.558561  1
  Pr  Pr13  1  0.936833  0.561827  0.939534  1
  Pr  Pr14  1  0.560800  0.558561  0.940321  1
  Pr  Pr15  1  0.936833  0.939534  0.561827  1
  Mg  Mg16  1  0.273052  0.575649  0.575649  1
  In  In17  1  0.579298  0.580891  0.580891  1
  In  In18  1  0.579300  0.580889  0.258921  1
  In  In19  1  0.579300  0.258921  0.580889  1
  Ir  Ir20  1  0.142638  0.140644  0.140644  1
  Ir  Ir21  1  0.142638  0.140637  0.576076  1
  Ir  Ir22  1  0.142638  0.576076  0.140637  1
  Ir  Ir23  1  0.575275  0.141573  0.141573  1
