# generated using pymatgen
data_Hg3BiIr2(RhO7)2
_symmetry_space_group_name_H-M   'P 1'
_cell_length_a   7.25658946
_cell_length_b   7.25658883
_cell_length_c   7.35710356
_cell_angle_alpha   60.48488094
_cell_angle_beta   60.48488086
_cell_angle_gamma   60.00936367
_symmetry_Int_Tables_number   1
_chemical_formula_structural   Hg3BiIr2(RhO7)2
_chemical_formula_sum   'Hg3 Bi1 Ir2 Rh2 O14'
_cell_volume   275.95130993
_cell_formula_units_Z   1
loop_
 _symmetry_equiv_pos_site_id
 _symmetry_equiv_pos_as_xyz
  1  'x, y, z'
loop_
 _atom_site_type_symbol
 _atom_site_label
 _atom_site_symmetry_multiplicity
 _atom_site_fract_x
 _atom_site_fract_y
 _atom_site_fract_z
 _atom_site_occupancy
  Hg  Hg0  1  0.625000  0.125000  0.125000  1
  Hg  Hg1  1  0.125000  0.625000  0.125000  1
  Hg  Hg2  1  0.125000  0.125000  0.125000  1
  Bi  Bi3  1  0.125000  0.125000  0.625000  1
  Ir  Ir4  1  0.625000  0.625000  0.125000  1
  Ir  Ir5  1  0.625000  0.625000  0.625000  1
  Rh  Rh6  1  0.125000  0.625000  0.625000  1
  Rh  Rh7  1  0.625000  0.125000  0.625000  1
  O  O8  1  0.691023  0.691023  0.311654  1
  O  O9  1  0.291938  0.291938  0.701322  1
  O  O10  1  0.709348  0.299193  0.697477  1
  O  O11  1  0.306765  0.690878  0.302069  1
  O  O12  1  0.299193  0.709348  0.697477  1
  O  O13  1  0.690878  0.306765  0.302069  1
  O  O14  1  0.558977  0.558977  0.938346  1
  O  O15  1  0.958062  0.958062  0.548678  1
  O  O16  1  0.540652  0.950807  0.552523  1
  O  O17  1  0.943235  0.559122  0.947931  1
  O  O18  1  0.950807  0.540652  0.552523  1
  O  O19  1  0.559122  0.943235  0.947931  1
  O  O20  1  0.254167  0.254167  0.241347  1
  O  O21  1  0.995833  0.995833  0.008653  1
