# generated using pymatgen
data_Er17Tm3(Ir5Au)2
_symmetry_space_group_name_H-M   'P 1'
_cell_length_a   10.93831177
_cell_length_b   10.88980601
_cell_length_c   6.29739241
_cell_angle_alpha   90.00348817
_cell_angle_beta   89.83926987
_cell_angle_gamma   89.99864983
_symmetry_Int_Tables_number   1
_chemical_formula_structural   Er17Tm3(Ir5Au)2
_chemical_formula_sum   'Er17 Tm3 Ir10 Au2'
_cell_volume   750.11782761
_cell_formula_units_Z   1
loop_
 _symmetry_equiv_pos_site_id
 _symmetry_equiv_pos_as_xyz
  1  'x, y, z'
loop_
 _atom_site_type_symbol
 _atom_site_label
 _atom_site_symmetry_multiplicity
 _atom_site_fract_x
 _atom_site_fract_y
 _atom_site_fract_z
 _atom_site_occupancy
  Er  Er0  1  0.292015  0.087952  0.372100  1
  Er  Er1  1  0.291939  0.912086  0.872098  1
  Er  Er2  1  0.698254  0.091801  0.866499  1
  Er  Er3  1  0.698240  0.908164  0.366447  1
  Er  Er4  1  0.577723  0.789270  0.876850  1
  Er  Er5  1  0.577729  0.210706  0.376929  1
  Er  Er6  1  0.409087  0.790470  0.376469  1
  Er  Er7  1  0.409089  0.209508  0.876391  1
  Er  Er8  1  0.209717  0.411794  0.621936  1
  Er  Er9  1  0.209705  0.588212  0.121950  1
  Er  Er10  1  0.789715  0.419889  0.123272  1
  Er  Er11  1  0.789714  0.580110  0.623254  1
  Er  Er12  1  0.917479  0.705360  0.138113  1
  Er  Er13  1  0.917471  0.294648  0.638153  1
  Er  Er14  1  0.095683  0.703385  0.623637  1
  Er  Er15  1  0.095650  0.296554  0.123618  1
  Er  Er16  1  0.009044  0.998264  0.500235  1
  Tm  Tm17  1  0.009090  0.001712  0.000220  1
  Tm  Tm18  1  0.499800  0.498730  0.000589  1
  Tm  Tm19  1  0.499797  0.501283  0.500595  1
  Ir  Ir20  1  0.153898  0.154130  0.750349  1
  Ir  Ir21  1  0.153920  0.845938  0.249819  1
  Ir  Ir22  1  0.655525  0.346499  0.748091  1
  Ir  Ir23  1  0.655509  0.653541  0.248078  1
  Ir  Ir24  1  0.347739  0.346394  0.251768  1
  Ir  Ir25  1  0.347713  0.653597  0.751807  1
  Ir  Ir26  1  0.499360  0.999846  0.121281  1
  Ir  Ir27  1  0.499357  0.000154  0.621285  1
  Ir  Ir28  1  0.000233  0.500870  0.878587  1
  Ir  Ir29  1  0.000213  0.499135  0.378586  1
  Au  Au30  1  0.844783  0.154822  0.250177  1
  Au  Au31  1  0.844809  0.845176  0.750817  1
