# generated using pymatgen
data_Hf12Zr6Re7Ni2Mo
_symmetry_space_group_name_H-M   'P 1'
_cell_length_a   8.69196900
_cell_length_b   8.69199159
_cell_length_c   8.43353300
_cell_angle_alpha   90.00003743
_cell_angle_beta   90.00000659
_cell_angle_gamma   119.99967079
_symmetry_Int_Tables_number   1
_chemical_formula_structural   Hf12Zr6Re7Ni2Mo
_chemical_formula_sum   'Hf12 Zr6 Re7 Ni2 Mo1'
_cell_volume   551.79668537
_cell_formula_units_Z   1
loop_
 _symmetry_equiv_pos_site_id
 _symmetry_equiv_pos_as_xyz
  1  'x, y, z'
loop_
 _atom_site_type_symbol
 _atom_site_label
 _atom_site_symmetry_multiplicity
 _atom_site_fract_x
 _atom_site_fract_y
 _atom_site_fract_z
 _atom_site_occupancy
  Hf  Hf0  1  0.197919  0.802081  0.442536  1
  Hf  Hf1  1  0.197916  0.395837  0.442535  1
  Hf  Hf2  1  0.604165  0.802084  0.442536  1
  Hf  Hf3  1  0.802081  0.197919  0.557464  1
  Hf  Hf4  1  0.802084  0.604163  0.557465  1
  Hf  Hf5  1  0.395835  0.197916  0.557464  1
  Hf  Hf6  1  0.803289  0.196711  0.942188  1
  Hf  Hf7  1  0.803290  0.606578  0.942189  1
  Hf  Hf8  1  0.393423  0.196712  0.942189  1
  Hf  Hf9  1  0.196711  0.803289  0.057812  1
  Hf  Hf10  1  0.196710  0.393422  0.057811  1
  Hf  Hf11  1  0.606577  0.803288  0.057811  1
  Zr  Zr12  1  0.541429  0.458572  0.249813  1
  Zr  Zr13  1  0.541430  0.082859  0.249811  1
  Zr  Zr14  1  0.917142  0.458569  0.249812  1
  Zr  Zr15  1  0.458571  0.541428  0.750187  1
  Zr  Zr16  1  0.458570  0.917141  0.750189  1
  Zr  Zr17  1  0.082858  0.541431  0.750188  1
  Re  Re18  1  0.890241  0.109757  0.250667  1
  Re  Re19  1  0.890242  0.780485  0.250667  1
  Re  Re20  1  0.219514  0.109758  0.250666  1
  Re  Re21  1  0.109759  0.890243  0.749333  1
  Re  Re22  1  0.109758  0.219515  0.749333  1
  Re  Re23  1  0.780486  0.890242  0.749334  1
  Re  Re24  1  0.000000  0.000000  0.000000  1
  Ni  Ni25  1  0.333333  0.666665  0.249136  1
  Ni  Ni26  1  0.666667  0.333335  0.750864  1
  Mo  Mo27  1  0.000000  0.000000  0.500000  1
