# generated using pymatgen
data_DyScSi14RuRh5
_symmetry_space_group_name_H-M   'P 1'
_cell_length_a   7.92902456
_cell_length_b   7.92994520
_cell_length_c   7.94985293
_cell_angle_alpha   57.13237366
_cell_angle_beta   57.12581555
_cell_angle_gamma   57.17196933
_symmetry_Int_Tables_number   1
_chemical_formula_structural   DyScSi14RuRh5
_chemical_formula_sum   'Dy1 Sc1 Si14 Ru1 Rh5'
_cell_volume   330.19041064
_cell_formula_units_Z   1
loop_
 _symmetry_equiv_pos_site_id
 _symmetry_equiv_pos_as_xyz
  1  'x, y, z'
loop_
 _atom_site_type_symbol
 _atom_site_label
 _atom_site_symmetry_multiplicity
 _atom_site_fract_x
 _atom_site_fract_y
 _atom_site_fract_z
 _atom_site_occupancy
  Dy  Dy0  1  0.498564  0.499495  0.501483  1
  Sc  Sc1  1  0.000704  0.002325  0.998097  1
  Si  Si2  1  0.752307  0.747036  0.749723  1
  Si  Si3  1  0.249946  0.250634  0.250281  1
  Si  Si4  1  0.851797  0.064924  0.673383  1
  Si  Si5  1  0.672933  0.853002  0.064512  1
  Si  Si6  1  0.065427  0.670792  0.851939  1
  Si  Si7  1  0.649046  0.829005  0.433067  1
  Si  Si8  1  0.432413  0.650375  0.828595  1
  Si  Si9  1  0.830988  0.431908  0.650113  1
  Si  Si10  1  0.169809  0.567007  0.353866  1
  Si  Si11  1  0.567486  0.350527  0.171081  1
  Si  Si12  1  0.348648  0.172650  0.567587  1
  Si  Si13  1  0.935271  0.328117  0.144385  1
  Si  Si14  1  0.325300  0.149004  0.935089  1
  Si  Si15  1  0.147555  0.935159  0.326843  1
  Ru  Ru16  1  0.072841  0.423798  0.751980  1
  Rh  Rh17  1  0.248404  0.929505  0.572839  1
  Rh  Rh18  1  0.573663  0.247714  0.930274  1
  Rh  Rh19  1  0.929051  0.574250  0.247907  1
  Rh  Rh20  1  0.426492  0.752402  0.069975  1
  Rh  Rh21  1  0.751356  0.070370  0.426983  1
