# generated using pymatgen
data_Rb2FeCu3F10
_symmetry_space_group_name_H-M   'P 1'
_cell_length_a   6.54252905
_cell_length_b   6.62228691
_cell_length_c   7.13796000
_cell_angle_alpha   63.45320782
_cell_angle_beta   63.36565515
_cell_angle_gamma   68.54883551
_symmetry_Int_Tables_number   1
_chemical_formula_structural   Rb2FeCu3F10
_chemical_formula_sum   'Rb2 Fe1 Cu3 F10'
_cell_volume   241.95496869
_cell_formula_units_Z   1
loop_
 _symmetry_equiv_pos_site_id
 _symmetry_equiv_pos_as_xyz
  1  'x, y, z'
loop_
 _atom_site_type_symbol
 _atom_site_label
 _atom_site_symmetry_multiplicity
 _atom_site_fract_x
 _atom_site_fract_y
 _atom_site_fract_z
 _atom_site_occupancy
  Rb  Rb0  1  0.614979  0.607039  0.641444  1
  Rb  Rb1  1  0.385021  0.392961  0.358556  1
  Fe  Fe2  1  0.000000  0.000000  0.500000  1
  Cu  Cu3  1  0.000000  0.500000  0.000000  1
  Cu  Cu4  1  0.500000  0.000000  0.000000  1
  Cu  Cu5  1  0.000000  0.000000  0.000000  1
  F  F6  1  0.284408  0.281346  0.905936  1
  F  F7  1  0.715592  0.718654  0.094064  1
  F  F8  1  0.075827  0.094545  0.679300  1
  F  F9  1  0.924173  0.905455  0.320700  1
  F  F10  1  0.055963  0.672011  0.674756  1
  F  F11  1  0.333629  0.960765  0.323662  1
  F  F12  1  0.944037  0.327989  0.325244  1
  F  F13  1  0.666371  0.039235  0.676338  1
  F  F14  1  0.756850  0.269272  0.004233  1
  F  F15  1  0.243150  0.730728  0.995767  1
