# generated using pymatgen
data_Tb2Dy3P12Ru6Rh13
_symmetry_space_group_name_H-M   'P 1'
_cell_length_a   12.64760152
_cell_length_b   12.65598999
_cell_length_c   3.93990300
_cell_angle_alpha   90.00000000
_cell_angle_beta   90.00000000
_cell_angle_gamma   120.08878810
_symmetry_Int_Tables_number   1
_chemical_formula_structural   Tb2Dy3P12Ru6Rh13
_chemical_formula_sum   'Tb2 Dy3 P12 Ru6 Rh13'
_cell_volume   545.67141576
_cell_formula_units_Z   1
loop_
 _symmetry_equiv_pos_site_id
 _symmetry_equiv_pos_as_xyz
  1  'x, y, z'
loop_
 _atom_site_type_symbol
 _atom_site_label
 _atom_site_symmetry_multiplicity
 _atom_site_fract_x
 _atom_site_fract_y
 _atom_site_fract_z
 _atom_site_occupancy
  Tb  Tb0  1  0.668580  0.332103  0.000000  1
  Tb  Tb1  1  0.332647  0.667337  0.000000  1
  Dy  Dy2  1  0.814006  0.001261  0.500000  1
  Dy  Dy3  1  0.184872  0.187022  0.500000  1
  Dy  Dy4  1  0.999569  0.813380  0.500000  1
  P  P5  1  0.635638  0.999594  0.000000  1
  P  P6  1  0.364755  0.365252  0.000000  1
  P  P7  1  0.000412  0.633322  0.000000  1
  P  P8  1  0.688252  0.519187  0.500000  1
  P  P9  1  0.832442  0.309957  0.500000  1
  P  P10  1  0.316252  0.834202  0.500000  1
  P  P11  1  0.518984  0.690939  0.500000  1
  P  P12  1  0.180745  0.999799  0.000000  1
  P  P13  1  0.818649  0.818193  0.000000  1
  P  P14  1  0.996522  0.179070  0.000000  1
  P  P15  1  0.478781  0.167584  0.500000  1
  P  P16  1  0.164984  0.479987  0.500000  1
  Ru  Ru17  1  0.513844  0.874173  0.500000  1
  Ru  Ru18  1  0.715368  0.714866  0.500000  1
  Ru  Ru19  1  0.000641  0.284705  0.500000  1
  Ru  Ru20  1  0.003434  0.451949  0.000000  1
  Ru  Ru21  1  0.818241  0.195220  0.000000  1
  Ru  Ru22  1  0.281769  0.999190  0.500000  1
  Rh  Rh23  1  0.624116  0.804652  0.000000  1
  Rh  Rh24  1  0.181741  0.374822  0.000000  1
  Rh  Rh25  1  0.375339  0.182015  0.000000  1
  Rh  Rh26  1  0.194832  0.817726  0.000000  1
  Rh  Rh27  1  0.804167  0.621330  0.000000  1
  Rh  Rh28  1  0.872786  0.510027  0.500000  1
  Rh  Rh29  1  0.491074  0.360016  0.500000  1
  Rh  Rh30  1  0.637522  0.129709  0.500000  1
  Rh  Rh31  1  0.129039  0.640401  0.500000  1
  Rh  Rh32  1  0.358747  0.492092  0.500000  1
  Rh  Rh33  1  0.999608  0.998949  0.000000  1
  Rh  Rh34  1  0.454220  0.002140  0.000000  1
  Rh  Rh35  1  0.547422  0.547828  0.000000  1
