# generated using pymatgen
data_Y5Zr3Mn3As12Pd13
_symmetry_space_group_name_H-M   'P 1'
_cell_length_a   13.67833900
_cell_length_b   13.67833834
_cell_length_c   3.98511800
_cell_angle_alpha   90.00000000
_cell_angle_beta   90.00000000
_cell_angle_gamma   120.00000402
_symmetry_Int_Tables_number   1
_chemical_formula_structural   Y5Zr3Mn3As12Pd13
_chemical_formula_sum   'Y5 Zr3 Mn3 As12 Pd13'
_cell_volume   645.71147501
_cell_formula_units_Z   1
loop_
 _symmetry_equiv_pos_site_id
 _symmetry_equiv_pos_as_xyz
  1  'x, y, z'
loop_
 _atom_site_type_symbol
 _atom_site_label
 _atom_site_symmetry_multiplicity
 _atom_site_fract_x
 _atom_site_fract_y
 _atom_site_fract_z
 _atom_site_occupancy
  Y  Y0  1  0.187074  0.187074  0.500000  1
  Y  Y1  1  0.812926  0.000000  0.500000  1
  Y  Y2  1  0.000000  0.812926  0.500000  1
  Y  Y3  1  0.333333  0.666667  0.000000  1
  Y  Y4  1  0.666667  0.333333  0.000000  1
  Zr  Zr5  1  0.551016  0.551016  0.000000  1
  Zr  Zr6  1  0.448984  0.000000  0.000000  1
  Zr  Zr7  1  0.000000  0.448984  0.000000  1
  Mn  Mn8  1  0.715001  0.715001  0.500000  1
  Mn  Mn9  1  0.284999  0.000000  0.500000  1
  Mn  Mn10  1  0.000000  0.284999  0.500000  1
  As  As11  1  0.825038  0.825038  0.000000  1
  As  As12  1  0.174962  0.000000  0.000000  1
  As  As13  1  0.000000  0.174962  0.000000  1
  As  As14  1  0.162392  0.485324  0.500000  1
  As  As15  1  0.514676  0.677067  0.500000  1
  As  As16  1  0.322933  0.837608  0.500000  1
  As  As17  1  0.677067  0.514676  0.500000  1
  As  As18  1  0.837608  0.322933  0.500000  1
  As  As19  1  0.485324  0.162392  0.500000  1
  As  As20  1  0.354935  0.354935  0.000000  1
  As  As21  1  0.645065  0.000000  0.000000  1
  As  As22  1  0.000000  0.645065  0.000000  1
  Pd  Pd23  1  0.174983  0.366450  0.000000  1
  Pd  Pd24  1  0.633550  0.808533  0.000000  1
  Pd  Pd25  1  0.191467  0.825017  0.000000  1
  Pd  Pd26  1  0.808533  0.633550  0.000000  1
  Pd  Pd27  1  0.825017  0.191467  0.000000  1
  Pd  Pd28  1  0.366450  0.174983  0.000000  1
  Pd  Pd29  1  0.349309  0.483039  0.500000  1
  Pd  Pd30  1  0.516961  0.866270  0.500000  1
  Pd  Pd31  1  0.133730  0.650691  0.500000  1
  Pd  Pd32  1  0.866270  0.516961  0.500000  1
  Pd  Pd33  1  0.650691  0.133730  0.500000  1
  Pd  Pd34  1  0.483039  0.349309  0.500000  1
  Pd  Pd35  1  0.000000  0.000000  0.000000  1
