# generated using pymatgen
data_Y6Sc4Tl5Bi
_symmetry_space_group_name_H-M   'P 1'
_cell_length_a   8.83321300
_cell_length_b   8.83321342
_cell_length_c   6.27909900
_cell_angle_alpha   90.00000000
_cell_angle_beta   90.00000000
_cell_angle_gamma   119.97698104
_symmetry_Int_Tables_number   1
_chemical_formula_structural   Y6Sc4Tl5Bi
_chemical_formula_sum   'Y6 Sc4 Tl5 Bi1'
_cell_volume   424.39091497
_cell_formula_units_Z   1
loop_
 _symmetry_equiv_pos_site_id
 _symmetry_equiv_pos_as_xyz
  1  'x, y, z'
loop_
 _atom_site_type_symbol
 _atom_site_label
 _atom_site_symmetry_multiplicity
 _atom_site_fract_x
 _atom_site_fract_y
 _atom_site_fract_z
 _atom_site_occupancy
  Y  Y0  1  0.761891  0.761891  0.250000  1
  Y  Y1  1  0.001204  0.238091  0.250000  1
  Y  Y2  1  0.762904  0.005412  0.750000  1
  Y  Y3  1  0.238091  0.001204  0.250000  1
  Y  Y4  1  0.005412  0.762904  0.750000  1
  Y  Y5  1  0.233599  0.233599  0.750000  1
  Sc  Sc6  1  0.330364  0.667267  0.495861  1
  Sc  Sc7  1  0.667267  0.330364  0.495861  1
  Sc  Sc8  1  0.330364  0.667267  0.004139  1
  Sc  Sc9  1  0.667267  0.330364  0.004139  1
  Tl  Tl10  1  0.408178  0.001689  0.750000  1
  Tl  Tl11  1  0.593109  0.996634  0.250000  1
  Tl  Tl12  1  0.001689  0.408178  0.750000  1
  Tl  Tl13  1  0.401012  0.401012  0.250000  1
  Tl  Tl14  1  0.996634  0.593109  0.250000  1
  Bi  Bi15  1  0.601013  0.601013  0.750000  1
