# generated using pymatgen
data_H8SeF6
_symmetry_space_group_name_H-M   'P 1'
_cell_length_a   4.18643350
_cell_length_b   4.07817900
_cell_length_c   12.09446279
_cell_angle_alpha   96.16064399
_cell_angle_beta   95.03776667
_cell_angle_gamma   100.69734585
_symmetry_Int_Tables_number   1
_chemical_formula_structural   H8SeF6
_chemical_formula_sum   'H8 Se1 F6'
_cell_volume   200.49849199
_cell_formula_units_Z   1
loop_
 _symmetry_equiv_pos_site_id
 _symmetry_equiv_pos_as_xyz
  1  'x, y, z'
loop_
 _atom_site_type_symbol
 _atom_site_label
 _atom_site_symmetry_multiplicity
 _atom_site_fract_x
 _atom_site_fract_y
 _atom_site_fract_z
 _atom_site_occupancy
  H  H0  1  0.315957  0.595296  0.638151  1
  H  H1  1  0.781050  0.600571  0.553519  1
  H  H2  1  0.075106  0.925176  0.135498  1
  H  H3  1  0.946790  0.171422  0.645822  1
  H  H4  1  0.141847  0.661343  0.267791  1
  H  H5  1  0.457322  0.197980  0.878500  1
  H  H6  1  0.829710  0.505937  0.386477  1
  H  H7  1  0.143499  0.212048  0.007839  1
  Se  Se8  1  0.018930  0.528202  0.697234  1
  F  F9  1  0.273815  0.820154  0.225159  1
  F  F10  1  0.285766  0.363709  0.965711  1
  F  F11  1  0.953562  0.416857  0.328112  1
  F  F12  1  0.558558  0.096352  0.817009  1
  F  F13  1  0.942502  0.003934  0.075690  1
  F  F14  1  0.662860  0.630889  0.478452  1
