# generated using pymatgen
data_Er7ThSnPd24
_symmetry_space_group_name_H-M   'P 1'
_cell_length_a   8.39433209
_cell_length_b   8.39433209
_cell_length_c   8.39433209
_cell_angle_alpha   90.01171201
_cell_angle_beta   90.01171201
_cell_angle_gamma   90.01171201
_symmetry_Int_Tables_number   1
_chemical_formula_structural   Er7ThSnPd24
_chemical_formula_sum   'Er7 Th1 Sn1 Pd24'
_cell_volume   591.50498862
_cell_formula_units_Z   1
loop_
 _symmetry_equiv_pos_site_id
 _symmetry_equiv_pos_as_xyz
  1  'x, y, z'
loop_
 _atom_site_type_symbol
 _atom_site_label
 _atom_site_symmetry_multiplicity
 _atom_site_fract_x
 _atom_site_fract_y
 _atom_site_fract_z
 _atom_site_occupancy
  Er  Er0  1  0.746548  0.746548  0.746548  1
  Er  Er1  1  0.746567  0.746567  0.253313  1
  Er  Er2  1  0.746567  0.253313  0.746567  1
  Er  Er3  1  0.253223  0.253223  0.747024  1
  Er  Er4  1  0.253223  0.747024  0.253223  1
  Er  Er5  1  0.253313  0.746567  0.746567  1
  Er  Er6  1  0.747024  0.253223  0.253223  1
  Th  Th7  1  0.254176  0.254176  0.254176  1
  Sn  Sn8  1  0.999300  0.999300  0.999300  1
  Pd  Pd9  1  0.264559  0.500749  0.999008  1
  Pd  Pd10  1  0.735425  0.500254  0.999889  1
  Pd  Pd11  1  0.999008  0.264559  0.500749  1
  Pd  Pd12  1  0.500749  0.264559  0.999008  1
  Pd  Pd13  1  0.999889  0.735425  0.500254  1
  Pd  Pd14  1  0.500254  0.735425  0.999889  1
  Pd  Pd15  1  0.500749  0.999008  0.264559  1
  Pd  Pd16  1  0.264559  0.999008  0.500749  1
  Pd  Pd17  1  0.500254  0.999889  0.735425  1
  Pd  Pd18  1  0.735425  0.999889  0.500254  1
  Pd  Pd19  1  0.999008  0.500749  0.264559  1
  Pd  Pd20  1  0.999889  0.500254  0.735425  1
  Pd  Pd21  1  0.254631  0.501160  0.501160  1
  Pd  Pd22  1  0.745577  0.500149  0.500149  1
  Pd  Pd23  1  0.501160  0.254631  0.501160  1
  Pd  Pd24  1  0.500149  0.745577  0.500149  1
  Pd  Pd25  1  0.501160  0.501160  0.254631  1
  Pd  Pd26  1  0.500149  0.500149  0.745577  1
  Pd  Pd27  1  0.307069  0.998669  0.998669  1
  Pd  Pd28  1  0.693335  0.999862  0.999862  1
  Pd  Pd29  1  0.998669  0.307069  0.998669  1
  Pd  Pd30  1  0.999862  0.693335  0.999862  1
  Pd  Pd31  1  0.998669  0.998669  0.307069  1
  Pd  Pd32  1  0.999862  0.999862  0.693335  1
