# generated using pymatgen
data_Y2Si13GeIr6
_symmetry_space_group_name_H-M   'P 1'
_cell_length_a   8.07774936
_cell_length_b   8.07774779
_cell_length_c   8.07774936
_cell_angle_alpha   56.58518469
_cell_angle_beta   56.58518652
_cell_angle_gamma   56.58518383
_symmetry_Int_Tables_number   1
_chemical_formula_structural   Y2Si13GeIr6
_chemical_formula_sum   'Y2 Si13 Ge1 Ir6'
_cell_volume   343.29257585
_cell_formula_units_Z   1
loop_
 _symmetry_equiv_pos_site_id
 _symmetry_equiv_pos_as_xyz
  1  'x, y, z'
loop_
 _atom_site_type_symbol
 _atom_site_label
 _atom_site_symmetry_multiplicity
 _atom_site_fract_x
 _atom_site_fract_y
 _atom_site_fract_z
 _atom_site_occupancy
  Y  Y0  1  0.000006  0.000006  0.000006  1
  Y  Y1  1  0.499994  0.499994  0.499994  1
  Si  Si2  1  0.250000  0.250000  0.250000  1
  Si  Si3  1  0.851183  0.066642  0.671350  1
  Si  Si4  1  0.671350  0.851183  0.066642  1
  Si  Si5  1  0.066642  0.671350  0.851183  1
  Si  Si6  1  0.648817  0.828650  0.433358  1
  Si  Si7  1  0.433358  0.648817  0.828650  1
  Si  Si8  1  0.828650  0.433358  0.648817  1
  Si  Si9  1  0.172867  0.561629  0.351408  1
  Si  Si10  1  0.561629  0.351408  0.172867  1
  Si  Si11  1  0.351408  0.172867  0.561629  1
  Si  Si12  1  0.938371  0.327133  0.148592  1
  Si  Si13  1  0.327133  0.148592  0.938371  1
  Si  Si14  1  0.148592  0.938371  0.327133  1
  Ge  Ge15  1  0.750000  0.750000  0.750000  1
  Ir  Ir16  1  0.076375  0.423625  0.750000  1
  Ir  Ir17  1  0.250000  0.930122  0.569878  1
  Ir  Ir18  1  0.569878  0.250000  0.930122  1
  Ir  Ir19  1  0.930122  0.569878  0.250000  1
  Ir  Ir20  1  0.423625  0.750000  0.076375  1
  Ir  Ir21  1  0.750000  0.076375  0.423625  1
