# generated using pymatgen
data_TbZrSi2Mo3P5Rh9
_symmetry_space_group_name_H-M   'P 1'
_cell_length_a   3.93061154
_cell_length_b   9.49638020
_cell_length_c   9.49987100
_cell_angle_alpha   120.00222173
_cell_angle_beta   90.07684897
_cell_angle_gamma   89.89979059
_symmetry_Int_Tables_number   1
_chemical_formula_structural   TbZrSi2Mo3P5Rh9
_chemical_formula_sum   'Tb1 Zr1 Si2 Mo3 P5 Rh9'
_cell_volume   307.08323528
_cell_formula_units_Z   1
loop_
 _symmetry_equiv_pos_site_id
 _symmetry_equiv_pos_as_xyz
  1  'x, y, z'
loop_
 _atom_site_type_symbol
 _atom_site_label
 _atom_site_symmetry_multiplicity
 _atom_site_fract_x
 _atom_site_fract_y
 _atom_site_fract_z
 _atom_site_occupancy
  Tb  Tb0  1  0.261890  0.667553  0.333835  1
  Zr  Zr1  1  0.761909  0.332108  0.665608  1
  Si  Si2  1  0.261882  0.000377  0.001239  1
  Si  Si3  1  0.261855  0.117886  0.415783  1
  Mo  Mo4  1  0.761703  0.090982  0.873093  1
  Mo  Mo5  1  0.762081  0.128253  0.219318  1
  Mo  Mo6  1  0.761839  0.778392  0.906946  1
  P  P7  1  0.761623  0.881432  0.595861  1
  P  P8  1  0.762020  0.405119  0.285256  1
  P  P9  1  0.762006  0.716799  0.121705  1
  P  P10  1  0.262066  0.584060  0.701092  1
  P  P11  1  0.261938  0.298025  0.882705  1
  Rh  Rh12  1  0.261916  0.877863  0.159838  1
  Rh  Rh13  1  0.261701  0.835758  0.719674  1
  Rh  Rh14  1  0.261968  0.282474  0.117486  1
  Rh  Rh15  1  0.761824  0.607727  0.559706  1
  Rh  Rh16  1  0.761834  0.440892  0.046164  1
  Rh  Rh17  1  0.762060  0.952611  0.394245  1
  Rh  Rh18  1  0.262256  0.370255  0.439308  1
  Rh  Rh19  1  0.261672  0.557816  0.923215  1
  Rh  Rh20  1  0.261959  0.073617  0.637923  1
