# generated using pymatgen
data_La2PtRh3
_symmetry_space_group_name_H-M   'P 1'
_cell_length_a   5.47693339
_cell_length_b   5.47693378
_cell_length_c   5.47693364
_cell_angle_alpha   60.32286687
_cell_angle_beta   60.32286763
_cell_angle_gamma   60.32285771
_symmetry_Int_Tables_number   1
_chemical_formula_structural   La2PtRh3
_chemical_formula_sum   'La2 Pt1 Rh3'
_cell_volume   117.01955881
_cell_formula_units_Z   1
loop_
 _symmetry_equiv_pos_site_id
 _symmetry_equiv_pos_as_xyz
  1  'x, y, z'
loop_
 _atom_site_type_symbol
 _atom_site_label
 _atom_site_symmetry_multiplicity
 _atom_site_fract_x
 _atom_site_fract_y
 _atom_site_fract_z
 _atom_site_occupancy
  La  La0  1  0.500209  0.500209  0.500209  1
  La  La1  1  0.749791  0.749791  0.749791  1
  Pt  Pt2  1  0.125000  0.125000  0.125000  1
  Rh  Rh3  1  0.625000  0.125000  0.125000  1
  Rh  Rh4  1  0.125000  0.625000  0.125000  1
  Rh  Rh5  1  0.125000  0.125000  0.625000  1
