# generated using pymatgen
data_Ba3YbRhO6
_symmetry_space_group_name_H-M   'P 1'
_cell_length_a   7.14261868
_cell_length_b   7.14261855
_cell_length_c   7.14261776
_cell_angle_alpha   92.90702931
_cell_angle_beta   92.90703367
_cell_angle_gamma   92.90703251
_symmetry_Int_Tables_number   1
_chemical_formula_structural   Ba3YbRhO6
_chemical_formula_sum   'Ba6 Yb2 Rh2 O12'
_cell_volume   362.93862178
_cell_formula_units_Z   2
loop_
 _symmetry_equiv_pos_site_id
 _symmetry_equiv_pos_as_xyz
  1  'x, y, z'
loop_
 _atom_site_type_symbol
 _atom_site_label
 _atom_site_symmetry_multiplicity
 _atom_site_fract_x
 _atom_site_fract_y
 _atom_site_fract_z
 _atom_site_occupancy
  Ba  Ba0  1  0.884581  0.250000  0.615419  1
  Ba  Ba1  1  0.250000  0.615419  0.884581  1
  Ba  Ba2  1  0.384581  0.115419  0.750000  1
  Ba  Ba3  1  0.750000  0.384581  0.115419  1
  Ba  Ba4  1  0.115419  0.750000  0.384581  1
  Ba  Ba5  1  0.615419  0.884581  0.250000  1
  Yb  Yb6  1  0.250000  0.250000  0.250000  1
  Yb  Yb7  1  0.750000  0.750000  0.750000  1
  Rh  Rh8  1  0.500000  0.500000  0.500000  1
  Rh  Rh9  1  0.000000  0.000000  0.000000  1
  O  O10  1  0.724072  0.040446  0.910790  1
  O  O11  1  0.959554  0.089210  0.275928  1
  O  O12  1  0.775928  0.589210  0.459554  1
  O  O13  1  0.589210  0.459554  0.775928  1
  O  O14  1  0.459554  0.775928  0.589210  1
  O  O15  1  0.040446  0.910790  0.724072  1
  O  O16  1  0.410790  0.540446  0.224072  1
  O  O17  1  0.275928  0.959554  0.089210  1
  O  O18  1  0.224072  0.410790  0.540446  1
  O  O19  1  0.540446  0.224072  0.410790  1
  O  O20  1  0.910790  0.724072  0.040446  1
  O  O21  1  0.089210  0.275928  0.959554  1
