# generated using pymatgen
data_Tb4Re5TcB12
_symmetry_space_group_name_H-M   'P 1'
_cell_length_a   6.22904589
_cell_length_b   6.22904476
_cell_length_c   7.52763673
_cell_angle_alpha   90.63896071
_cell_angle_beta   90.63897549
_cell_angle_gamma   113.84964886
_symmetry_Int_Tables_number   1
_chemical_formula_structural   Tb4Re5TcB12
_chemical_formula_sum   'Tb4 Re5 Tc1 B12'
_cell_volume   267.08328898
_cell_formula_units_Z   1
loop_
 _symmetry_equiv_pos_site_id
 _symmetry_equiv_pos_as_xyz
  1  'x, y, z'
loop_
 _atom_site_type_symbol
 _atom_site_label
 _atom_site_symmetry_multiplicity
 _atom_site_fract_x
 _atom_site_fract_y
 _atom_site_fract_z
 _atom_site_occupancy
  Tb  Tb0  1  0.100087  0.443304  0.322491  1
  Tb  Tb1  1  0.556696  0.899913  0.177509  1
  Tb  Tb2  1  0.900776  0.557140  0.676797  1
  Tb  Tb3  1  0.442860  0.099224  0.823203  1
  Re  Re4  1  0.412720  0.587280  0.750000  1
  Re  Re5  1  0.990669  0.806749  0.088571  1
  Re  Re6  1  0.193251  0.009331  0.411429  1
  Re  Re7  1  0.009050  0.193689  0.911634  1
  Re  Re8  1  0.806311  0.990950  0.588366  1
  Tc  Tc9  1  0.587560  0.412440  0.250000  1
  B  B10  1  0.247636  0.152642  0.130709  1
  B  B11  1  0.847358  0.752364  0.369291  1
  B  B12  1  0.751420  0.847880  0.869882  1
  B  B13  1  0.152120  0.248580  0.630118  1
  B  B14  1  0.585634  0.158045  0.481608  1
  B  B15  1  0.841955  0.414366  0.018392  1
  B  B16  1  0.412148  0.839170  0.520360  1
  B  B17  1  0.160830  0.587852  0.979640  1
  B  B18  1  0.443568  0.350070  0.534814  1
  B  B19  1  0.649930  0.556432  0.965186  1
  B  B20  1  0.557017  0.649598  0.464427  1
  B  B21  1  0.350402  0.442983  0.035573  1
