# generated using pymatgen
data_Ho5Pa5Ru6
_symmetry_space_group_name_H-M   'P 1'
_cell_length_a   6.54205100
_cell_length_b   7.94018391
_cell_length_c   8.11158199
_cell_angle_alpha   119.30346114
_cell_angle_beta   90.00000000
_cell_angle_gamma   90.00000000
_symmetry_Int_Tables_number   1
_chemical_formula_structural   Ho5Pa5Ru6
_chemical_formula_sum   'Ho5 Pa5 Ru6'
_cell_volume   367.43989691
_cell_formula_units_Z   1
loop_
 _symmetry_equiv_pos_site_id
 _symmetry_equiv_pos_as_xyz
  1  'x, y, z'
loop_
 _atom_site_type_symbol
 _atom_site_label
 _atom_site_symmetry_multiplicity
 _atom_site_fract_x
 _atom_site_fract_y
 _atom_site_fract_z
 _atom_site_occupancy
  Ho  Ho0  1  0.999120  0.668310  0.331842  1
  Ho  Ho1  1  0.999120  0.336467  0.668158  1
  Ho  Ho2  1  0.500880  0.336467  0.668158  1
  Ho  Ho3  1  0.500880  0.668310  0.331842  1
  Ho  Ho4  1  0.250000  0.745526  0.000000  1
  Pa  Pa5  1  0.750000  0.760455  0.761068  1
  Pa  Pa6  1  0.250000  0.240076  0.248948  1
  Pa  Pa7  1  0.750000  0.999385  0.238932  1
  Pa  Pa8  1  0.250000  0.991128  0.751052  1
  Pa  Pa9  1  0.750000  0.239894  0.000000  1
  Ru  Ru10  1  0.750000  0.356519  0.354964  1
  Ru  Ru11  1  0.250000  0.641316  0.612307  1
  Ru  Ru12  1  0.750000  0.001555  0.645036  1
  Ru  Ru13  1  0.250000  0.029009  0.387693  1
  Ru  Ru14  1  0.750000  0.640139  0.000000  1
  Ru  Ru15  1  0.250000  0.345443  0.000000  1
