# generated using pymatgen
data_Dy3Ho13CdIn3Rh4
_symmetry_space_group_name_H-M   'P 1'
_cell_length_a   9.62908863
_cell_length_b   9.60340154
_cell_length_c   9.61800500
_cell_angle_alpha   59.94968094
_cell_angle_beta   60.03806592
_cell_angle_gamma   59.95712844
_symmetry_Int_Tables_number   1
_chemical_formula_structural   Dy3Ho13CdIn3Rh4
_chemical_formula_sum   'Dy3 Ho13 Cd1 In3 Rh4'
_cell_volume   628.63513234
_cell_formula_units_Z   1
loop_
 _symmetry_equiv_pos_site_id
 _symmetry_equiv_pos_as_xyz
  1  'x, y, z'
loop_
 _atom_site_type_symbol
 _atom_site_label
 _atom_site_symmetry_multiplicity
 _atom_site_fract_x
 _atom_site_fract_y
 _atom_site_fract_z
 _atom_site_occupancy
  Dy  Dy0  1  0.936081  0.933453  0.565233  1
  Dy  Dy1  1  0.563087  0.560104  0.938404  1
  Dy  Dy2  1  0.690755  0.690711  0.309268  1
  Ho  Ho3  1  0.148932  0.549695  0.150687  1
  Ho  Ho4  1  0.688966  0.312008  0.688812  1
  Ho  Ho5  1  0.151091  0.149875  0.153377  1
  Ho  Ho6  1  0.548604  0.148702  0.151346  1
  Ho  Ho7  1  0.688966  0.312008  0.310212  1
  Ho  Ho8  1  0.151091  0.149875  0.545654  1
  Ho  Ho9  1  0.310645  0.690371  0.308572  1
  Ho  Ho10  1  0.310645  0.690371  0.690413  1
  Ho  Ho11  1  0.937675  0.560216  0.565060  1
  Ho  Ho12  1  0.937675  0.560216  0.937049  1
  Ho  Ho13  1  0.562770  0.936535  0.563424  1
  Ho  Ho14  1  0.562770  0.936535  0.937271  1
  Ho  Ho15  1  0.311530  0.310915  0.688777  1
  Cd  Cd16  1  0.918922  0.247015  0.917031  1
  In  In17  1  0.917172  0.919720  0.246617  1
  In  In18  1  0.246601  0.920941  0.916229  1
  In  In19  1  0.917172  0.919720  0.916492  1
  Rh  Rh20  1  0.357223  0.358729  0.926904  1
  Rh  Rh21  1  0.358765  0.924181  0.358527  1
  Rh  Rh22  1  0.925637  0.359369  0.357497  1
  Rh  Rh23  1  0.357223  0.358729  0.357143  1
