# generated using pymatgen
data_SmY2In3Ga2Rh
_symmetry_space_group_name_H-M   'P 1'
_cell_length_a   7.32206029
_cell_length_b   7.31003611
_cell_length_c   4.42039900
_cell_angle_alpha   90.00000000
_cell_angle_beta   90.00000000
_cell_angle_gamma   119.94568557
_symmetry_Int_Tables_number   1
_chemical_formula_structural   SmY2In3Ga2Rh
_chemical_formula_sum   'Sm1 Y2 In3 Ga2 Rh1'
_cell_volume   205.01345237
_cell_formula_units_Z   1
loop_
 _symmetry_equiv_pos_site_id
 _symmetry_equiv_pos_as_xyz
  1  'x, y, z'
loop_
 _atom_site_type_symbol
 _atom_site_label
 _atom_site_symmetry_multiplicity
 _atom_site_fract_x
 _atom_site_fract_y
 _atom_site_fract_z
 _atom_site_occupancy
  Sm  Sm0  1  0.000000  0.592952  0.500000  1
  Y  Y1  1  0.406201  0.405865  0.500000  1
  Y  Y2  1  0.593799  0.999664  0.500000  1
  In  In3  1  0.000000  0.245037  0.000000  1
  In  In4  1  0.246541  0.001052  0.000000  1
  In  In5  1  0.753459  0.754510  0.000000  1
  Ga  Ga6  1  0.334445  0.667155  0.000000  1
  Ga  Ga7  1  0.665555  0.332709  0.000000  1
  Rh  Rh8  1  0.000000  0.001057  0.500000  1
