# generated using pymatgen
data_Nd(PPt3)2
_symmetry_space_group_name_H-M   'P 1'
_cell_length_a   8.55683000
_cell_length_b   8.55683000
_cell_length_c   8.55683000
_cell_angle_alpha   90.00000000
_cell_angle_beta   90.00000000
_cell_angle_gamma   90.00000000
_symmetry_Int_Tables_number   1
_chemical_formula_structural   Nd(PPt3)2
_chemical_formula_sum   'Nd4 P8 Pt24'
_cell_volume   626.52544209
_cell_formula_units_Z   4
loop_
 _symmetry_equiv_pos_site_id
 _symmetry_equiv_pos_as_xyz
  1  'x, y, z'
loop_
 _atom_site_type_symbol
 _atom_site_label
 _atom_site_symmetry_multiplicity
 _atom_site_fract_x
 _atom_site_fract_y
 _atom_site_fract_z
 _atom_site_occupancy
  Nd  Nd0  1  0.500000  0.500000  0.000000  1
  Nd  Nd1  1  0.500000  0.000000  0.500000  1
  Nd  Nd2  1  0.000000  0.500000  0.500000  1
  Nd  Nd3  1  0.000000  0.000000  0.000000  1
  P  P4  1  0.805775  0.305775  0.194225  1
  P  P5  1  0.194225  0.805775  0.305775  1
  P  P6  1  0.694225  0.694225  0.694225  1
  P  P7  1  0.305775  0.194225  0.805775  1
  P  P8  1  0.194225  0.694225  0.805775  1
  P  P9  1  0.805775  0.194225  0.694225  1
  P  P10  1  0.305775  0.305775  0.305775  1
  P  P11  1  0.694225  0.805775  0.194225  1
  Pt  Pt12  1  0.422338  0.843218  0.158455  1
  Pt  Pt13  1  0.577662  0.343218  0.341545  1
  Pt  Pt14  1  0.077662  0.156782  0.658455  1
  Pt  Pt15  1  0.922338  0.656782  0.841545  1
  Pt  Pt16  1  0.158455  0.422338  0.843218  1
  Pt  Pt17  1  0.341545  0.577662  0.343218  1
  Pt  Pt18  1  0.658455  0.077662  0.156782  1
  Pt  Pt19  1  0.841545  0.922338  0.656782  1
  Pt  Pt20  1  0.843218  0.158455  0.422338  1
  Pt  Pt21  1  0.343218  0.341545  0.577662  1
  Pt  Pt22  1  0.156782  0.658455  0.077662  1
  Pt  Pt23  1  0.656782  0.841545  0.922338  1
  Pt  Pt24  1  0.577662  0.156782  0.841545  1
  Pt  Pt25  1  0.422338  0.656782  0.658455  1
  Pt  Pt26  1  0.922338  0.843218  0.341545  1
  Pt  Pt27  1  0.077662  0.343218  0.158455  1
  Pt  Pt28  1  0.841545  0.577662  0.156782  1
  Pt  Pt29  1  0.658455  0.422338  0.656782  1
  Pt  Pt30  1  0.341545  0.922338  0.843218  1
  Pt  Pt31  1  0.158455  0.077662  0.343218  1
  Pt  Pt32  1  0.156782  0.841545  0.577662  1
  Pt  Pt33  1  0.656782  0.658455  0.422338  1
  Pt  Pt34  1  0.843218  0.341545  0.922338  1
  Pt  Pt35  1  0.343218  0.158455  0.077662  1
