# generated using pymatgen
data_Nd(AgO2)2
_symmetry_space_group_name_H-M   'P 1'
_cell_length_a   6.75410727
_cell_length_b   6.75410696
_cell_length_c   6.75410685
_cell_angle_alpha   126.10408256
_cell_angle_beta   126.10407912
_cell_angle_gamma   79.71714015
_symmetry_Int_Tables_number   1
_chemical_formula_structural   Nd(AgO2)2
_chemical_formula_sum   'Nd2 Ag4 O8'
_cell_volume   194.29360252
_cell_formula_units_Z   2
loop_
 _symmetry_equiv_pos_site_id
 _symmetry_equiv_pos_as_xyz
  1  'x, y, z'
loop_
 _atom_site_type_symbol
 _atom_site_label
 _atom_site_symmetry_multiplicity
 _atom_site_fract_x
 _atom_site_fract_y
 _atom_site_fract_z
 _atom_site_occupancy
  Nd  Nd0  1  0.500000  0.500000  0.000000  1
  Nd  Nd1  1  0.250000  0.750000  0.500000  1
  Ag  Ag2  1  0.375000  0.125000  0.250000  1
  Ag  Ag3  1  0.875000  0.125000  0.750000  1
  Ag  Ag4  1  0.875000  0.625000  0.750000  1
  Ag  Ag5  1  0.875000  0.125000  0.250000  1
  O  O6  1  0.903042  0.362493  0.155244  1
  O  O7  1  0.207248  0.747797  0.844756  1
  O  O8  1  0.846958  0.887507  0.344756  1
  O  O9  1  0.542752  0.502203  0.655244  1
  O  O10  1  0.497797  0.153042  0.040549  1
  O  O11  1  0.112493  0.457248  0.959451  1
  O  O12  1  0.637507  0.792752  0.540549  1
  O  O13  1  0.252203  0.096958  0.459451  1
