# generated using pymatgen
data_LiNd8Ho11Si16
_symmetry_space_group_name_H-M   'P 1'
_cell_length_a   7.44232701
_cell_length_b   7.76586301
_cell_length_c   14.74084000
_cell_angle_alpha   90.00000000
_cell_angle_beta   90.00000000
_cell_angle_gamma   90.00650088
_symmetry_Int_Tables_number   1
_chemical_formula_structural   LiNd8Ho11Si16
_chemical_formula_sum   'Li1 Nd8 Ho11 Si16'
_cell_volume   851.96294033
_cell_formula_units_Z   1
loop_
 _symmetry_equiv_pos_site_id
 _symmetry_equiv_pos_as_xyz
  1  'x, y, z'
loop_
 _atom_site_type_symbol
 _atom_site_label
 _atom_site_symmetry_multiplicity
 _atom_site_fract_x
 _atom_site_fract_y
 _atom_site_fract_z
 _atom_site_occupancy
  Li  Li0  1  0.649451  0.989342  0.250000  1
  Nd  Nd1  1  0.966353  0.822673  0.102492  1
  Nd  Nd2  1  0.477985  0.689090  0.397009  1
  Nd  Nd3  1  0.523668  0.320568  0.902789  1
  Nd  Nd4  1  0.023969  0.179841  0.597359  1
  Nd  Nd5  1  0.023969  0.179841  0.902641  1
  Nd  Nd6  1  0.523668  0.320568  0.597211  1
  Nd  Nd7  1  0.477985  0.689090  0.102991  1
  Nd  Nd8  1  0.966353  0.822673  0.397508  1
  Ho  Ho9  1  0.147892  0.508682  0.250000  1
  Ho  Ho10  1  0.850712  0.489657  0.750000  1
  Ho  Ho11  1  0.348784  0.011007  0.750000  1
  Ho  Ho12  1  0.681074  0.819950  0.876467  1
  Ho  Ho13  1  0.181277  0.677837  0.622435  1
  Ho  Ho14  1  0.816081  0.314653  0.125050  1
  Ho  Ho15  1  0.327903  0.174269  0.374314  1
  Ho  Ho16  1  0.327903  0.174269  0.125686  1
  Ho  Ho17  1  0.816081  0.314653  0.374950  1
  Ho  Ho18  1  0.181277  0.677837  0.877565  1
  Ho  Ho19  1  0.681074  0.819950  0.623533  1
  Si  Si20  1  0.769757  0.613775  0.250000  1
  Si  Si21  1  0.262402  0.878741  0.250000  1
  Si  Si22  1  0.729900  0.121620  0.750000  1
  Si  Si23  1  0.231169  0.378485  0.750000  1
  Si  Si24  1  0.027935  0.107865  0.250000  1
  Si  Si25  1  0.521321  0.401824  0.250000  1
  Si  Si26  1  0.476737  0.609972  0.750000  1
  Si  Si27  1  0.975845  0.887011  0.750000  1
  Si  Si28  1  0.855759  0.530119  0.962482  1
  Si  Si29  1  0.356054  0.968508  0.539490  1
  Si  Si30  1  0.647400  0.034013  0.034762  1
  Si  Si31  1  0.146525  0.469488  0.458327  1
  Si  Si32  1  0.146525  0.469488  0.041673  1
  Si  Si33  1  0.647400  0.034013  0.465238  1
  Si  Si34  1  0.356054  0.968508  0.960510  1
  Si  Si35  1  0.855759  0.530119  0.537518  1
