# generated using pymatgen
data_Tb7Y(Si4Mo3)4
_symmetry_space_group_name_H-M   'P 1'
_cell_length_a   6.79700612
_cell_length_b   6.96893767
_cell_length_c   12.95378246
_cell_angle_alpha   89.98744698
_cell_angle_beta   89.99181949
_cell_angle_gamma   89.96675495
_symmetry_Int_Tables_number   1
_chemical_formula_structural   Tb7Y(Si4Mo3)4
_chemical_formula_sum   'Tb7 Y1 Si16 Mo12'
_cell_volume   613.59350384
_cell_formula_units_Z   1
loop_
 _symmetry_equiv_pos_site_id
 _symmetry_equiv_pos_as_xyz
  1  'x, y, z'
loop_
 _atom_site_type_symbol
 _atom_site_label
 _atom_site_symmetry_multiplicity
 _atom_site_fract_x
 _atom_site_fract_y
 _atom_site_fract_z
 _atom_site_occupancy
  Tb  Tb0  1  0.497172  0.333498  0.094168  1
  Tb  Tb1  1  0.997397  0.166521  0.405880  1
  Tb  Tb2  1  0.502866  0.666545  0.594227  1
  Tb  Tb3  1  0.002354  0.833083  0.906007  1
  Tb  Tb4  1  0.502649  0.666781  0.906112  1
  Tb  Tb5  1  0.002537  0.833440  0.594229  1
  Tb  Tb6  1  0.497212  0.333437  0.405455  1
  Y  Y7  1  0.997318  0.166557  0.093917  1
  Si  Si8  1  0.657925  0.042943  0.547773  1
  Si  Si9  1  0.158399  0.457406  0.952464  1
  Si  Si10  1  0.341721  0.957427  0.047821  1
  Si  Si11  1  0.841779  0.542699  0.452161  1
  Si  Si12  1  0.342207  0.956996  0.451937  1
  Si  Si13  1  0.841818  0.542275  0.047808  1
  Si  Si14  1  0.657879  0.042695  0.952525  1
  Si  Si15  1  0.158210  0.457498  0.547684  1
  Si  Si16  1  0.535229  0.364281  0.750276  1
  Si  Si17  1  0.035401  0.135310  0.750129  1
  Si  Si18  1  0.464916  0.635991  0.249721  1
  Si  Si19  1  0.964841  0.864795  0.249750  1
  Si  Si20  1  0.803421  0.626935  0.750265  1
  Si  Si21  1  0.303306  0.872350  0.750187  1
  Si  Si22  1  0.196381  0.372804  0.249919  1
  Si  Si23  1  0.696811  0.127568  0.249840  1
  Mo  Mo24  1  0.831219  0.334653  0.625544  1
  Mo  Mo25  1  0.330469  0.164822  0.874709  1
  Mo  Mo26  1  0.168907  0.665327  0.125391  1
  Mo  Mo27  1  0.669788  0.835219  0.374364  1
  Mo  Mo28  1  0.168730  0.665462  0.374221  1
  Mo  Mo29  1  0.669255  0.835055  0.125316  1
  Mo  Mo30  1  0.831170  0.334363  0.874579  1
  Mo  Mo31  1  0.330623  0.164834  0.625475  1
  Mo  Mo32  1  0.665736  0.000215  0.750174  1
  Mo  Mo33  1  0.165686  0.499798  0.750136  1
  Mo  Mo34  1  0.334420  0.000022  0.249875  1
  Mo  Mo35  1  0.834249  0.500397  0.249961  1
