# generated using pymatgen
data_Li11ZnSb6
_symmetry_space_group_name_H-M   'P 1'
_cell_length_a   7.79969200
_cell_length_b   7.86383617
_cell_length_c   6.72296471
_cell_angle_alpha   90.11744414
_cell_angle_beta   90.00000000
_cell_angle_gamma   119.73054666
_symmetry_Int_Tables_number   1
_chemical_formula_structural   Li11ZnSb6
_chemical_formula_sum   'Li11 Zn1 Sb6'
_cell_volume   358.07579438
_cell_formula_units_Z   1
loop_
 _symmetry_equiv_pos_site_id
 _symmetry_equiv_pos_as_xyz
  1  'x, y, z'
loop_
 _atom_site_type_symbol
 _atom_site_label
 _atom_site_symmetry_multiplicity
 _atom_site_fract_x
 _atom_site_fract_y
 _atom_site_fract_z
 _atom_site_occupancy
  Li  Li0  1  0.711177  0.705704  0.499893  1
  Li  Li1  1  0.005473  0.294296  0.500107  1
  Li  Li2  1  0.996120  0.288832  0.000297  1
  Li  Li3  1  0.707288  0.711168  0.999703  1
  Li  Li4  1  0.295223  0.000000  0.500000  1
  Li  Li5  1  0.628279  0.003802  0.254435  1
  Li  Li6  1  0.373955  0.366350  0.260547  1
  Li  Li7  1  0.997434  0.627400  0.259489  1
  Li  Li8  1  0.624477  0.996198  0.745565  1
  Li  Li9  1  0.370033  0.372600  0.740511  1
  Li  Li10  1  0.007605  0.633650  0.739453  1
  Zn  Zn11  1  0.286253  0.000000  0.000000  1
  Sb  Sb12  1  0.003479  0.999648  0.251120  1
  Sb  Sb13  1  0.003831  0.000352  0.748880  1
  Sb  Sb14  1  0.327288  0.671665  0.002153  1
  Sb  Sb15  1  0.336440  0.666421  0.496943  1
  Sb  Sb16  1  0.655624  0.328335  0.997847  1
  Sb  Sb17  1  0.670020  0.333579  0.503057  1
