# generated using pymatgen
data_Er2Tm6Sc11Si16Rh
_symmetry_space_group_name_H-M   'P 1'
_cell_length_a   6.95227602
_cell_length_b   7.37283508
_cell_length_c   13.84401917
_cell_angle_alpha   90.01650307
_cell_angle_beta   90.00747060
_cell_angle_gamma   89.90992491
_symmetry_Int_Tables_number   1
_chemical_formula_structural   Er2Tm6Sc11Si16Rh
_chemical_formula_sum   'Er2 Tm6 Sc11 Si16 Rh1'
_cell_volume   709.61560795
_cell_formula_units_Z   1
loop_
 _symmetry_equiv_pos_site_id
 _symmetry_equiv_pos_as_xyz
  1  'x, y, z'
loop_
 _atom_site_type_symbol
 _atom_site_label
 _atom_site_symmetry_multiplicity
 _atom_site_fract_x
 _atom_site_fract_y
 _atom_site_fract_z
 _atom_site_occupancy
  Er  Er0  1  0.012235  0.179305  0.093289  1
  Er  Er1  1  0.990737  0.814386  0.902398  1
  Tm  Tm2  1  0.489299  0.674724  0.903113  1
  Tm  Tm3  1  0.990729  0.814265  0.597698  1
  Tm  Tm4  1  0.509967  0.322017  0.093955  1
  Tm  Tm5  1  0.012242  0.179316  0.406649  1
  Tm  Tm6  1  0.509988  0.321965  0.406063  1
  Tm  Tm7  1  0.489282  0.674736  0.596875  1
  Sc  Sc8  1  0.840703  0.496250  0.250032  1
  Sc  Sc9  1  0.342225  0.005260  0.250025  1
  Sc  Sc10  1  0.653466  0.996729  0.749979  1
  Sc  Sc11  1  0.321654  0.176721  0.628157  1
  Sc  Sc12  1  0.672302  0.825151  0.374298  1
  Sc  Sc13  1  0.173205  0.673676  0.376023  1
  Sc  Sc14  1  0.672280  0.825133  0.125732  1
  Sc  Sc15  1  0.831049  0.328624  0.629544  1
  Sc  Sc16  1  0.321696  0.176727  0.871809  1
  Sc  Sc17  1  0.830998  0.328660  0.870437  1
  Sc  Sc18  1  0.173255  0.673597  0.124012  1
  Si  Si19  1  0.023923  0.094200  0.749922  1
  Si  Si20  1  0.973340  0.889494  0.250050  1
  Si  Si21  1  0.469823  0.612429  0.250007  1
  Si  Si22  1  0.517088  0.396517  0.749992  1
  Si  Si23  1  0.282834  0.861446  0.749930  1
  Si  Si24  1  0.716201  0.132402  0.250070  1
  Si  Si25  1  0.215199  0.369507  0.250060  1
  Si  Si26  1  0.791885  0.630026  0.749922  1
  Si  Si27  1  0.161332  0.464227  0.542484  1
  Si  Si28  1  0.841762  0.534741  0.463640  1
  Si  Si29  1  0.343456  0.964929  0.463186  1
  Si  Si30  1  0.841673  0.534743  0.036375  1
  Si  Si31  1  0.659704  0.034542  0.540119  1
  Si  Si32  1  0.161427  0.464176  0.957510  1
  Si  Si33  1  0.659461  0.034605  0.959896  1
  Si  Si34  1  0.343707  0.964866  0.036797  1
  Rh  Rh35  1  0.159876  0.529909  0.749951  1
