# generated using pymatgen
data_Yb6RhWO12
_symmetry_space_group_name_H-M   'P 1'
_cell_length_a   6.49155047
_cell_length_b   6.49155112
_cell_length_c   6.49155197
_cell_angle_alpha   92.30320940
_cell_angle_beta   92.30320651
_cell_angle_gamma   92.30321564
_symmetry_Int_Tables_number   1
_chemical_formula_structural   Yb6RhWO12
_chemical_formula_sum   'Yb6 Rh1 W1 O12'
_cell_volume   272.87418900
_cell_formula_units_Z   1
loop_
 _symmetry_equiv_pos_site_id
 _symmetry_equiv_pos_as_xyz
  1  'x, y, z'
loop_
 _atom_site_type_symbol
 _atom_site_label
 _atom_site_symmetry_multiplicity
 _atom_site_fract_x
 _atom_site_fract_y
 _atom_site_fract_z
 _atom_site_occupancy
  Yb  Yb0  1  0.927429  0.432862  0.743928  1
  Yb  Yb1  1  0.743928  0.927429  0.432862  1
  Yb  Yb2  1  0.567138  0.256072  0.072571  1
  Yb  Yb3  1  0.432862  0.743928  0.927429  1
  Yb  Yb4  1  0.256072  0.072571  0.567138  1
  Yb  Yb5  1  0.072571  0.567138  0.256072  1
  Rh  Rh6  1  0.500000  0.500000  0.500000  1
  W  W7  1  0.000000  0.000000  0.000000  1
  O  O8  1  0.936143  0.287336  0.069190  1
  O  O9  1  0.930810  0.063857  0.712664  1
  O  O10  1  0.788343  0.579681  0.453019  1
  O  O11  1  0.712664  0.930810  0.063857  1
  O  O12  1  0.579681  0.453019  0.788343  1
  O  O13  1  0.546981  0.211657  0.420319  1
  O  O14  1  0.453019  0.788343  0.579681  1
  O  O15  1  0.420319  0.546981  0.211657  1
  O  O16  1  0.287336  0.069190  0.936143  1
  O  O17  1  0.211657  0.420319  0.546981  1
  O  O18  1  0.069190  0.936143  0.287336  1
  O  O19  1  0.063857  0.712664  0.930810  1
