# generated using pymatgen
data_NpPa(TeI)4
_symmetry_space_group_name_H-M   'P 1'
_cell_length_a   8.04834415
_cell_length_b   8.06206116
_cell_length_c   8.22061388
_cell_angle_alpha   81.99092700
_cell_angle_beta   81.79127822
_cell_angle_gamma   121.89086385
_symmetry_Int_Tables_number   1
_chemical_formula_structural   NpPa(TeI)4
_chemical_formula_sum   'Np1 Pa1 Te4 I4'
_cell_volume   433.36553783
_cell_formula_units_Z   1
loop_
 _symmetry_equiv_pos_site_id
 _symmetry_equiv_pos_as_xyz
  1  'x, y, z'
loop_
 _atom_site_type_symbol
 _atom_site_label
 _atom_site_symmetry_multiplicity
 _atom_site_fract_x
 _atom_site_fract_y
 _atom_site_fract_z
 _atom_site_occupancy
  Np  Np0  1  0.143899  0.855833  0.499917  1
  Pa  Pa1  1  0.857644  0.142547  0.500025  1
  Te  Te2  1  0.097736  0.103887  0.190613  1
  Te  Te3  1  0.896005  0.902420  0.809430  1
  Te  Te4  1  0.674222  0.680686  0.605369  1
  Te  Te5  1  0.319519  0.325596  0.394686  1
  I  I6  1  0.025358  0.438314  0.734171  1
  I  I7  1  0.561776  0.974674  0.265829  1
  I  I8  1  0.969347  0.545353  0.265017  1
  I  I9  1  0.454495  0.030690  0.734944  1
