# generated using pymatgen
data_Tb3ScTe4
_symmetry_space_group_name_H-M   'P 1'
_cell_length_a   4.22126700
_cell_length_b   4.22126772
_cell_length_c   14.82517500
_cell_angle_alpha   90.00000000
_cell_angle_beta   90.00000000
_cell_angle_gamma   120.00000220
_symmetry_Int_Tables_number   1
_chemical_formula_structural   Tb3ScTe4
_chemical_formula_sum   'Tb3 Sc1 Te4'
_cell_volume   228.77900664
_cell_formula_units_Z   1
loop_
 _symmetry_equiv_pos_site_id
 _symmetry_equiv_pos_as_xyz
  1  'x, y, z'
loop_
 _atom_site_type_symbol
 _atom_site_label
 _atom_site_symmetry_multiplicity
 _atom_site_fract_x
 _atom_site_fract_y
 _atom_site_fract_z
 _atom_site_occupancy
  Tb  Tb0  1  0.333333  0.666667  0.874172  1
  Tb  Tb1  1  0.666667  0.333333  0.118973  1
  Tb  Tb2  1  0.666667  0.333333  0.388693  1
  Sc  Sc3  1  0.333333  0.666667  0.616206  1
  Te  Te4  1  0.333333  0.666667  0.253788  1
  Te  Te5  1  0.666667  0.333333  0.739556  1
  Te  Te6  1  0.000000  0.000000  0.511731  1
  Te  Te7  1  0.000000  0.000000  0.996880  1
