# generated using pymatgen
data_Ho4TmSi3O
_symmetry_space_group_name_H-M   'P 1'
_cell_length_a   8.33639800
_cell_length_b   8.33639675
_cell_length_c   6.15088100
_cell_angle_alpha   90.00000000
_cell_angle_beta   90.00000000
_cell_angle_gamma   120.00000496
_symmetry_Int_Tables_number   1
_chemical_formula_structural   Ho4TmSi3O
_chemical_formula_sum   'Ho8 Tm2 Si6 O2'
_cell_volume   370.19005819
_cell_formula_units_Z   2
loop_
 _symmetry_equiv_pos_site_id
 _symmetry_equiv_pos_as_xyz
  1  'x, y, z'
loop_
 _atom_site_type_symbol
 _atom_site_label
 _atom_site_symmetry_multiplicity
 _atom_site_fract_x
 _atom_site_fract_y
 _atom_site_fract_z
 _atom_site_occupancy
  Ho  Ho0  1  0.232061  0.000000  0.250497  1
  Ho  Ho1  1  0.767939  0.000000  0.749503  1
  Ho  Ho2  1  0.000000  0.232061  0.250497  1
  Ho  Ho3  1  0.000000  0.767939  0.749503  1
  Ho  Ho4  1  0.767939  0.767939  0.250497  1
  Ho  Ho5  1  0.232061  0.232061  0.749503  1
  Ho  Ho6  1  0.333333  0.666667  0.000000  1
  Ho  Ho7  1  0.666667  0.333333  0.000000  1
  Tm  Tm8  1  0.666667  0.333333  0.500000  1
  Tm  Tm9  1  0.333333  0.666667  0.500000  1
  Si  Si10  1  0.601242  0.000000  0.252158  1
  Si  Si11  1  0.398758  0.000000  0.747842  1
  Si  Si12  1  0.000000  0.601242  0.252158  1
  Si  Si13  1  0.000000  0.398758  0.747842  1
  Si  Si14  1  0.398758  0.398758  0.252158  1
  Si  Si15  1  0.601242  0.601242  0.747842  1
  O  O16  1  0.000000  0.000000  0.000000  1
  O  O17  1  0.000000  0.000000  0.500000  1
