# generated using pymatgen
data_Pr3Th(AsPt)4
_symmetry_space_group_name_H-M   'P 1'
_cell_length_a   4.35108800
_cell_length_b   4.35108772
_cell_length_c   16.36972900
_cell_angle_alpha   90.00000000
_cell_angle_beta   90.00000000
_cell_angle_gamma   119.99998690
_symmetry_Int_Tables_number   1
_chemical_formula_structural   Pr3Th(AsPt)4
_chemical_formula_sum   'Pr3 Th1 As4 Pt4'
_cell_volume   268.39096077
_cell_formula_units_Z   1
loop_
 _symmetry_equiv_pos_site_id
 _symmetry_equiv_pos_as_xyz
  1  'x, y, z'
loop_
 _atom_site_type_symbol
 _atom_site_label
 _atom_site_symmetry_multiplicity
 _atom_site_fract_x
 _atom_site_fract_y
 _atom_site_fract_z
 _atom_site_occupancy
  Pr  Pr0  1  0.000000  0.000000  0.000855  1
  Pr  Pr1  1  0.000000  0.000000  0.499145  1
  Pr  Pr2  1  0.000000  0.000000  0.250000  1
  Th  Th3  1  0.000000  0.000000  0.750000  1
  As  As4  1  0.333333  0.666667  0.884395  1
  As  As5  1  0.666667  0.333333  0.378578  1
  As  As6  1  0.666667  0.333333  0.121422  1
  As  As7  1  0.333333  0.666667  0.615605  1
  Pt  Pt8  1  0.333333  0.666667  0.372033  1
  Pt  Pt9  1  0.666667  0.333333  0.855856  1
  Pt  Pt10  1  0.666667  0.333333  0.644144  1
  Pt  Pt11  1  0.333333  0.666667  0.127967  1
