# generated using pymatgen
data_Na11Zn2P5
_symmetry_space_group_name_H-M   'P 1'
_cell_length_a   8.27974205
_cell_length_b   9.93322886
_cell_length_c   10.69535509
_cell_angle_alpha   103.40423215
_cell_angle_beta   97.22160020
_cell_angle_gamma   107.47295868
_symmetry_Int_Tables_number   1
_chemical_formula_structural   Na11Zn2P5
_chemical_formula_sum   'Na22 Zn4 P10'
_cell_volume   797.90405868
_cell_formula_units_Z   2
loop_
 _symmetry_equiv_pos_site_id
 _symmetry_equiv_pos_as_xyz
  1  'x, y, z'
loop_
 _atom_site_type_symbol
 _atom_site_label
 _atom_site_symmetry_multiplicity
 _atom_site_fract_x
 _atom_site_fract_y
 _atom_site_fract_z
 _atom_site_occupancy
  Na  Na0  1  0.854215  0.572425  0.963650  1
  Na  Na1  1  0.145785  0.427575  0.036350  1
  Na  Na2  1  0.307634  0.894815  0.776718  1
  Na  Na3  1  0.692366  0.105185  0.223282  1
  Na  Na4  1  0.630470  0.165284  0.530833  1
  Na  Na5  1  0.369530  0.834716  0.469167  1
  Na  Na6  1  0.630762  0.672341  0.558567  1
  Na  Na7  1  0.369238  0.327659  0.441433  1
  Na  Na8  1  0.206151  0.558169  0.572374  1
  Na  Na9  1  0.793849  0.441831  0.427626  1
  Na  Na10  1  0.049473  0.705493  0.267453  1
  Na  Na11  1  0.950527  0.294507  0.732547  1
  Na  Na12  1  0.205655  0.080634  0.571844  1
  Na  Na13  1  0.794345  0.919366  0.428156  1
  Na  Na14  1  0.873189  0.095070  0.981926  1
  Na  Na15  1  0.126811  0.904930  0.018074  1
  Na  Na16  1  0.584778  0.226561  0.862389  1
  Na  Na17  1  0.415222  0.773439  0.137611  1
  Na  Na18  1  0.396290  0.248378  0.141205  1
  Na  Na19  1  0.603710  0.751622  0.858795  1
  Na  Na20  1  0.349879  0.412559  0.791632  1
  Na  Na21  1  0.650121  0.587441  0.208368  1
  Zn  Zn22  1  0.945581  0.958039  0.718642  1
  Zn  Zn23  1  0.054419  0.041961  0.281358  1
  Zn  Zn24  1  0.945390  0.624574  0.715141  1
  Zn  Zn25  1  0.054610  0.375426  0.284859  1
  P  P26  1  0.001118  0.764636  0.552781  1
  P  P27  1  0.998882  0.235364  0.447219  1
  P  P28  1  0.657285  0.455032  0.691485  1
  P  P29  1  0.342715  0.544968  0.308515  1
  P  P30  1  0.658924  0.971199  0.699139  1
  P  P31  1  0.341076  0.028801  0.300861  1
  P  P32  1  0.193642  0.148286  0.868402  1
  P  P33  1  0.806358  0.851714  0.131598  1
  P  P34  1  0.191615  0.632736  0.867089  1
  P  P35  1  0.808385  0.367264  0.132911  1
