# generated using pymatgen
data_YErGa2IrPt
_symmetry_space_group_name_H-M   'P 1'
_cell_length_a   4.42137900
_cell_length_b   6.81068200
_cell_length_c   7.71294000
_cell_angle_alpha   90.00000000
_cell_angle_beta   90.00000000
_cell_angle_gamma   90.00000000
_symmetry_Int_Tables_number   1
_chemical_formula_structural   YErGa2IrPt
_chemical_formula_sum   'Y2 Er2 Ga4 Ir2 Pt2'
_cell_volume   232.25672618
_cell_formula_units_Z   2
loop_
 _symmetry_equiv_pos_site_id
 _symmetry_equiv_pos_as_xyz
  1  'x, y, z'
loop_
 _atom_site_type_symbol
 _atom_site_label
 _atom_site_symmetry_multiplicity
 _atom_site_fract_x
 _atom_site_fract_y
 _atom_site_fract_z
 _atom_site_occupancy
  Y  Y0  1  0.750000  0.020783  0.689657  1
  Y  Y1  1  0.750000  0.520783  0.810343  1
  Er  Er2  1  0.250000  0.985012  0.304093  1
  Er  Er3  1  0.250000  0.485012  0.195907  1
  Ga  Ga4  1  0.250000  0.332782  0.568342  1
  Ga  Ga5  1  0.250000  0.832782  0.931658  1
  Ga  Ga6  1  0.750000  0.661680  0.425413  1
  Ga  Ga7  1  0.750000  0.161680  0.074587  1
  Ir  Ir8  1  0.750000  0.772324  0.105899  1
  Ir  Ir9  1  0.750000  0.272324  0.394101  1
  Pt  Pt10  1  0.250000  0.227419  0.897080  1
  Pt  Pt11  1  0.250000  0.727419  0.602920  1
