# generated using pymatgen
data_BaCrNi2(PO4)3
_symmetry_space_group_name_H-M   'P 1'
_cell_length_a   9.12767641
_cell_length_b   9.12767740
_cell_length_c   9.12767638
_cell_angle_alpha   136.93580769
_cell_angle_beta   109.22063529
_cell_angle_gamma   86.57189801
_symmetry_Int_Tables_number   1
_chemical_formula_structural   BaCrNi2(PO4)3
_chemical_formula_sum   'Ba2 Cr2 Ni4 P6 O24'
_cell_volume   470.66159608
_cell_formula_units_Z   2
loop_
 _symmetry_equiv_pos_site_id
 _symmetry_equiv_pos_as_xyz
  1  'x, y, z'
loop_
 _atom_site_type_symbol
 _atom_site_label
 _atom_site_symmetry_multiplicity
 _atom_site_fract_x
 _atom_site_fract_y
 _atom_site_fract_z
 _atom_site_occupancy
  Ba  Ba0  1  0.250000  0.347060  0.097060  1
  Ba  Ba1  1  0.750000  0.652940  0.902940  1
  Cr  Cr2  1  0.000000  0.500000  0.500000  1
  Cr  Cr3  1  0.500000  0.000000  0.500000  1
  Ni  Ni4  1  0.116860  0.116860  0.500000  1
  Ni  Ni5  1  0.383140  0.883140  0.000000  1
  Ni  Ni6  1  0.616860  0.116860  0.000000  1
  Ni  Ni7  1  0.883140  0.883140  0.500000  1
  P  P8  1  0.250000  0.842266  0.592266  1
  P  P9  1  0.750000  0.157734  0.407734  1
  P  P10  1  0.320292  0.320292  0.500000  1
  P  P11  1  0.179708  0.679708  0.000000  1
  P  P12  1  0.820292  0.320292  0.000000  1
  P  P13  1  0.679708  0.679708  0.500000  1
  O  O14  1  0.345337  0.806300  0.460964  1
  O  O15  1  0.654663  0.193700  0.539036  1
  O  O16  1  0.845337  0.384373  0.539036  1
  O  O17  1  0.154663  0.615627  0.460964  1
  O  O18  1  0.130844  0.980647  0.611490  1
  O  O19  1  0.630844  0.019353  0.150197  1
  O  O20  1  0.869156  0.019353  0.388510  1
  O  O21  1  0.369156  0.980647  0.849803  1
  O  O22  1  0.349787  0.200303  0.282776  1
  O  O23  1  0.082473  0.799697  0.149484  1
  O  O24  1  0.849787  0.567011  0.149484  1
  O  O25  1  0.582473  0.432989  0.282776  1
  O  O26  1  0.650213  0.799697  0.717224  1
  O  O27  1  0.917527  0.200303  0.850516  1
  O  O28  1  0.150213  0.432989  0.850516  1
  O  O29  1  0.417527  0.567011  0.717224  1
  O  O30  1  0.130985  0.286324  0.430845  1
  O  O31  1  0.144522  0.713676  0.844662  1
  O  O32  1  0.630985  0.200140  0.844662  1
  O  O33  1  0.644522  0.799860  0.430845  1
  O  O34  1  0.869015  0.713676  0.569155  1
  O  O35  1  0.855478  0.286324  0.155338  1
  O  O36  1  0.369015  0.799860  0.155338  1
  O  O37  1  0.355478  0.200140  0.569155  1
