# generated using pymatgen
data_Ho2Er8Si5Bi
_symmetry_space_group_name_H-M   'P 1'
_cell_length_a   8.45420810
_cell_length_b   8.49717232
_cell_length_c   6.31269100
_cell_angle_alpha   90.00000000
_cell_angle_beta   90.00000000
_cell_angle_gamma   119.85012714
_symmetry_Int_Tables_number   1
_chemical_formula_structural   Ho2Er8Si5Bi
_chemical_formula_sum   'Ho2 Er8 Si5 Bi1'
_cell_volume   393.32035559
_cell_formula_units_Z   1
loop_
 _symmetry_equiv_pos_site_id
 _symmetry_equiv_pos_as_xyz
  1  'x, y, z'
loop_
 _atom_site_type_symbol
 _atom_site_label
 _atom_site_symmetry_multiplicity
 _atom_site_fract_x
 _atom_site_fract_y
 _atom_site_fract_z
 _atom_site_occupancy
  Ho  Ho0  1  0.755233  0.756729  0.250000  1
  Ho  Ho1  1  0.240065  0.000014  0.250000  1
  Er  Er2  1  0.984485  0.744930  0.750000  1
  Er  Er3  1  0.998541  0.243331  0.250000  1
  Er  Er4  1  0.767991  0.000029  0.750000  1
  Er  Er5  1  0.239488  0.255033  0.750000  1
  Er  Er6  1  0.330755  0.653980  0.494973  1
  Er  Er7  1  0.676810  0.345983  0.005027  1
  Er  Er8  1  0.676810  0.345983  0.494973  1
  Er  Er9  1  0.330755  0.653980  0.005027  1
  Si  Si10  1  0.393209  0.390912  0.250000  1
  Si  Si11  1  0.002383  0.608978  0.250000  1
  Si  Si12  1  0.998831  0.394499  0.750000  1
  Si  Si13  1  0.604346  0.605523  0.750000  1
  Si  Si14  1  0.607111  0.000090  0.250000  1
  Bi  Bi15  1  0.393187  0.000008  0.750000  1
