# generated using pymatgen
data_Er12N11
_symmetry_space_group_name_H-M   'P 1'
_cell_length_a   9.07929734
_cell_length_b   9.07929867
_cell_length_c   5.93832712
_cell_angle_alpha   89.97556704
_cell_angle_beta   89.97556856
_cell_angle_gamma   44.43277753
_symmetry_Int_Tables_number   1
_chemical_formula_structural   Er12N11
_chemical_formula_sum   'Er12 N11'
_cell_volume   342.69778366
_cell_formula_units_Z   1
loop_
 _symmetry_equiv_pos_site_id
 _symmetry_equiv_pos_as_xyz
  1  'x, y, z'
loop_
 _atom_site_type_symbol
 _atom_site_label
 _atom_site_symmetry_multiplicity
 _atom_site_fract_x
 _atom_site_fract_y
 _atom_site_fract_z
 _atom_site_occupancy
  Er  Er0  1  0.500000  0.000000  0.500000  1
  Er  Er1  1  0.172393  0.655409  0.829172  1
  Er  Er2  1  0.827607  0.344591  0.170828  1
  Er  Er3  1  0.344591  0.827607  0.170828  1
  Er  Er4  1  0.000000  0.500000  0.500000  1
  Er  Er5  1  0.655409  0.172393  0.829172  1
  Er  Er6  1  0.914117  0.914117  0.346660  1
  Er  Er7  1  0.583196  0.583196  0.671003  1
  Er  Er8  1  0.248299  0.248299  0.000523  1
  Er  Er9  1  0.416804  0.416804  0.328997  1
  Er  Er10  1  0.085883  0.085883  0.653340  1
  Er  Er11  1  0.751701  0.751701  0.999477  1
  N  N12  1  0.751744  0.248256  0.500000  1
  N  N13  1  0.415888  0.916895  0.833637  1
  N  N14  1  0.083105  0.584112  0.166363  1
  N  N15  1  0.584112  0.083105  0.166363  1
  N  N16  1  0.248256  0.751744  0.500000  1
  N  N17  1  0.916895  0.415888  0.833637  1
  N  N18  1  0.834058  0.834058  0.664517  1
  N  N19  1  0.500000  0.500000  0.000000  1
  N  N20  1  0.165942  0.165942  0.335483  1
  N  N21  1  0.665621  0.665621  0.330170  1
  N  N22  1  0.334379  0.334379  0.669830  1
