# generated using pymatgen
data_Gd5Mg2Ir3
_symmetry_space_group_name_H-M   'P 1'
_cell_length_a   8.57182140
_cell_length_b   8.57182155
_cell_length_c   8.57182100
_cell_angle_alpha   109.47121462
_cell_angle_beta   109.47121497
_cell_angle_gamma   109.47122930
_symmetry_Int_Tables_number   1
_chemical_formula_structural   Gd5Mg2Ir3
_chemical_formula_sum   'Gd10 Mg4 Ir6'
_cell_volume   484.83889565
_cell_formula_units_Z   2
loop_
 _symmetry_equiv_pos_site_id
 _symmetry_equiv_pos_as_xyz
  1  'x, y, z'
loop_
 _atom_site_type_symbol
 _atom_site_label
 _atom_site_symmetry_multiplicity
 _atom_site_fract_x
 _atom_site_fract_y
 _atom_site_fract_z
 _atom_site_occupancy
  Gd  Gd0  1  0.250000  0.671635  0.421635  1
  Gd  Gd1  1  0.750000  0.828365  0.078365  1
  Gd  Gd2  1  0.421635  0.250000  0.671635  1
  Gd  Gd3  1  0.671635  0.421635  0.250000  1
  Gd  Gd4  1  0.078365  0.750000  0.828365  1
  Gd  Gd5  1  0.828365  0.078365  0.750000  1
  Gd  Gd6  1  0.210114  0.210114  0.210114  1
  Gd  Gd7  1  0.500000  0.000000  0.289886  1
  Gd  Gd8  1  0.289886  0.500000  0.000000  1
  Gd  Gd9  1  0.000000  0.289886  0.500000  1
  Mg  Mg10  1  0.601978  0.601978  0.601978  1
  Mg  Mg11  1  0.500000  0.000000  0.898022  1
  Mg  Mg12  1  0.898022  0.500000  0.000000  1
  Mg  Mg13  1  0.000000  0.898022  0.500000  1
  Ir  Ir14  1  0.250000  0.134050  0.884050  1
  Ir  Ir15  1  0.750000  0.365950  0.615950  1
  Ir  Ir16  1  0.884049  0.250000  0.134050  1
  Ir  Ir17  1  0.134050  0.884049  0.250000  1
  Ir  Ir18  1  0.615950  0.750000  0.365950  1
  Ir  Ir19  1  0.365950  0.615950  0.750000  1
