# generated using pymatgen
data_TlCoPdF5
_symmetry_space_group_name_H-M   'P 1'
_cell_length_a   6.00798748
_cell_length_b   7.35005804
_cell_length_c   7.35474700
_cell_angle_alpha   99.10630809
_cell_angle_beta   114.10666246
_cell_angle_gamma   114.09755979
_symmetry_Int_Tables_number   1
_chemical_formula_structural   TlCoPdF5
_chemical_formula_sum   'Tl2 Co2 Pd2 F10'
_cell_volume   249.18032509
_cell_formula_units_Z   2
loop_
 _symmetry_equiv_pos_site_id
 _symmetry_equiv_pos_as_xyz
  1  'x, y, z'
loop_
 _atom_site_type_symbol
 _atom_site_label
 _atom_site_symmetry_multiplicity
 _atom_site_fract_x
 _atom_site_fract_y
 _atom_site_fract_z
 _atom_site_occupancy
  Tl  Tl0  1  0.751376  0.345319  0.157244  1
  Tl  Tl1  1  0.248624  0.654681  0.842756  1
  Co  Co2  1  0.000000  0.000000  0.000000  1
  Co  Co3  1  0.500001  0.500001  0.500001  1
  Pd  Pd4  1  0.999998  0.999999  0.500000  1
  Pd  Pd5  1  0.500000  0.999999  0.500000  1
  F  F6  1  0.254244  0.322339  0.186434  1
  F  F7  1  0.815225  0.938180  0.180340  1
  F  F8  1  0.303372  0.938390  0.180365  1
  F  F9  1  0.812092  0.683006  0.441613  1
  F  F10  1  0.312469  0.682983  0.441437  1
  F  F11  1  0.687533  0.317019  0.558565  1
  F  F12  1  0.187910  0.316996  0.558389  1
  F  F13  1  0.696629  0.061611  0.819636  1
  F  F14  1  0.184776  0.061821  0.819661  1
  F  F15  1  0.745756  0.677661  0.813566  1
