# generated using pymatgen
data_YEr3Al18(NiIr2)2
_symmetry_space_group_name_H-M   'P 1'
_cell_length_a   7.51764552
_cell_length_b   7.51636403
_cell_length_c   9.37696800
_cell_angle_alpha   90.00000000
_cell_angle_beta   90.00000000
_cell_angle_gamma   119.97613595
_symmetry_Int_Tables_number   1
_chemical_formula_structural   YEr3Al18(NiIr2)2
_chemical_formula_sum   'Y1 Er3 Al18 Ni2 Ir4'
_cell_volume   458.97295915
_cell_formula_units_Z   1
loop_
 _symmetry_equiv_pos_site_id
 _symmetry_equiv_pos_as_xyz
  1  'x, y, z'
loop_
 _atom_site_type_symbol
 _atom_site_label
 _atom_site_symmetry_multiplicity
 _atom_site_fract_x
 _atom_site_fract_y
 _atom_site_fract_z
 _atom_site_occupancy
  Y  Y0  1  0.334162  0.005878  0.750000  1
  Er  Er1  1  0.994369  0.665504  0.250000  1
  Er  Er2  1  0.005580  0.334655  0.750000  1
  Er  Er3  1  0.665777  0.994501  0.250000  1
  Al  Al4  1  0.118029  0.118296  0.250000  1
  Al  Al5  1  0.880984  0.881736  0.750000  1
  Al  Al6  1  0.999267  0.330852  0.075297  1
  Al  Al7  1  0.000145  0.668380  0.925405  1
  Al  Al8  1  0.000145  0.668380  0.574595  1
  Al  Al9  1  0.330978  0.999223  0.424023  1
  Al  Al10  1  0.999267  0.330852  0.424703  1
  Al  Al11  1  0.669793  0.000748  0.574527  1
  Al  Al12  1  0.669793  0.000748  0.925473  1
  Al  Al13  1  0.330978  0.999223  0.075977  1
  Al  Al14  1  0.329915  0.330455  0.550991  1
  Al  Al15  1  0.670252  0.670248  0.447986  1
  Al  Al16  1  0.670252  0.670248  0.052014  1
  Al  Al17  1  0.329915  0.330455  0.949009  1
  Al  Al18  1  0.337929  0.545495  0.250000  1
  Al  Al19  1  0.662894  0.455224  0.750000  1
  Al  Al20  1  0.545627  0.338144  0.250000  1
  Al  Al21  1  0.454272  0.661274  0.750000  1
  Ni  Ni22  1  0.999493  0.999612  0.000399  1
  Ni  Ni23  1  0.999493  0.999612  0.499601  1
  Ir  Ir24  1  0.672488  0.328082  0.000384  1
  Ir  Ir25  1  0.327857  0.672047  0.000310  1
  Ir  Ir26  1  0.327857  0.672047  0.499690  1
  Ir  Ir27  1  0.672488  0.328082  0.499616  1
