# generated using pymatgen
data_Tb9Y10TmSn16
_symmetry_space_group_name_H-M   'P 1'
_cell_length_a   8.05095106
_cell_length_b   8.20023840
_cell_length_c   15.50503902
_cell_angle_alpha   90.00514213
_cell_angle_beta   89.99725152
_cell_angle_gamma   89.96325630
_symmetry_Int_Tables_number   1
_chemical_formula_structural   Tb9Y10TmSn16
_chemical_formula_sum   'Tb9 Y10 Tm1 Sn16'
_cell_volume   1023.63808827
_cell_formula_units_Z   1
loop_
 _symmetry_equiv_pos_site_id
 _symmetry_equiv_pos_as_xyz
  1  'x, y, z'
loop_
 _atom_site_type_symbol
 _atom_site_label
 _atom_site_symmetry_multiplicity
 _atom_site_fract_x
 _atom_site_fract_y
 _atom_site_fract_z
 _atom_site_occupancy
  Tb  Tb0  1  0.867957  0.663425  0.877934  1
  Tb  Tb1  1  0.519837  0.320650  0.901998  1
  Tb  Tb2  1  0.020344  0.180002  0.598006  1
  Tb  Tb3  1  0.479992  0.679736  0.402457  1
  Tb  Tb4  1  0.979902  0.820191  0.097757  1
  Tb  Tb5  1  0.479993  0.679702  0.097538  1
  Tb  Tb6  1  0.979874  0.820210  0.402258  1
  Tb  Tb7  1  0.519881  0.320644  0.598002  1
  Tb  Tb8  1  0.020363  0.179926  0.901967  1
  Y  Y9  1  0.366995  0.836114  0.877872  1
  Y  Y10  1  0.867823  0.663312  0.622077  1
  Y  Y11  1  0.632622  0.163714  0.378253  1
  Y  Y12  1  0.132623  0.336338  0.121399  1
  Y  Y13  1  0.632610  0.163726  0.121785  1
  Y  Y14  1  0.132649  0.336297  0.378582  1
  Y  Y15  1  0.367090  0.836110  0.622111  1
  Y  Y16  1  0.698619  0.998043  0.749964  1
  Y  Y17  1  0.801019  0.497675  0.250016  1
  Y  Y18  1  0.301000  0.002240  0.250001  1
  Tm  Tm19  1  0.199262  0.502580  0.750006  1
  Sn  Sn20  1  0.292619  0.035298  0.041659  1
  Sn  Sn21  1  0.792425  0.464333  0.458355  1
  Sn  Sn22  1  0.707391  0.964483  0.542081  1
  Sn  Sn23  1  0.207607  0.535238  0.957269  1
  Sn  Sn24  1  0.707286  0.964558  0.957925  1
  Sn  Sn25  1  0.207437  0.535258  0.542736  1
  Sn  Sn26  1  0.292623  0.035293  0.458325  1
  Sn  Sn27  1  0.792401  0.464231  0.041726  1
  Sn  Sn28  1  0.564153  0.618254  0.749978  1
  Sn  Sn29  1  0.065605  0.880572  0.750008  1
  Sn  Sn30  1  0.434527  0.381382  0.249997  1
  Sn  Sn31  1  0.934727  0.118728  0.250003  1
  Sn  Sn32  1  0.328019  0.148206  0.749987  1
  Sn  Sn33  1  0.829422  0.354014  0.749976  1
  Sn  Sn34  1  0.671539  0.853831  0.249995  1
  Sn  Sn35  1  0.171761  0.645686  0.249997  1
