# generated using pymatgen
data_Nd9YC4I15
_symmetry_space_group_name_H-M   'P 1'
_cell_length_a   9.76067926
_cell_length_b   10.63164439
_cell_length_c   11.74692840
_cell_angle_alpha   93.83322392
_cell_angle_beta   114.16981325
_cell_angle_gamma   109.45436629
_symmetry_Int_Tables_number   1
_chemical_formula_structural   Nd9YC4I15
_chemical_formula_sum   'Nd9 Y1 C4 I15'
_cell_volume   1018.96437376
_cell_formula_units_Z   1
loop_
 _symmetry_equiv_pos_site_id
 _symmetry_equiv_pos_as_xyz
  1  'x, y, z'
loop_
 _atom_site_type_symbol
 _atom_site_label
 _atom_site_symmetry_multiplicity
 _atom_site_fract_x
 _atom_site_fract_y
 _atom_site_fract_z
 _atom_site_occupancy
  Nd  Nd0  1  0.344487  0.744677  0.163516  1
  Nd  Nd1  1  0.775890  0.882585  0.256857  1
  Nd  Nd2  1  0.528692  0.184889  0.103017  1
  Nd  Nd3  1  0.224253  0.116523  0.743713  1
  Nd  Nd4  1  0.403436  0.458981  0.658018  1
  Nd  Nd5  1  0.472567  0.814660  0.898310  1
  Nd  Nd6  1  0.704220  0.567373  0.044255  1
  Nd  Nd7  1  0.295878  0.432433  0.955654  1
  Nd  Nd8  1  0.655464  0.255868  0.834312  1
  Y  Y9  1  0.593751  0.544006  0.335966  1
  C  C10  1  0.482866  0.300940  0.938989  1
  C  C11  1  0.518006  0.698132  0.061598  1
  C  C12  1  0.453516  0.363681  0.835023  1
  C  C13  1  0.546369  0.635335  0.165547  1
  I  I14  1  0.206249  0.906091  0.937669  1
  I  I15  1  0.103898  0.187209  0.468443  1
  I  I16  1  0.151911  0.555348  0.703452  1
  I  I17  1  0.405281  0.969279  0.647226  1
  I  I18  1  0.714720  0.734718  0.821763  1
  I  I19  1  0.293599  0.271103  0.184084  1
  I  I20  1  0.841896  0.446578  0.300599  1
  I  I21  1  0.887297  0.803446  0.528406  1
  I  I22  1  0.365324  0.628867  0.412176  1
  I  I23  1  0.053290  0.832825  0.221332  1
  I  I24  1  0.794551  0.095794  0.062864  1
  I  I25  1  0.641457  0.373330  0.583811  1
  I  I26  1  0.947319  0.166229  0.779925  1
  I  I27  1  0.593919  0.029612  0.352602  1
  I  I28  1  0.999893  0.499486  0.000871  1
