# generated using pymatgen
data_U4Ga5SiTc7
_symmetry_space_group_name_H-M   'P 1'
_cell_length_a   7.20955023
_cell_length_b   7.20955071
_cell_length_c   7.20955062
_cell_angle_alpha   109.56489513
_cell_angle_beta   109.28402583
_cell_angle_gamma   109.56490253
_symmetry_Int_Tables_number   1
_chemical_formula_structural   U4Ga5SiTc7
_chemical_formula_sum   'U4 Ga5 Si1 Tc7'
_cell_volume   288.46903664
_cell_formula_units_Z   1
loop_
 _symmetry_equiv_pos_site_id
 _symmetry_equiv_pos_as_xyz
  1  'x, y, z'
loop_
 _atom_site_type_symbol
 _atom_site_label
 _atom_site_symmetry_multiplicity
 _atom_site_fract_x
 _atom_site_fract_y
 _atom_site_fract_z
 _atom_site_occupancy
  U  U0  1  0.486674  0.483343  0.486674  1
  U  U1  1  0.003331  0.516657  0.003331  1
  U  U2  1  0.486674  0.000000  0.003331  1
  U  U3  1  0.003331  0.000000  0.486674  1
  Ga  Ga4  1  0.712668  0.000000  0.712668  1
  Ga  Ga5  1  0.685477  0.694410  0.991067  1
  Ga  Ga6  1  0.296658  0.305590  0.991067  1
  Ga  Ga7  1  0.991067  0.694410  0.685477  1
  Ga  Ga8  1  0.991067  0.305590  0.296658  1
  Si  Si9  1  0.325589  0.000000  0.325589  1
  Tc  Tc10  1  0.499085  0.751996  0.251081  1
  Tc  Tc11  1  0.747090  0.248004  0.499085  1
  Tc  Tc12  1  0.251081  0.751996  0.499085  1
  Tc  Tc13  1  0.243994  0.500000  0.743994  1
  Tc  Tc14  1  0.033134  0.000000  0.033134  1
  Tc  Tc15  1  0.499085  0.248004  0.747090  1
  Tc  Tc16  1  0.743994  0.500000  0.243994  1
