# generated using pymatgen
data_DyScCo3P7Ru9
_symmetry_space_group_name_H-M   'P 1'
_cell_length_a   9.30790100
_cell_length_b   9.30790099
_cell_length_c   3.80742300
_cell_angle_alpha   90.00000000
_cell_angle_beta   90.00000000
_cell_angle_gamma   120.00000263
_symmetry_Int_Tables_number   1
_chemical_formula_structural   DyScCo3P7Ru9
_chemical_formula_sum   'Dy1 Sc1 Co3 P7 Ru9'
_cell_volume   285.67041104
_cell_formula_units_Z   1
loop_
 _symmetry_equiv_pos_site_id
 _symmetry_equiv_pos_as_xyz
  1  'x, y, z'
loop_
 _atom_site_type_symbol
 _atom_site_label
 _atom_site_symmetry_multiplicity
 _atom_site_fract_x
 _atom_site_fract_y
 _atom_site_fract_z
 _atom_site_occupancy
  Dy  Dy0  1  0.333333  0.666667  0.000000  1
  Sc  Sc1  1  0.666667  0.333333  0.500000  1
  Co  Co2  1  0.729130  0.888456  0.000000  1
  Co  Co3  1  0.111544  0.840671  0.000000  1
  Co  Co4  1  0.159329  0.270870  0.000000  1
  P  P5  1  0.600259  0.716760  0.500000  1
  P  P6  1  0.000000  0.000000  0.000000  1
  P  P7  1  0.283240  0.883498  0.500000  1
  P  P8  1  0.116502  0.399741  0.500000  1
  P  P9  1  0.887836  0.584450  0.000000  1
  P  P10  1  0.415550  0.303386  0.000000  1
  P  P11  1  0.696614  0.112164  0.000000  1
  Ru  Ru12  1  0.564253  0.949906  0.500000  1
  Ru  Ru13  1  0.385654  0.435747  0.500000  1
  Ru  Ru14  1  0.914750  0.119627  0.500000  1
  Ru  Ru15  1  0.204877  0.085250  0.500000  1
  Ru  Ru16  1  0.880373  0.795123  0.500000  1
  Ru  Ru17  1  0.426781  0.065468  0.000000  1
  Ru  Ru18  1  0.934532  0.361314  0.000000  1
  Ru  Ru19  1  0.638686  0.573219  0.000000  1
  Ru  Ru20  1  0.050094  0.614346  0.500000  1
