# generated using pymatgen
data_CsK5(AlSe3)2
_symmetry_space_group_name_H-M   'P 1'
_cell_length_a   13.87000781
_cell_length_b   8.21745507
_cell_length_c   10.48709478
_cell_angle_alpha   53.00647789
_cell_angle_beta   89.07460980
_cell_angle_gamma   89.58905369
_symmetry_Int_Tables_number   1
_chemical_formula_structural   CsK5(AlSe3)2
_chemical_formula_sum   'Cs2 K10 Al4 Se12'
_cell_volume   954.54409578
_cell_formula_units_Z   2
loop_
 _symmetry_equiv_pos_site_id
 _symmetry_equiv_pos_as_xyz
  1  'x, y, z'
loop_
 _atom_site_type_symbol
 _atom_site_label
 _atom_site_symmetry_multiplicity
 _atom_site_fract_x
 _atom_site_fract_y
 _atom_site_fract_z
 _atom_site_occupancy
  Cs  Cs0  1  0.313639  0.183402  0.053865  1
  Cs  Cs1  1  0.686361  0.816598  0.946135  1
  K  K2  1  0.818465  0.831738  0.442451  1
  K  K3  1  0.900261  0.316464  0.403094  1
  K  K4  1  0.619457  0.371129  0.471882  1
  K  K5  1  0.111775  0.632260  0.022220  1
  K  K6  1  0.380543  0.628871  0.528118  1
  K  K7  1  0.888225  0.367740  0.977780  1
  K  K8  1  0.614938  0.297303  0.910191  1
  K  K9  1  0.099739  0.683536  0.596906  1
  K  K10  1  0.385062  0.702697  0.089809  1
  K  K11  1  0.181535  0.168262  0.557549  1
  Al  Al12  1  0.063220  0.945099  0.155622  1
  Al  Al13  1  0.567150  0.035946  0.351693  1
  Al  Al14  1  0.432850  0.964054  0.648307  1
  Al  Al15  1  0.936780  0.054901  0.844378  1
  Se  Se16  1  0.419712  0.203777  0.355826  1
  Se  Se17  1  0.906741  0.822743  0.137376  1
  Se  Se18  1  0.580288  0.796223  0.644174  1
  Se  Se19  1  0.093259  0.177257  0.862624  1
  Se  Se20  1  0.700661  0.269390  0.227458  1
  Se  Se21  1  0.182163  0.680294  0.295280  1
  Se  Se22  1  0.299339  0.730610  0.772542  1
  Se  Se23  1  0.817837  0.319706  0.704720  1
  Se  Se24  1  0.544266  0.857683  0.240762  1
  Se  Se25  1  0.050144  0.132725  0.261336  1
  Se  Se26  1  0.455734  0.142317  0.759238  1
  Se  Se27  1  0.949856  0.867275  0.738664  1
