# generated using pymatgen
data_Sm3U5Re(TcB8)3
_symmetry_space_group_name_H-M   'P 1'
_cell_length_a   3.66389400
_cell_length_b   9.33714967
_cell_length_c   11.44508919
_cell_angle_alpha   90.05389721
_cell_angle_beta   90.00000000
_cell_angle_gamma   90.00000000
_symmetry_Int_Tables_number   1
_chemical_formula_structural   Sm3U5Re(TcB8)3
_chemical_formula_sum   'Sm3 U5 Re1 Tc3 B24'
_cell_volume   391.54006680
_cell_formula_units_Z   1
loop_
 _symmetry_equiv_pos_site_id
 _symmetry_equiv_pos_as_xyz
  1  'x, y, z'
loop_
 _atom_site_type_symbol
 _atom_site_label
 _atom_site_symmetry_multiplicity
 _atom_site_fract_x
 _atom_site_fract_y
 _atom_site_fract_z
 _atom_site_occupancy
  Sm  Sm0  1  0.000000  0.337440  0.407677  1
  Sm  Sm1  1  0.000000  0.662991  0.592295  1
  Sm  Sm2  1  0.000000  0.836124  0.092725  1
  U  U3  1  0.000000  0.163029  0.907340  1
  U  U4  1  0.000000  0.956589  0.396775  1
  U  U5  1  0.000000  0.042758  0.603502  1
  U  U6  1  0.000000  0.457276  0.103579  1
  U  U7  1  0.000000  0.542437  0.896978  1
  Re  Re8  1  0.000000  0.857687  0.819235  1
  Tc  Tc9  1  0.000000  0.646647  0.318209  1
  Tc  Tc10  1  0.000000  0.350783  0.685044  1
  Tc  Tc11  1  0.000000  0.147200  0.177916  1
  B  B12  1  0.500000  0.553561  0.429885  1
  B  B13  1  0.500000  0.445481  0.571328  1
  B  B14  1  0.500000  0.054373  0.067793  1
  B  B15  1  0.500000  0.950310  0.929805  1
  B  B16  1  0.500000  0.744364  0.422137  1
  B  B17  1  0.500000  0.255507  0.578305  1
  B  B18  1  0.500000  0.243158  0.075915  1
  B  B19  1  0.500000  0.755924  0.921940  1
  B  B20  1  0.500000  0.802374  0.275073  1
  B  B21  1  0.500000  0.195954  0.726955  1
  B  B22  1  0.500000  0.302245  0.224229  1
  B  B23  1  0.500000  0.698317  0.775342  1
  B  B24  1  0.500000  0.643489  0.188405  1
  B  B25  1  0.500000  0.353789  0.812614  1
  B  B26  1  0.500000  0.144134  0.310789  1
  B  B27  1  0.500000  0.856398  0.688604  1
  B  B28  1  0.500000  0.991120  0.219728  1
  B  B29  1  0.500000  0.012991  0.781193  1
  B  B30  1  0.500000  0.490337  0.279822  1
  B  B31  1  0.500000  0.509064  0.720784  1
  B  B32  1  0.500000  0.638641  0.037955  1
  B  B33  1  0.500000  0.356761  0.960544  1
  B  B34  1  0.500000  0.138480  0.461434  1
  B  B35  1  0.500000  0.862263  0.538149  1
