# generated using pymatgen
data_Yb2PaSn3PdPt2
_symmetry_space_group_name_H-M   'P 1'
_cell_length_a   7.53177548
_cell_length_b   7.53177490
_cell_length_c   4.04813400
_cell_angle_alpha   90.00000000
_cell_angle_beta   90.00000000
_cell_angle_gamma   119.41206667
_symmetry_Int_Tables_number   1
_chemical_formula_structural   Yb2PaSn3PdPt2
_chemical_formula_sum   'Yb2 Pa1 Sn3 Pd1 Pt2'
_cell_volume   200.04273285
_cell_formula_units_Z   1
loop_
 _symmetry_equiv_pos_site_id
 _symmetry_equiv_pos_as_xyz
  1  'x, y, z'
loop_
 _atom_site_type_symbol
 _atom_site_label
 _atom_site_symmetry_multiplicity
 _atom_site_fract_x
 _atom_site_fract_y
 _atom_site_fract_z
 _atom_site_occupancy
  Yb  Yb0  1  0.590277  0.997917  0.000000  1
  Yb  Yb1  1  0.997917  0.590277  0.000000  1
  Pa  Pa2  1  0.420234  0.420234  0.000000  1
  Sn  Sn3  1  0.983721  0.255253  0.500000  1
  Sn  Sn4  1  0.758549  0.758549  0.500000  1
  Sn  Sn5  1  0.255253  0.983721  0.500000  1
  Pd  Pd6  1  0.020614  0.020614  0.000000  1
  Pt  Pt7  1  0.639427  0.334008  0.500000  1
  Pt  Pt8  1  0.334008  0.639427  0.500000  1
