# generated using pymatgen
data_Hf10HgSb5
_symmetry_space_group_name_H-M   'P 1'
_cell_length_a   5.64402798
_cell_length_b   8.34125090
_cell_length_c   8.34125095
_cell_angle_alpha   96.57251510
_cell_angle_beta   109.77457247
_cell_angle_gamma   70.22543310
_symmetry_Int_Tables_number   1
_chemical_formula_structural   Hf10HgSb5
_chemical_formula_sum   'Hf10 Hg1 Sb5'
_cell_volume   347.74381288
_cell_formula_units_Z   1
loop_
 _symmetry_equiv_pos_site_id
 _symmetry_equiv_pos_as_xyz
  1  'x, y, z'
loop_
 _atom_site_type_symbol
 _atom_site_label
 _atom_site_symmetry_multiplicity
 _atom_site_fract_x
 _atom_site_fract_y
 _atom_site_fract_z
 _atom_site_occupancy
  Hf  Hf0  1  0.920936  0.852223  0.699728  1
  Hf  Hf1  1  0.073430  0.147777  0.300272  1
  Hf  Hf2  1  0.426570  0.300272  0.147777  1
  Hf  Hf3  1  0.579064  0.699728  0.852223  1
  Hf  Hf4  1  0.221209  0.699728  0.147777  1
  Hf  Hf5  1  0.773158  0.300272  0.852223  1
  Hf  Hf6  1  0.278791  0.147777  0.699728  1
  Hf  Hf7  1  0.726842  0.852223  0.300272  1
  Hf  Hf8  1  0.250000  0.500000  0.500000  1
  Hf  Hf9  1  0.750000  0.500000  0.500000  1
  Hg  Hg10  1  0.250000  0.000000  0.000000  1
  Sb  Sb11  1  0.335119  0.829762  0.500000  1
  Sb  Sb12  1  0.664881  0.170238  0.500000  1
  Sb  Sb13  1  0.835119  0.500000  0.170238  1
  Sb  Sb14  1  0.164881  0.500000  0.829762  1
  Sb  Sb15  1  0.750000  0.000000  0.000000  1
