# generated using pymatgen
data_Dy7Tm2Th5Rh6
_symmetry_space_group_name_H-M   'P 1'
_cell_length_a   9.72780890
_cell_length_b   9.72780783
_cell_length_c   6.39274723
_cell_angle_alpha   89.72366899
_cell_angle_beta   90.27633062
_cell_angle_gamma   119.33104218
_symmetry_Int_Tables_number   1
_chemical_formula_structural   Dy7Tm2Th5Rh6
_chemical_formula_sum   'Dy7 Tm2 Th5 Rh6'
_cell_volume   527.38724787
_cell_formula_units_Z   1
loop_
 _symmetry_equiv_pos_site_id
 _symmetry_equiv_pos_as_xyz
  1  'x, y, z'
loop_
 _atom_site_type_symbol
 _atom_site_label
 _atom_site_symmetry_multiplicity
 _atom_site_fract_x
 _atom_site_fract_y
 _atom_site_fract_z
 _atom_site_occupancy
  Dy  Dy0  1  0.128061  0.871939  0.256264  1
  Dy  Dy1  1  0.459829  0.921247  0.548964  1
  Dy  Dy2  1  0.078753  0.540171  0.548964  1
  Dy  Dy3  1  0.459894  0.540106  0.549911  1
  Dy  Dy4  1  0.537827  0.076961  0.053426  1
  Dy  Dy5  1  0.923039  0.462173  0.053426  1
  Dy  Dy6  1  0.539872  0.460128  0.052185  1
  Tm  Tm7  1  0.666771  0.333229  0.530847  1
  Tm  Tm8  1  0.332837  0.667163  0.028347  1
  Th  Th9  1  0.873212  0.743443  0.757769  1
  Th  Th10  1  0.256557  0.126788  0.757769  1
  Th  Th11  1  0.870592  0.129408  0.756592  1
  Th  Th12  1  0.130654  0.256133  0.257985  1
  Th  Th13  1  0.743867  0.869346  0.257985  1
  Rh  Rh14  1  0.183721  0.366900  0.795025  1
  Rh  Rh15  1  0.633100  0.816279  0.795025  1
  Rh  Rh16  1  0.184245  0.815755  0.790155  1
  Rh  Rh17  1  0.808434  0.628235  0.298606  1
  Rh  Rh18  1  0.371765  0.191566  0.298606  1
  Rh  Rh19  1  0.816970  0.183030  0.293587  1
