# generated using pymatgen
data_TlFe3(AsO4)3
_symmetry_space_group_name_H-M   'P 1'
_cell_length_a   6.84240585
_cell_length_b   9.53849829
_cell_length_c   9.53942200
_cell_angle_alpha   93.80000911
_cell_angle_beta   111.02223715
_cell_angle_gamma   111.00498855
_symmetry_Int_Tables_number   1
_chemical_formula_structural   TlFe3(AsO4)3
_chemical_formula_sum   'Tl2 Fe6 As6 O24'
_cell_volume   528.80570831
_cell_formula_units_Z   2
loop_
 _symmetry_equiv_pos_site_id
 _symmetry_equiv_pos_as_xyz
  1  'x, y, z'
loop_
 _atom_site_type_symbol
 _atom_site_label
 _atom_site_symmetry_multiplicity
 _atom_site_fract_x
 _atom_site_fract_y
 _atom_site_fract_z
 _atom_site_occupancy
  Tl  Tl0  1  0.407346  0.747090  0.252861  1
  Tl  Tl1  1  0.592672  0.247155  0.752903  1
  Fe  Fe2  1  0.009460  0.999131  0.000858  1
  Fe  Fe3  1  0.499961  0.385718  0.114285  1
  Fe  Fe4  1  0.000032  0.116520  0.383484  1
  Fe  Fe5  1  0.990538  0.499120  0.500866  1
  Fe  Fe6  1  0.999961  0.885686  0.614346  1
  Fe  Fe7  1  0.500059  0.616502  0.883499  1
  As  As8  1  0.000025  0.320940  0.179066  1
  As  As9  1  0.916227  0.753394  0.246671  1
  As  As10  1  0.500003  0.178184  0.321820  1
  As  As11  1  0.500003  0.820909  0.679069  1
  As  As12  1  0.083782  0.253334  0.746630  1
  As  As13  1  0.999985  0.678101  0.821873  1
  O  O14  1  0.764934  0.350460  0.077870  1
  O  O15  1  0.640827  0.631141  0.115087  1
  O  O16  1  0.341338  0.143485  0.122655  1
  O  O17  1  0.932935  0.119712  0.152891  1
  O  O18  1  0.235064  0.422131  0.149565  1
  O  O19  1  0.059659  0.853766  0.146234  1
  O  O20  1  0.039833  0.646432  0.353579  1
  O  O21  1  0.672119  0.080059  0.357269  1
  O  O22  1  0.658608  0.377346  0.356502  1
  O  O23  1  0.067110  0.347108  0.380296  1
  O  O24  1  0.894501  0.884918  0.368879  1
  O  O25  1  0.327896  0.142747  0.419935  1
  O  O26  1  0.663319  0.850363  0.577862  1
  O  O27  1  0.105501  0.131106  0.615123  1
  O  O28  1  0.924768  0.643458  0.622698  1
  O  O29  1  0.339689  0.619689  0.652912  1
  O  O30  1  0.336635  0.922133  0.649611  1
  O  O31  1  0.940340  0.353784  0.646225  1
  O  O32  1  0.960203  0.146425  0.853568  1
  O  O33  1  0.765172  0.580008  0.857287  1
  O  O34  1  0.075163  0.877267  0.856543  1
  O  O35  1  0.660347  0.847084  0.880306  1
  O  O36  1  0.359183  0.384905  0.868894  1
  O  O37  1  0.234806  0.642694  0.919984  1
