# generated using pymatgen
data_PdPt4Pb3O14
_symmetry_space_group_name_H-M   'P 1'
_cell_length_a   7.42021602
_cell_length_b   7.26491125
_cell_length_c   7.42021600
_cell_angle_alpha   59.29027699
_cell_angle_beta   59.99999116
_cell_angle_gamma   59.29027737
_symmetry_Int_Tables_number   1
_chemical_formula_structural   PdPt4Pb3O14
_chemical_formula_sum   'Pd1 Pt4 Pb3 O14'
_cell_volume   279.77263986
_cell_formula_units_Z   1
loop_
 _symmetry_equiv_pos_site_id
 _symmetry_equiv_pos_as_xyz
  1  'x, y, z'
loop_
 _atom_site_type_symbol
 _atom_site_label
 _atom_site_symmetry_multiplicity
 _atom_site_fract_x
 _atom_site_fract_y
 _atom_site_fract_z
 _atom_site_occupancy
  Pd  Pd0  1  0.125000  0.625000  0.125000  1
  Pt  Pt1  1  0.625000  0.625000  0.125000  1
  Pt  Pt2  1  0.625000  0.625000  0.625000  1
  Pt  Pt3  1  0.625000  0.125000  0.625000  1
  Pt  Pt4  1  0.125000  0.625000  0.625000  1
  Pb  Pb5  1  0.125000  0.125000  0.125000  1
  Pb  Pb6  1  0.625000  0.125000  0.125000  1
  Pb  Pb7  1  0.125000  0.125000  0.625000  1
  O  O8  1  0.709245  0.289073  0.292438  1
  O  O9  1  0.709245  0.289073  0.709245  1
  O  O10  1  0.011757  0.964729  0.011757  1
  O  O11  1  0.294311  0.700567  0.294311  1
  O  O12  1  0.710812  0.700567  0.294311  1
  O  O13  1  0.955689  0.549433  0.539188  1
  O  O14  1  0.294311  0.700567  0.710812  1
  O  O15  1  0.238243  0.285271  0.238243  1
  O  O16  1  0.955689  0.549433  0.955689  1
  O  O17  1  0.540755  0.960927  0.540755  1
  O  O18  1  0.539188  0.549433  0.955689  1
  O  O19  1  0.957562  0.960927  0.540755  1
  O  O20  1  0.540755  0.960927  0.957562  1
  O  O21  1  0.292438  0.289073  0.709245  1
