# generated using pymatgen
data_La7Te4AuO24
_symmetry_space_group_name_H-M   'P 1'
_cell_length_a   5.54414508
_cell_length_b   9.44879731
_cell_length_c   10.47497300
_cell_angle_alpha   90.51316952
_cell_angle_beta   90.93238568
_cell_angle_gamma   89.85386135
_symmetry_Int_Tables_number   1
_chemical_formula_structural   La7Te4AuO24
_chemical_formula_sum   'La7 Te4 Au1 O24'
_cell_volume   548.64048129
_cell_formula_units_Z   1
loop_
 _symmetry_equiv_pos_site_id
 _symmetry_equiv_pos_as_xyz
  1  'x, y, z'
loop_
 _atom_site_type_symbol
 _atom_site_label
 _atom_site_symmetry_multiplicity
 _atom_site_fract_x
 _atom_site_fract_y
 _atom_site_fract_z
 _atom_site_occupancy
  La  La0  1  0.037294  0.378703  0.046657  1
  La  La1  1  0.478070  0.600537  0.544822  1
  La  La2  1  0.973046  0.893576  0.453421  1
  La  La3  1  0.516819  0.212635  0.346201  1
  La  La4  1  0.028456  0.287320  0.634725  1
  La  La5  1  0.471373  0.724554  0.141626  1
  La  La6  1  0.984164  0.779572  0.869720  1
  Te  Te7  1  0.459440  0.994863  0.642889  1
  Te  Te8  1  0.956705  0.503854  0.355982  1
  Te  Te9  1  0.554873  0.494925  0.858866  1
  Te  Te10  1  0.026798  0.001847  0.139004  1
  Au  Au11  1  0.573948  0.136710  0.900737  1
  O  O12  1  0.226500  0.165924  0.177781  1
  O  O13  1  0.831719  0.376845  0.816919  1
  O  O14  1  0.700179  0.644182  0.328705  1
  O  O15  1  0.198542  0.864812  0.678771  1
  O  O16  1  0.717925  0.110178  0.570011  1
  O  O17  1  0.216282  0.384944  0.432559  1
  O  O18  1  0.285343  0.595791  0.941356  1
  O  O19  1  0.806070  0.857615  0.073736  1
  O  O20  1  0.668804  0.646087  0.752660  1
  O  O21  1  0.203453  0.883879  0.261554  1
  O  O22  1  0.322205  0.138351  0.760893  1
  O  O23  1  0.803775  0.367147  0.243167  1
  O  O24  1  0.665037  0.958622  0.798939  1
  O  O25  1  0.164333  0.550602  0.216692  1
  O  O26  1  0.349307  0.442182  0.715009  1
  O  O27  1  0.804216  0.038455  0.280200  1
  O  O28  1  0.252529  0.085950  0.514270  1
  O  O29  1  0.754351  0.414006  0.488440  1
  O  O30  1  0.751868  0.576235  0.997023  1
  O  O31  1  0.239955  0.920609  0.011592  1
  O  O32  1  0.077096  0.646937  0.477961  1
  O  O33  1  0.580894  0.847336  0.533989  1
  O  O34  1  0.862010  0.143578  0.023718  1
  O  O35  1  0.456626  0.330637  0.969406  1
