# generated using pymatgen
data_Tb5Sn2BiN
_symmetry_space_group_name_H-M   'P 1'
_cell_length_a   9.02758044
_cell_length_b   9.01875344
_cell_length_c   6.44559400
_cell_angle_alpha   90.00000000
_cell_angle_beta   90.00000000
_cell_angle_gamma   119.96765805
_symmetry_Int_Tables_number   1
_chemical_formula_structural   Tb5Sn2BiN
_chemical_formula_sum   'Tb10 Sn4 Bi2 N2'
_cell_volume   454.62456926
_cell_formula_units_Z   2
loop_
 _symmetry_equiv_pos_site_id
 _symmetry_equiv_pos_as_xyz
  1  'x, y, z'
loop_
 _atom_site_type_symbol
 _atom_site_label
 _atom_site_symmetry_multiplicity
 _atom_site_fract_x
 _atom_site_fract_y
 _atom_site_fract_z
 _atom_site_occupancy
  Tb  Tb0  1  0.670692  0.336551  0.004098  1
  Tb  Tb1  1  0.329308  0.665859  0.004098  1
  Tb  Tb2  1  0.329308  0.665859  0.495902  1
  Tb  Tb3  1  0.670692  0.336551  0.495902  1
  Tb  Tb4  1  0.789675  0.785327  0.750000  1
  Tb  Tb5  1  0.210325  0.995652  0.750000  1
  Tb  Tb6  1  0.000000  0.214878  0.750000  1
  Tb  Tb7  1  0.212537  0.212311  0.250000  1
  Tb  Tb8  1  0.787463  0.999774  0.250000  1
  Tb  Tb9  1  0.000000  0.784519  0.250000  1
  Sn  Sn10  1  0.000000  0.597284  0.750000  1
  Sn  Sn11  1  0.598920  0.600069  0.250000  1
  Sn  Sn12  1  0.401080  0.001148  0.250000  1
  Sn  Sn13  1  0.000000  0.400901  0.250000  1
  Bi  Bi14  1  0.401434  0.401187  0.750000  1
  Bi  Bi15  1  0.598566  0.999752  0.750000  1
  N  N16  1  0.000000  0.001189  0.998275  1
  N  N17  1  0.000000  0.001189  0.501725  1
