# generated using pymatgen
data_Hf3Ta2GaGe2
_symmetry_space_group_name_H-M   'P 1'
_cell_length_a   7.91343512
_cell_length_b   7.91343632
_cell_length_c   5.42316100
_cell_angle_alpha   90.00000000
_cell_angle_beta   90.00000000
_cell_angle_gamma   120.07969903
_symmetry_Int_Tables_number   1
_chemical_formula_structural   Hf3Ta2GaGe2
_chemical_formula_sum   'Hf6 Ta4 Ga2 Ge4'
_cell_volume   293.87588166
_cell_formula_units_Z   2
loop_
 _symmetry_equiv_pos_site_id
 _symmetry_equiv_pos_as_xyz
  1  'x, y, z'
loop_
 _atom_site_type_symbol
 _atom_site_label
 _atom_site_symmetry_multiplicity
 _atom_site_fract_x
 _atom_site_fract_y
 _atom_site_fract_z
 _atom_site_occupancy
  Hf  Hf0  1  0.254745  0.001664  0.250000  1
  Hf  Hf1  1  0.745255  0.998336  0.750000  1
  Hf  Hf2  1  0.001664  0.254745  0.250000  1
  Hf  Hf3  1  0.998336  0.745255  0.750000  1
  Hf  Hf4  1  0.749614  0.749614  0.250000  1
  Hf  Hf5  1  0.250386  0.250386  0.750000  1
  Ta  Ta6  1  0.331719  0.668281  0.000000  1
  Ta  Ta7  1  0.668281  0.331719  0.000000  1
  Ta  Ta8  1  0.668281  0.331719  0.500000  1
  Ta  Ta9  1  0.331719  0.668281  0.500000  1
  Ga  Ga10  1  0.397475  0.397475  0.250000  1
  Ga  Ga11  1  0.602525  0.602525  0.750000  1
  Ge  Ge12  1  0.608098  0.998943  0.250000  1
  Ge  Ge13  1  0.391902  0.001057  0.750000  1
  Ge  Ge14  1  0.998943  0.608098  0.250000  1
  Ge  Ge15  1  0.001057  0.391902  0.750000  1
