# generated using pymatgen
data_Eu4CoMo3O14
_symmetry_space_group_name_H-M   'P 1'
_cell_length_a   7.56163510
_cell_length_b   7.56163510
_cell_length_c   7.44765400
_cell_angle_alpha   59.49242721
_cell_angle_beta   59.49242719
_cell_angle_gamma   60.00000994
_symmetry_Int_Tables_number   1
_chemical_formula_structural   Eu4CoMo3O14
_chemical_formula_sum   'Eu4 Co1 Mo3 O14'
_cell_volume   298.78659685
_cell_formula_units_Z   1
loop_
 _symmetry_equiv_pos_site_id
 _symmetry_equiv_pos_as_xyz
  1  'x, y, z'
loop_
 _atom_site_type_symbol
 _atom_site_label
 _atom_site_symmetry_multiplicity
 _atom_site_fract_x
 _atom_site_fract_y
 _atom_site_fract_z
 _atom_site_occupancy
  Eu  Eu0  1  0.125000  0.625000  0.125000  1
  Eu  Eu1  1  0.125000  0.125000  0.625000  1
  Eu  Eu2  1  0.625000  0.125000  0.125000  1
  Eu  Eu3  1  0.125000  0.125000  0.125000  1
  Co  Co4  1  0.625000  0.625000  0.125000  1
  Mo  Mo5  1  0.625000  0.625000  0.625000  1
  Mo  Mo6  1  0.125000  0.625000  0.625000  1
  Mo  Mo7  1  0.625000  0.125000  0.625000  1
  O  O8  1  0.298174  0.708547  0.695104  1
  O  O9  1  0.548450  0.963641  0.939458  1
  O  O10  1  0.701550  0.701550  0.310542  1
  O  O11  1  0.298174  0.298174  0.695104  1
  O  O12  1  0.998308  0.998308  0.005076  1
  O  O13  1  0.286359  0.701550  0.310542  1
  O  O14  1  0.708547  0.298174  0.695104  1
  O  O15  1  0.963641  0.548450  0.939458  1
  O  O16  1  0.548450  0.548450  0.939458  1
  O  O17  1  0.951826  0.951826  0.554896  1
  O  O18  1  0.251692  0.251692  0.244924  1
  O  O19  1  0.541453  0.951826  0.554896  1
  O  O20  1  0.701550  0.286359  0.310542  1
  O  O21  1  0.951826  0.541453  0.554896  1
