# generated using pymatgen
data_Y4Zr4IrRh3
_symmetry_space_group_name_H-M   'P 1'
_cell_length_a   4.61511100
_cell_length_b   7.10691204
_cell_length_c   8.31322928
_cell_angle_alpha   89.91290515
_cell_angle_beta   90.00000000
_cell_angle_gamma   90.00000000
_symmetry_Int_Tables_number   1
_chemical_formula_structural   Y4Zr4IrRh3
_chemical_formula_sum   'Y4 Zr4 Ir1 Rh3'
_cell_volume   272.66685461
_cell_formula_units_Z   1
loop_
 _symmetry_equiv_pos_site_id
 _symmetry_equiv_pos_as_xyz
  1  'x, y, z'
loop_
 _atom_site_type_symbol
 _atom_site_label
 _atom_site_symmetry_multiplicity
 _atom_site_fract_x
 _atom_site_fract_y
 _atom_site_fract_z
 _atom_site_occupancy
  Y  Y0  1  0.250000  0.984626  0.322436  1
  Y  Y1  1  0.250000  0.484090  0.177780  1
  Y  Y2  1  0.750000  0.017216  0.678524  1
  Y  Y3  1  0.750000  0.513197  0.823745  1
  Zr  Zr4  1  0.250000  0.357738  0.577168  1
  Zr  Zr5  1  0.250000  0.855984  0.923430  1
  Zr  Zr6  1  0.750000  0.643525  0.424582  1
  Zr  Zr7  1  0.750000  0.142282  0.074476  1
  Ir  Ir8  1  0.250000  0.229316  0.909067  1
  Rh  Rh9  1  0.250000  0.729387  0.588441  1
  Rh  Rh10  1  0.750000  0.770638  0.089400  1
  Rh  Rh11  1  0.750000  0.272000  0.410951  1
