# generated using pymatgen
data_Ca3Ac16YbSn16
_symmetry_space_group_name_H-M   'P 1'
_cell_length_a   8.62297500
_cell_length_b   8.84368373
_cell_length_c   16.99207000
_cell_angle_alpha   90.00000000
_cell_angle_beta   90.00000000
_cell_angle_gamma   90.12405469
_symmetry_Int_Tables_number   1
_chemical_formula_structural   Ca3Ac16YbSn16
_chemical_formula_sum   'Ca3 Ac16 Yb1 Sn16'
_cell_volume   1295.79291290
_cell_formula_units_Z   1
loop_
 _symmetry_equiv_pos_site_id
 _symmetry_equiv_pos_as_xyz
  1  'x, y, z'
loop_
 _atom_site_type_symbol
 _atom_site_label
 _atom_site_symmetry_multiplicity
 _atom_site_fract_x
 _atom_site_fract_y
 _atom_site_fract_z
 _atom_site_occupancy
  Ca  Ca0  1  0.191810  0.494739  0.250000  1
  Ca  Ca1  1  0.691284  0.002717  0.250000  1
  Ca  Ca2  1  0.308022  0.997083  0.750000  1
  Ac  Ac3  1  0.006297  0.184124  0.403680  1
  Ac  Ac4  1  0.359562  0.833715  0.122516  1
  Ac  Ac5  1  0.141178  0.336048  0.621850  1
  Ac  Ac6  1  0.491291  0.685863  0.902614  1
  Ac  Ac7  1  0.859596  0.662502  0.120894  1
  Ac  Ac8  1  0.141178  0.336048  0.878150  1
  Ac  Ac9  1  0.491291  0.685863  0.597386  1
  Ac  Ac10  1  0.640997  0.164963  0.622273  1
  Ac  Ac11  1  0.859596  0.662502  0.379106  1
  Ac  Ac12  1  0.006297  0.184124  0.096320  1
  Ac  Ac13  1  0.993005  0.817746  0.903333  1
  Ac  Ac14  1  0.640997  0.164963  0.877727  1
  Ac  Ac15  1  0.507288  0.314303  0.096397  1
  Ac  Ac16  1  0.359562  0.833715  0.377484  1
  Ac  Ac17  1  0.993005  0.817746  0.596667  1
  Ac  Ac18  1  0.507288  0.314303  0.403603  1
  Yb  Yb19  1  0.809723  0.504851  0.750000  1
  Sn  Sn20  1  0.801142  0.466354  0.544034  1
  Sn  Sn21  1  0.697697  0.962480  0.459238  1
  Sn  Sn22  1  0.693130  0.856896  0.750000  1
  Sn  Sn23  1  0.199383  0.535148  0.458613  1
  Sn  Sn24  1  0.302548  0.037609  0.960158  1
  Sn  Sn25  1  0.808961  0.356728  0.250000  1
  Sn  Sn26  1  0.801142  0.466354  0.955966  1
  Sn  Sn27  1  0.556531  0.600394  0.250000  1
  Sn  Sn28  1  0.199383  0.535148  0.041387  1
  Sn  Sn29  1  0.445910  0.399254  0.750000  1
  Sn  Sn30  1  0.188458  0.642485  0.750000  1
  Sn  Sn31  1  0.943984  0.104097  0.750000  1
  Sn  Sn32  1  0.302548  0.037609  0.539842  1
  Sn  Sn33  1  0.697697  0.962480  0.040762  1
  Sn  Sn34  1  0.307446  0.140801  0.250000  1
  Sn  Sn35  1  0.054773  0.898247  0.250000  1
