# generated using pymatgen
data_Ho4Tm16CoNi3Sb8
_symmetry_space_group_name_H-M   'P 1'
_cell_length_a   7.78744217
_cell_length_b   8.71318700
_cell_length_c   12.00185926
_cell_angle_alpha   90.00000000
_cell_angle_beta   90.02376955
_cell_angle_gamma   90.00000000
_symmetry_Int_Tables_number   1
_chemical_formula_structural   Ho4Tm16CoNi3Sb8
_chemical_formula_sum   'Ho4 Tm16 Co1 Ni3 Sb8'
_cell_volume   814.36736528
_cell_formula_units_Z   1
loop_
 _symmetry_equiv_pos_site_id
 _symmetry_equiv_pos_as_xyz
  1  'x, y, z'
loop_
 _atom_site_type_symbol
 _atom_site_label
 _atom_site_symmetry_multiplicity
 _atom_site_fract_x
 _atom_site_fract_y
 _atom_site_fract_z
 _atom_site_occupancy
  Ho  Ho0  1  0.625938  0.750000  0.305920  1
  Ho  Ho1  1  0.125761  0.250000  0.194753  1
  Ho  Ho2  1  0.373826  0.250000  0.694460  1
  Ho  Ho3  1  0.876464  0.750000  0.807349  1
  Tm  Tm4  1  0.155721  0.750000  0.203939  1
  Tm  Tm5  1  0.658306  0.250000  0.292697  1
  Tm  Tm6  1  0.842596  0.250000  0.793588  1
  Tm  Tm7  1  0.341228  0.750000  0.707819  1
  Tm  Tm8  1  0.449530  0.750000  0.998942  1
  Tm  Tm9  1  0.952445  0.250000  0.500476  1
  Tm  Tm10  1  0.548436  0.250000  0.001090  1
  Tm  Tm11  1  0.048069  0.750000  0.498946  1
  Tm  Tm12  1  0.822867  0.957627  0.065724  1
  Tm  Tm13  1  0.321319  0.040189  0.433312  1
  Tm  Tm14  1  0.177731  0.464119  0.933836  1
  Tm  Tm15  1  0.678982  0.539739  0.566912  1
  Tm  Tm16  1  0.177731  0.035881  0.933836  1
  Tm  Tm17  1  0.678982  0.960261  0.566912  1
  Tm  Tm18  1  0.822867  0.542373  0.065724  1
  Tm  Tm19  1  0.321319  0.459811  0.433312  1
  Co  Co20  1  0.069585  0.750000  0.990606  1
  Ni  Ni21  1  0.429751  0.750000  0.491220  1
  Ni  Ni22  1  0.929636  0.250000  0.009698  1
  Ni  Ni23  1  0.570564  0.250000  0.509342  1
  Sb  Sb24  1  0.930790  0.991576  0.328178  1
  Sb  Sb25  1  0.431447  0.008297  0.172114  1
  Sb  Sb26  1  0.068957  0.491456  0.671572  1
  Sb  Sb27  1  0.568980  0.508013  0.827930  1
  Sb  Sb28  1  0.068957  0.008544  0.671572  1
  Sb  Sb29  1  0.568980  0.991987  0.827930  1
  Sb  Sb30  1  0.930790  0.508424  0.328178  1
  Sb  Sb31  1  0.431447  0.491703  0.172114  1
