# generated using pymatgen
data_Ho2PdN2
_symmetry_space_group_name_H-M   'P 1'
_cell_length_a   3.43130039
_cell_length_b   3.43132427
_cell_length_c   6.84688233
_cell_angle_alpha   104.49639050
_cell_angle_beta   104.51147422
_cell_angle_gamma   89.99999924
_symmetry_Int_Tables_number   1
_chemical_formula_structural   Ho2PdN2
_chemical_formula_sum   'Ho2 Pd1 N2'
_cell_volume   75.38873627
_cell_formula_units_Z   1
loop_
 _symmetry_equiv_pos_site_id
 _symmetry_equiv_pos_as_xyz
  1  'x, y, z'
loop_
 _atom_site_type_symbol
 _atom_site_label
 _atom_site_symmetry_multiplicity
 _atom_site_fract_x
 _atom_site_fract_y
 _atom_site_fract_z
 _atom_site_occupancy
  Ho  Ho0  1  0.156026  0.156108  0.812050  1
  Ho  Ho1  1  0.843974  0.843892  0.187950  1
  Pd  Pd2  1  0.500000  0.500000  0.500000  1
  N  N3  1  0.665853  0.665752  0.831707  1
  N  N4  1  0.334147  0.334248  0.168293  1
