# generated using pymatgen
data_Y8Lu12Sn15Bi
_symmetry_space_group_name_H-M   'P 1'
_cell_length_a   7.99184539
_cell_length_b   8.09492753
_cell_length_c   15.26643600
_cell_angle_alpha   90.04468333
_cell_angle_beta   90.54863756
_cell_angle_gamma   89.99221845
_symmetry_Int_Tables_number   1
_chemical_formula_structural   Y8Lu12Sn15Bi
_chemical_formula_sum   'Y8 Lu12 Sn15 Bi1'
_cell_volume   987.59220474
_cell_formula_units_Z   1
loop_
 _symmetry_equiv_pos_site_id
 _symmetry_equiv_pos_as_xyz
  1  'x, y, z'
loop_
 _atom_site_type_symbol
 _atom_site_label
 _atom_site_symmetry_multiplicity
 _atom_site_fract_x
 _atom_site_fract_y
 _atom_site_fract_z
 _atom_site_occupancy
  Y  Y0  1  0.525963  0.324413  0.901118  1
  Y  Y1  1  0.020187  0.178337  0.596039  1
  Y  Y2  1  0.480600  0.677721  0.403927  1
  Y  Y3  1  0.968728  0.818076  0.100220  1
  Y  Y4  1  0.477051  0.673755  0.098538  1
  Y  Y5  1  0.979679  0.821294  0.403529  1
  Y  Y6  1  0.519454  0.321231  0.595616  1
  Y  Y7  1  0.020322  0.181844  0.900285  1
  Lu  Lu8  1  0.370594  0.836140  0.875263  1
  Lu  Lu9  1  0.865330  0.663285  0.623521  1
  Lu  Lu10  1  0.635850  0.162234  0.375546  1
  Lu  Lu11  1  0.129744  0.343947  0.124369  1
  Lu  Lu12  1  0.637080  0.160530  0.123594  1
  Lu  Lu13  1  0.136187  0.338364  0.376034  1
  Lu  Lu14  1  0.364237  0.838297  0.624158  1
  Lu  Lu15  1  0.867413  0.661421  0.876666  1
  Lu  Lu16  1  0.196569  0.504575  0.749578  1
  Lu  Lu17  1  0.696768  0.995313  0.750143  1
  Lu  Lu18  1  0.803103  0.495298  0.250952  1
  Lu  Lu19  1  0.303710  0.003974  0.253315  1
  Sn  Sn20  1  0.798239  0.459449  0.458663  1
  Sn  Sn21  1  0.702316  0.960377  0.541332  1
  Sn  Sn22  1  0.207699  0.537497  0.957913  1
  Sn  Sn23  1  0.710289  0.963320  0.957504  1
  Sn  Sn24  1  0.202253  0.540556  0.541292  1
  Sn  Sn25  1  0.298719  0.040315  0.459144  1
  Sn  Sn26  1  0.792730  0.461367  0.041819  1
  Sn  Sn27  1  0.563455  0.621682  0.749206  1
  Sn  Sn28  1  0.063050  0.878776  0.751038  1
  Sn  Sn29  1  0.437495  0.376094  0.248567  1
  Sn  Sn30  1  0.938767  0.121671  0.249430  1
  Sn  Sn31  1  0.332245  0.149938  0.749434  1
  Sn  Sn32  1  0.831746  0.351857  0.748045  1
  Sn  Sn33  1  0.665553  0.849568  0.250769  1
  Sn  Sn34  1  0.167587  0.650424  0.251075  1
  Bi  Bi35  1  0.289289  0.037057  0.042358  1
