# generated using pymatgen
data_Mg4AlGe3Pt4
_symmetry_space_group_name_H-M   'P 1'
_cell_length_a   6.58337558
_cell_length_b   4.01618500
_cell_length_c   7.91979610
_cell_angle_alpha   90.00000000
_cell_angle_beta   90.81849549
_cell_angle_gamma   90.00000000
_symmetry_Int_Tables_number   1
_chemical_formula_structural   Mg4AlGe3Pt4
_chemical_formula_sum   'Mg4 Al1 Ge3 Pt4'
_cell_volume   209.37847255
_cell_formula_units_Z   1
loop_
 _symmetry_equiv_pos_site_id
 _symmetry_equiv_pos_as_xyz
  1  'x, y, z'
loop_
 _atom_site_type_symbol
 _atom_site_label
 _atom_site_symmetry_multiplicity
 _atom_site_fract_x
 _atom_site_fract_y
 _atom_site_fract_z
 _atom_site_occupancy
  Mg  Mg0  1  0.968440  0.750001  0.166569  1
  Mg  Mg1  1  0.472527  0.750001  0.328182  1
  Mg  Mg2  1  0.528390  0.250001  0.670656  1
  Mg  Mg3  1  0.029822  0.250001  0.833356  1
  Al  Al4  1  0.652353  0.250001  0.056256  1
  Ge  Ge5  1  0.163343  0.250001  0.440251  1
  Ge  Ge6  1  0.838691  0.750001  0.559469  1
  Ge  Ge7  1  0.345814  0.750001  0.943747  1
  Pt  Pt8  1  0.275825  0.250001  0.135888  1
  Pt  Pt9  1  0.777397  0.250001  0.363496  1
  Pt  Pt10  1  0.223579  0.750001  0.635412  1
  Pt  Pt11  1  0.723820  0.750001  0.866717  1
