# generated using pymatgen
data_Y3(PRh)4
_symmetry_space_group_name_H-M   'P 1'
_cell_length_a   3.92412320
_cell_length_b   4.04976620
_cell_length_c   12.37053266
_cell_angle_alpha   80.57909039
_cell_angle_beta   80.87393091
_cell_angle_gamma   90.00000940
_symmetry_Int_Tables_number   1
_chemical_formula_structural   Y3(PRh)4
_chemical_formula_sum   'Y3 P4 Rh4'
_cell_volume   191.41534307
_cell_formula_units_Z   1
loop_
 _symmetry_equiv_pos_site_id
 _symmetry_equiv_pos_as_xyz
  1  'x, y, z'
loop_
 _atom_site_type_symbol
 _atom_site_label
 _atom_site_symmetry_multiplicity
 _atom_site_fract_x
 _atom_site_fract_y
 _atom_site_fract_z
 _atom_site_occupancy
  Y  Y0  1  0.000000  0.000000  0.000000  1
  Y  Y1  1  0.854954  0.354954  0.290093  1
  Y  Y2  1  0.145046  0.645046  0.709907  1
  P  P3  1  0.691516  0.191516  0.616969  1
  P  P4  1  0.308484  0.808484  0.383031  1
  P  P5  1  0.451334  0.451334  0.097333  1
  P  P6  1  0.548666  0.548666  0.902667  1
  Rh  Rh7  1  0.595395  0.095395  0.809209  1
  Rh  Rh8  1  0.404605  0.904605  0.190791  1
  Rh  Rh9  1  0.247921  0.247921  0.504157  1
  Rh  Rh10  1  0.752079  0.752079  0.495843  1
