# generated using pymatgen
data_Gd3Sb9O26
_symmetry_space_group_name_H-M   'P 1'
_cell_length_a   7.42649500
_cell_length_b   7.37450535
_cell_length_c   10.35167598
_cell_angle_alpha   89.21383222
_cell_angle_beta   90.00000000
_cell_angle_gamma   90.00000000
_symmetry_Int_Tables_number   1
_chemical_formula_structural   Gd3Sb9O26
_chemical_formula_sum   'Gd3 Sb9 O26'
_cell_volume   566.87404571
_cell_formula_units_Z   1
loop_
 _symmetry_equiv_pos_site_id
 _symmetry_equiv_pos_as_xyz
  1  'x, y, z'
loop_
 _atom_site_type_symbol
 _atom_site_label
 _atom_site_symmetry_multiplicity
 _atom_site_fract_x
 _atom_site_fract_y
 _atom_site_fract_z
 _atom_site_occupancy
  Gd  Gd0  1  0.250000  0.745867  0.747525  1
  Gd  Gd1  1  0.499053  0.496013  0.003243  1
  Gd  Gd2  1  0.000947  0.496013  0.003243  1
  Sb  Sb3  1  0.750000  0.271839  0.279098  1
  Sb  Sb4  1  0.500769  0.998825  0.997800  1
  Sb  Sb5  1  0.750000  0.756873  0.744506  1
  Sb  Sb6  1  0.250000  0.749945  0.253311  1
  Sb  Sb7  1  0.496255  0.503306  0.500667  1
  Sb  Sb8  1  0.003745  0.503306  0.500667  1
  Sb  Sb9  1  0.750000  0.252843  0.745925  1
  Sb  Sb10  1  0.250000  0.241234  0.252244  1
  Sb  Sb11  1  0.999231  0.998825  0.997800  1
  O  O12  1  0.450586  0.690934  0.370005  1
  O  O13  1  0.750000  0.450699  0.136122  1
  O  O14  1  0.250000  0.493541  0.167099  1
  O  O15  1  0.456487  0.309309  0.365369  1
  O  O16  1  0.558047  0.212446  0.883292  1
  O  O17  1  0.941953  0.212446  0.883292  1
  O  O18  1  0.442272  0.202571  0.117782  1
  O  O19  1  0.750000  0.990838  0.068141  1
  O  O20  1  0.250000  0.985675  0.915870  1
  O  O21  1  0.750000  0.004587  0.682943  1
  O  O22  1  0.545477  0.795163  0.871797  1
  O  O23  1  0.954523  0.795163  0.871797  1
  O  O24  1  0.440175  0.788613  0.114086  1
  O  O25  1  0.049414  0.690934  0.370005  1
  O  O26  1  0.542908  0.697195  0.631717  1
  O  O27  1  0.957092  0.697195  0.631717  1
  O  O28  1  0.250000  0.520005  0.576277  1
  O  O29  1  0.750000  0.507359  0.836239  1
  O  O30  1  0.750000  0.480853  0.422554  1
  O  O31  1  0.043513  0.309309  0.365369  1
  O  O32  1  0.551157  0.312673  0.627607  1
  O  O33  1  0.948843  0.312673  0.627607  1
  O  O34  1  0.057728  0.202571  0.117782  1
  O  O35  1  0.250000  0.997094  0.319412  1
  O  O36  1  0.059825  0.788613  0.114086  1
  O  O37  1  0.250000  0.536654  0.886003  1
