# generated using pymatgen
data_Dy2Er2TcB12Rh
_symmetry_space_group_name_H-M   'P 1'
_cell_length_a   3.66867000
_cell_length_b   9.12243112
_cell_length_c   11.51743408
_cell_angle_alpha   90.35441916
_cell_angle_beta   90.00000000
_cell_angle_gamma   90.00000000
_symmetry_Int_Tables_number   1
_chemical_formula_structural   Dy2Er2TcB12Rh
_chemical_formula_sum   'Dy4 Er4 Tc2 B24 Rh2'
_cell_volume   385.44877274
_cell_formula_units_Z   2
loop_
 _symmetry_equiv_pos_site_id
 _symmetry_equiv_pos_as_xyz
  1  'x, y, z'
loop_
 _atom_site_type_symbol
 _atom_site_label
 _atom_site_symmetry_multiplicity
 _atom_site_fract_x
 _atom_site_fract_y
 _atom_site_fract_z
 _atom_site_occupancy
  Dy  Dy0  1  0.500000  0.318901  0.411133  1
  Dy  Dy1  1  0.500000  0.681099  0.588867  1
  Dy  Dy2  1  0.500000  0.173642  0.916943  1
  Dy  Dy3  1  0.500000  0.826358  0.083057  1
  Er  Er4  1  0.500000  0.441967  0.126767  1
  Er  Er5  1  0.500000  0.558033  0.873233  1
  Er  Er6  1  0.500000  0.053790  0.628506  1
  Er  Er7  1  0.500000  0.946210  0.371494  1
  Tc  Tc8  1  0.500000  0.139428  0.180180  1
  Tc  Tc9  1  0.500000  0.860572  0.819820  1
  B  B10  1  0.000000  0.106834  0.471323  1
  B  B11  1  0.000000  0.893166  0.528677  1
  B  B12  1  0.000000  0.394476  0.970644  1
  B  B13  1  0.000000  0.605524  0.029356  1
  B  B14  1  0.000000  0.132167  0.315026  1
  B  B15  1  0.000000  0.867833  0.684974  1
  B  B16  1  0.000000  0.367756  0.816652  1
  B  B17  1  0.000000  0.632244  0.183348  1
  B  B18  1  0.000000  0.053364  0.067617  1
  B  B19  1  0.000000  0.946636  0.932383  1
  B  B20  1  0.000000  0.445332  0.566167  1
  B  B21  1  0.000000  0.554668  0.433833  1
  B  B22  1  0.000000  0.483617  0.287420  1
  B  B23  1  0.000000  0.516383  0.712580  1
  B  B24  1  0.000000  0.016533  0.786737  1
  B  B25  1  0.000000  0.983467  0.213263  1
  B  B26  1  0.000000  0.248700  0.081365  1
  B  B27  1  0.000000  0.751300  0.918635  1
  B  B28  1  0.000000  0.250300  0.579028  1
  B  B29  1  0.000000  0.749700  0.420972  1
  B  B30  1  0.000000  0.293034  0.234675  1
  B  B31  1  0.000000  0.706966  0.765325  1
  B  B32  1  0.000000  0.208194  0.734726  1
  B  B33  1  0.000000  0.791806  0.265274  1
  Rh  Rh34  1  0.500000  0.361569  0.678880  1
  Rh  Rh35  1  0.500000  0.638431  0.321120  1
