# generated using pymatgen
data_GdEr5FeBi2
_symmetry_space_group_name_H-M   'P 1'
_cell_length_a   16.14069797
_cell_length_b   16.45318287
_cell_length_c   7.66721400
_cell_angle_alpha   90.00000000
_cell_angle_beta   90.00000000
_cell_angle_gamma   119.80941314
_symmetry_Int_Tables_number   1
_chemical_formula_structural   GdEr5FeBi2
_chemical_formula_sum   'Gd1 Er5 Fe1 Bi2'
_cell_volume   1766.73456749
_cell_formula_units_Z   1
loop_
 _symmetry_equiv_pos_site_id
 _symmetry_equiv_pos_as_xyz
  1  'x, y, z'
loop_
 _atom_site_type_symbol
 _atom_site_label
 _atom_site_symmetry_multiplicity
 _atom_site_fract_x
 _atom_site_fract_y
 _atom_site_fract_z
 _atom_site_occupancy
  Gd  Gd0  1  0.615802  0.998598  0.000000  1
  Er  Er1  1  0.289945  0.000613  0.500000  1
  Er  Er2  1  0.989539  0.282196  0.500000  1
  Er  Er3  1  0.708761  0.717602  0.500000  1
  Er  Er4  1  0.998911  0.597334  0.000000  1
  Er  Er5  1  0.402222  0.403670  0.000000  1
  Fe  Fe6  1  0.001123  0.000089  0.000000  1
  Bi  Bi7  1  0.324985  0.656486  0.500000  1
  Bi  Bi8  1  0.668711  0.343411  0.500000  1
