# generated using pymatgen
data_TbY7Ti11NbSi16
_symmetry_space_group_name_H-M   'P 1'
_cell_length_a   7.06948037
_cell_length_b   7.06960752
_cell_length_c   13.00636608
_cell_angle_alpha   89.97707554
_cell_angle_beta   90.02261986
_cell_angle_gamma   90.00911527
_symmetry_Int_Tables_number   1
_chemical_formula_structural   TbY7Ti11NbSi16
_chemical_formula_sum   'Tb1 Y7 Ti11 Nb1 Si16'
_cell_volume   650.03792625
_cell_formula_units_Z   1
loop_
 _symmetry_equiv_pos_site_id
 _symmetry_equiv_pos_as_xyz
  1  'x, y, z'
loop_
 _atom_site_type_symbol
 _atom_site_label
 _atom_site_symmetry_multiplicity
 _atom_site_fract_x
 _atom_site_fract_y
 _atom_site_fract_z
 _atom_site_occupancy
  Tb  Tb0  1  0.997916  0.659536  0.033322  1
  Y  Y1  1  0.339757  0.002719  0.466714  1
  Y  Y2  1  0.497415  0.839682  0.716743  1
  Y  Y3  1  0.502163  0.159684  0.216393  1
  Y  Y4  1  0.839666  0.497390  0.283267  1
  Y  Y5  1  0.159680  0.502155  0.783593  1
  Y  Y6  1  0.659502  0.997968  0.966670  1
  Y  Y7  1  0.002720  0.339757  0.533296  1
  Ti  Ti8  1  0.173316  0.826979  0.250093  1
  Ti  Ti9  1  0.826984  0.173315  0.749893  1
  Ti  Ti10  1  0.672724  0.672733  0.499996  1
  Ti  Ti11  1  0.153952  0.009564  0.876742  1
  Ti  Ti12  1  0.490875  0.651935  0.125629  1
  Ti  Ti13  1  0.508851  0.347678  0.626337  1
  Ti  Ti14  1  0.651959  0.490841  0.874383  1
  Ti  Ti15  1  0.347713  0.508840  0.373680  1
  Ti  Ti16  1  0.847116  0.991504  0.376395  1
  Ti  Ti17  1  0.009581  0.153999  0.123260  1
  Ti  Ti18  1  0.991475  0.847125  0.623613  1
  Nb  Nb19  1  0.326859  0.326869  0.999998  1
  Si  Si20  1  0.202010  0.129203  0.684939  1
  Si  Si21  1  0.370843  0.702992  0.934840  1
  Si  Si22  1  0.629180  0.297906  0.435112  1
  Si  Si23  1  0.702956  0.370782  0.065153  1
  Si  Si24  1  0.297897  0.629190  0.564882  1
  Si  Si25  1  0.797761  0.870798  0.185218  1
  Si  Si26  1  0.129207  0.202028  0.315066  1
  Si  Si27  1  0.870801  0.797824  0.814789  1
  Si  Si28  1  0.290715  0.952385  0.065083  1
  Si  Si29  1  0.546651  0.790879  0.315014  1
  Si  Si30  1  0.454030  0.208392  0.813589  1
  Si  Si31  1  0.790888  0.546650  0.684984  1
  Si  Si32  1  0.208410  0.453996  0.186417  1
  Si  Si33  1  0.709421  0.046659  0.564792  1
  Si  Si34  1  0.952351  0.290627  0.934888  1
  Si  Si35  1  0.046658  0.709416  0.435217  1
