# generated using pymatgen
data_Y3PaGa12Tc
_symmetry_space_group_name_H-M   'P 1'
_cell_length_a   7.49473823
_cell_length_b   7.49473742
_cell_length_c   7.49473857
_cell_angle_alpha   109.53439078
_cell_angle_beta   109.53439186
_cell_angle_gamma   109.53440247
_symmetry_Int_Tables_number   1
_chemical_formula_structural   Y3PaGa12Tc
_chemical_formula_sum   'Y3 Pa1 Ga12 Tc1'
_cell_volume   323.31623467
_cell_formula_units_Z   1
loop_
 _symmetry_equiv_pos_site_id
 _symmetry_equiv_pos_as_xyz
  1  'x, y, z'
loop_
 _atom_site_type_symbol
 _atom_site_label
 _atom_site_symmetry_multiplicity
 _atom_site_fract_x
 _atom_site_fract_y
 _atom_site_fract_z
 _atom_site_occupancy
  Y  Y0  1  0.000000  0.000000  0.500000  1
  Y  Y1  1  0.000000  0.500000  0.000000  1
  Y  Y2  1  0.500000  0.000000  0.000000  1
  Pa  Pa3  1  0.500000  0.500000  0.500000  1
  Ga  Ga4  1  0.748984  0.251016  0.500000  1
  Ga  Ga5  1  0.748984  0.500000  0.251016  1
  Ga  Ga6  1  0.500000  0.251016  0.748984  1
  Ga  Ga7  1  0.251016  0.500000  0.748984  1
  Ga  Ga8  1  0.251016  0.748984  0.500000  1
  Ga  Ga9  1  0.500000  0.748984  0.251016  1
  Ga  Ga10  1  0.706392  0.706392  0.997417  1
  Ga  Ga11  1  0.293608  0.002583  0.293608  1
  Ga  Ga12  1  0.002583  0.293608  0.293608  1
  Ga  Ga13  1  0.293608  0.293608  0.002583  1
  Ga  Ga14  1  0.706392  0.997417  0.706392  1
  Ga  Ga15  1  0.997417  0.706392  0.706392  1
  Tc  Tc16  1  0.000000  0.000000  0.000000  1
