# generated using pymatgen
data_TbPr3(Tm3Pt4)2
_symmetry_space_group_name_H-M   'P 1'
_cell_length_a   7.54636600
_cell_length_b   7.60574721
_cell_length_c   14.70384600
_cell_angle_alpha   90.01341667
_cell_angle_beta   90.00000000
_cell_angle_gamma   90.00000000
_symmetry_Int_Tables_number   1
_chemical_formula_structural   TbPr3(Tm3Pt4)2
_chemical_formula_sum   'Tb2 Pr6 Tm12 Pt16'
_cell_volume   843.93827737
_cell_formula_units_Z   2
loop_
 _symmetry_equiv_pos_site_id
 _symmetry_equiv_pos_as_xyz
  1  'x, y, z'
loop_
 _atom_site_type_symbol
 _atom_site_label
 _atom_site_symmetry_multiplicity
 _atom_site_fract_x
 _atom_site_fract_y
 _atom_site_fract_z
 _atom_site_occupancy
  Tb  Tb0  1  0.502527  0.679824  0.904255  1
  Tb  Tb1  1  0.002527  0.820176  0.595745  1
  Pr  Pr2  1  0.499871  0.677957  0.593552  1
  Pr  Pr3  1  0.999871  0.822043  0.906448  1
  Pr  Pr4  1  0.500033  0.326343  0.092577  1
  Pr  Pr5  1  0.000033  0.173657  0.407423  1
  Pr  Pr6  1  0.499788  0.323316  0.406256  1
  Pr  Pr7  1  0.999788  0.176684  0.093744  1
  Tm  Tm8  1  0.658664  0.166233  0.623736  1
  Tm  Tm9  1  0.158664  0.333767  0.876264  1
  Tm  Tm10  1  0.345130  0.831565  0.122352  1
  Tm  Tm11  1  0.845130  0.668435  0.377648  1
  Tm  Tm12  1  0.343077  0.833980  0.376445  1
  Tm  Tm13  1  0.843077  0.666020  0.123555  1
  Tm  Tm14  1  0.656925  0.167032  0.875638  1
  Tm  Tm15  1  0.156925  0.332968  0.624362  1
  Tm  Tm16  1  0.819378  0.508171  0.750136  1
  Tm  Tm17  1  0.319378  0.991829  0.749864  1
  Tm  Tm18  1  0.179517  0.492261  0.250265  1
  Tm  Tm19  1  0.679517  0.007739  0.249735  1
  Pt  Pt20  1  0.678595  0.960052  0.459146  1
  Pt  Pt21  1  0.178595  0.539948  0.040854  1
  Pt  Pt22  1  0.325660  0.032730  0.954504  1
  Pt  Pt23  1  0.825660  0.467270  0.545496  1
  Pt  Pt24  1  0.315300  0.033443  0.544719  1
  Pt  Pt25  1  0.815300  0.466557  0.955281  1
  Pt  Pt26  1  0.676877  0.957683  0.040974  1
  Pt  Pt27  1  0.176877  0.542317  0.459026  1
  Pt  Pt28  1  0.454197  0.379343  0.751084  1
  Pt  Pt29  1  0.954197  0.120657  0.748916  1
  Pt  Pt30  1  0.546189  0.625468  0.250349  1
  Pt  Pt31  1  0.046189  0.874532  0.249651  1
  Pt  Pt32  1  0.684180  0.860717  0.751583  1
  Pt  Pt33  1  0.184180  0.639283  0.748417  1
  Pt  Pt34  1  0.314091  0.136533  0.249714  1
  Pt  Pt35  1  0.814091  0.363467  0.250286  1
