# generated using pymatgen
data_TbNd2Ga6(CuNi2)3
_symmetry_space_group_name_H-M   'P 1'
_cell_length_a   4.14634400
_cell_length_b   8.89511548
_cell_length_c   8.89511431
_cell_angle_alpha   60.10085260
_cell_angle_beta   90.00000000
_cell_angle_gamma   90.00000000
_symmetry_Int_Tables_number   1
_chemical_formula_structural   TbNd2Ga6(CuNi2)3
_chemical_formula_sum   'Tb1 Nd2 Ga6 Cu3 Ni6'
_cell_volume   284.40651779
_cell_formula_units_Z   1
loop_
 _symmetry_equiv_pos_site_id
 _symmetry_equiv_pos_as_xyz
  1  'x, y, z'
loop_
 _atom_site_type_symbol
 _atom_site_label
 _atom_site_symmetry_multiplicity
 _atom_site_fract_x
 _atom_site_fract_y
 _atom_site_fract_z
 _atom_site_occupancy
  Tb  Tb0  1  0.000000  0.000364  0.999636  1
  Nd  Nd1  1  0.500000  0.333378  0.333456  1
  Nd  Nd2  1  0.500000  0.666544  0.666622  1
  Ga  Ga3  1  0.500000  0.722875  0.277125  1
  Ga  Ga4  1  0.500000  0.277268  0.000187  1
  Ga  Ga5  1  0.500000  0.999813  0.722732  1
  Ga  Ga6  1  0.000000  0.481714  0.518286  1
  Ga  Ga7  1  0.000000  0.518099  0.000363  1
  Ga  Ga8  1  0.000000  0.999637  0.481901  1
  Cu  Cu9  1  0.500000  0.288748  0.711252  1
  Cu  Cu10  1  0.500000  0.710908  0.999865  1
  Cu  Cu11  1  0.500000  0.000135  0.289092  1
  Ni  Ni12  1  0.000000  0.196373  0.171286  1
  Ni  Ni13  1  0.000000  0.171071  0.632662  1
  Ni  Ni14  1  0.000000  0.633282  0.196358  1
  Ni  Ni15  1  0.000000  0.828713  0.803627  1
  Ni  Ni16  1  0.000000  0.367338  0.828929  1
  Ni  Ni17  1  0.000000  0.803642  0.366718  1
