# generated using pymatgen
data_TbTh8Se17
_symmetry_space_group_name_H-M   'P 1'
_cell_length_a   8.54165508
_cell_length_b   8.54165458
_cell_length_c   11.44630654
_cell_angle_alpha   79.99203237
_cell_angle_beta   79.99203267
_cell_angle_gamma   64.83420965
_symmetry_Int_Tables_number   1
_chemical_formula_structural   TbTh8Se17
_chemical_formula_sum   'Tb1 Th8 Se17'
_cell_volume   739.66210367
_cell_formula_units_Z   1
loop_
 _symmetry_equiv_pos_site_id
 _symmetry_equiv_pos_as_xyz
  1  'x, y, z'
loop_
 _atom_site_type_symbol
 _atom_site_label
 _atom_site_symmetry_multiplicity
 _atom_site_fract_x
 _atom_site_fract_y
 _atom_site_fract_z
 _atom_site_occupancy
  Tb  Tb0  1  0.000000  0.000000  0.000000  1
  Th  Th1  1  0.185396  0.695013  0.700127  1
  Th  Th2  1  0.695013  0.185396  0.700127  1
  Th  Th3  1  0.814604  0.304987  0.299873  1
  Th  Th4  1  0.304987  0.814604  0.299873  1
  Th  Th5  1  0.793499  0.793499  0.461164  1
  Th  Th6  1  0.206501  0.206501  0.538836  1
  Th  Th7  1  0.319172  0.319172  0.017990  1
  Th  Th8  1  0.680828  0.680828  0.982010  1
  Se  Se9  1  0.177126  0.569683  0.468405  1
  Se  Se10  1  0.569683  0.177126  0.468405  1
  Se  Se11  1  0.822874  0.430317  0.531595  1
  Se  Se12  1  0.430317  0.822874  0.531595  1
  Se  Se13  1  0.055878  0.665383  0.960401  1
  Se  Se14  1  0.665383  0.055878  0.960401  1
  Se  Se15  1  0.944122  0.334617  0.039599  1
  Se  Se16  1  0.334617  0.944122  0.039599  1
  Se  Se17  1  0.790469  0.790469  0.721763  1
  Se  Se18  1  0.209531  0.209531  0.278237  1
  Se  Se19  1  0.937936  0.937936  0.240872  1
  Se  Se20  1  0.062064  0.062064  0.759128  1
  Se  Se21  1  0.696290  0.696290  0.247101  1
  Se  Se22  1  0.303710  0.303710  0.752899  1
  Se  Se23  1  0.481477  0.481477  0.166835  1
  Se  Se24  1  0.518523  0.518523  0.833165  1
  Se  Se25  1  0.000000  0.000000  0.500000  1
