# generated using pymatgen
data_ThZn(TcO4)6
_symmetry_space_group_name_H-M   'P 1'
_cell_length_a   10.07336900
_cell_length_b   10.07336972
_cell_length_c   6.15744800
_cell_angle_alpha   90.00000000
_cell_angle_beta   90.00000000
_cell_angle_gamma   120.00000091
_symmetry_Int_Tables_number   1
_chemical_formula_structural   ThZn(TcO4)6
_chemical_formula_sum   'Th1 Zn1 Tc6 O24'
_cell_volume   541.10419097
_cell_formula_units_Z   1
loop_
 _symmetry_equiv_pos_site_id
 _symmetry_equiv_pos_as_xyz
  1  'x, y, z'
loop_
 _atom_site_type_symbol
 _atom_site_label
 _atom_site_symmetry_multiplicity
 _atom_site_fract_x
 _atom_site_fract_y
 _atom_site_fract_z
 _atom_site_occupancy
  Th  Th0  1  0.666667  0.333333  0.750000  1
  Zn  Zn1  1  0.333333  0.666667  0.250000  1
  Tc  Tc2  1  0.104121  0.415100  0.750000  1
  Tc  Tc3  1  0.378976  0.288603  0.250000  1
  Tc  Tc4  1  0.584900  0.689019  0.750000  1
  Tc  Tc5  1  0.909625  0.621024  0.250000  1
  Tc  Tc6  1  0.310981  0.895879  0.750000  1
  Tc  Tc7  1  0.711397  0.090375  0.250000  1
  O  O8  1  0.472009  0.636580  0.514887  1
  O  O9  1  0.363420  0.835429  0.514887  1
  O  O10  1  0.834017  0.739601  0.250000  1
  O  O11  1  0.116984  0.824342  0.750000  1
  O  O12  1  0.260399  0.094416  0.250000  1
  O  O13  1  0.175658  0.292642  0.750000  1
  O  O14  1  0.499517  0.345148  0.019140  1
  O  O15  1  0.905584  0.165983  0.250000  1
  O  O16  1  0.105779  0.729348  0.250000  1
  O  O17  1  0.164571  0.527991  0.985113  1
  O  O18  1  0.164571  0.527991  0.514887  1
  O  O19  1  0.902265  0.309906  0.750000  1
  O  O20  1  0.270652  0.376430  0.250000  1
  O  O21  1  0.690094  0.592360  0.750000  1
  O  O22  1  0.845631  0.500483  0.480860  1
  O  O23  1  0.407640  0.097735  0.750000  1
  O  O24  1  0.654852  0.154369  0.019140  1
  O  O25  1  0.472009  0.636580  0.985113  1
  O  O26  1  0.363420  0.835429  0.985113  1
  O  O27  1  0.654852  0.154369  0.480860  1
  O  O28  1  0.499517  0.345148  0.480860  1
  O  O29  1  0.845631  0.500483  0.019140  1
  O  O30  1  0.707358  0.883016  0.750000  1
  O  O31  1  0.623570  0.894221  0.250000  1
