# generated using pymatgen
data_DyY5(Al3Co)8
_symmetry_space_group_name_H-M   'P 1'
_cell_length_a   8.64750100
_cell_length_b   8.64645068
_cell_length_c   9.29830500
_cell_angle_alpha   90.00000000
_cell_angle_beta   90.00000000
_cell_angle_gamma   120.00401460
_symmetry_Int_Tables_number   1
_chemical_formula_structural   DyY5(Al3Co)8
_chemical_formula_sum   'Dy1 Y5 Al24 Co8'
_cell_volume   602.06771355
_cell_formula_units_Z   1
loop_
 _symmetry_equiv_pos_site_id
 _symmetry_equiv_pos_as_xyz
  1  'x, y, z'
loop_
 _atom_site_type_symbol
 _atom_site_label
 _atom_site_symmetry_multiplicity
 _atom_site_fract_x
 _atom_site_fract_y
 _atom_site_fract_z
 _atom_site_occupancy
  Dy  Dy0  1  0.193788  0.387575  0.250000  1
  Y  Y1  1  0.806188  0.612375  0.750000  1
  Y  Y2  1  0.612306  0.806121  0.250000  1
  Y  Y3  1  0.387636  0.193829  0.750000  1
  Y  Y4  1  0.193815  0.806121  0.250000  1
  Y  Y5  1  0.806193  0.193829  0.750000  1
  Al  Al6  1  0.333309  0.666618  0.020235  1
  Al  Al7  1  0.666667  0.333333  0.979794  1
  Al  Al8  1  0.666667  0.333333  0.520206  1
  Al  Al9  1  0.333309  0.666618  0.479765  1
  Al  Al10  1  0.163174  0.326348  0.574522  1
  Al  Al11  1  0.836830  0.673660  0.425427  1
  Al  Al12  1  0.673661  0.836833  0.574578  1
  Al  Al13  1  0.836830  0.673660  0.074573  1
  Al  Al14  1  0.326315  0.163198  0.425380  1
  Al  Al15  1  0.163174  0.326348  0.925478  1
  Al  Al16  1  0.163172  0.836833  0.574578  1
  Al  Al17  1  0.326315  0.163198  0.074620  1
  Al  Al18  1  0.836883  0.163198  0.425380  1
  Al  Al19  1  0.673661  0.836833  0.925422  1
  Al  Al20  1  0.836883  0.163198  0.074620  1
  Al  Al21  1  0.163172  0.836833  0.925422  1
  Al  Al22  1  0.559920  0.119841  0.250000  1
  Al  Al23  1  0.440081  0.880163  0.750000  1
  Al  Al24  1  0.880195  0.440063  0.250000  1
  Al  Al25  1  0.119827  0.559918  0.750000  1
  Al  Al26  1  0.559868  0.440063  0.250000  1
  Al  Al27  1  0.440092  0.559918  0.750000  1
  Al  Al28  1  0.000116  0.000233  0.250000  1
  Al  Al29  1  0.000005  0.000010  0.750000  1
  Co  Co30  1  0.499997  0.999993  0.999997  1
  Co  Co31  1  0.000032  0.499987  0.000038  1
  Co  Co32  1  0.499997  0.999993  0.500003  1
  Co  Co33  1  0.499955  0.499987  0.000038  1
  Co  Co34  1  0.000032  0.499987  0.499962  1
  Co  Co35  1  0.499955  0.499987  0.499962  1
  Co  Co36  1  0.999991  0.999982  0.999977  1
  Co  Co37  1  0.999991  0.999982  0.500023  1
