# generated using pymatgen
data_Ho4Sc4Ga3Fe
_symmetry_space_group_name_H-M   'P 1'
_cell_length_a   9.53086000
_cell_length_b   9.53085924
_cell_length_c   6.90311600
_cell_angle_alpha   90.00000000
_cell_angle_beta   90.00000000
_cell_angle_gamma   120.00000264
_symmetry_Int_Tables_number   1
_chemical_formula_structural   Ho4Sc4Ga3Fe
_chemical_formula_sum   'Ho8 Sc8 Ga6 Fe2'
_cell_volume   543.05014890
_cell_formula_units_Z   2
loop_
 _symmetry_equiv_pos_site_id
 _symmetry_equiv_pos_as_xyz
  1  'x, y, z'
loop_
 _atom_site_type_symbol
 _atom_site_label
 _atom_site_symmetry_multiplicity
 _atom_site_fract_x
 _atom_site_fract_y
 _atom_site_fract_z
 _atom_site_occupancy
  Ho  Ho0  1  0.465920  0.534080  0.211690  1
  Ho  Ho1  1  0.068159  0.534080  0.211690  1
  Ho  Ho2  1  0.465920  0.931841  0.211690  1
  Ho  Ho3  1  0.534080  0.465920  0.711690  1
  Ho  Ho4  1  0.931841  0.465920  0.711690  1
  Ho  Ho5  1  0.534080  0.068159  0.711690  1
  Ho  Ho6  1  0.000000  0.000000  0.229585  1
  Ho  Ho7  1  0.000000  0.000000  0.729585  1
  Sc  Sc8  1  0.175090  0.824910  0.513532  1
  Sc  Sc9  1  0.649820  0.824910  0.513532  1
  Sc  Sc10  1  0.175090  0.350180  0.513532  1
  Sc  Sc11  1  0.824910  0.175090  0.013532  1
  Sc  Sc12  1  0.350180  0.175090  0.013532  1
  Sc  Sc13  1  0.824910  0.649820  0.013532  1
  Sc  Sc14  1  0.333333  0.666667  0.821838  1
  Sc  Sc15  1  0.666667  0.333333  0.321838  1
  Ga  Ga16  1  0.164134  0.835866  0.950596  1
  Ga  Ga17  1  0.671729  0.835866  0.950596  1
  Ga  Ga18  1  0.164134  0.328271  0.950596  1
  Ga  Ga19  1  0.835866  0.164134  0.450596  1
  Ga  Ga20  1  0.328271  0.164134  0.450596  1
  Ga  Ga21  1  0.835866  0.671729  0.450596  1
  Fe  Fe22  1  0.333333  0.666667  0.458141  1
  Fe  Fe23  1  0.666667  0.333333  0.958141  1
