# generated using pymatgen
data_DyTh2(GeRh)3
_symmetry_space_group_name_H-M   'P 1'
_cell_length_a   7.26309198
_cell_length_b   7.30999250
_cell_length_c   3.93824400
_cell_angle_alpha   90.00000000
_cell_angle_beta   90.00000000
_cell_angle_gamma   120.21383416
_symmetry_Int_Tables_number   1
_chemical_formula_structural   DyTh2(GeRh)3
_chemical_formula_sum   'Dy1 Th2 Ge3 Rh3'
_cell_volume   180.68907693
_cell_formula_units_Z   1
loop_
 _symmetry_equiv_pos_site_id
 _symmetry_equiv_pos_as_xyz
  1  'x, y, z'
loop_
 _atom_site_type_symbol
 _atom_site_label
 _atom_site_symmetry_multiplicity
 _atom_site_fract_x
 _atom_site_fract_y
 _atom_site_fract_z
 _atom_site_occupancy
  Dy  Dy0  1  0.000000  0.594266  0.500000  1
  Th  Th1  1  0.412056  0.411955  0.500000  1
  Th  Th2  1  0.587944  0.999898  0.500000  1
  Ge  Ge3  1  0.760203  0.749136  0.000000  1
  Ge  Ge4  1  0.239797  0.988932  0.000000  1
  Ge  Ge5  1  0.000000  0.259727  0.000000  1
  Rh  Rh6  1  0.657871  0.324921  0.000000  1
  Rh  Rh7  1  0.342129  0.667051  0.000000  1
  Rh  Rh8  1  0.000000  0.004114  0.500000  1
