# generated using pymatgen
data_Y11Ho9(Al3Ru)2
_symmetry_space_group_name_H-M   'P 1'
_cell_length_a   9.53988099
_cell_length_b   9.53988072
_cell_length_c   9.62448527
_cell_angle_alpha   89.94880035
_cell_angle_beta   90.05120097
_cell_angle_gamma   119.98990097
_symmetry_Int_Tables_number   1
_chemical_formula_structural   Y11Ho9(Al3Ru)2
_chemical_formula_sum   'Y11 Ho9 Al6 Ru2'
_cell_volume   758.64395447
_cell_formula_units_Z   1
loop_
 _symmetry_equiv_pos_site_id
 _symmetry_equiv_pos_as_xyz
  1  'x, y, z'
loop_
 _atom_site_type_symbol
 _atom_site_label
 _atom_site_symmetry_multiplicity
 _atom_site_fract_x
 _atom_site_fract_y
 _atom_site_fract_z
 _atom_site_occupancy
  Y  Y0  1  0.793452  0.586489  0.939890  1
  Y  Y1  1  0.413511  0.206548  0.939890  1
  Y  Y2  1  0.206570  0.793430  0.060035  1
  Y  Y3  1  0.206187  0.413155  0.060022  1
  Y  Y4  1  0.586845  0.793813  0.060022  1
  Y  Y5  1  0.539955  0.460045  0.251315  1
  Y  Y6  1  0.540247  0.080175  0.250956  1
  Y  Y7  1  0.919825  0.459753  0.250956  1
  Y  Y8  1  0.459937  0.540063  0.748679  1
  Y  Y9  1  0.460392  0.920409  0.748933  1
  Y  Y10  1  0.079591  0.539608  0.748933  1
  Ho  Ho11  1  0.000000  0.000000  0.500097  1
  Ho  Ho12  1  0.999751  0.000249  0.999934  1
  Ho  Ho13  1  0.207065  0.792935  0.439906  1
  Ho  Ho14  1  0.206984  0.414216  0.439758  1
  Ho  Ho15  1  0.585784  0.793016  0.439758  1
  Ho  Ho16  1  0.792947  0.207053  0.560406  1
  Ho  Ho17  1  0.792886  0.585653  0.560281  1
  Ho  Ho18  1  0.414347  0.207114  0.560281  1
  Ho  Ho19  1  0.792948  0.207052  0.939151  1
  Al  Al20  1  0.888582  0.111418  0.249777  1
  Al  Al21  1  0.888518  0.777124  0.249835  1
  Al  Al22  1  0.222876  0.111482  0.249835  1
  Al  Al23  1  0.111450  0.888550  0.750211  1
  Al  Al24  1  0.111491  0.222894  0.750119  1
  Al  Al25  1  0.777106  0.888509  0.750119  1
  Ru  Ru26  1  0.333404  0.666596  0.252821  1
  Ru  Ru27  1  0.667351  0.332649  0.748081  1
