# generated using pymatgen
data_Tb16MgHg3PtRh3
_symmetry_space_group_name_H-M   'P 1'
_cell_length_a   9.68937596
_cell_length_b   9.68307760
_cell_length_c   9.68306231
_cell_angle_alpha   59.89651835
_cell_angle_beta   59.89743288
_cell_angle_gamma   59.89762704
_symmetry_Int_Tables_number   1
_chemical_formula_structural   Tb16MgHg3PtRh3
_chemical_formula_sum   'Tb16 Mg1 Hg3 Pt1 Rh3'
_cell_volume   640.90375561
_cell_formula_units_Z   1
loop_
 _symmetry_equiv_pos_site_id
 _symmetry_equiv_pos_as_xyz
  1  'x, y, z'
loop_
 _atom_site_type_symbol
 _atom_site_label
 _atom_site_symmetry_multiplicity
 _atom_site_fract_x
 _atom_site_fract_y
 _atom_site_fract_z
 _atom_site_occupancy
  Tb  Tb0  1  0.349800  0.348260  0.348260  1
  Tb  Tb1  1  0.352648  0.350064  0.950441  1
  Tb  Tb2  1  0.352649  0.950440  0.350064  1
  Tb  Tb3  1  0.941281  0.353737  0.353736  1
  Tb  Tb4  1  0.805818  0.190502  0.190504  1
  Tb  Tb5  1  0.185448  0.813258  0.813258  1
  Tb  Tb6  1  0.186231  0.809433  0.188559  1
  Tb  Tb7  1  0.809924  0.189441  0.810763  1
  Tb  Tb8  1  0.186231  0.188557  0.809433  1
  Tb  Tb9  1  0.809922  0.810765  0.189443  1
  Tb  Tb10  1  0.934737  0.564729  0.564730  1
  Tb  Tb11  1  0.564462  0.935873  0.935874  1
  Tb  Tb12  1  0.563672  0.936023  0.564924  1
  Tb  Tb13  1  0.934410  0.566074  0.935736  1
  Tb  Tb14  1  0.563672  0.564923  0.936023  1
  Tb  Tb15  1  0.934411  0.935735  0.566075  1
  Mg  Mg16  1  0.284964  0.571689  0.571689  1
  Hg  Hg17  1  0.581555  0.587132  0.587133  1
  Hg  Hg18  1  0.581583  0.586857  0.244900  1
  Hg  Hg19  1  0.581584  0.244898  0.586858  1
  Pt  Pt20  1  0.141758  0.143616  0.143616  1
  Rh  Rh21  1  0.140394  0.143606  0.572008  1
  Rh  Rh22  1  0.140393  0.572019  0.143603  1
  Rh  Rh23  1  0.572453  0.142370  0.142371  1
