# generated using pymatgen
data_La14Nd6Ir5Rh7
_symmetry_space_group_name_H-M   'P 1'
_cell_length_a   11.40607898
_cell_length_b   11.37847030
_cell_length_c   6.68118371
_cell_angle_alpha   89.88953177
_cell_angle_beta   90.02382461
_cell_angle_gamma   90.17525677
_symmetry_Int_Tables_number   1
_chemical_formula_structural   La14Nd6Ir5Rh7
_chemical_formula_sum   'La14 Nd6 Ir5 Rh7'
_cell_volume   867.10320835
_cell_formula_units_Z   1
loop_
 _symmetry_equiv_pos_site_id
 _symmetry_equiv_pos_as_xyz
  1  'x, y, z'
loop_
 _atom_site_type_symbol
 _atom_site_label
 _atom_site_symmetry_multiplicity
 _atom_site_fract_x
 _atom_site_fract_y
 _atom_site_fract_z
 _atom_site_occupancy
  La  La0  1  0.090648  0.289947  0.107981  1
  La  La1  1  0.790016  0.407573  0.107923  1
  La  La2  1  0.210217  0.590397  0.108224  1
  La  La3  1  0.906922  0.708878  0.107863  1
  La  La4  1  0.408545  0.790574  0.392417  1
  La  La5  1  0.593497  0.209096  0.393162  1
  La  La6  1  0.290098  0.093727  0.392619  1
  La  La7  1  0.711233  0.908616  0.392282  1
  La  La8  1  0.408358  0.210344  0.889447  1
  La  La9  1  0.710190  0.091875  0.891441  1
  La  La10  1  0.290560  0.908708  0.890152  1
  La  La11  1  0.591743  0.790184  0.888796  1
  La  La12  1  0.088976  0.707456  0.609029  1
  La  La13  1  0.910254  0.292065  0.607582  1
  Nd  Nd14  1  0.208689  0.410180  0.610969  1
  Nd  Nd15  1  0.790517  0.589736  0.610608  1
  Nd  Nd16  1  0.999771  0.999555  0.001073  1
  Nd  Nd17  1  0.500188  0.500213  0.999625  1
  Nd  Nd18  1  0.499611  0.499745  0.499790  1
  Nd  Nd19  1  0.000327  0.000403  0.501158  1
  Ir  Ir20  1  0.846076  0.154572  0.249956  1
  Ir  Ir21  1  0.345226  0.651728  0.747978  1
  Ir  Ir22  1  0.154565  0.154183  0.750379  1
  Ir  Ir23  1  0.845760  0.845413  0.750288  1
  Ir  Ir24  1  0.654246  0.348601  0.748157  1
  Rh  Rh25  1  0.154699  0.844679  0.249731  1
  Rh  Rh26  1  0.346546  0.343745  0.249448  1
  Rh  Rh27  1  0.652872  0.656394  0.249072  1
  Rh  Rh28  1  0.000583  0.501376  0.376432  1
  Rh  Rh29  1  0.499024  0.999598  0.123580  1
  Rh  Rh30  1  0.499907  0.999423  0.623616  1
  Rh  Rh31  1  0.000138  0.501013  0.879223  1
