# generated using pymatgen
data_Sr7Yb13Au16
_symmetry_space_group_name_H-M   'P 1'
_cell_length_a   8.00759447
_cell_length_b   8.08106261
_cell_length_c   15.21364800
_cell_angle_alpha   89.90466608
_cell_angle_beta   89.87694512
_cell_angle_gamma   89.91227486
_symmetry_Int_Tables_number   1
_chemical_formula_structural   Sr7Yb13Au16
_chemical_formula_sum   'Sr7 Yb13 Au16'
_cell_volume   984.46843725
_cell_formula_units_Z   1
loop_
 _symmetry_equiv_pos_site_id
 _symmetry_equiv_pos_as_xyz
  1  'x, y, z'
loop_
 _atom_site_type_symbol
 _atom_site_label
 _atom_site_symmetry_multiplicity
 _atom_site_fract_x
 _atom_site_fract_y
 _atom_site_fract_z
 _atom_site_occupancy
  Sr  Sr0  1  0.989515  0.175250  0.599275  1
  Sr  Sr1  1  0.510232  0.675410  0.402484  1
  Sr  Sr2  1  0.012866  0.825097  0.096652  1
  Sr  Sr3  1  0.511158  0.672813  0.094255  1
  Sr  Sr4  1  0.010277  0.825040  0.402955  1
  Sr  Sr5  1  0.489320  0.324542  0.597446  1
  Sr  Sr6  1  0.988908  0.176164  0.903282  1
  Yb  Yb7  1  0.327526  0.835912  0.877865  1
  Yb  Yb8  1  0.827578  0.662865  0.623723  1
  Yb  Yb9  1  0.671687  0.163950  0.377599  1
  Yb  Yb10  1  0.173767  0.336782  0.121478  1
  Yb  Yb11  1  0.670153  0.167379  0.119691  1
  Yb  Yb12  1  0.170865  0.335478  0.378228  1
  Yb  Yb13  1  0.329225  0.835478  0.623639  1
  Yb  Yb14  1  0.826041  0.662633  0.879526  1
  Yb  Yb15  1  0.483326  0.317750  0.898080  1
  Yb  Yb16  1  0.162987  0.496935  0.751383  1
  Yb  Yb17  1  0.662413  0.002562  0.750977  1
  Yb  Yb18  1  0.837586  0.502408  0.249556  1
  Yb  Yb19  1  0.337740  0.997798  0.248857  1
  Au  Au20  1  0.338357  0.043828  0.042903  1
  Au  Au21  1  0.837147  0.462114  0.454479  1
  Au  Au22  1  0.662796  0.961591  0.546595  1
  Au  Au23  1  0.173874  0.531266  0.952010  1
  Au  Au24  1  0.657935  0.970678  0.950827  1
  Au  Au25  1  0.161781  0.538459  0.547021  1
  Au  Au26  1  0.338060  0.037949  0.454030  1
  Au  Au27  1  0.841956  0.463631  0.046410  1
  Au  Au28  1  0.524113  0.627205  0.753578  1
  Au  Au29  1  0.027013  0.868009  0.751038  1
  Au  Au30  1  0.473588  0.368116  0.249872  1
  Au  Au31  1  0.972566  0.132765  0.248862  1
  Au  Au32  1  0.292551  0.130232  0.753637  1
  Au  Au33  1  0.782119  0.370768  0.753722  1
  Au  Au34  1  0.711175  0.873757  0.248362  1
  Au  Au35  1  0.211800  0.627388  0.249706  1
