# generated using pymatgen
data_Mn8NbTc3
_symmetry_space_group_name_H-M   'P 1'
_cell_length_a   4.68518400
_cell_length_b   4.68518282
_cell_length_c   7.73461200
_cell_angle_alpha   90.00000000
_cell_angle_beta   90.00000000
_cell_angle_gamma   120.00000835
_symmetry_Int_Tables_number   1
_chemical_formula_structural   Mn8NbTc3
_chemical_formula_sum   'Mn8 Nb1 Tc3'
_cell_volume   147.03554008
_cell_formula_units_Z   1
loop_
 _symmetry_equiv_pos_site_id
 _symmetry_equiv_pos_as_xyz
  1  'x, y, z'
loop_
 _atom_site_type_symbol
 _atom_site_label
 _atom_site_symmetry_multiplicity
 _atom_site_fract_x
 _atom_site_fract_y
 _atom_site_fract_z
 _atom_site_occupancy
  Mn  Mn0  1  0.172277  0.344553  0.747337  1
  Mn  Mn1  1  0.826944  0.173056  0.253097  1
  Mn  Mn2  1  0.346112  0.173056  0.253097  1
  Mn  Mn3  1  0.655447  0.827723  0.747337  1
  Mn  Mn4  1  0.000000  0.000000  0.002235  1
  Mn  Mn5  1  0.000000  0.000000  0.501998  1
  Mn  Mn6  1  0.826944  0.653888  0.253097  1
  Mn  Mn7  1  0.172277  0.827723  0.747337  1
  Nb  Nb8  1  0.333333  0.666667  0.062981  1
  Tc  Tc9  1  0.333333  0.666667  0.436107  1
  Tc  Tc10  1  0.666667  0.333333  0.926901  1
  Tc  Tc11  1  0.666667  0.333333  0.568475  1
