# generated using pymatgen
data_Ho2Lu2Al15(GaIr2)3
_symmetry_space_group_name_H-M   'P 1'
_cell_length_a   7.51218552
_cell_length_b   7.51361921
_cell_length_c   9.48613900
_cell_angle_alpha   90.00000000
_cell_angle_beta   90.00000000
_cell_angle_gamma   119.34355264
_symmetry_Int_Tables_number   1
_chemical_formula_structural   Ho2Lu2Al15(GaIr2)3
_chemical_formula_sum   'Ho2 Lu2 Al15 Ga3 Ir6'
_cell_volume   466.73517541
_cell_formula_units_Z   1
loop_
 _symmetry_equiv_pos_site_id
 _symmetry_equiv_pos_as_xyz
  1  'x, y, z'
loop_
 _atom_site_type_symbol
 _atom_site_label
 _atom_site_symmetry_multiplicity
 _atom_site_fract_x
 _atom_site_fract_y
 _atom_site_fract_z
 _atom_site_occupancy
  Ho  Ho0  1  0.998534  0.676841  0.250000  1
  Ho  Ho1  1  0.671756  0.991300  0.250000  1
  Lu  Lu2  1  0.004642  0.322824  0.750000  1
  Lu  Lu3  1  0.322184  0.003104  0.750000  1
  Al  Al4  1  0.002019  0.335911  0.072461  1
  Al  Al5  1  0.999091  0.663164  0.924214  1
  Al  Al6  1  0.999091  0.663164  0.575786  1
  Al  Al7  1  0.336830  0.003985  0.427571  1
  Al  Al8  1  0.002019  0.335911  0.427539  1
  Al  Al9  1  0.663270  0.999717  0.575788  1
  Al  Al10  1  0.663270  0.999717  0.924212  1
  Al  Al11  1  0.336830  0.003985  0.072429  1
  Al  Al12  1  0.333199  0.333541  0.559182  1
  Al  Al13  1  0.666465  0.666076  0.450493  1
  Al  Al14  1  0.666465  0.666076  0.049507  1
  Al  Al15  1  0.333199  0.333541  0.940818  1
  Al  Al16  1  0.661699  0.447537  0.750000  1
  Al  Al17  1  0.552008  0.340288  0.250000  1
  Al  Al18  1  0.447689  0.661848  0.750000  1
  Ga  Ga19  1  0.133452  0.133743  0.250000  1
  Ga  Ga20  1  0.864287  0.863820  0.750000  1
  Ga  Ga21  1  0.340440  0.547167  0.250000  1
  Ir  Ir22  1  0.671838  0.328797  0.999526  1
  Ir  Ir23  1  0.328079  0.673255  0.997475  1
  Ir  Ir24  1  0.328079  0.673255  0.502525  1
  Ir  Ir25  1  0.671838  0.328797  0.500474  1
  Ir  Ir26  1  0.000863  0.001320  0.998592  1
  Ir  Ir27  1  0.000863  0.001320  0.501408  1
