# generated using pymatgen
data_Li3PrEr2(WO6)2
_symmetry_space_group_name_H-M   'P 1'
_cell_length_a   10.77187603
_cell_length_b   10.72359462
_cell_length_c   10.75046096
_cell_angle_alpha   109.33125964
_cell_angle_beta   109.51151852
_cell_angle_gamma   109.56325371
_symmetry_Int_Tables_number   1
_chemical_formula_structural   Li3PrEr2(WO6)2
_chemical_formula_sum   'Li12 Pr4 Er8 W8 O48'
_cell_volume   956.04062711
_cell_formula_units_Z   4
loop_
 _symmetry_equiv_pos_site_id
 _symmetry_equiv_pos_as_xyz
  1  'x, y, z'
loop_
 _atom_site_type_symbol
 _atom_site_label
 _atom_site_symmetry_multiplicity
 _atom_site_fract_x
 _atom_site_fract_y
 _atom_site_fract_z
 _atom_site_occupancy
  Li  Li0  1  0.376098  0.751538  0.124894  1
  Li  Li1  1  0.748832  0.873400  0.124952  1
  Li  Li2  1  0.874974  0.626374  0.250052  1
  Li  Li3  1  0.375117  0.123703  0.250122  1
  Li  Li4  1  0.126832  0.251257  0.378090  1
  Li  Li5  1  0.251280  0.626858  0.378164  1
  Li  Li6  1  0.876398  0.751430  0.626123  1
  Li  Li7  1  0.749695  0.374665  0.626058  1
  Li  Li8  1  0.125004  0.374826  0.748534  1
  Li  Li9  1  0.623508  0.873696  0.748480  1
  Li  Li10  1  0.623499  0.250010  0.872354  1
  Li  Li11  1  0.248820  0.122309  0.872295  1
  Pr  Pr12  1  0.249705  0.376049  0.123626  1
  Pr  Pr13  1  0.873921  0.247571  0.123622  1
  Pr  Pr14  1  0.626230  0.376238  0.252469  1
  Pr  Pr15  1  0.124666  0.874673  0.249351  1
  Er  Er16  1  0.627068  0.754282  0.377270  1
  Er  Er17  1  0.750197  0.122979  0.377257  1
  Er  Er18  1  0.376594  0.252929  0.627963  1
  Er  Er19  1  0.251387  0.875041  0.627975  1
  Er  Er20  1  0.873207  0.123206  0.746433  1
  Er  Er21  1  0.375090  0.625083  0.750192  1
  Er  Er22  1  0.124521  0.748689  0.872731  1
  Er  Er23  1  0.748205  0.624041  0.872735  1
  W  W24  1  0.997423  0.994898  0.992925  1
  W  W25  1  0.496648  0.995161  0.998789  1
  W  W26  1  0.502143  0.503629  0.998792  1
  W  W27  1  0.995499  0.498027  0.992926  1
  W  W28  1  0.501300  0.503733  0.504818  1
  W  W29  1  0.000808  0.001283  0.503520  1
  W  W30  1  0.003522  0.501088  0.504825  1
  W  W31  1  0.502720  0.002247  0.503515  1
  O  O32  1  0.610627  0.193010  0.019524  1
  O  O33  1  0.408890  0.326507  0.019510  1
  O  O34  1  0.171542  0.696408  0.074117  1
  O  O35  1  0.902580  0.877721  0.074121  1
  O  O36  1  0.910119  0.611226  0.084065  1
  O  O37  1  0.173955  0.972848  0.084072  1
  O  O38  1  0.695744  0.023008  0.120536  1
  O  O39  1  0.424796  0.597532  0.120539  1
  O  O40  1  0.090628  0.480766  0.172339  1
  O  O41  1  0.081705  0.191577  0.172326  1
  O  O42  1  0.675083  0.588603  0.199238  1
  O  O43  1  0.524144  0.110639  0.199231  1
  O  O44  1  0.889727  0.480661  0.307741  1
  O  O45  1  0.418011  0.327073  0.307739  1
  O  O46  1  0.528429  0.908476  0.328885  1
  O  O47  1  0.800457  0.920395  0.328881  1
  O  O48  1  0.975546  0.300162  0.389087  1
  O  O49  1  0.413548  0.588933  0.389092  1
  O  O50  1  0.389283  0.088191  0.414197  1
  O  O51  1  0.024901  0.826004  0.414184  1
  O  O52  1  0.120455  0.096473  0.425080  1
  O  O53  1  0.304627  0.828602  0.425077  1
  O  O54  1  0.673057  0.597647  0.477009  1
  O  O55  1  0.803953  0.379370  0.477007  1
  O  O56  1  0.327917  0.410396  0.531065  1
  O  O57  1  0.203156  0.620663  0.531078  1
  O  O58  1  0.878431  0.908990  0.581851  1
  O  O59  1  0.703430  0.172871  0.581864  1
  O  O60  1  0.970669  0.172549  0.592893  1
  O  O61  1  0.622216  0.920343  0.592870  1
  O  O62  1  0.029708  0.701766  0.622397  1
  O  O63  1  0.592694  0.420632  0.622385  1
  O  O64  1  0.201906  0.081208  0.673465  1
  O  O65  1  0.471572  0.092269  0.673472  1
  O  O66  1  0.582011  0.673852  0.705295  1
  O  O67  1  0.123276  0.531442  0.705293  1
  O  O68  1  0.470598  0.878028  0.798312  1
  O  O69  1  0.327708  0.420264  0.798305  1
  O  O70  1  0.907725  0.531304  0.824893  1
  O  O71  1  0.917161  0.793569  0.824899  1
  O  O72  1  0.297160  0.968992  0.878587  1
  O  O73  1  0.581422  0.409600  0.878582  1
  O  O74  1  0.074722  0.377455  0.901425  1
  O  O75  1  0.826696  0.023962  0.901425  1
  O  O76  1  0.085503  0.112004  0.909095  1
  O  O77  1  0.823594  0.297084  0.909095  1
  O  O78  1  0.376886  0.794196  0.967993  1
  O  O79  1  0.591117  0.673812  0.968005  1
