# generated using pymatgen
data_TmPaTcB6
_symmetry_space_group_name_H-M   'P 1'
_cell_length_a   3.70639700
_cell_length_b   9.12054900
_cell_length_c   11.48113700
_cell_angle_alpha   90.00000000
_cell_angle_beta   90.00000000
_cell_angle_gamma   90.00000000
_symmetry_Int_Tables_number   1
_chemical_formula_structural   TmPaTcB6
_chemical_formula_sum   'Tm4 Pa4 Tc4 B24'
_cell_volume   388.11266576
_cell_formula_units_Z   4
loop_
 _symmetry_equiv_pos_site_id
 _symmetry_equiv_pos_as_xyz
  1  'x, y, z'
loop_
 _atom_site_type_symbol
 _atom_site_label
 _atom_site_symmetry_multiplicity
 _atom_site_fract_x
 _atom_site_fract_y
 _atom_site_fract_z
 _atom_site_occupancy
  Tm  Tm0  1  0.000000  0.944546  0.373769  1
  Tm  Tm1  1  0.000000  0.055454  0.626231  1
  Tm  Tm2  1  0.000000  0.444546  0.126231  1
  Tm  Tm3  1  0.000000  0.555454  0.873769  1
  Pa  Pa4  1  0.000000  0.322837  0.413500  1
  Pa  Pa5  1  0.000000  0.677163  0.586500  1
  Pa  Pa6  1  0.000000  0.822837  0.086500  1
  Pa  Pa7  1  0.000000  0.177163  0.913500  1
  Tc  Tc8  1  0.000000  0.638951  0.321103  1
  Tc  Tc9  1  0.000000  0.361049  0.678897  1
  Tc  Tc10  1  0.000000  0.138951  0.178897  1
  Tc  Tc11  1  0.000000  0.861049  0.821103  1
  B  B12  1  0.500000  0.553063  0.433364  1
  B  B13  1  0.500000  0.446937  0.566636  1
  B  B14  1  0.500000  0.053063  0.066636  1
  B  B15  1  0.500000  0.946937  0.933364  1
  B  B16  1  0.500000  0.749317  0.419820  1
  B  B17  1  0.500000  0.250683  0.580180  1
  B  B18  1  0.500000  0.249317  0.080180  1
  B  B19  1  0.500000  0.750683  0.919820  1
  B  B20  1  0.500000  0.793209  0.265496  1
  B  B21  1  0.500000  0.206791  0.734504  1
  B  B22  1  0.500000  0.293209  0.234504  1
  B  B23  1  0.500000  0.706791  0.765496  1
  B  B24  1  0.500000  0.632299  0.184593  1
  B  B25  1  0.500000  0.367701  0.815407  1
  B  B26  1  0.500000  0.132299  0.315407  1
  B  B27  1  0.500000  0.867701  0.684593  1
  B  B28  1  0.500000  0.982405  0.213583  1
  B  B29  1  0.500000  0.017595  0.786417  1
  B  B30  1  0.500000  0.482405  0.286417  1
  B  B31  1  0.500000  0.517595  0.713583  1
  B  B32  1  0.500000  0.608155  0.029821  1
  B  B33  1  0.500000  0.391845  0.970179  1
  B  B34  1  0.500000  0.108155  0.470179  1
  B  B35  1  0.500000  0.891845  0.529821  1
