# generated using pymatgen
data_Ce2Co7(P2Ru)3
_symmetry_space_group_name_H-M   'P 1'
_cell_length_a   3.75214500
_cell_length_b   10.55754600
_cell_length_c   11.91514000
_cell_angle_alpha   90.00000000
_cell_angle_beta   90.00000000
_cell_angle_gamma   90.00000000
_symmetry_Int_Tables_number   1
_chemical_formula_structural   Ce2Co7(P2Ru)3
_chemical_formula_sum   'Ce4 Co14 P12 Ru6'
_cell_volume   471.99972442
_cell_formula_units_Z   2
loop_
 _symmetry_equiv_pos_site_id
 _symmetry_equiv_pos_as_xyz
  1  'x, y, z'
loop_
 _atom_site_type_symbol
 _atom_site_label
 _atom_site_symmetry_multiplicity
 _atom_site_fract_x
 _atom_site_fract_y
 _atom_site_fract_z
 _atom_site_occupancy
  Ce  Ce0  1  0.250000  0.587164  0.704753  1
  Ce  Ce1  1  0.250000  0.912836  0.204753  1
  Ce  Ce2  1  0.750000  0.415343  0.293341  1
  Ce  Ce3  1  0.750000  0.084657  0.793341  1
  Co  Co4  1  0.750000  0.597477  0.513042  1
  Co  Co5  1  0.750000  0.902523  0.013042  1
  Co  Co6  1  0.250000  0.224776  0.178252  1
  Co  Co7  1  0.250000  0.275224  0.678252  1
  Co  Co8  1  0.750000  0.777840  0.823664  1
  Co  Co9  1  0.750000  0.722160  0.323664  1
  Co  Co10  1  0.250000  0.884336  0.700247  1
  Co  Co11  1  0.250000  0.615664  0.200247  1
  Co  Co12  1  0.750000  0.113391  0.298837  1
  Co  Co13  1  0.750000  0.386609  0.798837  1
  Co  Co14  1  0.250000  0.466003  0.930987  1
  Co  Co15  1  0.250000  0.033997  0.430987  1
  Co  Co16  1  0.750000  0.535745  0.067832  1
  Co  Co17  1  0.750000  0.964255  0.567832  1
  P  P18  1  0.250000  0.422326  0.110427  1
  P  P19  1  0.250000  0.077674  0.610427  1
  P  P20  1  0.750000  0.579718  0.888873  1
  P  P21  1  0.750000  0.920282  0.388873  1
  P  P22  1  0.250000  0.276784  0.866469  1
  P  P23  1  0.250000  0.223216  0.366469  1
  P  P24  1  0.750000  0.725455  0.132483  1
  P  P25  1  0.750000  0.774545  0.632483  1
  P  P26  1  0.250000  0.603327  0.388330  1
  P  P27  1  0.250000  0.896673  0.888330  1
  P  P28  1  0.750000  0.398893  0.612244  1
  P  P29  1  0.750000  0.101107  0.112244  1
  Ru  Ru30  1  0.250000  0.712853  0.989579  1
  Ru  Ru31  1  0.250000  0.787147  0.489579  1
  Ru  Ru32  1  0.750000  0.289269  0.011978  1
  Ru  Ru33  1  0.750000  0.210731  0.511978  1
  Ru  Ru34  1  0.250000  0.408511  0.488663  1
  Ru  Ru35  1  0.250000  0.091489  0.988663  1
