# generated using pymatgen
data_TiNb(Mo2W)2
_symmetry_space_group_name_H-M   'P 1'
_cell_length_a   4.48361300
_cell_length_b   6.38152300
_cell_length_c   13.60850000
_cell_angle_alpha   90.00000000
_cell_angle_beta   89.99933078
_cell_angle_gamma   90.00000000
_symmetry_Int_Tables_number   1
_chemical_formula_structural   TiNb(Mo2W)2
_chemical_formula_sum   'Ti3 Nb3 Mo12 W6'
_cell_volume   389.37020533
_cell_formula_units_Z   3
loop_
 _symmetry_equiv_pos_site_id
 _symmetry_equiv_pos_as_xyz
  1  'x, y, z'
loop_
 _atom_site_type_symbol
 _atom_site_label
 _atom_site_symmetry_multiplicity
 _atom_site_fract_x
 _atom_site_fract_y
 _atom_site_fract_z
 _atom_site_occupancy
  Ti  Ti0  1  0.500001  0.500000  0.501275  1
  Ti  Ti1  1  0.000084  0.000000  0.666629  1
  Ti  Ti2  1  0.500085  0.500000  0.832014  1
  Nb  Nb3  1  0.999995  0.000000  0.998672  1
  Nb  Nb4  1  0.499926  0.500000  0.166702  1
  Nb  Nb5  1  0.999918  0.000000  0.334710  1
  Mo  Mo6  1  0.499999  0.250978  0.999264  1
  Mo  Mo7  1  0.499999  0.749023  0.999264  1
  Mo  Mo8  1  0.999923  0.249018  0.166663  1
  Mo  Mo9  1  0.999923  0.750982  0.166663  1
  Mo  Mo10  1  0.499921  0.251039  0.334090  1
  Mo  Mo11  1  0.499921  0.748960  0.334090  1
  Mo  Mo12  1  0.999995  0.251041  0.500947  1
  Mo  Mo13  1  0.999995  0.748960  0.500947  1
  Mo  Mo14  1  0.500081  0.250121  0.666649  1
  Mo  Mo15  1  0.500081  0.749878  0.666649  1
  Mo  Mo16  1  0.000078  0.250924  0.832377  1
  Mo  Mo17  1  0.000078  0.749076  0.832377  1
  W  W18  1  0.000000  0.500000  0.996976  1
  W  W19  1  0.499917  0.000000  0.166673  1
  W  W20  1  0.999920  0.500000  0.336358  1
  W  W21  1  0.499992  0.000000  0.503151  1
  W  W22  1  0.000090  0.500000  0.666661  1
  W  W23  1  0.500076  0.000000  0.830200  1
