# generated using pymatgen
data_Er6P13Ir17Rh3
_symmetry_space_group_name_H-M   'P 1'
_cell_length_a   13.32048700
_cell_length_b   13.32048490
_cell_length_c   3.95126900
_cell_angle_alpha   90.00000000
_cell_angle_beta   90.00000000
_cell_angle_gamma   119.99999412
_symmetry_Int_Tables_number   1
_chemical_formula_structural   Er6P13Ir17Rh3
_chemical_formula_sum   'Er6 P13 Ir17 Rh3'
_cell_volume   607.16592771
_cell_formula_units_Z   1
loop_
 _symmetry_equiv_pos_site_id
 _symmetry_equiv_pos_as_xyz
  1  'x, y, z'
loop_
 _atom_site_type_symbol
 _atom_site_label
 _atom_site_symmetry_multiplicity
 _atom_site_fract_x
 _atom_site_fract_y
 _atom_site_fract_z
 _atom_site_occupancy
  Er  Er0  1  0.527102  0.717046  0.246176  1
  Er  Er1  1  0.282954  0.810055  0.246176  1
  Er  Er2  1  0.189945  0.472898  0.246176  1
  Er  Er3  1  0.475196  0.284974  0.750986  1
  Er  Er4  1  0.715026  0.190222  0.750986  1
  Er  Er5  1  0.809778  0.524804  0.750986  1
  P  P6  1  0.525951  0.140947  0.248441  1
  P  P7  1  0.859053  0.385006  0.248441  1
  P  P8  1  0.614994  0.474049  0.248441  1
  P  P9  1  0.943332  0.709082  0.255969  1
  P  P10  1  0.290918  0.234252  0.255969  1
  P  P11  1  0.765748  0.056668  0.255969  1
  P  P12  1  0.388454  0.528174  0.747876  1
  P  P13  1  0.471826  0.860278  0.747876  1
  P  P14  1  0.139722  0.611546  0.747876  1
  P  P15  1  0.714286  0.770120  0.740034  1
  P  P16  1  0.229880  0.944165  0.740034  1
  P  P17  1  0.055835  0.285714  0.740034  1
  P  P18  1  0.000000  0.000000  0.063320  1
  Ir  Ir19  1  0.333333  0.666667  0.750165  1
  Ir  Ir20  1  0.915425  0.245406  0.252423  1
  Ir  Ir21  1  0.754594  0.670018  0.252423  1
  Ir  Ir22  1  0.329982  0.084575  0.252423  1
  Ir  Ir23  1  0.432689  0.018430  0.750480  1
  Ir  Ir24  1  0.981570  0.414260  0.750480  1
  Ir  Ir25  1  0.585740  0.567311  0.750480  1
  Ir  Ir26  1  0.666667  0.333333  0.246364  1
  Ir  Ir27  1  0.099929  0.191718  0.246415  1
  Ir  Ir28  1  0.808282  0.908211  0.246415  1
  Ir  Ir29  1  0.091789  0.900071  0.246415  1
  Ir  Ir30  1  0.019536  0.582069  0.246693  1
  Ir  Ir31  1  0.417931  0.437466  0.246693  1
  Ir  Ir32  1  0.562534  0.980464  0.246693  1
  Ir  Ir33  1  0.668045  0.918763  0.744262  1
  Ir  Ir34  1  0.081237  0.749282  0.744262  1
  Ir  Ir35  1  0.250718  0.331955  0.744262  1
  Rh  Rh36  1  0.906476  0.818050  0.750294  1
  Rh  Rh37  1  0.181950  0.088427  0.750294  1
  Rh  Rh38  1  0.911573  0.093524  0.750294  1
