# generated using pymatgen
data_PrTm2ThSb10
_symmetry_space_group_name_H-M   'P 1'
_cell_length_a   4.24291100
_cell_length_b   13.22995472
_cell_length_c   14.61706300
_cell_angle_alpha   78.23558424
_cell_angle_beta   90.00000000
_cell_angle_gamma   90.00000000
_symmetry_Int_Tables_number   1
_chemical_formula_structural   PrTm2ThSb10
_chemical_formula_sum   'Pr2 Tm4 Th2 Sb20'
_cell_volume   803.27179793
_cell_formula_units_Z   2
loop_
 _symmetry_equiv_pos_site_id
 _symmetry_equiv_pos_as_xyz
  1  'x, y, z'
loop_
 _atom_site_type_symbol
 _atom_site_label
 _atom_site_symmetry_multiplicity
 _atom_site_fract_x
 _atom_site_fract_y
 _atom_site_fract_z
 _atom_site_occupancy
  Pr  Pr0  1  0.250000  0.951238  0.353773  1
  Pr  Pr1  1  0.750000  0.048762  0.646227  1
  Tm  Tm2  1  0.250000  0.393449  0.774740  1
  Tm  Tm3  1  0.750000  0.606551  0.225260  1
  Tm  Tm4  1  0.250000  0.660108  0.859422  1
  Tm  Tm5  1  0.750000  0.339892  0.140578  1
  Th  Th6  1  0.250000  0.670745  0.573265  1
  Th  Th7  1  0.750000  0.329255  0.426735  1
  Sb  Sb8  1  0.250000  0.148127  0.782211  1
  Sb  Sb9  1  0.750000  0.851873  0.217789  1
  Sb  Sb10  1  0.250000  0.142211  0.479400  1
  Sb  Sb11  1  0.750000  0.857789  0.520600  1
  Sb  Sb12  1  0.250000  0.155128  0.160383  1
  Sb  Sb13  1  0.750000  0.844872  0.839617  1
  Sb  Sb14  1  0.250000  0.420856  0.977643  1
  Sb  Sb15  1  0.750000  0.579144  0.022357  1
  Sb  Sb16  1  0.750000  0.033217  0.910759  1
  Sb  Sb17  1  0.250000  0.966783  0.089241  1
  Sb  Sb18  1  0.750000  0.143478  0.308550  1
  Sb  Sb19  1  0.250000  0.856522  0.691450  1
  Sb  Sb20  1  0.750000  0.279537  0.937793  1
  Sb  Sb21  1  0.250000  0.720463  0.062207  1
  Sb  Sb22  1  0.750000  0.289758  0.659709  1
  Sb  Sb23  1  0.250000  0.710242  0.340291  1
  Sb  Sb24  1  0.750000  0.575307  0.737502  1
  Sb  Sb25  1  0.250000  0.424693  0.262498  1
  Sb  Sb26  1  0.750000  0.571291  0.444063  1
  Sb  Sb27  1  0.250000  0.428709  0.555937  1
