# generated using pymatgen
data_HoCdNiPt3
_symmetry_space_group_name_H-M   'P 1'
_cell_length_a   5.17299324
_cell_length_b   5.17299294
_cell_length_c   5.17299292
_cell_angle_alpha   62.97092165
_cell_angle_beta   62.97091770
_cell_angle_gamma   62.97091924
_symmetry_Int_Tables_number   1
_chemical_formula_structural   HoCdNiPt3
_chemical_formula_sum   'Ho1 Cd1 Ni1 Pt3'
_cell_volume   104.34124070
_cell_formula_units_Z   1
loop_
 _symmetry_equiv_pos_site_id
 _symmetry_equiv_pos_as_xyz
  1  'x, y, z'
loop_
 _atom_site_type_symbol
 _atom_site_label
 _atom_site_symmetry_multiplicity
 _atom_site_fract_x
 _atom_site_fract_y
 _atom_site_fract_z
 _atom_site_occupancy
  Ho  Ho0  1  0.249372  0.249372  0.249372  1
  Cd  Cd1  1  0.997490  0.997490  0.997490  1
  Ni  Ni2  1  0.626513  0.626513  0.626513  1
  Pt  Pt3  1  0.626139  0.626139  0.124350  1
  Pt  Pt4  1  0.626139  0.124350  0.626139  1
  Pt  Pt5  1  0.124350  0.626139  0.626139  1
