# generated using pymatgen
data_BaCa3(H6Pt)2
_symmetry_space_group_name_H-M   'P 1'
_cell_length_a   7.51454511
_cell_length_b   7.51454639
_cell_length_c   5.39282400
_cell_angle_alpha   89.99011845
_cell_angle_beta   89.99011083
_cell_angle_gamma   137.97808580
_symmetry_Int_Tables_number   1
_chemical_formula_structural   BaCa3(H6Pt)2
_chemical_formula_sum   'Ba1 Ca3 H12 Pt2'
_cell_volume   203.85293425
_cell_formula_units_Z   1
loop_
 _symmetry_equiv_pos_site_id
 _symmetry_equiv_pos_as_xyz
  1  'x, y, z'
loop_
 _atom_site_type_symbol
 _atom_site_label
 _atom_site_symmetry_multiplicity
 _atom_site_fract_x
 _atom_site_fract_y
 _atom_site_fract_z
 _atom_site_occupancy
  Ba  Ba0  1  0.147051  0.852949  0.500000  1
  Ca  Ca1  1  0.658405  0.341595  0.000000  1
  Ca  Ca2  1  0.357224  0.642776  0.000000  1
  Ca  Ca3  1  0.854883  0.145117  0.500000  1
  H  H4  1  0.877421  0.122579  0.000000  1
  H  H5  1  0.116179  0.883821  0.000000  1
  H  H6  1  0.613949  0.386051  0.500000  1
  H  H7  1  0.375017  0.624983  0.500000  1
  H  H8  1  0.995959  0.477945  0.236849  1
  H  H9  1  0.995130  0.477095  0.763968  1
  H  H10  1  0.522055  0.004041  0.763151  1
  H  H11  1  0.522905  0.004870  0.236032  1
  H  H12  1  0.226291  0.238927  0.225122  1
  H  H13  1  0.761073  0.773709  0.774878  1
  H  H14  1  0.269685  0.282380  0.735827  1
  H  H15  1  0.717620  0.730315  0.264173  1
  Pt  Pt16  1  0.995400  0.004600  0.000000  1
  Pt  Pt17  1  0.493749  0.506251  0.500000  1
