# generated using pymatgen
data_Dy15LuIn4Pt3Rh
_symmetry_space_group_name_H-M   'P 1'
_cell_length_a   9.69499972
_cell_length_b   9.68389873
_cell_length_c   9.70034287
_cell_angle_alpha   59.94533731
_cell_angle_beta   60.01822423
_cell_angle_gamma   59.96207284
_symmetry_Int_Tables_number   1
_chemical_formula_structural   Dy15LuIn4Pt3Rh
_chemical_formula_sum   'Dy15 Lu1 In4 Pt3 Rh1'
_cell_volume   643.61410533
_cell_formula_units_Z   1
loop_
 _symmetry_equiv_pos_site_id
 _symmetry_equiv_pos_as_xyz
  1  'x, y, z'
loop_
 _atom_site_type_symbol
 _atom_site_label
 _atom_site_symmetry_multiplicity
 _atom_site_fract_x
 _atom_site_fract_y
 _atom_site_fract_z
 _atom_site_occupancy
  Dy  Dy0  1  0.686961  0.691837  0.309793  1
  Dy  Dy1  1  0.311409  0.691837  0.309793  1
  Dy  Dy2  1  0.937308  0.937814  0.562143  1
  Dy  Dy3  1  0.150604  0.147661  0.551128  1
  Dy  Dy4  1  0.562734  0.937814  0.562143  1
  Dy  Dy5  1  0.150294  0.147221  0.151264  1
  Dy  Dy6  1  0.310784  0.309227  0.689591  1
  Dy  Dy7  1  0.938001  0.561966  0.562031  1
  Dy  Dy8  1  0.562450  0.562068  0.938637  1
  Dy  Dy9  1  0.562711  0.936694  0.937885  1
  Dy  Dy10  1  0.936844  0.562068  0.938637  1
  Dy  Dy11  1  0.148028  0.554174  0.149768  1
  Dy  Dy12  1  0.309943  0.693398  0.686717  1
  Dy  Dy13  1  0.690398  0.309227  0.689591  1
  Dy  Dy14  1  0.551221  0.147221  0.151264  1
  Lu  Lu15  1  0.690144  0.310007  0.309704  1
  In  In16  1  0.917057  0.917480  0.248406  1
  In  In17  1  0.249329  0.917016  0.916847  1
  In  In18  1  0.916969  0.248767  0.917294  1
  In  In19  1  0.916808  0.917016  0.916847  1
  Pt  Pt20  1  0.359772  0.357040  0.356682  1
  Pt  Pt21  1  0.926508  0.357040  0.356682  1
  Pt  Pt22  1  0.356571  0.358080  0.928780  1
  Rh  Rh23  1  0.357152  0.927327  0.358371  1
