# generated using pymatgen
data_Mg3(AlIr)2
_symmetry_space_group_name_H-M   'P 1'
_cell_length_a   8.48514400
_cell_length_b   8.48514378
_cell_length_c   7.73038100
_cell_angle_alpha   90.00000000
_cell_angle_beta   90.00000000
_cell_angle_gamma   120.00000087
_symmetry_Int_Tables_number   1
_chemical_formula_structural   Mg3(AlIr)2
_chemical_formula_sum   'Mg12 Al8 Ir8'
_cell_volume   482.00323120
_cell_formula_units_Z   4
loop_
 _symmetry_equiv_pos_site_id
 _symmetry_equiv_pos_as_xyz
  1  'x, y, z'
loop_
 _atom_site_type_symbol
 _atom_site_label
 _atom_site_symmetry_multiplicity
 _atom_site_fract_x
 _atom_site_fract_y
 _atom_site_fract_z
 _atom_site_occupancy
  Mg  Mg0  1  0.800230  0.199770  0.935820  1
  Mg  Mg1  1  0.800230  0.600461  0.935820  1
  Mg  Mg2  1  0.399539  0.199770  0.935820  1
  Mg  Mg3  1  0.199770  0.800230  0.064180  1
  Mg  Mg4  1  0.199770  0.399539  0.064180  1
  Mg  Mg5  1  0.600461  0.800230  0.064180  1
  Mg  Mg6  1  0.539312  0.460688  0.285088  1
  Mg  Mg7  1  0.539312  0.078625  0.285088  1
  Mg  Mg8  1  0.921375  0.460688  0.285088  1
  Mg  Mg9  1  0.460688  0.539312  0.714912  1
  Mg  Mg10  1  0.460688  0.921375  0.714912  1
  Mg  Mg11  1  0.078625  0.539312  0.714912  1
  Al  Al12  1  0.177167  0.822833  0.428358  1
  Al  Al13  1  0.177167  0.354334  0.428358  1
  Al  Al14  1  0.645666  0.822833  0.428358  1
  Al  Al15  1  0.822833  0.177167  0.571642  1
  Al  Al16  1  0.822833  0.645666  0.571642  1
  Al  Al17  1  0.354334  0.177167  0.571642  1
  Al  Al18  1  0.000000  0.000000  0.500000  1
  Al  Al19  1  0.000000  0.000000  0.000000  1
  Ir  Ir20  1  0.880240  0.119760  0.256745  1
  Ir  Ir21  1  0.880240  0.760481  0.256745  1
  Ir  Ir22  1  0.239519  0.119760  0.256745  1
  Ir  Ir23  1  0.119760  0.880240  0.743255  1
  Ir  Ir24  1  0.119760  0.239519  0.743255  1
  Ir  Ir25  1  0.760481  0.880240  0.743255  1
  Ir  Ir26  1  0.333333  0.666667  0.316326  1
  Ir  Ir27  1  0.666667  0.333333  0.683674  1
