# generated using pymatgen
data_Pm4Al3CoO12
_symmetry_space_group_name_H-M   'P 1'
_cell_length_a   5.34865380
_cell_length_b   5.35289700
_cell_length_c   7.55819765
_cell_angle_alpha   89.64876154
_cell_angle_beta   90.05987714
_cell_angle_gamma   90.00233363
_symmetry_Int_Tables_number   1
_chemical_formula_structural   Pm4Al3CoO12
_chemical_formula_sum   'Pm4 Al3 Co1 O12'
_cell_volume   216.39300708
_cell_formula_units_Z   1
loop_
 _symmetry_equiv_pos_site_id
 _symmetry_equiv_pos_as_xyz
  1  'x, y, z'
loop_
 _atom_site_type_symbol
 _atom_site_label
 _atom_site_symmetry_multiplicity
 _atom_site_fract_x
 _atom_site_fract_y
 _atom_site_fract_z
 _atom_site_occupancy
  Pm  Pm0  1  0.989651  0.030435  0.249442  1
  Pm  Pm1  1  0.505843  0.532645  0.248912  1
  Pm  Pm2  1  0.494157  0.467356  0.751087  1
  Pm  Pm3  1  0.010350  0.969566  0.750558  1
  Al  Al4  1  0.000000  0.500001  0.000000  1
  Al  Al5  1  0.500001  0.000001  0.500000  1
  Al  Al6  1  0.000000  0.500000  0.500000  1
  Co  Co7  1  0.500001  0.000001  0.000000  1
  O  O8  1  0.721905  0.281542  0.040068  1
  O  O9  1  0.781421  0.777769  0.039702  1
  O  O10  1  0.067604  0.490159  0.248856  1
  O  O11  1  0.425185  0.987478  0.251089  1
  O  O12  1  0.725778  0.274849  0.462814  1
  O  O13  1  0.773747  0.774854  0.463523  1
  O  O14  1  0.226252  0.225147  0.536477  1
  O  O15  1  0.274223  0.725153  0.537185  1
  O  O16  1  0.574815  0.012524  0.748911  1
  O  O17  1  0.932396  0.509842  0.751144  1
  O  O18  1  0.218579  0.222233  0.960298  1
  O  O19  1  0.278095  0.718459  0.959932  1
