# generated using pymatgen
data_Ba2Co13Si2Ni5P8
_symmetry_space_group_name_H-M   'P 1'
_cell_length_a   6.74154231
_cell_length_b   6.73806101
_cell_length_c   10.10767238
_cell_angle_alpha   90.02588168
_cell_angle_beta   89.99554359
_cell_angle_gamma   119.98197134
_symmetry_Int_Tables_number   1
_chemical_formula_structural   Ba2Co13Si2Ni5P8
_chemical_formula_sum   'Ba2 Co13 Si2 Ni5 P8'
_cell_volume   397.69928504
_cell_formula_units_Z   1
loop_
 _symmetry_equiv_pos_site_id
 _symmetry_equiv_pos_as_xyz
  1  'x, y, z'
loop_
 _atom_site_type_symbol
 _atom_site_label
 _atom_site_symmetry_multiplicity
 _atom_site_fract_x
 _atom_site_fract_y
 _atom_site_fract_z
 _atom_site_occupancy
  Ba  Ba0  1  0.998390  0.001040  0.499089  1
  Ba  Ba1  1  0.000336  0.997994  0.999465  1
  Co  Co2  1  0.456697  0.917578  0.881893  1
  Co  Co3  1  0.920588  0.463010  0.119595  1
  Co  Co4  1  0.536883  0.077174  0.119130  1
  Co  Co5  1  0.078310  0.538450  0.618110  1
  Co  Co6  1  0.205654  0.407535  0.245726  1
  Co  Co7  1  0.797961  0.204168  0.748450  1
  Co  Co8  1  0.406630  0.206524  0.746147  1
  Co  Co9  1  0.597789  0.797733  0.248464  1
  Co  Co10  1  0.201992  0.799103  0.250921  1
  Co  Co11  1  0.797394  0.598640  0.748065  1
  Co  Co12  1  0.461370  0.919765  0.619126  1
  Co  Co13  1  0.542140  0.453987  0.383383  1
  Co  Co14  1  0.918066  0.455479  0.382875  1
  Si  Si15  1  0.329680  0.661373  0.431264  1
  Si  Si16  1  0.665137  0.327135  0.932947  1
  Ni  Ni17  1  0.078559  0.539865  0.885016  1
  Ni  Ni18  1  0.456281  0.539687  0.887284  1
  Ni  Ni19  1  0.540807  0.077453  0.385394  1
  Ni  Ni20  1  0.542138  0.460335  0.116676  1
  Ni  Ni21  1  0.461347  0.541129  0.614022  1
  P  P22  1  0.164524  0.330208  0.748746  1
  P  P23  1  0.837210  0.167406  0.246948  1
  P  P24  1  0.167076  0.836765  0.747381  1
  P  P25  1  0.835148  0.667920  0.253103  1
  P  P26  1  0.674500  0.332831  0.568245  1
  P  P27  1  0.329223  0.677219  0.070736  1
  P  P28  1  0.329858  0.166003  0.250543  1
  P  P29  1  0.668312  0.836494  0.751258  1
