# generated using pymatgen
data_LaEr4Th3(ReB6)4
_symmetry_space_group_name_H-M   'P 1'
_cell_length_a   3.75897300
_cell_length_b   9.25363643
_cell_length_c   11.70187108
_cell_angle_alpha   89.91688025
_cell_angle_beta   90.00000000
_cell_angle_gamma   90.00000000
_symmetry_Int_Tables_number   1
_chemical_formula_structural   LaEr4Th3(ReB6)4
_chemical_formula_sum   'La1 Er4 Th3 Re4 B24'
_cell_volume   407.03943884
_cell_formula_units_Z   1
loop_
 _symmetry_equiv_pos_site_id
 _symmetry_equiv_pos_as_xyz
  1  'x, y, z'
loop_
 _atom_site_type_symbol
 _atom_site_label
 _atom_site_symmetry_multiplicity
 _atom_site_fract_x
 _atom_site_fract_y
 _atom_site_fract_z
 _atom_site_occupancy
  La  La0  1  0.000000  0.322452  0.413956  1
  Er  Er1  1  0.000000  0.944473  0.370886  1
  Er  Er2  1  0.000000  0.056744  0.628477  1
  Er  Er3  1  0.000000  0.444169  0.128346  1
  Er  Er4  1  0.000000  0.555047  0.873079  1
  Th  Th5  1  0.000000  0.676257  0.585495  1
  Th  Th6  1  0.000000  0.821587  0.085420  1
  Th  Th7  1  0.000000  0.178463  0.914826  1
  Re  Re8  1  0.000000  0.641975  0.318845  1
  Re  Re9  1  0.000000  0.359967  0.682324  1
  Re  Re10  1  0.000000  0.137770  0.179126  1
  Re  Re11  1  0.000000  0.860808  0.819065  1
  B  B12  1  0.500000  0.557734  0.429357  1
  B  B13  1  0.500000  0.443979  0.571608  1
  B  B14  1  0.500000  0.055778  0.070021  1
  B  B15  1  0.500000  0.943356  0.928916  1
  B  B16  1  0.500000  0.750585  0.416051  1
  B  B17  1  0.500000  0.250403  0.585312  1
  B  B18  1  0.500000  0.250137  0.083472  1
  B  B19  1  0.500000  0.749431  0.916210  1
  B  B20  1  0.500000  0.791772  0.266068  1
  B  B21  1  0.500000  0.208894  0.734506  1
  B  B22  1  0.500000  0.290791  0.232714  1
  B  B23  1  0.500000  0.708508  0.766494  1
  B  B24  1  0.500000  0.630836  0.185866  1
  B  B25  1  0.500000  0.369688  0.814860  1
  B  B26  1  0.500000  0.129514  0.312863  1
  B  B27  1  0.500000  0.869676  0.685841  1
  B  B28  1  0.500000  0.984623  0.213227  1
  B  B29  1  0.500000  0.014804  0.785912  1
  B  B30  1  0.500000  0.486188  0.285413  1
  B  B31  1  0.500000  0.514841  0.714700  1
  B  B32  1  0.500000  0.602439  0.028008  1
  B  B33  1  0.500000  0.397620  0.972604  1
  B  B34  1  0.500000  0.097592  0.472920  1
  B  B35  1  0.500000  0.901099  0.527210  1
