# generated using pymatgen
data_TbHo3(Ga3Pt)2
_symmetry_space_group_name_H-M   'P 1'
_cell_length_a   8.81957900
_cell_length_b   8.81957984
_cell_length_c   6.94113600
_cell_angle_alpha   90.00000000
_cell_angle_beta   90.00000000
_cell_angle_gamma   120.00108083
_symmetry_Int_Tables_number   1
_chemical_formula_structural   TbHo3(Ga3Pt)2
_chemical_formula_sum   'Tb2 Ho6 Ga12 Pt4'
_cell_volume   467.57599415
_cell_formula_units_Z   2
loop_
 _symmetry_equiv_pos_site_id
 _symmetry_equiv_pos_as_xyz
  1  'x, y, z'
loop_
 _atom_site_type_symbol
 _atom_site_label
 _atom_site_symmetry_multiplicity
 _atom_site_fract_x
 _atom_site_fract_y
 _atom_site_fract_z
 _atom_site_occupancy
  Tb  Tb0  1  0.000074  0.999926  0.250000  1
  Tb  Tb1  1  0.999926  0.000074  0.750000  1
  Ho  Ho2  1  0.519894  0.039919  0.250000  1
  Ho  Ho3  1  0.519831  0.480169  0.250000  1
  Ho  Ho4  1  0.960081  0.480106  0.250000  1
  Ho  Ho5  1  0.480106  0.960081  0.750000  1
  Ho  Ho6  1  0.480169  0.519831  0.750000  1
  Ho  Ho7  1  0.039919  0.519894  0.750000  1
  Ga  Ga8  1  0.167147  0.334445  0.046343  1
  Ga  Ga9  1  0.167328  0.832672  0.453729  1
  Ga  Ga10  1  0.665555  0.832853  0.453657  1
  Ga  Ga11  1  0.665555  0.832853  0.046343  1
  Ga  Ga12  1  0.167328  0.832672  0.046271  1
  Ga  Ga13  1  0.832853  0.665555  0.953657  1
  Ga  Ga14  1  0.832672  0.167328  0.953729  1
  Ga  Ga15  1  0.334445  0.167147  0.953657  1
  Ga  Ga16  1  0.167147  0.334445  0.453657  1
  Ga  Ga17  1  0.334445  0.167147  0.546343  1
  Ga  Ga18  1  0.832853  0.665555  0.546343  1
  Ga  Ga19  1  0.832672  0.167328  0.546271  1
  Pt  Pt20  1  0.333387  0.666613  0.030144  1
  Pt  Pt21  1  0.333387  0.666613  0.469856  1
  Pt  Pt22  1  0.666613  0.333387  0.969856  1
  Pt  Pt23  1  0.666613  0.333387  0.530144  1
