# generated using pymatgen
data_SrNd(Cu4Pd)2
_symmetry_space_group_name_H-M   'P 1'
_cell_length_a   4.10703200
_cell_length_b   5.05763800
_cell_length_c   9.52890600
_cell_angle_alpha   90.00000000
_cell_angle_beta   90.00000000
_cell_angle_gamma   90.00000000
_symmetry_Int_Tables_number   1
_chemical_formula_structural   SrNd(Cu4Pd)2
_chemical_formula_sum   'Sr1 Nd1 Cu8 Pd2'
_cell_volume   197.93330254
_cell_formula_units_Z   1
loop_
 _symmetry_equiv_pos_site_id
 _symmetry_equiv_pos_as_xyz
  1  'x, y, z'
loop_
 _atom_site_type_symbol
 _atom_site_label
 _atom_site_symmetry_multiplicity
 _atom_site_fract_x
 _atom_site_fract_y
 _atom_site_fract_z
 _atom_site_occupancy
  Sr  Sr0  1  0.000000  0.000000  0.000000  1
  Nd  Nd1  1  0.000000  0.500000  0.500000  1
  Cu  Cu2  1  0.000000  0.000000  0.322372  1
  Cu  Cu3  1  0.000000  0.500000  0.817204  1
  Cu  Cu4  1  0.000000  0.500000  0.182796  1
  Cu  Cu5  1  0.000000  0.000000  0.677628  1
  Cu  Cu6  1  0.500000  0.253612  0.255187  1
  Cu  Cu7  1  0.500000  0.746388  0.744813  1
  Cu  Cu8  1  0.500000  0.746388  0.255187  1
  Cu  Cu9  1  0.500000  0.253612  0.744813  1
  Pd  Pd10  1  0.500000  0.000000  0.500000  1
  Pd  Pd11  1  0.500000  0.500000  0.000000  1
