# generated using pymatgen
data_Ac7Pt16
_symmetry_space_group_name_H-M   'P 1'
_cell_length_a   9.76211631
_cell_length_b   9.76211502
_cell_length_c   9.76211639
_cell_angle_alpha   131.69608703
_cell_angle_beta   131.69609634
_cell_angle_gamma   70.70944674
_symmetry_Int_Tables_number   1
_chemical_formula_structural   Ac7Pt16
_chemical_formula_sum   'Ac7 Pt16'
_cell_volume   508.09322973
_cell_formula_units_Z   1
loop_
 _symmetry_equiv_pos_site_id
 _symmetry_equiv_pos_as_xyz
  1  'x, y, z'
loop_
 _atom_site_type_symbol
 _atom_site_label
 _atom_site_symmetry_multiplicity
 _atom_site_fract_x
 _atom_site_fract_y
 _atom_site_fract_z
 _atom_site_occupancy
  Ac  Ac0  1  0.101414  0.101414  0.415425  1
  Ac  Ac1  1  0.685988  0.685988  0.584575  1
  Ac  Ac2  1  0.898586  0.314012  0.000000  1
  Ac  Ac3  1  0.750000  0.250000  0.500000  1
  Ac  Ac4  1  0.500000  0.500000  0.000000  1
  Ac  Ac5  1  0.314012  0.898586  0.000000  1
  Ac  Ac6  1  0.250000  0.750000  0.500000  1
  Pt  Pt7  1  0.434251  0.192386  0.000000  1
  Pt  Pt8  1  0.683886  0.934841  0.488530  1
  Pt  Pt9  1  0.934841  0.683886  0.488530  1
  Pt  Pt10  1  0.192386  0.434251  0.000000  1
  Pt  Pt11  1  0.316114  0.804643  0.250954  1
  Pt  Pt12  1  0.938842  0.672143  0.000000  1
  Pt  Pt13  1  0.807614  0.807614  0.241865  1
  Pt  Pt14  1  0.065159  0.553688  0.749046  1
  Pt  Pt15  1  0.061158  0.061158  0.733301  1
  Pt  Pt16  1  0.672143  0.938842  0.000000  1
  Pt  Pt17  1  0.565749  0.565749  0.758135  1
  Pt  Pt18  1  0.804643  0.316114  0.250954  1
  Pt  Pt19  1  0.553688  0.065159  0.749046  1
  Pt  Pt20  1  0.195357  0.446312  0.511470  1
  Pt  Pt21  1  0.327857  0.327857  0.266699  1
  Pt  Pt22  1  0.446312  0.195357  0.511470  1
