# generated using pymatgen
data_Hf3Sc5Si16IrRu11
_symmetry_space_group_name_H-M   'P 1'
_cell_length_a   9.94013033
_cell_length_b   9.93787114
_cell_length_c   13.37994032
_cell_angle_alpha   53.84392023
_cell_angle_beta   53.82646632
_cell_angle_gamma   31.05220452
_symmetry_Int_Tables_number   1
_chemical_formula_structural   Hf3Sc5Si16IrRu11
_chemical_formula_sum   'Hf3 Sc5 Si16 Ir1 Ru11'
_cell_volume   538.93919313
_cell_formula_units_Z   1
loop_
 _symmetry_equiv_pos_site_id
 _symmetry_equiv_pos_as_xyz
  1  'x, y, z'
loop_
 _atom_site_type_symbol
 _atom_site_label
 _atom_site_symmetry_multiplicity
 _atom_site_fract_x
 _atom_site_fract_y
 _atom_site_fract_z
 _atom_site_occupancy
  Hf  Hf0  1  0.703874  0.960675  0.864804  1
  Hf  Hf1  1  0.961619  0.704901  0.365309  1
  Hf  Hf2  1  0.294901  0.039105  0.135019  1
  Sc  Sc3  1  0.292493  0.561180  0.645300  1
  Sc  Sc4  1  0.438320  0.708585  0.853486  1
  Sc  Sc5  1  0.708620  0.436994  0.354222  1
  Sc  Sc6  1  0.562503  0.291356  0.147076  1
  Sc  Sc7  1  0.036533  0.294476  0.639118  1
  Si  Si8  1  0.877518  0.122734  0.249807  1
  Si  Si9  1  0.123900  0.876788  0.749237  1
  Si  Si10  1  0.382838  0.617972  0.249413  1
  Si  Si11  1  0.617447  0.382693  0.749662  1
  Si  Si12  1  0.972544  0.254856  0.890987  1
  Si  Si13  1  0.746044  0.025782  0.608224  1
  Si  Si14  1  0.033061  0.742278  0.106765  1
  Si  Si15  1  0.250877  0.974217  0.392844  1
  Si  Si16  1  0.570726  0.087080  0.065001  1
  Si  Si17  1  0.920411  0.422037  0.436467  1
  Si  Si18  1  0.425553  0.917145  0.933178  1
  Si  Si19  1  0.081875  0.572504  0.566931  1
  Si  Si20  1  0.382993  0.148198  0.398941  1
  Si  Si21  1  0.857994  0.610791  0.102180  1
  Si  Si22  1  0.613249  0.855025  0.604799  1
  Si  Si23  1  0.147379  0.385966  0.893766  1
  Ir  Ir24  1  0.645966  0.832920  0.283001  1
  Ru  Ru25  1  0.166837  0.354105  0.217349  1
  Ru  Ru26  1  0.759824  0.484195  0.070834  1
  Ru  Ru27  1  0.829997  0.647986  0.783422  1
  Ru  Ru28  1  0.896191  0.143276  0.585376  1
  Ru  Ru29  1  0.855876  0.100616  0.915973  1
  Ru  Ru30  1  0.103410  0.856325  0.414074  1
  Ru  Ru31  1  0.143691  0.897275  0.085326  1
  Ru  Ru32  1  0.239974  0.516587  0.929800  1
  Ru  Ru33  1  0.486572  0.757711  0.568110  1
  Ru  Ru34  1  0.515449  0.245177  0.426797  1
  Ru  Ru35  1  0.352941  0.170490  0.717404  1
