# generated using pymatgen
data_Nd3Mg2ZrIr3
_symmetry_space_group_name_H-M   'P 1'
_cell_length_a   7.29451600
_cell_length_b   7.45468819
_cell_length_c   4.33339100
_cell_angle_alpha   90.00000000
_cell_angle_beta   90.00000000
_cell_angle_gamma   119.29174589
_symmetry_Int_Tables_number   1
_chemical_formula_structural   Nd3Mg2ZrIr3
_chemical_formula_sum   'Nd3 Mg2 Zr1 Ir3'
_cell_volume   205.51329818
_cell_formula_units_Z   1
loop_
 _symmetry_equiv_pos_site_id
 _symmetry_equiv_pos_as_xyz
  1  'x, y, z'
loop_
 _atom_site_type_symbol
 _atom_site_label
 _atom_site_symmetry_multiplicity
 _atom_site_fract_x
 _atom_site_fract_y
 _atom_site_fract_z
 _atom_site_occupancy
  Nd  Nd0  1  0.599975  0.000000  0.000000  1
  Nd  Nd1  1  0.992074  0.577008  0.000000  1
  Nd  Nd2  1  0.415066  0.422992  0.000000  1
  Mg  Mg3  1  0.999481  0.243356  0.500000  1
  Mg  Mg4  1  0.756125  0.756644  0.500000  1
  Zr  Zr5  1  0.247020  0.000000  0.500000  1
  Ir  Ir6  1  0.321313  0.677781  0.500000  1
  Ir  Ir7  1  0.643533  0.322219  0.500000  1
  Ir  Ir8  1  0.025415  0.000000  0.000000  1
