# generated using pymatgen
data_Nb8InIrS16
_symmetry_space_group_name_H-M   'P 1'
_cell_length_a   6.65037500
_cell_length_b   6.65037501
_cell_length_c   13.40839500
_cell_angle_alpha   90.00000000
_cell_angle_beta   90.00000000
_cell_angle_gamma   119.99999495
_symmetry_Int_Tables_number   1
_chemical_formula_structural   Nb8InIrS16
_chemical_formula_sum   'Nb8 In1 Ir1 S16'
_cell_volume   513.57008668
_cell_formula_units_Z   1
loop_
 _symmetry_equiv_pos_site_id
 _symmetry_equiv_pos_as_xyz
  1  'x, y, z'
loop_
 _atom_site_type_symbol
 _atom_site_label
 _atom_site_symmetry_multiplicity
 _atom_site_fract_x
 _atom_site_fract_y
 _atom_site_fract_z
 _atom_site_occupancy
  Nb  Nb0  1  0.000000  0.000000  0.223510  1
  Nb  Nb1  1  0.000000  0.000000  0.776490  1
  Nb  Nb2  1  0.505458  0.010916  0.221205  1
  Nb  Nb3  1  0.989084  0.494542  0.221205  1
  Nb  Nb4  1  0.505458  0.494542  0.221205  1
  Nb  Nb5  1  0.494542  0.989084  0.778795  1
  Nb  Nb6  1  0.010916  0.505458  0.778795  1
  Nb  Nb7  1  0.494542  0.505458  0.778795  1
  In  In8  1  0.000000  0.000000  0.500000  1
  Ir  Ir9  1  0.000000  0.000000  0.000000  1
  S  S10  1  0.333333  0.666667  0.899194  1
  S  S11  1  0.666667  0.333333  0.100806  1
  S  S12  1  0.666667  0.333333  0.342477  1
  S  S13  1  0.333333  0.666667  0.657523  1
  S  S14  1  0.168307  0.831693  0.339362  1
  S  S15  1  0.168307  0.336612  0.339362  1
  S  S16  1  0.663388  0.831693  0.339362  1
  S  S17  1  0.831693  0.168307  0.660638  1
  S  S18  1  0.831693  0.663388  0.660638  1
  S  S19  1  0.336612  0.168307  0.660638  1
  S  S20  1  0.832958  0.167042  0.893957  1
  S  S21  1  0.832958  0.665919  0.893957  1
  S  S22  1  0.334081  0.167042  0.893957  1
  S  S23  1  0.167042  0.832958  0.106043  1
  S  S24  1  0.167042  0.334081  0.106043  1
  S  S25  1  0.665919  0.832958  0.106043  1
