# generated using pymatgen
data_Tb20PRu11
_symmetry_space_group_name_H-M   'P 1'
_cell_length_a   10.87340557
_cell_length_b   10.87340599
_cell_length_c   6.42310566
_cell_angle_alpha   90.05577265
_cell_angle_beta   90.05577428
_cell_angle_gamma   89.86374417
_symmetry_Int_Tables_number   1
_chemical_formula_structural   Tb20PRu11
_chemical_formula_sum   'Tb20 P1 Ru11'
_cell_volume   759.40703927
_cell_formula_units_Z   1
loop_
 _symmetry_equiv_pos_site_id
 _symmetry_equiv_pos_as_xyz
  1  'x, y, z'
loop_
 _atom_site_type_symbol
 _atom_site_label
 _atom_site_symmetry_multiplicity
 _atom_site_fract_x
 _atom_site_fract_y
 _atom_site_fract_z
 _atom_site_occupancy
  Tb  Tb0  1  0.291439  0.087170  0.378127  1
  Tb  Tb1  1  0.293610  0.915203  0.875633  1
  Tb  Tb2  1  0.708884  0.087223  0.878401  1
  Tb  Tb3  1  0.707798  0.912255  0.379089  1
  Tb  Tb4  1  0.590097  0.793429  0.876981  1
  Tb  Tb5  1  0.587651  0.206360  0.376923  1
  Tb  Tb6  1  0.413938  0.795540  0.377915  1
  Tb  Tb7  1  0.412719  0.208868  0.877650  1
  Tb  Tb8  1  0.206571  0.409903  0.623019  1
  Tb  Tb9  1  0.204460  0.586062  0.122085  1
  Tb  Tb10  1  0.793640  0.412349  0.123077  1
  Tb  Tb11  1  0.791132  0.587281  0.622350  1
  Tb  Tb12  1  0.912830  0.708561  0.121873  1
  Tb  Tb13  1  0.912777  0.291116  0.621599  1
  Tb  Tb14  1  0.084797  0.706390  0.624367  1
  Tb  Tb15  1  0.087745  0.292202  0.120911  1
  Tb  Tb16  1  0.000141  0.999447  0.499553  1
  Tb  Tb17  1  0.000553  0.999859  0.000447  1
  Tb  Tb18  1  0.500798  0.499321  0.000757  1
  Tb  Tb19  1  0.500679  0.499202  0.499243  1
  P  P20  1  0.345590  0.654410  0.750000  1
  Ru  Ru21  1  0.846442  0.153558  0.250000  1
  Ru  Ru22  1  0.847392  0.846520  0.750711  1
  Ru  Ru23  1  0.153480  0.152608  0.749289  1
  Ru  Ru24  1  0.154257  0.845743  0.250000  1
  Ru  Ru25  1  0.652332  0.347668  0.750000  1
  Ru  Ru26  1  0.647396  0.651122  0.252815  1
  Ru  Ru27  1  0.348878  0.352604  0.247185  1
  Ru  Ru28  1  0.500106  0.998045  0.122017  1
  Ru  Ru29  1  0.500327  0.000414  0.624574  1
  Ru  Ru30  1  0.999586  0.499673  0.875426  1
  Ru  Ru31  1  0.001955  0.499894  0.377983  1
