# generated using pymatgen
data_Er12Co4HgRu
_symmetry_space_group_name_H-M   'P 1'
_cell_length_a   8.17750641
_cell_length_b   8.17750600
_cell_length_c   8.17750692
_cell_angle_alpha   111.28054199
_cell_angle_beta   110.68969575
_cell_angle_gamma   106.48466346
_symmetry_Int_Tables_number   1
_chemical_formula_structural   Er12Co4HgRu
_chemical_formula_sum   'Er12 Co4 Hg1 Ru1'
_cell_volume   420.09597513
_cell_formula_units_Z   1
loop_
 _symmetry_equiv_pos_site_id
 _symmetry_equiv_pos_as_xyz
  1  'x, y, z'
loop_
 _atom_site_type_symbol
 _atom_site_label
 _atom_site_symmetry_multiplicity
 _atom_site_fract_x
 _atom_site_fract_y
 _atom_site_fract_z
 _atom_site_occupancy
  Er  Er0  1  0.183546  0.283077  0.466622  1
  Er  Er1  1  0.816454  0.716923  0.533378  1
  Er  Er2  1  0.183546  0.716923  0.900469  1
  Er  Er3  1  0.816454  0.283077  0.099531  1
  Er  Er4  1  0.314110  0.619284  0.305174  1
  Er  Er5  1  0.685890  0.380716  0.694826  1
  Er  Er6  1  0.314110  0.008936  0.694826  1
  Er  Er7  1  0.685890  0.991064  0.305174  1
  Er  Er8  1  0.413641  0.219758  0.193883  1
  Er  Er9  1  0.586359  0.780242  0.806117  1
  Er  Er10  1  0.025874  0.219758  0.806117  1
  Er  Er11  1  0.974126  0.780242  0.193883  1
  Co  Co12  1  0.112471  0.612471  0.500000  1
  Co  Co13  1  0.887529  0.387529  0.500000  1
  Co  Co14  1  0.375063  0.000000  0.375063  1
  Co  Co15  1  0.624937  0.000000  0.624937  1
  Hg  Hg16  1  0.500000  0.500000  0.000000  1
  Ru  Ru17  1  0.000000  0.000000  0.000000  1
