# generated using pymatgen
data_DyScP7IrRu11
_symmetry_space_group_name_H-M   'P 1'
_cell_length_a   9.35310215
_cell_length_b   9.40655230
_cell_length_c   3.93317600
_cell_angle_alpha   90.00000000
_cell_angle_beta   90.00000000
_cell_angle_gamma   119.66200150
_symmetry_Int_Tables_number   1
_chemical_formula_structural   DyScP7IrRu11
_chemical_formula_sum   'Dy1 Sc1 P7 Ir1 Ru11'
_cell_volume   300.69712332
_cell_formula_units_Z   1
loop_
 _symmetry_equiv_pos_site_id
 _symmetry_equiv_pos_as_xyz
  1  'x, y, z'
loop_
 _atom_site_type_symbol
 _atom_site_label
 _atom_site_symmetry_multiplicity
 _atom_site_fract_x
 _atom_site_fract_y
 _atom_site_fract_z
 _atom_site_occupancy
  Dy  Dy0  1  0.331458  0.663473  0.000000  1
  Sc  Sc1  1  0.667723  0.334685  0.500000  1
  P  P2  1  0.599404  0.713500  0.500000  1
  P  P3  1  0.999372  0.000158  0.000000  1
  P  P4  1  0.277257  0.878841  0.500000  1
  P  P5  1  0.117825  0.399596  0.500000  1
  P  P6  1  0.883902  0.574033  0.000000  1
  P  P7  1  0.429857  0.311496  0.000000  1
  P  P8  1  0.694453  0.122557  0.000000  1
  Ir  Ir9  1  0.551128  0.944459  0.500000  1
  Ru  Ru10  1  0.393588  0.441217  0.500000  1
  Ru  Ru11  1  0.912623  0.123558  0.500000  1
  Ru  Ru12  1  0.209400  0.085656  0.500000  1
  Ru  Ru13  1  0.877347  0.793837  0.500000  1
  Ru  Ru14  1  0.726039  0.893675  0.000000  1
  Ru  Ru15  1  0.109636  0.836486  0.000000  1
  Ru  Ru16  1  0.164733  0.271643  0.000000  1
  Ru  Ru17  1  0.431068  0.071728  0.000000  1
  Ru  Ru18  1  0.932144  0.359513  0.000000  1
  Ru  Ru19  1  0.642952  0.574487  0.000000  1
  Ru  Ru20  1  0.048090  0.605404  0.500000  1
