# generated using pymatgen
data_Nd6Al5Ga4Si2Ge
_symmetry_space_group_name_H-M   'P 1'
_cell_length_a   4.31327234
_cell_length_b   4.24164327
_cell_length_c   22.42442381
_cell_angle_alpha   84.58717016
_cell_angle_beta   95.50495828
_cell_angle_gamma   90.01479222
_symmetry_Int_Tables_number   1
_chemical_formula_structural   Nd6Al5Ga4Si2Ge
_chemical_formula_sum   'Nd6 Al5 Ga4 Si2 Ge1'
_cell_volume   406.53381185
_cell_formula_units_Z   1
loop_
 _symmetry_equiv_pos_site_id
 _symmetry_equiv_pos_as_xyz
  1  'x, y, z'
loop_
 _atom_site_type_symbol
 _atom_site_label
 _atom_site_symmetry_multiplicity
 _atom_site_fract_x
 _atom_site_fract_y
 _atom_site_fract_z
 _atom_site_occupancy
  Nd  Nd0  1  0.374719  0.875691  0.249032  1
  Nd  Nd1  1  0.040819  0.208626  0.581376  1
  Nd  Nd2  1  0.707542  0.542090  0.915283  1
  Nd  Nd3  1  0.291566  0.458492  0.083428  1
  Nd  Nd4  1  0.958939  0.791469  0.418284  1
  Nd  Nd5  1  0.626146  0.123712  0.752457  1
  Al  Al6  1  0.430696  0.318514  0.361376  1
  Al  Al7  1  0.097381  0.652713  0.694902  1
  Al  Al8  1  0.849437  0.401958  0.196133  1
  Al  Al9  1  0.514906  0.735899  0.528314  1
  Al  Al10  1  0.181210  0.068858  0.861951  1
  Ga  Ga11  1  0.903369  0.346807  0.306550  1
  Ga  Ga12  1  0.569853  0.681375  0.639402  1
  Ga  Ga13  1  0.236430  0.014614  0.972520  1
  Ga  Ga14  1  0.762982  0.986541  0.025938  1
  Si  Si15  1  0.484751  0.264121  0.471067  1
  Si  Si16  1  0.151794  0.597292  0.804849  1
  Ge  Ge17  1  0.817460  0.931229  0.137138  1
