# generated using pymatgen
data_Tm4FeReOs6
_symmetry_space_group_name_H-M   'P 1'
_cell_length_a   5.37524405
_cell_length_b   5.21419815
_cell_length_c   8.81407600
_cell_angle_alpha   90.00000000
_cell_angle_beta   90.00000000
_cell_angle_gamma   120.88222822
_symmetry_Int_Tables_number   1
_chemical_formula_structural   Tm4FeReOs6
_chemical_formula_sum   'Tm4 Fe1 Re1 Os6'
_cell_volume   212.01336654
_cell_formula_units_Z   1
loop_
 _symmetry_equiv_pos_site_id
 _symmetry_equiv_pos_as_xyz
  1  'x, y, z'
loop_
 _atom_site_type_symbol
 _atom_site_label
 _atom_site_symmetry_multiplicity
 _atom_site_fract_x
 _atom_site_fract_y
 _atom_site_fract_z
 _atom_site_occupancy
  Tm  Tm0  1  0.671619  0.342425  0.562187  1
  Tm  Tm1  1  0.332760  0.665846  0.434104  1
  Tm  Tm2  1  0.332760  0.665846  0.065896  1
  Tm  Tm3  1  0.671619  0.342425  0.937813  1
  Fe  Fe4  1  0.831048  0.663145  0.250000  1
  Re  Re5  1  0.161470  0.322784  0.750000  1
  Os  Os6  1  0.007084  0.012331  0.497012  1
  Os  Os7  1  0.007084  0.012331  0.002988  1
  Os  Os8  1  0.171723  0.820230  0.750000  1
  Os  Os9  1  0.646699  0.819818  0.750000  1
  Os  Os10  1  0.822464  0.166711  0.250000  1
  Os  Os11  1  0.343668  0.166109  0.250000  1
