# generated using pymatgen
data_Ba10TlSi4Ge
_symmetry_space_group_name_H-M   'P 1'
_cell_length_a   8.56229500
_cell_length_b   10.51998145
_cell_length_c   8.56229500
_cell_angle_alpha   114.01362976
_cell_angle_beta   90.00000000
_cell_angle_gamma   114.01362976
_symmetry_Int_Tables_number   1
_chemical_formula_structural   Ba10TlSi4Ge
_chemical_formula_sum   'Ba10 Tl1 Si4 Ge1'
_cell_volume   630.71912578
_cell_formula_units_Z   1
loop_
 _symmetry_equiv_pos_site_id
 _symmetry_equiv_pos_as_xyz
  1  'x, y, z'
loop_
 _atom_site_type_symbol
 _atom_site_label
 _atom_site_symmetry_multiplicity
 _atom_site_fract_x
 _atom_site_fract_y
 _atom_site_fract_z
 _atom_site_occupancy
  Ba  Ba0  1  0.976201  0.952401  0.976201  1
  Ba  Ba1  1  0.523799  0.047599  0.523799  1
  Ba  Ba2  1  0.526279  0.722517  0.668466  1
  Ba  Ba3  1  0.196240  0.722517  0.054052  1
  Ba  Ba4  1  0.668466  0.722517  0.196240  1
  Ba  Ba5  1  0.054052  0.722517  0.526279  1
  Ba  Ba6  1  0.445948  0.277483  0.303760  1
  Ba  Ba7  1  0.831534  0.277483  0.973721  1
  Ba  Ba8  1  0.303760  0.277483  0.831534  1
  Ba  Ba9  1  0.973721  0.277483  0.445948  1
  Tl  Tl10  1  0.750000  0.500000  0.750000  1
  Si  Si11  1  0.898827  0.000000  0.601173  1
  Si  Si12  1  0.101173  0.000000  0.398827  1
  Si  Si13  1  0.601173  0.000000  0.101173  1
  Si  Si14  1  0.398827  0.000000  0.898827  1
  Ge  Ge15  1  0.250000  0.500000  0.250000  1
