# generated using pymatgen
data_Tm4Al6MoIr
_symmetry_space_group_name_H-M   'P 1'
_cell_length_a   5.46413600
_cell_length_b   5.46413413
_cell_length_c   8.88526100
_cell_angle_alpha   90.00000000
_cell_angle_beta   90.00000000
_cell_angle_gamma   119.99999923
_symmetry_Int_Tables_number   1
_chemical_formula_structural   Tm4Al6MoIr
_chemical_formula_sum   'Tm4 Al6 Mo1 Ir1'
_cell_volume   229.74373440
_cell_formula_units_Z   1
loop_
 _symmetry_equiv_pos_site_id
 _symmetry_equiv_pos_as_xyz
  1  'x, y, z'
loop_
 _atom_site_type_symbol
 _atom_site_label
 _atom_site_symmetry_multiplicity
 _atom_site_fract_x
 _atom_site_fract_y
 _atom_site_fract_z
 _atom_site_occupancy
  Tm  Tm0  1  0.666668  0.333334  0.053315  1
  Tm  Tm1  1  0.666668  0.333334  0.446126  1
  Tm  Tm2  1  0.333333  0.666666  0.553875  1
  Tm  Tm3  1  0.333333  0.666666  0.946684  1
  Al  Al4  1  0.163967  0.327931  0.254694  1
  Al  Al5  1  0.163966  0.836033  0.254694  1
  Al  Al6  1  0.672068  0.836033  0.254694  1
  Al  Al7  1  0.327931  0.163966  0.745305  1
  Al  Al8  1  0.836033  0.163966  0.745305  1
  Al  Al9  1  0.836034  0.672069  0.745305  1
  Mo  Mo10  1  0.000000  0.000000  0.000000  1
  Ir  Ir11  1  0.000000  0.000000  0.500000  1
