# generated using pymatgen
data_Er15Tm(In3Cu)2
_symmetry_space_group_name_H-M   'P 1'
_cell_length_a   10.47750900
_cell_length_b   10.47751103
_cell_length_c   6.80313200
_cell_angle_alpha   89.99993485
_cell_angle_beta   90.00041835
_cell_angle_gamma   120.00065319
_symmetry_Int_Tables_number   1
_chemical_formula_structural   Er15Tm(In3Cu)2
_chemical_formula_sum   'Er15 Tm1 In6 Cu2'
_cell_volume   646.77442739
_cell_formula_units_Z   1
loop_
 _symmetry_equiv_pos_site_id
 _symmetry_equiv_pos_as_xyz
  1  'x, y, z'
loop_
 _atom_site_type_symbol
 _atom_site_label
 _atom_site_symmetry_multiplicity
 _atom_site_fract_x
 _atom_site_fract_y
 _atom_site_fract_z
 _atom_site_occupancy
  Er  Er0  1  0.525950  0.051907  0.518414  1
  Er  Er1  1  0.948100  0.474047  0.518411  1
  Er  Er2  1  0.525943  0.474047  0.518410  1
  Er  Er3  1  0.474008  0.948013  0.018345  1
  Er  Er4  1  0.051990  0.525998  0.018339  1
  Er  Er5  1  0.474011  0.525988  0.018336  1
  Er  Er6  1  0.175514  0.350999  0.729155  1
  Er  Er7  1  0.648991  0.824480  0.729158  1
  Er  Er8  1  0.175506  0.824492  0.729154  1
  Er  Er9  1  0.824533  0.649096  0.228945  1
  Er  Er10  1  0.350916  0.175476  0.228950  1
  Er  Er11  1  0.824540  0.175460  0.228944  1
  Er  Er12  1  0.666663  0.333331  0.889738  1
  Er  Er13  1  0.333336  0.666664  0.389718  1
  Er  Er14  1  0.999996  0.000000  0.496596  1
  Tm  Tm15  1  0.000000  0.999997  0.996563  1
  In  In16  1  0.836268  0.672547  0.752917  1
  In  In17  1  0.327450  0.163727  0.752915  1
  In  In18  1  0.836271  0.163727  0.752915  1
  In  In19  1  0.163736  0.327455  0.252694  1
  In  In20  1  0.672550  0.836273  0.252694  1
  In  In21  1  0.163735  0.836276  0.252691  1
  Cu  Cu22  1  0.666664  0.333316  0.292034  1
  Cu  Cu23  1  0.333330  0.666684  0.791971  1
