# generated using pymatgen
data_Li4Nd3Er(Si2Pb)2
_symmetry_space_group_name_H-M   'P 1'
_cell_length_a   9.79372282
_cell_length_b   9.79372291
_cell_length_c   6.92217200
_cell_angle_alpha   90.00000000
_cell_angle_beta   90.00000000
_cell_angle_gamma   153.57512433
_symmetry_Int_Tables_number   1
_chemical_formula_structural   Li4Nd3Er(Si2Pb)2
_chemical_formula_sum   'Li4 Nd3 Er1 Si4 Pb2'
_cell_volume   295.47548993
_cell_formula_units_Z   1
loop_
 _symmetry_equiv_pos_site_id
 _symmetry_equiv_pos_as_xyz
  1  'x, y, z'
loop_
 _atom_site_type_symbol
 _atom_site_label
 _atom_site_symmetry_multiplicity
 _atom_site_fract_x
 _atom_site_fract_y
 _atom_site_fract_z
 _atom_site_occupancy
  Li  Li0  1  0.183177  0.816823  0.055091  1
  Li  Li1  1  0.183177  0.816823  0.444909  1
  Li  Li2  1  0.817676  0.182324  0.947345  1
  Li  Li3  1  0.817676  0.182324  0.552655  1
  Nd  Nd4  1  0.647848  0.352152  0.750000  1
  Nd  Nd5  1  0.547444  0.452556  0.250000  1
  Nd  Nd6  1  0.450814  0.549186  0.750000  1
  Er  Er7  1  0.353965  0.646035  0.250000  1
  Si  Si8  1  0.055783  0.944217  0.925212  1
  Si  Si9  1  0.941988  0.058012  0.076331  1
  Si  Si10  1  0.941988  0.058012  0.423669  1
  Si  Si11  1  0.055783  0.944217  0.574788  1
  Pb  Pb12  1  0.722038  0.277962  0.250000  1
  Pb  Pb13  1  0.280642  0.719358  0.750000  1
