# generated using pymatgen
data_Ta9Al3ZnCu
_symmetry_space_group_name_H-M   'P 1'
_cell_length_a   9.90450086
_cell_length_b   9.92449028
_cell_length_c   9.90450003
_cell_angle_alpha   93.82409691
_cell_angle_beta   93.72942553
_cell_angle_gamma   150.04049323
_symmetry_Int_Tables_number   1
_chemical_formula_structural   Ta9Al3ZnCu
_chemical_formula_sum   'Ta18 Al6 Zn2 Cu2'
_cell_volume   470.14375584
_cell_formula_units_Z   2
loop_
 _symmetry_equiv_pos_site_id
 _symmetry_equiv_pos_as_xyz
  1  'x, y, z'
loop_
 _atom_site_type_symbol
 _atom_site_label
 _atom_site_symmetry_multiplicity
 _atom_site_fract_x
 _atom_site_fract_y
 _atom_site_fract_z
 _atom_site_occupancy
  Ta  Ta0  1  0.565938  0.793478  0.356433  1
  Ta  Ta1  1  0.081928  0.157116  0.241448  1
  Ta  Ta2  1  0.584334  0.342884  0.924812  1
  Ta  Ta3  1  0.656534  0.581288  0.241505  1
  Ta  Ta4  1  0.343466  0.418712  0.758495  1
  Ta  Ta5  1  0.791657  0.435318  0.227605  1
  Ta  Ta6  1  0.415666  0.657116  0.075188  1
  Ta  Ta7  1  0.160216  0.918712  0.075247  1
  Ta  Ta8  1  0.707714  0.935318  0.643661  1
  Ta  Ta9  1  0.434062  0.206522  0.643567  1
  Ta  Ta10  1  0.918072  0.842884  0.758552  1
  Ta  Ta11  1  0.062955  0.706522  0.772460  1
  Ta  Ta12  1  0.208343  0.564682  0.772395  1
  Ta  Ta13  1  0.250434  0.750000  0.500434  1
  Ta  Ta14  1  0.292286  0.064682  0.356339  1
  Ta  Ta15  1  0.749566  0.250000  0.499566  1
  Ta  Ta16  1  0.839784  0.081288  0.924753  1
  Ta  Ta17  1  0.937045  0.293478  0.227540  1
  Al  Al18  1  0.375621  0.875607  0.239694  1
  Al  Al19  1  0.864087  0.624393  0.500013  1
  Al  Al20  1  0.135913  0.375607  0.499987  1
  Al  Al21  1  0.624379  0.124393  0.760306  1
  Al  Al22  1  0.000000  0.500000  0.000000  1
  Al  Al23  1  0.000000  0.000000  0.500000  1
  Zn  Zn24  1  0.750442  0.750000  0.000442  1
  Zn  Zn25  1  0.249558  0.250000  0.999558  1
  Cu  Cu26  1  0.500000  0.000000  0.000000  1
  Cu  Cu27  1  0.500000  0.500000  0.500000  1
