# generated using pymatgen
data_Tb2Dy4LuRh3
_symmetry_space_group_name_H-M   'P 1'
_cell_length_a   9.78898200
_cell_length_b   9.78722704
_cell_length_c   6.16175800
_cell_angle_alpha   89.99928859
_cell_angle_beta   90.00000000
_cell_angle_gamma   120.00593850
_symmetry_Int_Tables_number   1
_chemical_formula_structural   Tb2Dy4LuRh3
_chemical_formula_sum   'Tb4 Dy8 Lu2 Rh6'
_cell_volume   511.21839312
_cell_formula_units_Z   2
loop_
 _symmetry_equiv_pos_site_id
 _symmetry_equiv_pos_as_xyz
  1  'x, y, z'
loop_
 _atom_site_type_symbol
 _atom_site_label
 _atom_site_symmetry_multiplicity
 _atom_site_fract_x
 _atom_site_fract_y
 _atom_site_fract_z
 _atom_site_occupancy
  Tb  Tb0  1  0.876022  0.752044  0.741024  1
  Tb  Tb1  1  0.248024  0.123929  0.741027  1
  Tb  Tb2  1  0.875905  0.123929  0.741027  1
  Tb  Tb3  1  0.123896  0.247792  0.240997  1
  Dy  Dy4  1  0.752004  0.875915  0.240738  1
  Dy  Dy5  1  0.123911  0.875915  0.240738  1
  Dy  Dy6  1  0.458990  0.917981  0.547182  1
  Dy  Dy7  1  0.082057  0.541111  0.547278  1
  Dy  Dy8  1  0.459052  0.541111  0.547278  1
  Dy  Dy9  1  0.540969  0.081936  0.047359  1
  Dy  Dy10  1  0.918026  0.459092  0.047452  1
  Dy  Dy11  1  0.541068  0.459092  0.047452  1
  Lu  Lu12  1  0.666667  0.333334  0.533185  1
  Lu  Lu13  1  0.333380  0.666761  0.033259  1
  Rh  Rh14  1  0.191079  0.382156  0.814126  1
  Rh  Rh15  1  0.618001  0.809023  0.814486  1
  Rh  Rh16  1  0.191024  0.809023  0.814486  1
  Rh  Rh17  1  0.809127  0.618256  0.314058  1
  Rh  Rh18  1  0.381940  0.190800  0.314142  1
  Rh  Rh19  1  0.808858  0.190800  0.314142  1
