# generated using pymatgen
data_Ho3ErOsRu7
_symmetry_space_group_name_H-M   'P 1'
_cell_length_a   5.35537745
_cell_length_b   5.20894834
_cell_length_c   8.93931800
_cell_angle_alpha   89.99697840
_cell_angle_beta   90.00039587
_cell_angle_gamma   120.55350372
_symmetry_Int_Tables_number   1
_chemical_formula_structural   Ho3ErOsRu7
_chemical_formula_sum   'Ho3 Er1 Os1 Ru7'
_cell_volume   214.74633857
_cell_formula_units_Z   1
loop_
 _symmetry_equiv_pos_site_id
 _symmetry_equiv_pos_as_xyz
  1  'x, y, z'
loop_
 _atom_site_type_symbol
 _atom_site_label
 _atom_site_symmetry_multiplicity
 _atom_site_fract_x
 _atom_site_fract_y
 _atom_site_fract_z
 _atom_site_occupancy
  Ho  Ho0  1  0.334802  0.671084  0.433223  1
  Ho  Ho1  1  0.334739  0.670881  0.067000  1
  Ho  Ho2  1  0.670799  0.339739  0.933433  1
  Er  Er3  1  0.671043  0.340169  0.566481  1
  Os  Os4  1  0.162573  0.325038  0.749688  1
  Ru  Ru5  1  0.007509  0.014051  0.500048  1
  Ru  Ru6  1  0.007619  0.013869  0.999984  1
  Ru  Ru7  1  0.169384  0.821166  0.749652  1
  Ru  Ru8  1  0.647583  0.818808  0.749699  1
  Ru  Ru9  1  0.824141  0.649106  0.250423  1
  Ru  Ru10  1  0.832753  0.166427  0.250144  1
  Ru  Ru11  1  0.337054  0.169662  0.250226  1
