# generated using pymatgen
data_Tb3Dy9TcOs3
_symmetry_space_group_name_H-M   'P 1'
_cell_length_a   6.31061760
_cell_length_b   7.41058833
_cell_length_c   9.11449700
_cell_angle_alpha   90.00000000
_cell_angle_beta   90.00000000
_cell_angle_gamma   90.02928672
_symmetry_Int_Tables_number   1
_chemical_formula_structural   Tb3Dy9TcOs3
_chemical_formula_sum   'Tb3 Dy9 Tc1 Os3'
_cell_volume   426.24294380
_cell_formula_units_Z   1
loop_
 _symmetry_equiv_pos_site_id
 _symmetry_equiv_pos_as_xyz
  1  'x, y, z'
loop_
 _atom_site_type_symbol
 _atom_site_label
 _atom_site_symmetry_multiplicity
 _atom_site_fract_x
 _atom_site_fract_y
 _atom_site_fract_z
 _atom_site_occupancy
  Tb  Tb0  1  0.870654  0.540092  0.250000  1
  Tb  Tb1  1  0.627829  0.040051  0.250000  1
  Tb  Tb2  1  0.131456  0.459185  0.750000  1
  Dy  Dy3  1  0.334071  0.674623  0.063119  1
  Dy  Dy4  1  0.166928  0.174947  0.436528  1
  Dy  Dy5  1  0.668318  0.324787  0.563306  1
  Dy  Dy6  1  0.832874  0.825139  0.936195  1
  Dy  Dy7  1  0.668318  0.324787  0.936694  1
  Dy  Dy8  1  0.832874  0.825139  0.563805  1
  Dy  Dy9  1  0.334071  0.674623  0.436881  1
  Dy  Dy10  1  0.166928  0.174947  0.063472  1
  Dy  Dy11  1  0.368226  0.959994  0.750000  1
  Tc  Tc12  1  0.039109  0.884678  0.250000  1
  Os  Os13  1  0.459068  0.383826  0.250000  1
  Os  Os14  1  0.958991  0.116868  0.750000  1
  Os  Os15  1  0.540287  0.616313  0.750000  1
