# generated using pymatgen
data_GaCoMo3N
_symmetry_space_group_name_H-M   'P 1'
_cell_length_a   6.75180700
_cell_length_b   6.75180700
_cell_length_c   6.75180700
_cell_angle_alpha   90.00000000
_cell_angle_beta   90.00000000
_cell_angle_gamma   90.00000000
_symmetry_Int_Tables_number   1
_chemical_formula_structural   GaCoMo3N
_chemical_formula_sum   'Ga4 Co4 Mo12 N4'
_cell_volume   307.79393544
_cell_formula_units_Z   4
loop_
 _symmetry_equiv_pos_site_id
 _symmetry_equiv_pos_as_xyz
  1  'x, y, z'
loop_
 _atom_site_type_symbol
 _atom_site_label
 _atom_site_symmetry_multiplicity
 _atom_site_fract_x
 _atom_site_fract_y
 _atom_site_fract_z
 _atom_site_occupancy
  Ga  Ga0  1  0.179042  0.820958  0.320958  1
  Ga  Ga1  1  0.320958  0.179042  0.820958  1
  Ga  Ga2  1  0.820958  0.320958  0.179042  1
  Ga  Ga3  1  0.679042  0.679042  0.679042  1
  Co  Co4  1  0.568327  0.431673  0.931673  1
  Co  Co5  1  0.431673  0.931673  0.568327  1
  Co  Co6  1  0.931673  0.568327  0.431673  1
  Co  Co7  1  0.068327  0.068327  0.068327  1
  Mo  Mo8  1  0.797165  0.956747  0.375792  1
  Mo  Mo9  1  0.702835  0.043253  0.875792  1
  Mo  Mo10  1  0.202835  0.456747  0.124208  1
  Mo  Mo11  1  0.297165  0.543253  0.624208  1
  Mo  Mo12  1  0.956747  0.375792  0.797165  1
  Mo  Mo13  1  0.043253  0.875792  0.702835  1
  Mo  Mo14  1  0.456747  0.124208  0.202835  1
  Mo  Mo15  1  0.543253  0.624208  0.297165  1
  Mo  Mo16  1  0.375792  0.797165  0.956747  1
  Mo  Mo17  1  0.875792  0.702835  0.043253  1
  Mo  Mo18  1  0.124208  0.202835  0.456747  1
  Mo  Mo19  1  0.624208  0.297165  0.543253  1
  N  N20  1  0.872492  0.127508  0.627508  1
  N  N21  1  0.627508  0.872492  0.127508  1
  N  N22  1  0.127508  0.627508  0.872492  1
  N  N23  1  0.372492  0.372492  0.372492  1
