# generated using pymatgen
data_Li3Tb2DyInGe2
_symmetry_space_group_name_H-M   'P 1'
_cell_length_a   7.26619221
_cell_length_b   7.27346162
_cell_length_c   4.27281200
_cell_angle_alpha   90.00000000
_cell_angle_beta   90.00000000
_cell_angle_gamma   120.03309495
_symmetry_Int_Tables_number   1
_chemical_formula_structural   Li3Tb2DyInGe2
_chemical_formula_sum   'Li3 Tb2 Dy1 In1 Ge2'
_cell_volume   195.50034211
_cell_formula_units_Z   1
loop_
 _symmetry_equiv_pos_site_id
 _symmetry_equiv_pos_as_xyz
  1  'x, y, z'
loop_
 _atom_site_type_symbol
 _atom_site_label
 _atom_site_symmetry_multiplicity
 _atom_site_fract_x
 _atom_site_fract_y
 _atom_site_fract_z
 _atom_site_occupancy
  Li  Li0  1  0.749325  0.749278  0.500000  1
  Li  Li1  1  0.250675  0.999952  0.500000  1
  Li  Li2  1  0.000000  0.250807  0.500000  1
  Tb  Tb3  1  0.441587  0.441611  0.000000  1
  Tb  Tb4  1  0.558413  0.000024  0.000000  1
  Dy  Dy5  1  0.000000  0.558400  0.000000  1
  In  In6  1  0.000000  0.999789  0.000000  1
  Ge  Ge7  1  0.667054  0.333596  0.500000  1
  Ge  Ge8  1  0.332946  0.666543  0.500000  1
