# generated using pymatgen
data_Nd2B2Pd6PtAu
_symmetry_space_group_name_H-M   'P 1'
_cell_length_a   5.52569017
_cell_length_b   5.52568893
_cell_length_c   7.69885994
_cell_angle_alpha   90.10032650
_cell_angle_beta   89.89967649
_cell_angle_gamma   120.01637945
_symmetry_Int_Tables_number   1
_chemical_formula_structural   Nd2B2Pd6PtAu
_chemical_formula_sum   'Nd2 B2 Pd6 Pt1 Au1'
_cell_volume   203.54358606
_cell_formula_units_Z   1
loop_
 _symmetry_equiv_pos_site_id
 _symmetry_equiv_pos_as_xyz
  1  'x, y, z'
loop_
 _atom_site_type_symbol
 _atom_site_label
 _atom_site_symmetry_multiplicity
 _atom_site_fract_x
 _atom_site_fract_y
 _atom_site_fract_z
 _atom_site_occupancy
  Nd  Nd0  1  0.000028  0.999972  0.501509  1
  Nd  Nd1  1  0.000016  0.999984  0.000249  1
  B  B2  1  0.335229  0.664771  0.998851  1
  B  B3  1  0.664864  0.335136  0.999054  1
  Pd  Pd4  1  0.666354  0.333646  0.499575  1
  Pd  Pd5  1  0.500340  0.000855  0.193689  1
  Pd  Pd6  1  0.500337  0.000613  0.804767  1
  Pd  Pd7  1  0.999145  0.499660  0.193689  1
  Pd  Pd8  1  0.999387  0.499663  0.804767  1
  Pd  Pd9  1  0.500331  0.499669  0.196873  1
  Pt  Pt10  1  0.500756  0.499244  0.807959  1
  Au  Au11  1  0.333213  0.666787  0.499019  1
