# generated using pymatgen
data_Ce2SmLu3(Co3P2)6
_symmetry_space_group_name_H-M   'P 1'
_cell_length_a   3.70043500
_cell_length_b   10.53438085
_cell_length_c   12.13869131
_cell_angle_alpha   89.91549886
_cell_angle_beta   90.00000000
_cell_angle_gamma   90.00000000
_symmetry_Int_Tables_number   1
_chemical_formula_structural   Ce2SmLu3(Co3P2)6
_chemical_formula_sum   'Ce2 Sm1 Lu3 Co18 P12'
_cell_volume   473.18742060
_cell_formula_units_Z   1
loop_
 _symmetry_equiv_pos_site_id
 _symmetry_equiv_pos_as_xyz
  1  'x, y, z'
loop_
 _atom_site_type_symbol
 _atom_site_label
 _atom_site_symmetry_multiplicity
 _atom_site_fract_x
 _atom_site_fract_y
 _atom_site_fract_z
 _atom_site_occupancy
  Ce  Ce0  1  0.000000  0.500128  0.527309  1
  Ce  Ce1  1  0.500000  0.001105  0.473754  1
  Sm  Sm2  1  0.500000  0.816185  0.204878  1
  Lu  Lu3  1  0.500000  0.184977  0.204296  1
  Lu  Lu4  1  0.000000  0.683468  0.796080  1
  Lu  Lu5  1  0.000000  0.316073  0.794414  1
  Co  Co6  1  0.500000  0.499120  0.157068  1
  Co  Co7  1  0.000000  0.001306  0.842534  1
  Co  Co8  1  0.500000  0.499345  0.701753  1
  Co  Co9  1  0.000000  0.002819  0.299225  1
  Co  Co10  1  0.000000  0.498252  0.983121  1
  Co  Co11  1  0.500000  0.001844  0.013085  1
  Co  Co12  1  0.500000  0.333230  0.993342  1
  Co  Co13  1  0.500000  0.664724  0.992317  1
  Co  Co14  1  0.000000  0.168102  0.004617  1
  Co  Co15  1  0.000000  0.833508  0.003581  1
  Co  Co16  1  0.500000  0.299408  0.429760  1
  Co  Co17  1  0.500000  0.700421  0.433057  1
  Co  Co18  1  0.000000  0.201536  0.570085  1
  Co  Co19  1  0.000000  0.798813  0.572641  1
  Co  Co20  1  0.500000  0.879247  0.713318  1
  Co  Co21  1  0.500000  0.120937  0.711698  1
  Co  Co22  1  0.000000  0.617990  0.290076  1
  Co  Co23  1  0.000000  0.378576  0.287149  1
  P  P24  1  0.500000  0.498925  0.879570  1
  P  P25  1  0.000000  0.003202  0.117555  1
  P  P26  1  0.500000  0.499870  0.342342  1
  P  P27  1  0.000000  0.000034  0.658309  1
  P  P28  1  0.500000  0.307167  0.618024  1
  P  P29  1  0.500000  0.692453  0.620278  1
  P  P30  1  0.000000  0.193964  0.381748  1
  P  P31  1  0.000000  0.806345  0.386379  1
  P  P32  1  0.500000  0.845947  0.894130  1
  P  P33  1  0.500000  0.154577  0.892470  1
  P  P34  1  0.000000  0.649923  0.104214  1
  P  P35  1  0.000000  0.346478  0.105824  1
