# generated using pymatgen
data_Tb5Nd3(CdIr)2
_symmetry_space_group_name_H-M   'P 1'
_cell_length_a   9.76896451
_cell_length_b   9.76896474
_cell_length_c   9.76896400
_cell_angle_alpha   59.99999574
_cell_angle_beta   59.99999494
_cell_angle_gamma   59.99999742
_symmetry_Int_Tables_number   1
_chemical_formula_structural   Tb5Nd3(CdIr)2
_chemical_formula_sum   'Tb10 Nd6 Cd4 Ir4'
_cell_volume   659.22025988
_cell_formula_units_Z   2
loop_
 _symmetry_equiv_pos_site_id
 _symmetry_equiv_pos_as_xyz
  1  'x, y, z'
loop_
 _atom_site_type_symbol
 _atom_site_label
 _atom_site_symmetry_multiplicity
 _atom_site_fract_x
 _atom_site_fract_y
 _atom_site_fract_z
 _atom_site_occupancy
  Tb  Tb0  1  0.347802  0.347802  0.347802  1
  Tb  Tb1  1  0.347802  0.347802  0.956594  1
  Tb  Tb2  1  0.347802  0.956594  0.347802  1
  Tb  Tb3  1  0.956594  0.347802  0.347802  1
  Tb  Tb4  1  0.811601  0.188399  0.188399  1
  Tb  Tb5  1  0.188399  0.811601  0.811601  1
  Tb  Tb6  1  0.188399  0.811601  0.188399  1
  Tb  Tb7  1  0.811601  0.188399  0.811601  1
  Tb  Tb8  1  0.188399  0.188399  0.811601  1
  Tb  Tb9  1  0.811601  0.811601  0.188399  1
  Nd  Nd10  1  0.941272  0.558728  0.558728  1
  Nd  Nd11  1  0.558728  0.941272  0.941272  1
  Nd  Nd12  1  0.558728  0.941272  0.558728  1
  Nd  Nd13  1  0.941272  0.558728  0.941272  1
  Nd  Nd14  1  0.558728  0.558728  0.941272  1
  Nd  Nd15  1  0.941272  0.941272  0.558728  1
  Cd  Cd16  1  0.579823  0.579823  0.579823  1
  Cd  Cd17  1  0.579823  0.579823  0.260530  1
  Cd  Cd18  1  0.579823  0.260530  0.579823  1
  Cd  Cd19  1  0.260530  0.579823  0.579823  1
  Ir  Ir20  1  0.141223  0.141223  0.141223  1
  Ir  Ir21  1  0.141223  0.141223  0.576331  1
  Ir  Ir22  1  0.141223  0.576331  0.141223  1
  Ir  Ir23  1  0.576331  0.141223  0.141223  1
