# generated using pymatgen
data_MnNb2P2Ir
_symmetry_space_group_name_H-M   'P 1'
_cell_length_a   3.69361200
_cell_length_b   6.31237513
_cell_length_c   7.13243071
_cell_angle_alpha   88.93623350
_cell_angle_beta   90.00000000
_cell_angle_gamma   90.00000000
_symmetry_Int_Tables_number   1
_chemical_formula_structural   MnNb2P2Ir
_chemical_formula_sum   'Mn2 Nb4 P4 Ir2'
_cell_volume   166.26727452
_cell_formula_units_Z   2
loop_
 _symmetry_equiv_pos_site_id
 _symmetry_equiv_pos_as_xyz
  1  'x, y, z'
loop_
 _atom_site_type_symbol
 _atom_site_label
 _atom_site_symmetry_multiplicity
 _atom_site_fract_x
 _atom_site_fract_y
 _atom_site_fract_z
 _atom_site_occupancy
  Mn  Mn0  1  0.750000  0.358295  0.941318  1
  Mn  Mn1  1  0.250000  0.641705  0.058682  1
  Nb  Nb2  1  0.250000  0.521099  0.679895  1
  Nb  Nb3  1  0.750000  0.478901  0.320105  1
  Nb  Nb4  1  0.250000  0.026691  0.835316  1
  Nb  Nb5  1  0.750000  0.973309  0.164684  1
  P  P6  1  0.250000  0.283521  0.110840  1
  P  P7  1  0.750000  0.716479  0.889160  1
  P  P8  1  0.250000  0.762043  0.361962  1
  P  P9  1  0.750000  0.237957  0.638038  1
  Ir  Ir10  1  0.750000  0.851384  0.566231  1
  Ir  Ir11  1  0.250000  0.148616  0.433769  1
