# generated using pymatgen
data_Hf3Sc4NbOs8
_symmetry_space_group_name_H-M   'P 1'
_cell_length_a   6.41659900
_cell_length_b   4.57716400
_cell_length_c   9.15415500
_cell_angle_alpha   90.00000000
_cell_angle_beta   90.00014387
_cell_angle_gamma   90.00000000
_symmetry_Int_Tables_number   1
_chemical_formula_structural   Hf3Sc4NbOs8
_chemical_formula_sum   'Hf3 Sc4 Nb1 Os8'
_cell_volume   268.85593903
_cell_formula_units_Z   1
loop_
 _symmetry_equiv_pos_site_id
 _symmetry_equiv_pos_as_xyz
  1  'x, y, z'
loop_
 _atom_site_type_symbol
 _atom_site_label
 _atom_site_symmetry_multiplicity
 _atom_site_fract_x
 _atom_site_fract_y
 _atom_site_fract_z
 _atom_site_occupancy
  Hf  Hf0  1  0.250002  0.250001  0.124743  1
  Hf  Hf1  1  0.750004  0.749999  0.374999  1
  Hf  Hf2  1  0.249997  0.250001  0.625252  1
  Sc  Sc3  1  0.750002  0.250001  0.125132  1
  Sc  Sc4  1  0.249994  0.749999  0.375008  1
  Sc  Sc5  1  0.749979  0.250001  0.624846  1
  Sc  Sc6  1  0.250004  0.749999  0.874995  1
  Nb  Nb7  1  0.749996  0.749999  0.875012  1
  Os  Os8  1  0.502471  0.749999  0.120977  1
  Os  Os9  1  0.997534  0.749999  0.120981  1
  Os  Os10  1  0.500134  0.250001  0.375009  1
  Os  Os11  1  0.999877  0.250001  0.375007  1
  Os  Os12  1  0.997537  0.749999  0.629027  1
  Os  Os13  1  0.502468  0.749999  0.629028  1
  Os  Os14  1  0.994070  0.250001  0.874993  1
  Os  Os15  1  0.505932  0.250001  0.874993  1
