# generated using pymatgen
data_CuBiPdS3
_symmetry_space_group_name_H-M   'P 1'
_cell_length_a   5.02836100
_cell_length_b   7.72601900
_cell_length_c   12.78110600
_cell_angle_alpha   90.00000000
_cell_angle_beta   90.00000000
_cell_angle_gamma   90.00000000
_symmetry_Int_Tables_number   1
_chemical_formula_structural   CuBiPdS3
_chemical_formula_sum   'Cu4 Bi4 Pd4 S12'
_cell_volume   496.53590457
_cell_formula_units_Z   4
loop_
 _symmetry_equiv_pos_site_id
 _symmetry_equiv_pos_as_xyz
  1  'x, y, z'
loop_
 _atom_site_type_symbol
 _atom_site_label
 _atom_site_symmetry_multiplicity
 _atom_site_fract_x
 _atom_site_fract_y
 _atom_site_fract_z
 _atom_site_occupancy
  Cu  Cu0  1  0.477911  0.884820  0.437851  1
  Cu  Cu1  1  0.977911  0.615180  0.562149  1
  Cu  Cu2  1  0.522089  0.384820  0.062149  1
  Cu  Cu3  1  0.022089  0.115180  0.937851  1
  Bi  Bi4  1  0.418031  0.883000  0.127892  1
  Bi  Bi5  1  0.918031  0.617000  0.872108  1
  Bi  Bi6  1  0.581969  0.383000  0.372108  1
  Bi  Bi7  1  0.081969  0.117000  0.627892  1
  Pd  Pd8  1  0.007934  0.636298  0.250228  1
  Pd  Pd9  1  0.507934  0.863702  0.749772  1
  Pd  Pd10  1  0.992066  0.136298  0.249772  1
  Pd  Pd11  1  0.492066  0.363702  0.750228  1
  S  S12  1  0.768683  0.631429  0.087683  1
  S  S13  1  0.268683  0.868571  0.912317  1
  S  S14  1  0.231317  0.131429  0.412317  1
  S  S15  1  0.731317  0.368571  0.587683  1
  S  S16  1  0.755282  0.884046  0.296076  1
  S  S17  1  0.255282  0.615954  0.703924  1
  S  S18  1  0.244718  0.384046  0.203924  1
  S  S19  1  0.744718  0.115954  0.796076  1
  S  S20  1  0.231699  0.637213  0.414811  1
  S  S21  1  0.731699  0.862787  0.585189  1
  S  S22  1  0.768301  0.137213  0.085189  1
  S  S23  1  0.268301  0.362787  0.914811  1
