# generated using pymatgen
data_Nd7Er13Si15Ir
_symmetry_space_group_name_H-M   'P 1'
_cell_length_a   7.71677905
_cell_length_b   7.72456788
_cell_length_c   14.21100733
_cell_angle_alpha   89.73461531
_cell_angle_beta   89.67157226
_cell_angle_gamma   90.19269574
_symmetry_Int_Tables_number   1
_chemical_formula_structural   Nd7Er13Si15Ir
_chemical_formula_sum   'Nd7 Er13 Si15 Ir1'
_cell_volume   847.07299132
_cell_formula_units_Z   1
loop_
 _symmetry_equiv_pos_site_id
 _symmetry_equiv_pos_as_xyz
  1  'x, y, z'
loop_
 _atom_site_type_symbol
 _atom_site_label
 _atom_site_symmetry_multiplicity
 _atom_site_fract_x
 _atom_site_fract_y
 _atom_site_fract_z
 _atom_site_occupancy
  Nd  Nd0  1  0.359163  0.006305  0.957929  1
  Nd  Nd1  1  0.990741  0.640355  0.538220  1
  Nd  Nd2  1  0.490624  0.856767  0.209973  1
  Nd  Nd3  1  0.508462  0.139112  0.704536  1
  Nd  Nd4  1  0.858587  0.490976  0.791208  1
  Nd  Nd5  1  0.140349  0.506799  0.292046  1
  Nd  Nd6  1  0.009755  0.356669  0.041493  1
  Er  Er7  1  0.490718  0.360711  0.124414  1
  Er  Er8  1  0.994504  0.136585  0.624738  1
  Er  Er9  1  0.861716  0.006747  0.875533  1
  Er  Er10  1  0.138371  0.986613  0.378641  1
  Er  Er11  1  0.508534  0.644731  0.618987  1
  Er  Er12  1  0.360692  0.493050  0.876776  1
  Er  Er13  1  0.638970  0.507245  0.376029  1
  Er  Er14  1  0.006717  0.863508  0.126063  1
  Er  Er15  1  0.632042  0.994720  0.458876  1
  Er  Er16  1  0.317534  0.304217  0.503615  1
  Er  Er17  1  0.188587  0.825581  0.742654  1
  Er  Er18  1  0.817674  0.181835  0.251990  1
  Er  Er19  1  0.683160  0.681917  0.000565  1
  Si  Si20  1  0.710186  0.064821  0.062408  1
  Si  Si21  1  0.932427  0.289435  0.437411  1
  Si  Si22  1  0.436919  0.208887  0.311306  1
  Si  Si23  1  0.566752  0.788479  0.811549  1
  Si  Si24  1  0.210414  0.439776  0.690084  1
  Si  Si25  1  0.790128  0.565504  0.188465  1
  Si  Si26  1  0.061736  0.709742  0.938085  1
  Si  Si27  1  0.797902  0.845725  0.690565  1
  Si  Si28  1  0.205683  0.149524  0.189594  1
  Si  Si29  1  0.842249  0.798666  0.312455  1
  Si  Si30  1  0.352785  0.706109  0.436783  1
  Si  Si31  1  0.652726  0.297002  0.941191  1
  Si  Si32  1  0.705603  0.348050  0.559348  1
  Si  Si33  1  0.294866  0.651938  0.061870  1
  Si  Si34  1  0.149761  0.209599  0.813417  1
  Ir  Ir35  1  0.292964  0.942300  0.561177  1
