# generated using pymatgen
data_Hf2Zn3SnRh6
_symmetry_space_group_name_H-M   'P 1'
_cell_length_a   4.46069500
_cell_length_b   6.25184600
_cell_length_c   13.33916000
_cell_angle_alpha   90.00000000
_cell_angle_beta   89.99977272
_cell_angle_gamma   90.00000000
_symmetry_Int_Tables_number   1
_chemical_formula_structural   Hf2Zn3SnRh6
_chemical_formula_sum   'Hf4 Zn6 Sn2 Rh12'
_cell_volume   371.99686753
_cell_formula_units_Z   2
loop_
 _symmetry_equiv_pos_site_id
 _symmetry_equiv_pos_as_xyz
  1  'x, y, z'
loop_
 _atom_site_type_symbol
 _atom_site_label
 _atom_site_symmetry_multiplicity
 _atom_site_fract_x
 _atom_site_fract_y
 _atom_site_fract_z
 _atom_site_occupancy
  Hf  Hf0  1  0.999999  0.500000  0.000278  1
  Hf  Hf1  1  0.500052  0.000000  0.167323  1
  Hf  Hf2  1  0.000027  0.500000  0.332662  1
  Hf  Hf3  1  0.499996  0.000000  0.499694  1
  Zn  Zn4  1  0.000002  0.000000  0.002778  1
  Zn  Zn5  1  0.500050  0.500000  0.164989  1
  Zn  Zn6  1  0.000028  0.000000  0.334959  1
  Zn  Zn7  1  0.499997  0.500000  0.497258  1
  Zn  Zn8  1  0.999969  0.000000  0.662390  1
  Zn  Zn9  1  0.499950  0.500000  0.837614  1
  Sn  Sn10  1  0.999975  0.500000  0.667438  1
  Sn  Sn11  1  0.499935  0.000000  0.832614  1
  Rh  Rh12  1  0.500003  0.247187  0.998420  1
  Rh  Rh13  1  0.500003  0.752813  0.998420  1
  Rh  Rh14  1  0.000055  0.250144  0.166773  1
  Rh  Rh15  1  0.000055  0.749855  0.166773  1
  Rh  Rh16  1  0.500024  0.249888  0.333192  1
  Rh  Rh17  1  0.500024  0.750111  0.333192  1
  Rh  Rh18  1  0.999997  0.252842  0.501601  1
  Rh  Rh19  1  0.999997  0.747157  0.501601  1
  Rh  Rh20  1  0.499980  0.251269  0.667715  1
  Rh  Rh21  1  0.499980  0.748730  0.667715  1
  Rh  Rh22  1  0.999953  0.248591  0.832299  1
  Rh  Rh23  1  0.999953  0.751408  0.832299  1
