# generated using pymatgen
data_La3YB4I5
_symmetry_space_group_name_H-M   'P 1'
_cell_length_a   9.95838197
_cell_length_b   9.95838187
_cell_length_c   10.09254912
_cell_angle_alpha   74.01224310
_cell_angle_beta   74.01224374
_cell_angle_gamma   25.25588708
_symmetry_Int_Tables_number   1
_chemical_formula_structural   La3YB4I5
_chemical_formula_sum   'La3 Y1 B4 I5'
_cell_volume   409.66957862
_cell_formula_units_Z   1
loop_
 _symmetry_equiv_pos_site_id
 _symmetry_equiv_pos_as_xyz
  1  'x, y, z'
loop_
 _atom_site_type_symbol
 _atom_site_label
 _atom_site_symmetry_multiplicity
 _atom_site_fract_x
 _atom_site_fract_y
 _atom_site_fract_z
 _atom_site_occupancy
  La  La0  1  0.494363  0.494363  0.255948  1
  La  La1  1  0.134646  0.134646  0.928879  1
  La  La2  1  0.866099  0.866099  0.062793  1
  Y  Y3  1  0.506069  0.506069  0.759319  1
  B  B4  1  0.315638  0.685147  0.999741  1
  B  B5  1  0.685147  0.315638  0.999741  1
  B  B6  1  0.998857  0.998857  0.093533  1
  B  B7  1  0.001972  0.001972  0.904258  1
  I  I8  1  0.673325  0.673325  0.671289  1
  I  I9  1  0.320318  0.320318  0.321360  1
  I  I10  1  0.335393  0.335393  0.832535  1
  I  I11  1  0.673225  0.673225  0.149038  1
  I  I12  1  0.009250  0.009250  0.511765  1
