# generated using pymatgen
data_La4Pr2Cd4IrPd12
_symmetry_space_group_name_H-M   'P 1'
_cell_length_a   8.59430808
_cell_length_b   8.59122037
_cell_length_c   8.59122079
_cell_angle_alpha   109.78295143
_cell_angle_beta   109.30836141
_cell_angle_gamma   109.30836112
_symmetry_Int_Tables_number   1
_chemical_formula_structural   La4Pr2Cd4IrPd12
_chemical_formula_sum   'La4 Pr2 Cd4 Ir1 Pd12'
_cell_volume   488.38943026
_cell_formula_units_Z   1
loop_
 _symmetry_equiv_pos_site_id
 _symmetry_equiv_pos_as_xyz
  1  'x, y, z'
loop_
 _atom_site_type_symbol
 _atom_site_label
 _atom_site_symmetry_multiplicity
 _atom_site_fract_x
 _atom_site_fract_y
 _atom_site_fract_z
 _atom_site_occupancy
  La  La0  1  0.000000  0.295679  0.295676  1
  La  La1  1  0.000000  0.704324  0.704321  1
  La  La2  1  0.298888  0.000132  0.298756  1
  La  La3  1  0.701112  0.701244  0.999868  1
  Pr  Pr4  1  0.701905  0.999955  0.701950  1
  Pr  Pr5  1  0.298095  0.298050  0.000045  1
  Cd  Cd6  1  0.000000  0.000690  0.503281  1
  Cd  Cd7  1  0.500000  0.001026  0.998974  1
  Cd  Cd8  1  0.000000  0.496719  0.999310  1
  Cd  Cd9  1  0.500000  0.501026  0.498974  1
  Ir  Ir10  1  0.000000  0.998414  0.001586  1
  Pd  Pd11  1  0.342690  0.657945  0.999815  1
  Pd  Pd12  1  0.000000  0.343427  0.656573  1
  Pd  Pd13  1  0.657310  0.000185  0.342055  1
  Pd  Pd14  1  0.313184  0.656896  0.656289  1
  Pd  Pd15  1  0.657310  0.315254  0.657125  1
  Pd  Pd16  1  0.686816  0.343711  0.343104  1
  Pd  Pd17  1  0.342241  0.684798  0.341883  1
  Pd  Pd18  1  0.342690  0.342875  0.684746  1
  Pd  Pd19  1  0.000000  0.656620  0.343380  1
  Pd  Pd20  1  0.657759  0.658117  0.315202  1
  Pd  Pd21  1  0.342241  0.000358  0.657444  1
  Pd  Pd22  1  0.657759  0.342556  0.999642  1
