# generated using pymatgen
data_TaNb7(Ni2N)2
_symmetry_space_group_name_H-M   'P 1'
_cell_length_a   8.26157280
_cell_length_b   8.25432144
_cell_length_c   8.26157225
_cell_angle_alpha   60.02414146
_cell_angle_beta   60.03407675
_cell_angle_gamma   60.02414690
_symmetry_Int_Tables_number   1
_chemical_formula_structural   TaNb7(Ni2N)2
_chemical_formula_sum   'Ta2 Nb14 Ni8 N4'
_cell_volume   398.62269066
_cell_formula_units_Z   2
loop_
 _symmetry_equiv_pos_site_id
 _symmetry_equiv_pos_as_xyz
  1  'x, y, z'
loop_
 _atom_site_type_symbol
 _atom_site_label
 _atom_site_symmetry_multiplicity
 _atom_site_fract_x
 _atom_site_fract_y
 _atom_site_fract_z
 _atom_site_occupancy
  Ta  Ta0  1  0.625000  0.625000  0.625000  1
  Ta  Ta1  1  0.625000  0.125000  0.625000  1
  Nb  Nb2  1  0.432580  0.067277  0.067316  1
  Nb  Nb3  1  0.067313  0.432870  0.432629  1
  Nb  Nb4  1  0.067502  0.432491  0.067502  1
  Nb  Nb5  1  0.067316  0.067277  0.432580  1
  Nb  Nb6  1  0.432799  0.067256  0.432799  1
  Nb  Nb7  1  0.432629  0.432870  0.067313  1
  Nb  Nb8  1  0.182498  0.817509  0.182498  1
  Nb  Nb9  1  0.817201  0.182744  0.817201  1
  Nb  Nb10  1  0.817420  0.182723  0.182684  1
  Nb  Nb11  1  0.182684  0.182723  0.817420  1
  Nb  Nb12  1  0.182687  0.817130  0.817371  1
  Nb  Nb13  1  0.817371  0.817130  0.182687  1
  Nb  Nb14  1  0.625000  0.625000  0.125000  1
  Nb  Nb15  1  0.125000  0.625000  0.625000  1
  Ni  Ni16  1  0.829034  0.830626  0.829034  1
  Ni  Ni17  1  0.828396  0.830342  0.510803  1
  Ni  Ni18  1  0.510803  0.830342  0.828396  1
  Ni  Ni19  1  0.829150  0.510755  0.829150  1
  Ni  Ni20  1  0.420966  0.419374  0.420966  1
  Ni  Ni21  1  0.421604  0.419658  0.739197  1
  Ni  Ni22  1  0.420850  0.739245  0.420850  1
  Ni  Ni23  1  0.739197  0.419658  0.421604  1
  N  N24  1  0.125000  0.625000  0.125000  1
  N  N25  1  0.625000  0.125000  0.125000  1
  N  N26  1  0.125000  0.125000  0.625000  1
  N  N27  1  0.125000  0.125000  0.125000  1
