# generated using pymatgen
data_Ca3Ga2PdN
_symmetry_space_group_name_H-M   'P 1'
_cell_length_a   9.06974785
_cell_length_b   9.06974818
_cell_length_c   9.06974800
_cell_angle_alpha   60.00000065
_cell_angle_beta   59.99999945
_cell_angle_gamma   59.99999241
_symmetry_Int_Tables_number   1
_chemical_formula_structural   Ca3Ga2PdN
_chemical_formula_sum   'Ca12 Ga8 Pd4 N4'
_cell_volume   527.55851905
_cell_formula_units_Z   4
loop_
 _symmetry_equiv_pos_site_id
 _symmetry_equiv_pos_as_xyz
  1  'x, y, z'
loop_
 _atom_site_type_symbol
 _atom_site_label
 _atom_site_symmetry_multiplicity
 _atom_site_fract_x
 _atom_site_fract_y
 _atom_site_fract_z
 _atom_site_occupancy
  Ca  Ca0  1  0.802758  0.197242  0.197242  1
  Ca  Ca1  1  0.197242  0.802758  0.197242  1
  Ca  Ca2  1  0.802758  0.802758  0.197242  1
  Ca  Ca3  1  0.197242  0.802758  0.802758  1
  Ca  Ca4  1  0.802758  0.197242  0.802758  1
  Ca  Ca5  1  0.197242  0.197242  0.802758  1
  Ca  Ca6  1  0.447242  0.052758  0.052758  1
  Ca  Ca7  1  0.052758  0.447242  0.052758  1
  Ca  Ca8  1  0.447242  0.447242  0.052758  1
  Ca  Ca9  1  0.052758  0.447242  0.447242  1
  Ca  Ca10  1  0.447242  0.052758  0.447242  1
  Ca  Ca11  1  0.052758  0.052758  0.447242  1
  Ga  Ga12  1  0.425430  0.425430  0.723710  1
  Ga  Ga13  1  0.425430  0.425430  0.425430  1
  Ga  Ga14  1  0.723710  0.425430  0.425430  1
  Ga  Ga15  1  0.425430  0.723710  0.425430  1
  Ga  Ga16  1  0.824570  0.824570  0.526290  1
  Ga  Ga17  1  0.824570  0.824570  0.824570  1
  Ga  Ga18  1  0.526290  0.824570  0.824570  1
  Ga  Ga19  1  0.824570  0.526290  0.824570  1
  Pd  Pd20  1  0.625000  0.625000  0.125000  1
  Pd  Pd21  1  0.625000  0.625000  0.625000  1
  Pd  Pd22  1  0.125000  0.625000  0.625000  1
  Pd  Pd23  1  0.625000  0.125000  0.625000  1
  N  N24  1  0.125000  0.125000  0.625000  1
  N  N25  1  0.125000  0.125000  0.125000  1
  N  N26  1  0.625000  0.125000  0.125000  1
  N  N27  1  0.125000  0.625000  0.125000  1
