# generated using pymatgen
data_Sm2MnSi2IrC
_symmetry_space_group_name_H-M   'P 1'
_cell_length_a   5.82947708
_cell_length_b   5.82947736
_cell_length_c   6.94657001
_cell_angle_alpha   126.46984311
_cell_angle_beta   126.46984718
_cell_angle_gamma   40.75850824
_symmetry_Int_Tables_number   1
_chemical_formula_structural   Sm2MnSi2IrC
_chemical_formula_sum   'Sm2 Mn1 Si2 Ir1 C1'
_cell_volume   119.17459910
_cell_formula_units_Z   1
loop_
 _symmetry_equiv_pos_site_id
 _symmetry_equiv_pos_as_xyz
  1  'x, y, z'
loop_
 _atom_site_type_symbol
 _atom_site_label
 _atom_site_symmetry_multiplicity
 _atom_site_fract_x
 _atom_site_fract_y
 _atom_site_fract_z
 _atom_site_occupancy
  Sm  Sm0  1  0.563576  0.563576  0.295478  1
  Sm  Sm1  1  0.437561  0.437561  0.701783  1
  Mn  Mn2  1  0.796883  0.796883  0.905035  1
  Si  Si3  1  0.848086  0.848086  0.292633  1
  Si  Si4  1  0.163133  0.163133  0.714275  1
  Ir  Ir5  1  0.204366  0.204366  0.101473  1
  C  C6  1  0.986392  0.986392  0.989323  1
