# generated using pymatgen
data_YScB6Mo
_symmetry_space_group_name_H-M   'P 1'
_cell_length_a   3.52033400
_cell_length_b   9.16570500
_cell_length_c   11.55266700
_cell_angle_alpha   90.00000000
_cell_angle_beta   90.00000000
_cell_angle_gamma   90.00000000
_symmetry_Int_Tables_number   1
_chemical_formula_structural   YScB6Mo
_chemical_formula_sum   'Y4 Sc4 B24 Mo4'
_cell_volume   372.76231536
_cell_formula_units_Z   4
loop_
 _symmetry_equiv_pos_site_id
 _symmetry_equiv_pos_as_xyz
  1  'x, y, z'
loop_
 _atom_site_type_symbol
 _atom_site_label
 _atom_site_symmetry_multiplicity
 _atom_site_fract_x
 _atom_site_fract_y
 _atom_site_fract_z
 _atom_site_occupancy
  Y  Y0  1  0.500000  0.320650  0.414161  1
  Y  Y1  1  0.500000  0.679350  0.585839  1
  Y  Y2  1  0.500000  0.179350  0.914161  1
  Y  Y3  1  0.500000  0.820650  0.085839  1
  Sc  Sc4  1  0.500000  0.444972  0.128042  1
  Sc  Sc5  1  0.500000  0.555028  0.871958  1
  Sc  Sc6  1  0.500000  0.055028  0.628042  1
  Sc  Sc7  1  0.500000  0.944972  0.371958  1
  B  B8  1  0.000000  0.095264  0.473875  1
  B  B9  1  0.000000  0.904736  0.526125  1
  B  B10  1  0.000000  0.404736  0.973875  1
  B  B11  1  0.000000  0.595264  0.026125  1
  B  B12  1  0.000000  0.129271  0.319387  1
  B  B13  1  0.000000  0.870729  0.680613  1
  B  B14  1  0.000000  0.370729  0.819387  1
  B  B15  1  0.000000  0.629271  0.180613  1
  B  B16  1  0.000000  0.052590  0.065883  1
  B  B17  1  0.000000  0.947410  0.934117  1
  B  B18  1  0.000000  0.447410  0.565883  1
  B  B19  1  0.000000  0.552590  0.434117  1
  B  B20  1  0.000000  0.479163  0.284905  1
  B  B21  1  0.000000  0.520837  0.715095  1
  B  B22  1  0.000000  0.020837  0.784905  1
  B  B23  1  0.000000  0.979163  0.215095  1
  B  B24  1  0.000000  0.256858  0.079402  1
  B  B25  1  0.000000  0.743142  0.920598  1
  B  B26  1  0.000000  0.243142  0.579402  1
  B  B27  1  0.000000  0.756858  0.420598  1
  B  B28  1  0.000000  0.298053  0.235636  1
  B  B29  1  0.000000  0.701947  0.764364  1
  B  B30  1  0.000000  0.201947  0.735636  1
  B  B31  1  0.000000  0.798053  0.264364  1
  Mo  Mo32  1  0.500000  0.141793  0.181609  1
  Mo  Mo33  1  0.500000  0.858207  0.818391  1
  Mo  Mo34  1  0.500000  0.358207  0.681609  1
  Mo  Mo35  1  0.500000  0.641793  0.318391  1
