# generated using pymatgen
data_La6(InPb)5
_symmetry_space_group_name_H-M   'P 1'
_cell_length_a   6.74732700
_cell_length_b   6.73396450
_cell_length_c   10.65151400
_cell_angle_alpha   90.00001702
_cell_angle_beta   89.99998302
_cell_angle_gamma   102.26721451
_symmetry_Int_Tables_number   1
_chemical_formula_structural   La6(InPb)5
_chemical_formula_sum   'La6 In5 Pb5'
_cell_volume   472.91474440
_cell_formula_units_Z   1
loop_
 _symmetry_equiv_pos_site_id
 _symmetry_equiv_pos_as_xyz
  1  'x, y, z'
loop_
 _atom_site_type_symbol
 _atom_site_label
 _atom_site_symmetry_multiplicity
 _atom_site_fract_x
 _atom_site_fract_y
 _atom_site_fract_z
 _atom_site_occupancy
  La  La0  1  0.630631  0.625870  0.250110  1
  La  La1  1  0.372326  0.371233  0.749876  1
  La  La2  1  0.202873  0.796172  0.498086  1
  La  La3  1  0.202839  0.796136  0.002112  1
  La  La4  1  0.796805  0.205400  0.499279  1
  La  La5  1  0.797148  0.205520  0.000752  1
  In  In6  1  0.307801  0.314797  0.048229  1
  In  In7  1  0.691940  0.689908  0.955880  1
  In  In8  1  0.307770  0.314706  0.451768  1
  In  In9  1  0.692002  0.689940  0.544085  1
  In  In10  1  0.074267  0.495100  0.250072  1
  Pb  Pb11  1  0.015477  0.014268  0.249948  1
  Pb  Pb12  1  0.983837  0.983615  0.749941  1
  Pb  Pb13  1  0.500426  0.074963  0.250019  1
  Pb  Pb14  1  0.925673  0.498809  0.749904  1
  Pb  Pb15  1  0.498186  0.923563  0.749939  1
