# generated using pymatgen
data_Ho4SiBi5Rh7
_symmetry_space_group_name_H-M   'P 1'
_cell_length_a   7.71113390
_cell_length_b   7.71113518
_cell_length_c   7.71113499
_cell_angle_alpha   106.26694223
_cell_angle_beta   111.09672373
_cell_angle_gamma   111.09673463
_symmetry_Int_Tables_number   1
_chemical_formula_structural   Ho4SiBi5Rh7
_chemical_formula_sum   'Ho4 Si1 Bi5 Rh7'
_cell_volume   352.14404143
_cell_formula_units_Z   1
loop_
 _symmetry_equiv_pos_site_id
 _symmetry_equiv_pos_as_xyz
  1  'x, y, z'
loop_
 _atom_site_type_symbol
 _atom_site_label
 _atom_site_symmetry_multiplicity
 _atom_site_fract_x
 _atom_site_fract_y
 _atom_site_fract_z
 _atom_site_occupancy
  Ho  Ho0  1  0.000000  0.981809  0.532177  1
  Ho  Ho1  1  0.000000  0.532177  0.981809  1
  Ho  Ho2  1  0.449631  0.981809  0.981809  1
  Ho  Ho3  1  0.550369  0.532177  0.532177  1
  Si  Si4  1  0.000000  0.638820  0.638820  1
  Bi  Bi5  1  0.690038  0.706775  0.016737  1
  Bi  Bi6  1  0.309962  0.016737  0.326699  1
  Bi  Bi7  1  0.000000  0.305813  0.305813  1
  Bi  Bi8  1  0.309962  0.326699  0.016737  1
  Bi  Bi9  1  0.690038  0.016737  0.706775  1
  Rh  Rh10  1  0.757257  0.265776  0.508519  1
  Rh  Rh11  1  0.757257  0.508519  0.265776  1
  Rh  Rh12  1  0.500000  0.263180  0.763180  1
  Rh  Rh13  1  0.242743  0.508519  0.751262  1
  Rh  Rh14  1  0.242743  0.751262  0.508519  1
  Rh  Rh15  1  0.500000  0.763180  0.263180  1
  Rh  Rh16  1  0.000000  0.900011  0.900011  1
