# generated using pymatgen
data_ErTh3Al17GaIr6
_symmetry_space_group_name_H-M   'P 1'
_cell_length_a   7.63394657
_cell_length_b   7.64441205
_cell_length_c   9.51971600
_cell_angle_alpha   90.00000000
_cell_angle_beta   90.00000000
_cell_angle_gamma   119.58881670
_symmetry_Int_Tables_number   1
_chemical_formula_structural   ErTh3Al17GaIr6
_chemical_formula_sum   'Er1 Th3 Al17 Ga1 Ir6'
_cell_volume   483.09483533
_cell_formula_units_Z   1
loop_
 _symmetry_equiv_pos_site_id
 _symmetry_equiv_pos_as_xyz
  1  'x, y, z'
loop_
 _atom_site_type_symbol
 _atom_site_label
 _atom_site_symmetry_multiplicity
 _atom_site_fract_x
 _atom_site_fract_y
 _atom_site_fract_z
 _atom_site_occupancy
  Er  Er0  1  0.329243  0.005510  0.250000  1
  Th  Th1  1  0.991849  0.666680  0.750000  1
  Th  Th2  1  0.001885  0.329659  0.250000  1
  Th  Th3  1  0.670607  0.997902  0.750000  1
  Al  Al4  1  0.134605  0.129883  0.750000  1
  Al  Al5  1  0.871621  0.870222  0.250000  1
  Al  Al6  1  0.007243  0.335299  0.573855  1
  Al  Al7  1  0.001054  0.670299  0.422604  1
  Al  Al8  1  0.001054  0.670299  0.077396  1
  Al  Al9  1  0.333876  0.003080  0.932343  1
  Al  Al10  1  0.007243  0.335299  0.926145  1
  Al  Al11  1  0.659767  0.995568  0.077406  1
  Al  Al12  1  0.659767  0.995568  0.422594  1
  Al  Al13  1  0.333876  0.003080  0.567657  1
  Al  Al14  1  0.336113  0.332210  0.056409  1
  Al  Al15  1  0.663338  0.664138  0.955858  1
  Al  Al16  1  0.663338  0.664138  0.544142  1
  Al  Al17  1  0.336113  0.332210  0.443591  1
  Al  Al18  1  0.344166  0.546017  0.750000  1
  Al  Al19  1  0.657035  0.451064  0.250000  1
  Al  Al20  1  0.453271  0.663019  0.250000  1
  Ga  Ga21  1  0.539022  0.339035  0.750000  1
  Ir  Ir22  1  0.674790  0.328149  0.497775  1
  Ir  Ir23  1  0.327366  0.670877  0.500001  1
  Ir  Ir24  1  0.327366  0.670877  0.999999  1
  Ir  Ir25  1  0.674790  0.328149  0.002225  1
  Ir  Ir26  1  0.999802  0.000888  0.499870  1
  Ir  Ir27  1  0.999802  0.000888  0.000130  1
