# generated using pymatgen
data_Zr6GaSi12Rh5
_symmetry_space_group_name_H-M   'P 1'
_cell_length_a   10.05101397
_cell_length_b   10.07125625
_cell_length_c   10.05409436
_cell_angle_alpha   148.89962926
_cell_angle_beta   133.73316679
_cell_angle_gamma   56.87721242
_symmetry_Int_Tables_number   1
_chemical_formula_structural   Zr6GaSi12Rh5
_chemical_formula_sum   'Zr6 Ga1 Si12 Rh5'
_cell_volume   377.02159561
_cell_formula_units_Z   1
loop_
 _symmetry_equiv_pos_site_id
 _symmetry_equiv_pos_as_xyz
  1  'x, y, z'
loop_
 _atom_site_type_symbol
 _atom_site_label
 _atom_site_symmetry_multiplicity
 _atom_site_fract_x
 _atom_site_fract_y
 _atom_site_fract_z
 _atom_site_occupancy
  Zr  Zr0  1  0.347568  0.104079  0.262190  1
  Zr  Zr1  1  0.652432  0.895921  0.737810  1
  Zr  Zr2  1  0.163434  0.909547  0.258757  1
  Zr  Zr3  1  0.836566  0.090453  0.741243  1
  Zr  Zr4  1  0.633967  0.628248  0.984565  1
  Zr  Zr5  1  0.366033  0.371752  0.015435  1
  Ga  Ga6  1  0.500000  0.500000  0.500000  1
  Si  Si7  1  0.002739  0.780697  0.779613  1
  Si  Si8  1  0.997261  0.219303  0.220387  1
  Si  Si9  1  0.499978  0.229186  0.730738  1
  Si  Si10  1  0.500022  0.770814  0.269262  1
  Si  Si11  1  0.195557  0.186485  0.978427  1
  Si  Si12  1  0.804443  0.813515  0.021573  1
  Si  Si13  1  0.290465  0.809410  0.507951  1
  Si  Si14  1  0.709535  0.190590  0.492049  1
  Si  Si15  1  0.725429  0.353660  0.340781  1
  Si  Si16  1  0.274571  0.646340  0.659219  1
  Si  Si17  1  0.989390  0.635435  0.347797  1
  Si  Si18  1  0.010610  0.364565  0.652203  1
  Rh  Rh19  1  0.500000  0.000000  0.000000  1
  Rh  Rh20  1  0.000000  0.000000  0.500000  1
  Rh  Rh21  1  0.000000  0.500000  0.000000  1
  Rh  Rh22  1  0.241831  0.498448  0.744888  1
  Rh  Rh23  1  0.758169  0.501552  0.255112  1
