# generated using pymatgen
data_La3Tb7Nd6(CdNi)4
_symmetry_space_group_name_H-M   'P 1'
_cell_length_a   9.77542870
_cell_length_b   9.76621497
_cell_length_c   9.76618846
_cell_angle_alpha   59.82316179
_cell_angle_beta   59.96171430
_cell_angle_gamma   59.96575049
_symmetry_Int_Tables_number   1
_chemical_formula_structural   La3Tb7Nd6(CdNi)4
_chemical_formula_sum   'La3 Tb7 Nd6 Cd4 Ni4'
_cell_volume   658.03767615
_cell_formula_units_Z   1
loop_
 _symmetry_equiv_pos_site_id
 _symmetry_equiv_pos_as_xyz
  1  'x, y, z'
loop_
 _atom_site_type_symbol
 _atom_site_label
 _atom_site_symmetry_multiplicity
 _atom_site_fract_x
 _atom_site_fract_y
 _atom_site_fract_z
 _atom_site_occupancy
  La  La0  1  0.594473  0.598193  0.598128  1
  La  La1  1  0.594404  0.600621  0.203238  1
  La  La2  1  0.594441  0.203251  0.600580  1
  Tb  Tb3  1  0.196910  0.602260  0.602255  1
  Tb  Tb4  1  0.065280  0.436612  0.436633  1
  Tb  Tb5  1  0.437693  0.064861  0.064865  1
  Tb  Tb6  1  0.436529  0.065574  0.436183  1
  Tb  Tb7  1  0.065966  0.435512  0.063008  1
  Tb  Tb8  1  0.436534  0.436157  0.065582  1
  Tb  Tb9  1  0.065953  0.063002  0.435538  1
  Nd  Nd10  1  0.191204  0.813617  0.813633  1
  Nd  Nd11  1  0.812601  0.187379  0.187393  1
  Nd  Nd12  1  0.813597  0.187755  0.812566  1
  Nd  Nd13  1  0.188148  0.811315  0.187001  1
  Nd  Nd14  1  0.813575  0.812547  0.187777  1
  Nd  Nd15  1  0.188159  0.186998  0.811323  1
  Cd  Cd16  1  0.834397  0.827757  0.827780  1
  Cd  Cd17  1  0.834243  0.827604  0.508244  1
  Cd  Cd18  1  0.834226  0.508230  0.827626  1
  Cd  Cd19  1  0.509111  0.829839  0.829881  1
  Ni  Ni20  1  0.389196  0.392485  0.392463  1
  Ni  Ni21  1  0.387387  0.391680  0.827171  1
  Ni  Ni22  1  0.387371  0.827230  0.391645  1
  Ni  Ni23  1  0.828601  0.389519  0.389488  1
