# generated using pymatgen
data_Mg4Zn5Cu2Ru
_symmetry_space_group_name_H-M   'P 1'
_cell_length_a   5.11966200
_cell_length_b   5.17367235
_cell_length_c   8.28567400
_cell_angle_alpha   90.00000000
_cell_angle_beta   90.00000000
_cell_angle_gamma   119.65526208
_symmetry_Int_Tables_number   1
_chemical_formula_structural   Mg4Zn5Cu2Ru
_chemical_formula_sum   'Mg4 Zn5 Cu2 Ru1'
_cell_volume   190.72028335
_cell_formula_units_Z   1
loop_
 _symmetry_equiv_pos_site_id
 _symmetry_equiv_pos_as_xyz
  1  'x, y, z'
loop_
 _atom_site_type_symbol
 _atom_site_label
 _atom_site_symmetry_multiplicity
 _atom_site_fract_x
 _atom_site_fract_y
 _atom_site_fract_z
 _atom_site_occupancy
  Mg  Mg0  1  0.325157  0.650317  0.063309  1
  Mg  Mg1  1  0.667078  0.334153  0.568897  1
  Mg  Mg2  1  0.667078  0.334153  0.931103  1
  Mg  Mg3  1  0.325157  0.650317  0.436691  1
  Zn  Zn4  1  0.011448  0.022896  0.004861  1
  Zn  Zn5  1  0.011448  0.022896  0.495139  1
  Zn  Zn6  1  0.660729  0.829574  0.750000  1
  Zn  Zn7  1  0.168845  0.829574  0.750000  1
  Zn  Zn8  1  0.829967  0.659934  0.250000  1
  Cu  Cu9  1  0.819130  0.162770  0.250000  1
  Cu  Cu10  1  0.343640  0.162770  0.250000  1
  Ru  Ru11  1  0.170323  0.340646  0.750000  1
