# generated using pymatgen
data_Sm4Dy4Tc3B24Ru
_symmetry_space_group_name_H-M   'P 1'
_cell_length_a   3.71651800
_cell_length_b   9.20453238
_cell_length_c   11.62825011
_cell_angle_alpha   89.92609165
_cell_angle_beta   90.00000000
_cell_angle_gamma   90.00000000
_symmetry_Int_Tables_number   1
_chemical_formula_structural   Sm4Dy4Tc3B24Ru
_chemical_formula_sum   'Sm4 Dy4 Tc3 B24 Ru1'
_cell_volume   397.78827102
_cell_formula_units_Z   1
loop_
 _symmetry_equiv_pos_site_id
 _symmetry_equiv_pos_as_xyz
  1  'x, y, z'
loop_
 _atom_site_type_symbol
 _atom_site_label
 _atom_site_symmetry_multiplicity
 _atom_site_fract_x
 _atom_site_fract_y
 _atom_site_fract_z
 _atom_site_occupancy
  Sm  Sm0  1  0.000000  0.323382  0.413971  1
  Sm  Sm1  1  0.000000  0.675383  0.584326  1
  Sm  Sm2  1  0.000000  0.823086  0.087131  1
  Sm  Sm3  1  0.000000  0.177821  0.914553  1
  Dy  Dy4  1  0.000000  0.942439  0.369801  1
  Dy  Dy5  1  0.000000  0.058012  0.631127  1
  Dy  Dy6  1  0.000000  0.442912  0.130534  1
  Dy  Dy7  1  0.000000  0.557908  0.868661  1
  Tc  Tc8  1  0.000000  0.638754  0.319832  1
  Tc  Tc9  1  0.000000  0.361296  0.680635  1
  Tc  Tc10  1  0.000000  0.138262  0.179127  1
  B  B11  1  0.500000  0.553901  0.431481  1
  B  B12  1  0.500000  0.445761  0.568097  1
  B  B13  1  0.500000  0.054002  0.068246  1
  B  B14  1  0.500000  0.945288  0.931494  1
  B  B15  1  0.500000  0.748511  0.417254  1
  B  B16  1  0.500000  0.250849  0.582910  1
  B  B17  1  0.500000  0.249175  0.082717  1
  B  B18  1  0.500000  0.751482  0.916936  1
  B  B19  1  0.500000  0.791043  0.266106  1
  B  B20  1  0.500000  0.209393  0.734471  1
  B  B21  1  0.500000  0.290943  0.234006  1
  B  B22  1  0.500000  0.710024  0.765838  1
  B  B23  1  0.500000  0.630440  0.186161  1
  B  B24  1  0.500000  0.369755  0.814263  1
  B  B25  1  0.500000  0.129918  0.313475  1
  B  B26  1  0.500000  0.869524  0.686379  1
  B  B27  1  0.500000  0.983064  0.212441  1
  B  B28  1  0.500000  0.015434  0.787893  1
  B  B29  1  0.500000  0.483495  0.287322  1
  B  B30  1  0.500000  0.516214  0.712162  1
  B  B31  1  0.500000  0.600127  0.027456  1
  B  B32  1  0.500000  0.401434  0.972152  1
  B  B33  1  0.500000  0.099464  0.472754  1
  B  B34  1  0.500000  0.900287  0.528151  1
  Ru  Ru35  1  0.000000  0.861217  0.820142  1
