# generated using pymatgen
data_Tb19Ho(SnBi)8
_symmetry_space_group_name_H-M   'P 1'
_cell_length_a   8.20597101
_cell_length_b   8.24843101
_cell_length_c   15.69471600
_cell_angle_alpha   90.00000000
_cell_angle_beta   90.00000000
_cell_angle_gamma   90.00601008
_symmetry_Int_Tables_number   1
_chemical_formula_structural   Tb19Ho(SnBi)8
_chemical_formula_sum   'Tb19 Ho1 Sn8 Bi8'
_cell_volume   1062.31859585
_cell_formula_units_Z   1
loop_
 _symmetry_equiv_pos_site_id
 _symmetry_equiv_pos_as_xyz
  1  'x, y, z'
loop_
 _atom_site_type_symbol
 _atom_site_label
 _atom_site_symmetry_multiplicity
 _atom_site_fract_x
 _atom_site_fract_y
 _atom_site_fract_z
 _atom_site_occupancy
  Tb  Tb0  1  0.386262  0.838119  0.876627  1
  Tb  Tb1  1  0.886386  0.661730  0.623358  1
  Tb  Tb2  1  0.613672  0.161841  0.376683  1
  Tb  Tb3  1  0.113613  0.338147  0.123309  1
  Tb  Tb4  1  0.613672  0.161841  0.123317  1
  Tb  Tb5  1  0.113613  0.338147  0.376691  1
  Tb  Tb6  1  0.386262  0.838119  0.623373  1
  Tb  Tb7  1  0.886386  0.661730  0.876642  1
  Tb  Tb8  1  0.552860  0.328098  0.889889  1
  Tb  Tb9  1  0.052948  0.172013  0.610118  1
  Tb  Tb10  1  0.447178  0.672019  0.389892  1
  Tb  Tb11  1  0.947098  0.828028  0.110087  1
  Tb  Tb12  1  0.447178  0.672019  0.110108  1
  Tb  Tb13  1  0.947098  0.828028  0.389913  1
  Tb  Tb14  1  0.552860  0.328098  0.610111  1
  Tb  Tb15  1  0.052948  0.172013  0.889882  1
  Tb  Tb16  1  0.717605  0.001910  0.750000  1
  Tb  Tb17  1  0.782468  0.501923  0.250000  1
  Tb  Tb18  1  0.282445  0.998046  0.250000  1
  Ho  Ho19  1  0.217678  0.498028  0.750000  1
  Sn  Sn20  1  0.582462  0.626070  0.750000  1
  Sn  Sn21  1  0.082956  0.873511  0.750000  1
  Sn  Sn22  1  0.417066  0.373874  0.250000  1
  Sn  Sn23  1  0.917104  0.126156  0.250000  1
  Sn  Sn24  1  0.356145  0.144149  0.750000  1
  Sn  Sn25  1  0.856739  0.356431  0.750000  1
  Sn  Sn26  1  0.643739  0.856330  0.250000  1
  Sn  Sn27  1  0.143760  0.643649  0.250000  1
  Bi  Bi28  1  0.270399  0.020752  0.044194  1
  Bi  Bi29  1  0.770337  0.479241  0.455798  1
  Bi  Bi30  1  0.729628  0.979248  0.544230  1
  Bi  Bi31  1  0.229536  0.520726  0.955506  1
  Bi  Bi32  1  0.729628  0.979248  0.955770  1
  Bi  Bi33  1  0.229536  0.520726  0.544494  1
  Bi  Bi34  1  0.270399  0.020752  0.455806  1
  Bi  Bi35  1  0.770337  0.479241  0.044202  1
