# generated using pymatgen
data_Dy2HoAl12Ir3Ru
_symmetry_space_group_name_H-M   'P 1'
_cell_length_a   8.81991431
_cell_length_b   8.82396228
_cell_length_c   9.48429600
_cell_angle_alpha   90.00000000
_cell_angle_beta   90.00000000
_cell_angle_gamma   120.01518803
_symmetry_Int_Tables_number   1
_chemical_formula_structural   Dy2HoAl12Ir3Ru
_chemical_formula_sum   'Dy4 Ho2 Al24 Ir6 Ru2'
_cell_volume   639.14184679
_cell_formula_units_Z   2
loop_
 _symmetry_equiv_pos_site_id
 _symmetry_equiv_pos_as_xyz
  1  'x, y, z'
loop_
 _atom_site_type_symbol
 _atom_site_label
 _atom_site_symmetry_multiplicity
 _atom_site_fract_x
 _atom_site_fract_y
 _atom_site_fract_z
 _atom_site_occupancy
  Dy  Dy0  1  0.614483  0.807241  0.250000  1
  Dy  Dy1  1  0.807334  0.192585  0.750000  1
  Dy  Dy2  1  0.807334  0.614750  0.750000  1
  Dy  Dy3  1  0.385304  0.192653  0.750000  1
  Ho  Ho4  1  0.192856  0.807135  0.250000  1
  Ho  Ho5  1  0.192856  0.385720  0.250000  1
  Al  Al6  1  0.562071  0.437686  0.250000  1
  Al  Al7  1  0.562071  0.124385  0.250000  1
  Al  Al8  1  0.875781  0.437891  0.250000  1
  Al  Al9  1  0.437816  0.562280  0.750000  1
  Al  Al10  1  0.437816  0.875536  0.750000  1
  Al  Al11  1  0.124433  0.562217  0.750000  1
  Al  Al12  1  0.325978  0.162989  0.423866  1
  Al  Al13  1  0.837108  0.163040  0.423887  1
  Al  Al14  1  0.837108  0.674069  0.423887  1
  Al  Al15  1  0.673980  0.836989  0.576045  1
  Al  Al16  1  0.162972  0.837007  0.575972  1
  Al  Al17  1  0.162972  0.325964  0.575972  1
  Al  Al18  1  0.673980  0.836989  0.923955  1
  Al  Al19  1  0.162972  0.837007  0.924028  1
  Al  Al20  1  0.162972  0.325964  0.924028  1
  Al  Al21  1  0.325978  0.162989  0.076134  1
  Al  Al22  1  0.837108  0.163040  0.076113  1
  Al  Al23  1  0.837108  0.674069  0.076113  1
  Al  Al24  1  0.666581  0.333290  0.528607  1
  Al  Al25  1  0.333282  0.666642  0.471219  1
  Al  Al26  1  0.333282  0.666642  0.028781  1
  Al  Al27  1  0.666581  0.333290  0.971393  1
  Al  Al28  1  0.000091  0.000046  0.250000  1
  Al  Al29  1  0.000028  0.000014  0.750000  1
  Ir  Ir30  1  0.499816  0.499993  0.499846  1
  Ir  Ir31  1  0.499816  0.999822  0.499846  1
  Ir  Ir32  1  0.000208  0.500104  0.499764  1
  Ir  Ir33  1  0.499816  0.499993  0.000154  1
  Ir  Ir34  1  0.499816  0.999822  0.000154  1
  Ir  Ir35  1  0.000208  0.500104  0.000236  1
  Ru  Ru36  1  0.000044  0.000022  0.499862  1
  Ru  Ru37  1  0.000044  0.000022  0.000138  1
