# generated using pymatgen
data_YEr5FeBi2
_symmetry_space_group_name_H-M   'P 1'
_cell_length_a   8.26109260
_cell_length_b   8.27026461
_cell_length_c   4.17331200
_cell_angle_alpha   90.00000000
_cell_angle_beta   90.00000000
_cell_angle_gamma   119.91981313
_symmetry_Int_Tables_number   1
_chemical_formula_structural   YEr5FeBi2
_chemical_formula_sum   'Y1 Er5 Fe1 Bi2'
_cell_volume   247.12616577
_cell_formula_units_Z   1
loop_
 _symmetry_equiv_pos_site_id
 _symmetry_equiv_pos_as_xyz
  1  'x, y, z'
loop_
 _atom_site_type_symbol
 _atom_site_label
 _atom_site_symmetry_multiplicity
 _atom_site_fract_x
 _atom_site_fract_y
 _atom_site_fract_z
 _atom_site_occupancy
  Y  Y0  1  0.393886  0.394530  0.000000  1
  Er  Er1  1  0.229289  0.000414  0.500000  1
  Er  Er2  1  0.000238  0.228461  0.500000  1
  Er  Er3  1  0.768501  0.768399  0.500000  1
  Er  Er4  1  0.611738  0.000618  0.000000  1
  Er  Er5  1  0.000376  0.612067  0.000000  1
  Fe  Fe6  1  0.994200  0.993154  0.000000  1
  Bi  Bi7  1  0.333159  0.668561  0.500000  1
  Bi  Bi8  1  0.668613  0.333796  0.500000  1
