# generated using pymatgen
data_YLuB6W
_symmetry_space_group_name_H-M   'P 1'
_cell_length_a   3.57071100
_cell_length_b   9.27826600
_cell_length_c   11.68117600
_cell_angle_alpha   90.00000000
_cell_angle_beta   90.00000000
_cell_angle_gamma   90.00000000
_symmetry_Int_Tables_number   1
_chemical_formula_structural   YLuB6W
_chemical_formula_sum   'Y4 Lu4 B24 W4'
_cell_volume   386.99743642
_cell_formula_units_Z   4
loop_
 _symmetry_equiv_pos_site_id
 _symmetry_equiv_pos_as_xyz
  1  'x, y, z'
loop_
 _atom_site_type_symbol
 _atom_site_label
 _atom_site_symmetry_multiplicity
 _atom_site_fract_x
 _atom_site_fract_y
 _atom_site_fract_z
 _atom_site_occupancy
  Y  Y0  1  0.000000  0.320965  0.414068  1
  Y  Y1  1  0.000000  0.679035  0.585932  1
  Y  Y2  1  0.000000  0.820965  0.085932  1
  Y  Y3  1  0.000000  0.179035  0.914068  1
  Lu  Lu4  1  0.000000  0.944380  0.372071  1
  Lu  Lu5  1  0.000000  0.055620  0.627929  1
  Lu  Lu6  1  0.000000  0.444380  0.127929  1
  Lu  Lu7  1  0.000000  0.555620  0.872071  1
  B  B8  1  0.500000  0.552285  0.434354  1
  B  B9  1  0.500000  0.447715  0.565646  1
  B  B10  1  0.500000  0.052285  0.065646  1
  B  B11  1  0.500000  0.947715  0.934354  1
  B  B12  1  0.500000  0.753629  0.420900  1
  B  B13  1  0.500000  0.246371  0.579100  1
  B  B14  1  0.500000  0.253629  0.079100  1
  B  B15  1  0.500000  0.746371  0.920900  1
  B  B16  1  0.500000  0.795814  0.264102  1
  B  B17  1  0.500000  0.204186  0.735898  1
  B  B18  1  0.500000  0.295814  0.235898  1
  B  B19  1  0.500000  0.704186  0.764102  1
  B  B20  1  0.500000  0.630489  0.182534  1
  B  B21  1  0.500000  0.369511  0.817466  1
  B  B22  1  0.500000  0.130489  0.317466  1
  B  B23  1  0.500000  0.869511  0.682534  1
  B  B24  1  0.500000  0.979140  0.213568  1
  B  B25  1  0.500000  0.020860  0.786432  1
  B  B26  1  0.500000  0.479140  0.286432  1
  B  B27  1  0.500000  0.520860  0.713568  1
  B  B28  1  0.500000  0.598063  0.027219  1
  B  B29  1  0.500000  0.401937  0.972781  1
  B  B30  1  0.500000  0.098063  0.472781  1
  B  B31  1  0.500000  0.901937  0.527219  1
  W  W32  1  0.000000  0.640110  0.319898  1
  W  W33  1  0.000000  0.359890  0.680102  1
  W  W34  1  0.000000  0.140110  0.180102  1
  W  W35  1  0.000000  0.859890  0.819898  1
