# generated using pymatgen
data_Ho5TmReSb2
_symmetry_space_group_name_H-M   'P 1'
_cell_length_a   8.10557100
_cell_length_b   8.10414620
_cell_length_c   4.29870600
_cell_angle_alpha   90.00000000
_cell_angle_beta   90.00000000
_cell_angle_gamma   120.00580371
_symmetry_Int_Tables_number   1
_chemical_formula_structural   Ho5TmReSb2
_chemical_formula_sum   'Ho5 Tm1 Re1 Sb2'
_cell_volume   244.53096143
_cell_formula_units_Z   1
loop_
 _symmetry_equiv_pos_site_id
 _symmetry_equiv_pos_as_xyz
  1  'x, y, z'
loop_
 _atom_site_type_symbol
 _atom_site_label
 _atom_site_symmetry_multiplicity
 _atom_site_fract_x
 _atom_site_fract_y
 _atom_site_fract_z
 _atom_site_occupancy
  Ho  Ho0  1  0.764459  0.764325  0.000000  1
  Ho  Ho1  1  0.000133  0.235675  0.000000  1
  Ho  Ho2  1  0.605048  0.000000  0.500000  1
  Ho  Ho3  1  0.394389  0.394135  0.500000  1
  Ho  Ho4  1  0.000254  0.605865  0.500000  1
  Tm  Tm5  1  0.235447  0.000000  0.000000  1
  Re  Re6  1  0.000865  0.000000  0.500000  1
  Sb  Sb7  1  0.333291  0.667179  0.000000  1
  Sb  Sb8  1  0.666114  0.332821  0.000000  1
