# generated using pymatgen
data_Re8Si13Ge
_symmetry_space_group_name_H-M   'P 1'
_cell_length_a   3.21695723
_cell_length_b   8.33661066
_cell_length_c   11.69823205
_cell_angle_alpha   92.80852661
_cell_angle_beta   97.90307224
_cell_angle_gamma   90.00000023
_symmetry_Int_Tables_number   1
_chemical_formula_structural   Re8Si13Ge
_chemical_formula_sum   'Re8 Si13 Ge1'
_cell_volume   310.36904574
_cell_formula_units_Z   1
loop_
 _symmetry_equiv_pos_site_id
 _symmetry_equiv_pos_as_xyz
  1  'x, y, z'
loop_
 _atom_site_type_symbol
 _atom_site_label
 _atom_site_symmetry_multiplicity
 _atom_site_fract_x
 _atom_site_fract_y
 _atom_site_fract_z
 _atom_site_occupancy
  Re  Re0  1  0.149715  0.582361  0.299430  1
  Re  Re1  1  0.275126  0.479505  0.550253  1
  Re  Re2  1  0.398930  0.366460  0.797858  1
  Re  Re3  1  0.523115  0.222357  0.046229  1
  Re  Re4  1  0.652502  0.112018  0.305004  1
  Re  Re5  1  0.770269  0.970720  0.540540  1
  Re  Re6  1  0.898473  0.850151  0.796945  1
  Re  Re7  1  0.024057  0.717833  0.048114  1
  Si  Si8  1  0.316290  0.788556  0.632580  1
  Si  Si9  1  0.442724  0.656538  0.885447  1
  Si  Si10  1  0.568702  0.526422  0.137405  1
  Si  Si11  1  0.691242  0.392310  0.382483  1
  Si  Si12  1  0.828221  0.232059  0.656441  1
  Si  Si13  1  0.993654  0.003915  0.987306  1
  Si  Si14  1  0.105667  0.293744  0.211334  1
  Si  Si15  1  0.236116  0.182198  0.472231  1
  Si  Si16  1  0.731930  0.680723  0.463862  1
  Si  Si17  1  0.856079  0.558913  0.712159  1
  Si  Si18  1  0.981391  0.421155  0.962781  1
  Si  Si19  1  0.572900  0.911661  0.145800  1
  Si  Si20  1  0.412028  0.078988  0.824057  1
  Ge  Ge21  1  0.178740  0.884808  0.357482  1
