# generated using pymatgen
data_Ta9Al3GeRh
_symmetry_space_group_name_H-M   'P 1'
_cell_length_a   9.96014799
_cell_length_b   9.92752311
_cell_length_c   9.92749800
_cell_angle_alpha   93.64938468
_cell_angle_beta   93.79689917
_cell_angle_gamma   150.11893894
_symmetry_Int_Tables_number   1
_chemical_formula_structural   Ta9Al3GeRh
_chemical_formula_sum   'Ta18 Al6 Ge2 Rh2'
_cell_volume   473.28134620
_cell_formula_units_Z   2
loop_
 _symmetry_equiv_pos_site_id
 _symmetry_equiv_pos_as_xyz
  1  'x, y, z'
loop_
 _atom_site_type_symbol
 _atom_site_label
 _atom_site_symmetry_multiplicity
 _atom_site_fract_x
 _atom_site_fract_y
 _atom_site_fract_z
 _atom_site_occupancy
  Ta  Ta0  1  0.565936  0.794644  0.357115  1
  Ta  Ta1  1  0.080931  0.155694  0.241946  1
  Ta  Ta2  1  0.580930  0.338966  0.925226  1
  Ta  Ta3  1  0.652885  0.577623  0.241918  1
  Ta  Ta4  1  0.347115  0.422377  0.758082  1
  Ta  Ta5  1  0.795332  0.437940  0.227910  1
  Ta  Ta6  1  0.419070  0.661034  0.074774  1
  Ta  Ta7  1  0.152920  0.910992  0.075271  1
  Ta  Ta8  1  0.704617  0.932536  0.642609  1
  Ta  Ta9  1  0.434064  0.205356  0.642885  1
  Ta  Ta10  1  0.919069  0.844306  0.758054  1
  Ta  Ta11  1  0.065941  0.708832  0.771311  1
  Ta  Ta12  1  0.204668  0.562060  0.772090  1
  Ta  Ta13  1  0.250018  0.751317  0.501314  1
  Ta  Ta14  1  0.295383  0.067464  0.357391  1
  Ta  Ta15  1  0.749982  0.248683  0.498686  1
  Ta  Ta16  1  0.847080  0.089008  0.924729  1
  Ta  Ta17  1  0.934059  0.291168  0.228689  1
  Al  Al18  1  0.373501  0.873509  0.240213  1
  Al  Al19  1  0.873498  0.633291  0.499993  1
  Al  Al20  1  0.126502  0.366709  0.500007  1
  Al  Al21  1  0.626499  0.126491  0.759787  1
  Al  Al22  1  0.000000  0.500000  0.000000  1
  Al  Al23  1  0.500000  0.500000  0.500000  1
  Ge  Ge24  1  0.750009  0.750148  0.000131  1
  Ge  Ge25  1  0.249991  0.249852  0.999869  1
  Rh  Rh26  1  0.500000  0.000000  0.000000  1
  Rh  Rh27  1  0.000000  0.000000  0.500000  1
