# generated using pymatgen
data_Cs2MnTcS4
_symmetry_space_group_name_H-M   'P 1'
_cell_length_a   14.41250281
_cell_length_b   12.82659513
_cell_length_c   7.65456756
_cell_angle_alpha   85.50376342
_cell_angle_beta   62.52648658
_cell_angle_gamma   31.96975262
_symmetry_Int_Tables_number   1
_chemical_formula_structural   Cs2MnTcS4
_chemical_formula_sum   'Cs4 Mn2 Tc2 S8'
_cell_volume   495.71670713
_cell_formula_units_Z   2
loop_
 _symmetry_equiv_pos_site_id
 _symmetry_equiv_pos_as_xyz
  1  'x, y, z'
loop_
 _atom_site_type_symbol
 _atom_site_label
 _atom_site_symmetry_multiplicity
 _atom_site_fract_x
 _atom_site_fract_y
 _atom_site_fract_z
 _atom_site_occupancy
  Cs  Cs0  1  0.573494  0.573494  0.926506  1
  Cs  Cs1  1  0.926506  0.926506  0.573494  1
  Cs  Cs2  1  0.676506  0.676506  0.323494  1
  Cs  Cs3  1  0.323494  0.323494  0.676506  1
  Mn  Mn4  1  0.250000  0.250000  0.250000  1
  Mn  Mn5  1  0.000000  0.000000  0.000000  1
  Tc  Tc6  1  0.500000  0.500000  0.500000  1
  Tc  Tc7  1  0.750000  0.750000  0.750000  1
  S  S8  1  0.208488  0.891566  0.614851  1
  S  S9  1  0.285094  0.614851  0.891566  1
  S  S10  1  0.614851  0.285094  0.208488  1
  S  S11  1  0.891566  0.208488  0.285094  1
  S  S12  1  0.635149  0.964906  0.041512  1
  S  S13  1  0.358434  0.041512  0.964906  1
  S  S14  1  0.964906  0.635149  0.358434  1
  S  S15  1  0.041512  0.358434  0.635149  1
