# generated using pymatgen
data_Pr2MgIn3(CuIr8)2
_symmetry_space_group_name_H-M   'P 1'
_cell_length_a   8.80094646
_cell_length_b   8.80094646
_cell_length_c   5.23789200
_cell_angle_alpha   90.00000000
_cell_angle_beta   90.00000000
_cell_angle_gamma   90.27564145
_symmetry_Int_Tables_number   1
_chemical_formula_structural   Pr2MgIn3(CuIr8)2
_chemical_formula_sum   'Pr2 Mg1 In3 Cu2 Ir16'
_cell_volume   405.70491760
_cell_formula_units_Z   1
loop_
 _symmetry_equiv_pos_site_id
 _symmetry_equiv_pos_as_xyz
  1  'x, y, z'
loop_
 _atom_site_type_symbol
 _atom_site_label
 _atom_site_symmetry_multiplicity
 _atom_site_fract_x
 _atom_site_fract_y
 _atom_site_fract_z
 _atom_site_occupancy
  Pr  Pr0  1  0.999602  0.999816  0.000000  1
  Pr  Pr1  1  0.499816  0.499602  0.000000  1
  Mg  Mg2  1  0.122024  0.622024  0.000000  1
  In  In3  1  0.882762  0.382762  0.000000  1
  In  In4  1  0.621090  0.878510  0.000000  1
  In  In5  1  0.378510  0.121090  0.000000  1
  Cu  Cu6  1  0.499995  0.999995  0.500000  1
  Cu  Cu7  1  0.000495  0.500495  0.500000  1
  Ir  Ir8  1  0.204636  0.063307  0.500000  1
  Ir  Ir9  1  0.794442  0.934692  0.500000  1
  Ir  Ir10  1  0.065237  0.791893  0.500000  1
  Ir  Ir11  1  0.705592  0.435301  0.500000  1
  Ir  Ir12  1  0.935301  0.205592  0.500000  1
  Ir  Ir13  1  0.291893  0.565237  0.500000  1
  Ir  Ir14  1  0.563307  0.704636  0.500000  1
  Ir  Ir15  1  0.434692  0.294442  0.500000  1
  Ir  Ir16  1  0.677942  0.177942  0.238863  1
  Ir  Ir17  1  0.321627  0.821627  0.762316  1
  Ir  Ir18  1  0.321627  0.821627  0.237684  1
  Ir  Ir19  1  0.177364  0.323371  0.238747  1
  Ir  Ir20  1  0.177364  0.323371  0.761253  1
  Ir  Ir21  1  0.677942  0.177942  0.761137  1
  Ir  Ir22  1  0.823371  0.677364  0.761253  1
  Ir  Ir23  1  0.823371  0.677364  0.238747  1
