# generated using pymatgen
data_La7Er13Si13Ir3
_symmetry_space_group_name_H-M   'P 1'
_cell_length_a   7.84620847
_cell_length_b   7.88029034
_cell_length_c   14.39969600
_cell_angle_alpha   90.04628573
_cell_angle_beta   90.33168200
_cell_angle_gamma   90.11436117
_symmetry_Int_Tables_number   1
_chemical_formula_structural   La7Er13Si13Ir3
_chemical_formula_sum   'La7 Er13 Si13 Ir3'
_cell_volume   890.32198478
_cell_formula_units_Z   1
loop_
 _symmetry_equiv_pos_site_id
 _symmetry_equiv_pos_as_xyz
  1  'x, y, z'
loop_
 _atom_site_type_symbol
 _atom_site_label
 _atom_site_symmetry_multiplicity
 _atom_site_fract_x
 _atom_site_fract_y
 _atom_site_fract_z
 _atom_site_occupancy
  La  La0  1  0.362844  0.008322  0.961541  1
  La  La1  1  0.988553  0.637213  0.535760  1
  La  La2  1  0.500469  0.860120  0.206725  1
  La  La3  1  0.501046  0.137440  0.704672  1
  La  La4  1  0.853766  0.493487  0.788603  1
  La  La5  1  0.140899  0.499359  0.295719  1
  La  La6  1  0.005316  0.355865  0.040728  1
  Er  Er7  1  0.501039  0.355346  0.121769  1
  Er  Er8  1  0.992071  0.138999  0.619584  1
  Er  Er9  1  0.857604  0.011770  0.878976  1
  Er  Er10  1  0.141029  0.994732  0.380065  1
  Er  Er11  1  0.503989  0.648586  0.618657  1
  Er  Er12  1  0.359418  0.498243  0.876514  1
  Er  Er13  1  0.645008  0.498361  0.378465  1
  Er  Er14  1  0.999233  0.862490  0.126253  1
  Er  Er15  1  0.629202  0.997620  0.460647  1
  Er  Er16  1  0.312143  0.308432  0.501886  1
  Er  Er17  1  0.182703  0.829288  0.743193  1
  Er  Er18  1  0.822761  0.174710  0.254454  1
  Er  Er19  1  0.684125  0.691962  0.002012  1
  Si  Si20  1  0.440851  0.208025  0.309522  1
  Si  Si21  1  0.567079  0.788158  0.809742  1
  Si  Si22  1  0.207829  0.440607  0.691548  1
  Si  Si23  1  0.790608  0.564912  0.191959  1
  Si  Si24  1  0.065043  0.708149  0.937839  1
  Si  Si25  1  0.795463  0.849141  0.690346  1
  Si  Si26  1  0.213465  0.145928  0.188865  1
  Si  Si27  1  0.848452  0.791944  0.316067  1
  Si  Si28  1  0.359263  0.710057  0.435985  1
  Si  Si29  1  0.649182  0.300135  0.939401  1
  Si  Si30  1  0.701444  0.347786  0.560295  1
  Si  Si31  1  0.290351  0.646657  0.060659  1
  Si  Si32  1  0.146138  0.213366  0.811603  1
  Ir  Ir33  1  0.293371  0.943801  0.560645  1
  Ir  Ir34  1  0.712485  0.058674  0.061430  1
  Ir  Ir35  1  0.935749  0.280314  0.437868  1
