# generated using pymatgen
data_LaYHoRh9
_symmetry_space_group_name_H-M   'P 1'
_cell_length_a   5.31567600
_cell_length_b   5.31567561
_cell_length_c   17.56128300
_cell_angle_alpha   90.00000000
_cell_angle_beta   90.00000000
_cell_angle_gamma   120.00000245
_symmetry_Int_Tables_number   1
_chemical_formula_structural   LaYHoRh9
_chemical_formula_sum   'La2 Y2 Ho2 Rh18'
_cell_volume   429.73807545
_cell_formula_units_Z   2
loop_
 _symmetry_equiv_pos_site_id
 _symmetry_equiv_pos_as_xyz
  1  'x, y, z'
loop_
 _atom_site_type_symbol
 _atom_site_label
 _atom_site_symmetry_multiplicity
 _atom_site_fract_x
 _atom_site_fract_y
 _atom_site_fract_z
 _atom_site_occupancy
  La  La0  1  0.333333  0.666667  0.750066  1
  La  La1  1  0.666667  0.333333  0.250066  1
  Y  Y2  1  0.333333  0.666667  0.541297  1
  Y  Y3  1  0.666667  0.333333  0.041297  1
  Ho  Ho4  1  0.666667  0.333333  0.458495  1
  Ho  Ho5  1  0.333333  0.666667  0.958495  1
  Rh  Rh6  1  0.167382  0.334765  0.124402  1
  Rh  Rh7  1  0.832618  0.665235  0.624402  1
  Rh  Rh8  1  0.665235  0.832618  0.124402  1
  Rh  Rh9  1  0.167382  0.832618  0.124402  1
  Rh  Rh10  1  0.832618  0.167382  0.624402  1
  Rh  Rh11  1  0.334765  0.167382  0.624402  1
  Rh  Rh12  1  0.832654  0.665306  0.875694  1
  Rh  Rh13  1  0.832654  0.167346  0.875694  1
  Rh  Rh14  1  0.334694  0.167346  0.875694  1
  Rh  Rh15  1  0.665306  0.832654  0.375694  1
  Rh  Rh16  1  0.167346  0.832654  0.375694  1
  Rh  Rh17  1  0.167346  0.334694  0.375694  1
  Rh  Rh18  1  0.000000  0.000000  0.249936  1
  Rh  Rh19  1  0.000000  0.000000  0.749936  1
  Rh  Rh20  1  0.333333  0.666667  0.249984  1
  Rh  Rh21  1  0.666667  0.333333  0.749984  1
  Rh  Rh22  1  0.000000  0.000000  0.999933  1
  Rh  Rh23  1  0.000000  0.000000  0.499933  1
