# generated using pymatgen
data_HoLu19(AlBi5)2
_symmetry_space_group_name_H-M   'P 1'
_cell_length_a   8.07746620
_cell_length_b   9.34983400
_cell_length_c   11.76828530
_cell_angle_alpha   90.00000000
_cell_angle_beta   90.02571465
_cell_angle_gamma   90.00000000
_symmetry_Int_Tables_number   1
_chemical_formula_structural   HoLu19(AlBi5)2
_chemical_formula_sum   'Ho1 Lu19 Al2 Bi10'
_cell_volume   888.77574601
_cell_formula_units_Z   1
loop_
 _symmetry_equiv_pos_site_id
 _symmetry_equiv_pos_as_xyz
  1  'x, y, z'
loop_
 _atom_site_type_symbol
 _atom_site_label
 _atom_site_symmetry_multiplicity
 _atom_site_fract_x
 _atom_site_fract_y
 _atom_site_fract_z
 _atom_site_occupancy
  Ho  Ho0  1  0.809578  0.250000  0.281650  1
  Lu  Lu1  1  0.353430  0.750000  0.206604  1
  Lu  Lu2  1  0.853472  0.750000  0.293211  1
  Lu  Lu3  1  0.653003  0.250000  0.781168  1
  Lu  Lu4  1  0.153023  0.250000  0.719051  1
  Lu  Lu5  1  0.686477  0.573123  0.056457  1
  Lu  Lu6  1  0.185732  0.927012  0.443452  1
  Lu  Lu7  1  0.306982  0.052789  0.941146  1
  Lu  Lu8  1  0.807088  0.447214  0.558920  1
  Lu  Lu9  1  0.306982  0.447211  0.941146  1
  Lu  Lu10  1  0.807088  0.052786  0.558920  1
  Lu  Lu11  1  0.686477  0.926877  0.056457  1
  Lu  Lu12  1  0.185732  0.572988  0.443452  1
  Lu  Lu13  1  0.479067  0.250000  0.490969  1
  Lu  Lu14  1  0.979842  0.250000  0.009132  1
  Lu  Lu15  1  0.535797  0.750000  0.509378  1
  Lu  Lu16  1  0.035896  0.750000  0.990813  1
  Lu  Lu17  1  0.309198  0.250000  0.217742  1
  Lu  Lu18  1  0.683051  0.750000  0.784504  1
  Lu  Lu19  1  0.183357  0.750000  0.715426  1
  Al  Al20  1  0.408486  0.750000  0.957062  1
  Al  Al21  1  0.908593  0.750000  0.543072  1
  Bi  Bi22  1  0.594469  0.250000  0.041162  1
  Bi  Bi23  1  0.096723  0.250000  0.459259  1
  Bi  Bi24  1  0.559023  0.996530  0.323835  1
  Bi  Bi25  1  0.061765  0.503159  0.175972  1
  Bi  Bi26  1  0.437287  0.498255  0.677215  1
  Bi  Bi27  1  0.937152  0.001815  0.822901  1
  Bi  Bi28  1  0.437287  0.001745  0.677215  1
  Bi  Bi29  1  0.937152  0.498185  0.822901  1
  Bi  Bi30  1  0.559023  0.503470  0.323835  1
  Bi  Bi31  1  0.061765  0.996841  0.175972  1
