# generated using pymatgen
data_Tb7Dy3(CoSb2)2
_symmetry_space_group_name_H-M   'P 1'
_cell_length_a   7.93564912
_cell_length_b   8.78918024
_cell_length_c   12.23524500
_cell_angle_alpha   90.00000000
_cell_angle_beta   90.00000000
_cell_angle_gamma   89.93907810
_symmetry_Int_Tables_number   1
_chemical_formula_structural   Tb7Dy3(CoSb2)2
_chemical_formula_sum   'Tb14 Dy6 Co4 Sb8'
_cell_volume   853.38155628
_cell_formula_units_Z   2
loop_
 _symmetry_equiv_pos_site_id
 _symmetry_equiv_pos_as_xyz
  1  'x, y, z'
loop_
 _atom_site_type_symbol
 _atom_site_label
 _atom_site_symmetry_multiplicity
 _atom_site_fract_x
 _atom_site_fract_y
 _atom_site_fract_z
 _atom_site_occupancy
  Tb  Tb0  1  0.154622  0.750129  0.203457  1
  Tb  Tb1  1  0.345378  0.749871  0.703457  1
  Tb  Tb2  1  0.845632  0.249946  0.796578  1
  Tb  Tb3  1  0.654368  0.250054  0.296578  1
  Tb  Tb4  1  0.454447  0.750111  0.998100  1
  Tb  Tb5  1  0.045553  0.749889  0.498100  1
  Tb  Tb6  1  0.544746  0.249834  0.001916  1
  Tb  Tb7  1  0.955254  0.250166  0.501916  1
  Tb  Tb8  1  0.621749  0.749708  0.306533  1
  Tb  Tb9  1  0.878251  0.750292  0.806533  1
  Tb  Tb10  1  0.377682  0.250166  0.693527  1
  Tb  Tb11  1  0.122318  0.249834  0.193527  1
  Tb  Tb12  1  0.820758  0.535283  0.065172  1
  Tb  Tb13  1  0.679242  0.964717  0.565172  1
  Dy  Dy14  1  0.178152  0.035594  0.934764  1
  Dy  Dy15  1  0.321848  0.464406  0.434764  1
  Dy  Dy16  1  0.178373  0.464418  0.934699  1
  Dy  Dy17  1  0.321627  0.035582  0.434699  1
  Dy  Dy18  1  0.821864  0.964620  0.065120  1
  Dy  Dy19  1  0.678136  0.535380  0.565120  1
  Co  Co20  1  0.433960  0.749553  0.490573  1
  Co  Co21  1  0.066040  0.750447  0.990573  1
  Co  Co22  1  0.564851  0.250314  0.509225  1
  Co  Co23  1  0.935149  0.249686  0.009225  1
  Sb  Sb24  1  0.928293  0.508190  0.327010  1
  Sb  Sb25  1  0.571707  0.991810  0.827010  1
  Sb  Sb26  1  0.072511  0.008367  0.673307  1
  Sb  Sb27  1  0.427489  0.491633  0.173307  1
  Sb  Sb28  1  0.071803  0.491759  0.673253  1
  Sb  Sb29  1  0.428197  0.008241  0.173253  1
  Sb  Sb30  1  0.928006  0.991780  0.326766  1
  Sb  Sb31  1  0.571994  0.508220  0.826766  1
