# generated using pymatgen
data_Sc10GaSi4P
_symmetry_space_group_name_H-M   'P 1'
_cell_length_a   7.89701214
_cell_length_b   7.87518930
_cell_length_c   5.84653000
_cell_angle_alpha   90.00000000
_cell_angle_beta   90.00000000
_cell_angle_gamma   120.06981993
_symmetry_Int_Tables_number   1
_chemical_formula_structural   Sc10GaSi4P
_chemical_formula_sum   'Sc10 Ga1 Si4 P1'
_cell_volume   314.66369866
_cell_formula_units_Z   1
loop_
 _symmetry_equiv_pos_site_id
 _symmetry_equiv_pos_as_xyz
  1  'x, y, z'
loop_
 _atom_site_type_symbol
 _atom_site_label
 _atom_site_symmetry_multiplicity
 _atom_site_fract_x
 _atom_site_fract_y
 _atom_site_fract_z
 _atom_site_occupancy
  Sc  Sc0  1  0.000562  0.760888  0.750000  1
  Sc  Sc1  1  0.001860  0.241349  0.250000  1
  Sc  Sc2  1  0.759364  0.757205  0.250000  1
  Sc  Sc3  1  0.754515  0.998526  0.750000  1
  Sc  Sc4  1  0.243049  0.240923  0.750000  1
  Sc  Sc5  1  0.243581  0.999626  0.250000  1
  Sc  Sc6  1  0.335163  0.669957  0.499529  1
  Sc  Sc7  1  0.663706  0.331099  0.000508  1
  Sc  Sc8  1  0.663706  0.331099  0.499492  1
  Sc  Sc9  1  0.335163  0.669957  0.000471  1
  Ga  Ga10  1  0.000232  0.396375  0.750000  1
  Si  Si11  1  0.395413  0.394651  0.250000  1
  Si  Si12  1  0.000606  0.604524  0.250000  1
  Si  Si13  1  0.605225  0.604541  0.750000  1
  Si  Si14  1  0.608349  0.999733  0.250000  1
  P  P15  1  0.389506  0.999549  0.750000  1
