# generated using pymatgen
data_Ce3SmHo4(B6Os)4
_symmetry_space_group_name_H-M   'P 1'
_cell_length_a   3.68856000
_cell_length_b   9.19858264
_cell_length_c   11.58132581
_cell_angle_alpha   90.04276392
_cell_angle_beta   90.00000000
_cell_angle_gamma   90.00000000
_symmetry_Int_Tables_number   1
_chemical_formula_structural   Ce3SmHo4(B6Os)4
_chemical_formula_sum   'Ce3 Sm1 Ho4 B24 Os4'
_cell_volume   392.94876227
_cell_formula_units_Z   1
loop_
 _symmetry_equiv_pos_site_id
 _symmetry_equiv_pos_as_xyz
  1  'x, y, z'
loop_
 _atom_site_type_symbol
 _atom_site_label
 _atom_site_symmetry_multiplicity
 _atom_site_fract_x
 _atom_site_fract_y
 _atom_site_fract_z
 _atom_site_occupancy
  Ce  Ce0  1  0.000000  0.322741  0.413639  1
  Ce  Ce1  1  0.000000  0.676828  0.586748  1
  Ce  Ce2  1  0.000000  0.823096  0.086058  1
  Sm  Sm3  1  0.000000  0.178176  0.913465  1
  Ho  Ho4  1  0.000000  0.944647  0.373996  1
  Ho  Ho5  1  0.000000  0.055508  0.626268  1
  Ho  Ho6  1  0.000000  0.444008  0.125946  1
  Ho  Ho7  1  0.000000  0.555305  0.873575  1
  B  B8  1  0.500000  0.554555  0.431685  1
  B  B9  1  0.500000  0.445627  0.567898  1
  B  B10  1  0.500000  0.054732  0.068806  1
  B  B11  1  0.500000  0.944772  0.931805  1
  B  B12  1  0.500000  0.748958  0.419016  1
  B  B13  1  0.500000  0.251163  0.581192  1
  B  B14  1  0.500000  0.249211  0.081302  1
  B  B15  1  0.500000  0.751335  0.919067  1
  B  B16  1  0.500000  0.791350  0.266527  1
  B  B17  1  0.500000  0.208756  0.733159  1
  B  B18  1  0.500000  0.291507  0.233187  1
  B  B19  1  0.500000  0.708334  0.766557  1
  B  B20  1  0.500000  0.632070  0.184891  1
  B  B21  1  0.500000  0.368243  0.814785  1
  B  B22  1  0.500000  0.132133  0.315088  1
  B  B23  1  0.500000  0.867723  0.685294  1
  B  B24  1  0.500000  0.984593  0.213689  1
  B  B25  1  0.500000  0.015294  0.785982  1
  B  B26  1  0.500000  0.484656  0.286084  1
  B  B27  1  0.500000  0.515251  0.713996  1
  B  B28  1  0.500000  0.606957  0.029443  1
  B  B29  1  0.500000  0.392736  0.970603  1
  B  B30  1  0.500000  0.107584  0.470687  1
  B  B31  1  0.500000  0.892185  0.529565  1
  Os  Os32  1  0.000000  0.638981  0.320738  1
  Os  Os33  1  0.000000  0.361835  0.678153  1
  Os  Os34  1  0.000000  0.138763  0.180900  1
  Os  Os35  1  0.000000  0.860388  0.820208  1
