# generated using pymatgen
data_La2GdY3Ta2O14
_symmetry_space_group_name_H-M   'P 1'
_cell_length_a   6.56542966
_cell_length_b   6.55722574
_cell_length_c   7.67058800
_cell_angle_alpha   90.00000000
_cell_angle_beta   90.00000000
_cell_angle_gamma   109.15764540
_symmetry_Int_Tables_number   1
_chemical_formula_structural   La2GdY3Ta2O14
_chemical_formula_sum   'La2 Gd1 Y3 Ta2 O14'
_cell_volume   311.93831500
_cell_formula_units_Z   1
loop_
 _symmetry_equiv_pos_site_id
 _symmetry_equiv_pos_as_xyz
  1  'x, y, z'
loop_
 _atom_site_type_symbol
 _atom_site_label
 _atom_site_symmetry_multiplicity
 _atom_site_fract_x
 _atom_site_fract_y
 _atom_site_fract_z
 _atom_site_occupancy
  La  La0  1  0.499335  0.499247  0.499342  1
  La  La1  1  0.499335  0.499247  0.000658  1
  Gd  Gd2  1  0.532758  0.000545  0.750000  1
  Y  Y3  1  0.000821  0.532310  0.250000  1
  Y  Y4  1  0.466909  0.999301  0.250000  1
  Y  Y5  1  0.999098  0.467875  0.750000  1
  Ta  Ta6  1  0.999617  0.999981  0.499419  1
  Ta  Ta7  1  0.999617  0.999981  0.000581  1
  O  O8  1  0.683379  0.933504  0.465818  1
  O  O9  1  0.934413  0.682642  0.532035  1
  O  O10  1  0.683379  0.933504  0.034182  1
  O  O11  1  0.934413  0.682642  0.967965  1
  O  O12  1  0.318481  0.068069  0.529193  1
  O  O13  1  0.065341  0.317798  0.468016  1
  O  O14  1  0.318481  0.068069  0.970807  1
  O  O15  1  0.065341  0.317798  0.031984  1
  O  O16  1  0.940370  0.061576  0.750000  1
  O  O17  1  0.061446  0.937635  0.250000  1
  O  O18  1  0.360915  0.632647  0.750000  1
  O  O19  1  0.637340  0.363199  0.250000  1
  O  O20  1  0.643642  0.358684  0.750000  1
  O  O21  1  0.355565  0.643746  0.250000  1
