# generated using pymatgen
data_La8Lu12Ga3Si13
_symmetry_space_group_name_H-M   'P 1'
_cell_length_a   7.49634646
_cell_length_b   7.80294069
_cell_length_c   14.82375624
_cell_angle_alpha   89.96900329
_cell_angle_beta   89.97752326
_cell_angle_gamma   90.08768842
_symmetry_Int_Tables_number   1
_chemical_formula_structural   La8Lu12Ga3Si13
_chemical_formula_sum   'La8 Lu12 Ga3 Si13'
_cell_volume   867.09287042
_cell_formula_units_Z   1
loop_
 _symmetry_equiv_pos_site_id
 _symmetry_equiv_pos_as_xyz
  1  'x, y, z'
loop_
 _atom_site_type_symbol
 _atom_site_label
 _atom_site_symmetry_multiplicity
 _atom_site_fract_x
 _atom_site_fract_y
 _atom_site_fract_z
 _atom_site_occupancy
  La  La0  1  0.013034  0.172869  0.400828  1
  La  La1  1  0.514568  0.324573  0.400411  1
  La  La2  1  0.487434  0.673659  0.898874  1
  La  La3  1  0.488822  0.678280  0.598962  1
  La  La4  1  0.985626  0.826988  0.598991  1
  La  La5  1  0.987095  0.826591  0.898941  1
  La  La6  1  0.511293  0.324059  0.100032  1
  La  La7  1  0.011553  0.175933  0.100248  1
  Lu  Lu8  1  0.330302  0.173953  0.624744  1
  Lu  Lu9  1  0.671072  0.824281  0.376293  1
  Lu  Lu10  1  0.661757  0.998309  0.749576  1
  Lu  Lu11  1  0.173535  0.676356  0.375657  1
  Lu  Lu12  1  0.828692  0.323049  0.874785  1
  Lu  Lu13  1  0.826762  0.324659  0.624006  1
  Lu  Lu14  1  0.838248  0.497387  0.251895  1
  Lu  Lu15  1  0.337993  0.002027  0.251505  1
  Lu  Lu16  1  0.328619  0.176003  0.874824  1
  Lu  Lu17  1  0.171349  0.673044  0.125340  1
  Lu  Lu18  1  0.671714  0.826959  0.125123  1
  Lu  Lu19  1  0.160583  0.501692  0.750915  1
  Ga  Ga20  1  0.155113  0.461611  0.538758  1
  Ga  Ga21  1  0.845841  0.538849  0.038127  1
  Ga  Ga22  1  0.345807  0.961173  0.038334  1
  Si  Si23  1  0.286538  0.878885  0.749249  1
  Si  Si24  1  0.467348  0.621502  0.250809  1
  Si  Si25  1  0.033037  0.122612  0.750210  1
  Si  Si26  1  0.532811  0.379036  0.749401  1
  Si  Si27  1  0.966777  0.878282  0.250790  1
  Si  Si28  1  0.713515  0.120514  0.250774  1
  Si  Si29  1  0.152215  0.462828  0.960284  1
  Si  Si30  1  0.651403  0.035876  0.538609  1
  Si  Si31  1  0.348817  0.964421  0.461221  1
  Si  Si32  1  0.847854  0.536998  0.461057  1
  Si  Si33  1  0.787373  0.620981  0.749593  1
  Si  Si34  1  0.213464  0.378970  0.250868  1
  Si  Si35  1  0.652034  0.036788  0.959964  1
