# generated using pymatgen
data_Cs4Ho9Tm3Se20
_symmetry_space_group_name_H-M   'P 1'
_cell_length_a   4.13073900
_cell_length_b   12.44066622
_cell_length_c   22.16004039
_cell_angle_alpha   90.02151178
_cell_angle_beta   90.00000000
_cell_angle_gamma   90.00000000
_symmetry_Int_Tables_number   1
_chemical_formula_structural   Cs4Ho9Tm3Se20
_chemical_formula_sum   'Cs4 Ho9 Tm3 Se20'
_cell_volume   1138.78545162
_cell_formula_units_Z   1
loop_
 _symmetry_equiv_pos_site_id
 _symmetry_equiv_pos_as_xyz
  1  'x, y, z'
loop_
 _atom_site_type_symbol
 _atom_site_label
 _atom_site_symmetry_multiplicity
 _atom_site_fract_x
 _atom_site_fract_y
 _atom_site_fract_z
 _atom_site_occupancy
  Cs  Cs0  1  0.250000  0.853625  0.092168  1
  Cs  Cs1  1  0.750000  0.146326  0.907807  1
  Cs  Cs2  1  0.750000  0.353642  0.407837  1
  Cs  Cs3  1  0.250000  0.646367  0.592159  1
  Ho  Ho4  1  0.750000  0.797000  0.825370  1
  Ho  Ho5  1  0.250000  0.202865  0.174654  1
  Ho  Ho6  1  0.250000  0.297023  0.674615  1
  Ho  Ho7  1  0.750000  0.702976  0.325377  1
  Ho  Ho8  1  0.250000  0.957200  0.697851  1
  Ho  Ho9  1  0.750000  0.042799  0.302140  1
  Ho  Ho10  1  0.750000  0.457238  0.802091  1
  Ho  Ho11  1  0.250000  0.542844  0.197882  1
  Ho  Ho12  1  0.750000  0.391850  0.053980  1
  Tm  Tm13  1  0.250000  0.608161  0.945934  1
  Tm  Tm14  1  0.250000  0.891944  0.445968  1
  Tm  Tm15  1  0.750000  0.108050  0.554025  1
  Se  Se16  1  0.250000  0.949175  0.568382  1
  Se  Se17  1  0.750000  0.050824  0.431620  1
  Se  Se18  1  0.750000  0.449481  0.931115  1
  Se  Se19  1  0.250000  0.552028  0.068492  1
  Se  Se20  1  0.750000  0.763063  0.952352  1
  Se  Se21  1  0.250000  0.235545  0.047668  1
  Se  Se22  1  0.250000  0.263066  0.547649  1
  Se  Se23  1  0.750000  0.736933  0.452354  1
  Se  Se24  1  0.250000  0.949409  0.825474  1
  Se  Se25  1  0.750000  0.050594  0.174539  1
  Se  Se26  1  0.750000  0.449401  0.674519  1
  Se  Se27  1  0.250000  0.550597  0.325471  1
  Se  Se28  1  0.750000  0.126069  0.684219  1
  Se  Se29  1  0.250000  0.873930  0.315782  1
  Se  Se30  1  0.250000  0.626094  0.815777  1
  Se  Se31  1  0.750000  0.373894  0.184709  1
  Se  Se32  1  0.750000  0.693764  0.197706  1
  Se  Se33  1  0.250000  0.306230  0.802317  1
  Se  Se34  1  0.250000  0.193757  0.302303  1
  Se  Se35  1  0.750000  0.806237  0.697695  1
