# generated using pymatgen
data_Nd2B2Pt3Rh4Au
_symmetry_space_group_name_H-M   'P 1'
_cell_length_a   5.49505487
_cell_length_b   5.49505275
_cell_length_c   7.55895400
_cell_angle_alpha   90.00000000
_cell_angle_beta   90.00000000
_cell_angle_gamma   119.58594515
_symmetry_Int_Tables_number   1
_chemical_formula_structural   Nd2B2Pt3Rh4Au
_chemical_formula_sum   'Nd2 B2 Pt3 Rh4 Au1'
_cell_volume   198.48749819
_cell_formula_units_Z   1
loop_
 _symmetry_equiv_pos_site_id
 _symmetry_equiv_pos_as_xyz
  1  'x, y, z'
loop_
 _atom_site_type_symbol
 _atom_site_label
 _atom_site_symmetry_multiplicity
 _atom_site_fract_x
 _atom_site_fract_y
 _atom_site_fract_z
 _atom_site_occupancy
  Nd  Nd0  1  0.999425  0.000575  0.500000  1
  Nd  Nd1  1  0.000186  0.999814  0.000000  1
  B  B2  1  0.329199  0.670801  0.000000  1
  B  B3  1  0.670583  0.329417  0.000000  1
  Pt  Pt4  1  0.671093  0.328907  0.500000  1
  Pt  Pt5  1  0.501098  0.498902  0.198958  1
  Pt  Pt6  1  0.501098  0.498902  0.801042  1
  Rh  Rh7  1  0.501781  0.002561  0.192268  1
  Rh  Rh8  1  0.501781  0.002561  0.807732  1
  Rh  Rh9  1  0.997439  0.498219  0.192268  1
  Rh  Rh10  1  0.997439  0.498219  0.807732  1
  Au  Au11  1  0.328877  0.671123  0.500000  1
