# generated using pymatgen
data_Np(AgCl3)2
_symmetry_space_group_name_H-M   'P 1'
_cell_length_a   6.87186104
_cell_length_b   6.87013200
_cell_length_c   7.78894848
_cell_angle_alpha   116.17714350
_cell_angle_beta   89.99146806
_cell_angle_gamma   119.99923233
_symmetry_Int_Tables_number   1
_chemical_formula_structural   Np(AgCl3)2
_chemical_formula_sum   'Np1 Ag2 Cl6'
_cell_volume   274.06081869
_cell_formula_units_Z   1
loop_
 _symmetry_equiv_pos_site_id
 _symmetry_equiv_pos_as_xyz
  1  'x, y, z'
loop_
 _atom_site_type_symbol
 _atom_site_label
 _atom_site_symmetry_multiplicity
 _atom_site_fract_x
 _atom_site_fract_y
 _atom_site_fract_z
 _atom_site_occupancy
  Np  Np0  1  0.000000  0.000000  0.000000  1
  Ag  Ag1  1  0.674728  0.349376  0.024130  1
  Ag  Ag2  1  0.325272  0.650625  0.975870  1
  Cl  Cl3  1  0.080264  0.467642  0.226087  1
  Cl  Cl4  1  0.387260  0.145729  0.225966  1
  Cl  Cl5  1  0.758452  0.838646  0.226014  1
  Cl  Cl6  1  0.241549  0.161354  0.773986  1
  Cl  Cl7  1  0.612740  0.854271  0.774034  1
  Cl  Cl8  1  0.919737  0.532358  0.773913  1
