# generated using pymatgen
data_Er3Tm2Be4P8Ir19
_symmetry_space_group_name_H-M   'P 1'
_cell_length_a   12.61360801
_cell_length_b   12.50515499
_cell_length_c   3.93502400
_cell_angle_alpha   90.00000000
_cell_angle_beta   90.00000000
_cell_angle_gamma   120.03645775
_symmetry_Int_Tables_number   1
_chemical_formula_structural   Er3Tm2Be4P8Ir19
_chemical_formula_sum   'Er3 Tm2 Be4 P8 Ir19'
_cell_volume   537.33701871
_cell_formula_units_Z   1
loop_
 _symmetry_equiv_pos_site_id
 _symmetry_equiv_pos_as_xyz
  1  'x, y, z'
loop_
 _atom_site_type_symbol
 _atom_site_label
 _atom_site_symmetry_multiplicity
 _atom_site_fract_x
 _atom_site_fract_y
 _atom_site_fract_z
 _atom_site_occupancy
  Er  Er0  1  0.334244  0.667119  0.500000  1
  Er  Er1  1  0.183334  0.191455  0.000000  1
  Er  Er2  1  0.808757  0.000076  0.000000  1
  Tm  Tm3  1  0.677511  0.331447  0.500000  1
  Tm  Tm4  1  0.004957  0.815151  0.000000  1
  Be  Be5  1  0.314400  0.835282  0.000000  1
  Be  Be6  1  0.164510  0.478233  0.000000  1
  Be  Be7  1  0.520964  0.684498  0.000000  1
  Be  Be8  1  0.830928  0.308179  0.000000  1
  P  P9  1  0.485484  0.176436  0.000000  1
  P  P10  1  0.697180  0.517198  0.000000  1
  P  P11  1  0.361322  0.373883  0.500000  1
  P  P12  1  0.626736  0.993548  0.500000  1
  P  P13  1  0.007482  0.631957  0.500000  1
  P  P14  1  0.818216  0.820412  0.500000  1
  P  P15  1  0.181342  0.002153  0.500000  1
  P  P16  1  0.995861  0.180592  0.500000  1
  Ir  Ir17  1  0.194183  0.820465  0.500000  1
  Ir  Ir18  1  0.177428  0.375856  0.500000  1
  Ir  Ir19  1  0.624954  0.805189  0.500000  1
  Ir  Ir20  1  0.811261  0.187146  0.500000  1
  Ir  Ir21  1  0.376948  0.190608  0.500000  1
  Ir  Ir22  1  0.809195  0.623419  0.500000  1
  Ir  Ir23  1  0.127424  0.641002  0.000000  1
  Ir  Ir24  1  0.356931  0.483966  0.000000  1
  Ir  Ir25  1  0.512164  0.868565  0.000000  1
  Ir  Ir26  1  0.633897  0.128079  0.000000  1
  Ir  Ir27  1  0.500405  0.368240  0.000000  1
  Ir  Ir28  1  0.875010  0.509832  0.000000  1
  Ir  Ir29  1  0.546824  0.554152  0.500000  1
  Ir  Ir30  1  0.443377  0.991163  0.500000  1
  Ir  Ir31  1  0.995274  0.443066  0.500000  1
  Ir  Ir32  1  0.718950  0.714536  0.000000  1
  Ir  Ir33  1  0.286656  0.006953  0.000000  1
  Ir  Ir34  1  0.995920  0.280311  0.000000  1
  Ir  Ir35  1  0.999965  0.999832  0.500000  1
