# generated using pymatgen
data_Er8Ti12Si15Sn
_symmetry_space_group_name_H-M   'P 1'
_cell_length_a   7.08442928
_cell_length_b   7.04575467
_cell_length_c   12.97257097
_cell_angle_alpha   89.98529314
_cell_angle_beta   89.74294497
_cell_angle_gamma   89.92306176
_symmetry_Int_Tables_number   1
_chemical_formula_structural   Er8Ti12Si15Sn
_chemical_formula_sum   'Er8 Ti12 Si15 Sn1'
_cell_volume   647.52071303
_cell_formula_units_Z   1
loop_
 _symmetry_equiv_pos_site_id
 _symmetry_equiv_pos_as_xyz
  1  'x, y, z'
loop_
 _atom_site_type_symbol
 _atom_site_label
 _atom_site_symmetry_multiplicity
 _atom_site_fract_x
 _atom_site_fract_y
 _atom_site_fract_z
 _atom_site_occupancy
  Er  Er0  1  0.342910  0.998883  0.461300  1
  Er  Er1  1  0.505951  0.834938  0.718187  1
  Er  Er2  1  0.502301  0.160019  0.216861  1
  Er  Er3  1  0.840829  0.496771  0.282242  1
  Er  Er4  1  0.159425  0.510101  0.786142  1
  Er  Er5  1  0.661751  0.996575  0.968819  1
  Er  Er6  1  0.991983  0.348554  0.527436  1
  Er  Er7  1  0.999731  0.659258  0.034036  1
  Ti  Ti8  1  0.326406  0.326503  0.001247  1
  Ti  Ti9  1  0.173777  0.825993  0.249667  1
  Ti  Ti10  1  0.816659  0.175020  0.752108  1
  Ti  Ti11  1  0.672293  0.673370  0.499470  1
  Ti  Ti12  1  0.152596  0.007930  0.883411  1
  Ti  Ti13  1  0.492772  0.649548  0.126879  1
  Ti  Ti14  1  0.514740  0.354558  0.626480  1
  Ti  Ti15  1  0.654023  0.493525  0.875792  1
  Ti  Ti16  1  0.347379  0.509004  0.372693  1
  Ti  Ti17  1  0.846914  0.992848  0.375535  1
  Ti  Ti18  1  0.009966  0.151030  0.123378  1
  Ti  Ti19  1  0.979054  0.835871  0.618616  1
  Si  Si20  1  0.371128  0.703163  0.935672  1
  Si  Si21  1  0.627953  0.297204  0.432426  1
  Si  Si22  1  0.704688  0.368879  0.067116  1
  Si  Si23  1  0.296028  0.631287  0.565941  1
  Si  Si24  1  0.797405  0.869088  0.183830  1
  Si  Si25  1  0.130272  0.202797  0.315172  1
  Si  Si26  1  0.870476  0.799878  0.816440  1
  Si  Si27  1  0.293716  0.951956  0.066960  1
  Si  Si28  1  0.549237  0.789749  0.313605  1
  Si  Si29  1  0.459575  0.209886  0.820225  1
  Si  Si30  1  0.794178  0.544729  0.686963  1
  Si  Si31  1  0.208878  0.452576  0.185098  1
  Si  Si32  1  0.705499  0.048432  0.564341  1
  Si  Si33  1  0.952893  0.292069  0.935376  1
  Si  Si34  1  0.047151  0.710481  0.432583  1
  Sn  Sn35  1  0.199462  0.127530  0.677953  1
