# generated using pymatgen
data_Pr7Sm(OsBr4)2
_symmetry_space_group_name_H-M   'P 1'
_cell_length_a   9.40918768
_cell_length_b   9.43224741
_cell_length_c   6.72100695
_cell_angle_alpha   89.76084901
_cell_angle_beta   89.36443666
_cell_angle_gamma   89.32080992
_symmetry_Int_Tables_number   1
_chemical_formula_structural   Pr7Sm(OsBr4)2
_chemical_formula_sum   'Pr7 Sm1 Os2 Br8'
_cell_volume   596.40445181
_cell_formula_units_Z   1
loop_
 _symmetry_equiv_pos_site_id
 _symmetry_equiv_pos_as_xyz
  1  'x, y, z'
loop_
 _atom_site_type_symbol
 _atom_site_label
 _atom_site_symmetry_multiplicity
 _atom_site_fract_x
 _atom_site_fract_y
 _atom_site_fract_z
 _atom_site_occupancy
  Pr  Pr0  1  0.748169  0.097488  0.995396  1
  Pr  Pr1  1  0.099030  0.749590  0.493089  1
  Pr  Pr2  1  0.095113  0.249188  0.996623  1
  Pr  Pr3  1  0.250530  0.096267  0.494987  1
  Pr  Pr4  1  0.902443  0.750836  0.005689  1
  Pr  Pr5  1  0.901055  0.249934  0.508788  1
  Pr  Pr6  1  0.251364  0.901275  0.006724  1
  Sm  Sm7  1  0.756925  0.905442  0.507685  1
  Os  Os8  1  0.997648  0.001418  0.251200  1
  Os  Os9  1  0.001963  0.998079  0.750277  1
  Br  Br10  1  0.589483  0.176654  0.563927  1
  Br  Br11  1  0.812414  0.597433  0.436631  1
  Br  Br12  1  0.407419  0.184028  0.066855  1
  Br  Br13  1  0.182882  0.407977  0.567593  1
  Br  Br14  1  0.592040  0.817205  0.920798  1
  Br  Br15  1  0.415222  0.818161  0.431179  1
  Br  Br16  1  0.182489  0.587930  0.064522  1
  Br  Br17  1  0.813811  0.411096  0.938039  1
