# generated using pymatgen
data_LaTh5Cd23Sb
_symmetry_space_group_name_H-M   'P 1'
_cell_length_a   10.14344471
_cell_length_b   10.14411597
_cell_length_c   10.14411602
_cell_angle_alpha   59.99562068
_cell_angle_beta   60.00219384
_cell_angle_gamma   60.00219250
_symmetry_Int_Tables_number   1
_chemical_formula_structural   LaTh5Cd23Sb
_chemical_formula_sum   'La1 Th5 Cd23 Sb1'
_cell_volume   738.07229055
_cell_formula_units_Z   1
loop_
 _symmetry_equiv_pos_site_id
 _symmetry_equiv_pos_as_xyz
  1  'x, y, z'
loop_
 _atom_site_type_symbol
 _atom_site_label
 _atom_site_symmetry_multiplicity
 _atom_site_fract_x
 _atom_site_fract_y
 _atom_site_fract_z
 _atom_site_occupancy
  La  La0  1  0.221167  0.778833  0.778833  1
  Th  Th1  1  0.781034  0.783269  0.218966  1
  Th  Th2  1  0.216731  0.783269  0.218966  1
  Th  Th3  1  0.781994  0.218006  0.218006  1
  Th  Th4  1  0.216731  0.218966  0.783269  1
  Th  Th5  1  0.781034  0.218966  0.783269  1
  Cd  Cd6  1  0.837965  0.840344  0.483727  1
  Cd  Cd7  1  0.837965  0.483727  0.840344  1
  Cd  Cd8  1  0.484756  0.838803  0.838803  1
  Cd  Cd9  1  0.837638  0.838803  0.838803  1
  Cd  Cd10  1  0.161197  0.162362  0.515244  1
  Cd  Cd11  1  0.161197  0.515244  0.162362  1
  Cd  Cd12  1  0.516273  0.162035  0.162035  1
  Cd  Cd13  1  0.159656  0.162035  0.162035  1
  Cd  Cd14  1  0.624213  0.624643  0.126931  1
  Cd  Cd15  1  0.624213  0.126931  0.624643  1
  Cd  Cd16  1  0.127309  0.623069  0.623069  1
  Cd  Cd17  1  0.626553  0.623069  0.623069  1
  Cd  Cd18  1  0.376931  0.373447  0.872691  1
  Cd  Cd19  1  0.376931  0.872691  0.373447  1
  Cd  Cd20  1  0.873069  0.375787  0.375787  1
  Cd  Cd21  1  0.375357  0.375787  0.375787  1
  Cd  Cd22  1  0.000315  0.999685  0.500655  1
  Cd  Cd23  1  0.499345  0.999685  0.500655  1
  Cd  Cd24  1  0.999250  0.500750  0.500750  1
  Cd  Cd25  1  0.499345  0.500655  0.999685  1
  Cd  Cd26  1  0.000315  0.500655  0.999685  1
  Cd  Cd27  1  0.499250  0.000750  0.000750  1
  Cd  Cd28  1  0.501388  0.498612  0.498612  1
  Sb  Sb29  1  0.000878  0.999122  0.999122  1
