# generated using pymatgen
data_Dy5Tc5(P6Rh7)2
_symmetry_space_group_name_H-M   'P 1'
_cell_length_a   12.64427067
_cell_length_b   12.64126772
_cell_length_c   3.98655700
_cell_angle_alpha   90.00000000
_cell_angle_beta   90.00000000
_cell_angle_gamma   120.09989165
_symmetry_Int_Tables_number   1
_chemical_formula_structural   Dy5Tc5(P6Rh7)2
_chemical_formula_sum   'Dy5 Tc5 P12 Rh14'
_cell_volume   551.28349775
_cell_formula_units_Z   1
loop_
 _symmetry_equiv_pos_site_id
 _symmetry_equiv_pos_as_xyz
  1  'x, y, z'
loop_
 _atom_site_type_symbol
 _atom_site_label
 _atom_site_symmetry_multiplicity
 _atom_site_fract_x
 _atom_site_fract_y
 _atom_site_fract_z
 _atom_site_occupancy
  Dy  Dy0  1  0.666461  0.331608  0.000000  1
  Dy  Dy1  1  0.333797  0.668190  0.000000  1
  Dy  Dy2  1  0.816158  0.001614  0.500000  1
  Dy  Dy3  1  0.181431  0.184533  0.500000  1
  Dy  Dy4  1  0.999069  0.814966  0.500000  1
  Tc  Tc5  1  0.514850  0.875572  0.500000  1
  Tc  Tc6  1  0.714776  0.712017  0.500000  1
  Tc  Tc7  1  0.004158  0.289827  0.500000  1
  Tc  Tc8  1  0.813849  0.193759  0.000000  1
  Tc  Tc9  1  0.283902  0.999663  0.500000  1
  P  P10  1  0.630459  0.995365  0.000000  1
  P  P11  1  0.365462  0.365764  0.000000  1
  P  P12  1  0.000193  0.633561  0.000000  1
  P  P13  1  0.690218  0.518576  0.500000  1
  P  P14  1  0.827532  0.303674  0.500000  1
  P  P15  1  0.315361  0.833835  0.500000  1
  P  P16  1  0.521256  0.693799  0.500000  1
  P  P17  1  0.180055  0.999752  0.000000  1
  P  P18  1  0.818561  0.817086  0.000000  1
  P  P19  1  0.995367  0.181614  0.000000  1
  P  P20  1  0.477381  0.168460  0.500000  1
  P  P21  1  0.171591  0.482973  0.500000  1
  Rh  Rh22  1  0.623727  0.803180  0.000000  1
  Rh  Rh23  1  0.186823  0.378954  0.000000  1
  Rh  Rh24  1  0.375692  0.184209  0.000000  1
  Rh  Rh25  1  0.191116  0.816376  0.000000  1
  Rh  Rh26  1  0.806484  0.620324  0.000000  1
  Rh  Rh27  1  0.872390  0.507212  0.500000  1
  Rh  Rh28  1  0.489966  0.360825  0.500000  1
  Rh  Rh29  1  0.632526  0.128187  0.500000  1
  Rh  Rh30  1  0.130230  0.641305  0.500000  1
  Rh  Rh31  1  0.363395  0.491741  0.500000  1
  Rh  Rh32  1  0.999356  0.000245  0.000000  1
  Rh  Rh33  1  0.449030  0.001544  0.000000  1
  Rh  Rh34  1  0.549959  0.544474  0.000000  1
  Rh  Rh35  1  0.007421  0.455217  0.000000  1
