# generated using pymatgen
data_Dy2Y3P12Ru16Pt3
_symmetry_space_group_name_H-M   'P 1'
_cell_length_a   12.62832400
_cell_length_b   12.62832366
_cell_length_c   3.97197200
_cell_angle_alpha   90.00000000
_cell_angle_beta   90.00000000
_cell_angle_gamma   120.00000089
_symmetry_Int_Tables_number   1
_chemical_formula_structural   Dy2Y3P12Ru16Pt3
_chemical_formula_sum   'Dy2 Y3 P12 Ru16 Pt3'
_cell_volume   548.56516587
_cell_formula_units_Z   1
loop_
 _symmetry_equiv_pos_site_id
 _symmetry_equiv_pos_as_xyz
  1  'x, y, z'
loop_
 _atom_site_type_symbol
 _atom_site_label
 _atom_site_symmetry_multiplicity
 _atom_site_fract_x
 _atom_site_fract_y
 _atom_site_fract_z
 _atom_site_occupancy
  Dy  Dy0  1  0.666667  0.333333  0.000000  1
  Dy  Dy1  1  0.333333  0.666667  0.000000  1
  Y  Y2  1  0.816189  0.999285  0.500000  1
  Y  Y3  1  0.183096  0.183811  0.500000  1
  Y  Y4  1  0.000715  0.816904  0.500000  1
  P  P5  1  0.627756  0.987167  0.000000  1
  P  P6  1  0.359411  0.372244  0.000000  1
  P  P7  1  0.012833  0.640589  0.000000  1
  P  P8  1  0.695929  0.528648  0.500000  1
  P  P9  1  0.832720  0.304071  0.500000  1
  P  P10  1  0.308438  0.829458  0.500000  1
  P  P11  1  0.521019  0.691562  0.500000  1
  P  P12  1  0.183278  0.000874  0.000000  1
  P  P13  1  0.817597  0.816722  0.000000  1
  P  P14  1  0.999126  0.182403  0.000000  1
  P  P15  1  0.471352  0.167280  0.500000  1
  P  P16  1  0.170542  0.478981  0.500000  1
  Ru  Ru17  1  0.620984  0.799703  0.000000  1
  Ru  Ru18  1  0.178718  0.379016  0.000000  1
  Ru  Ru19  1  0.378469  0.187976  0.000000  1
  Ru  Ru20  1  0.200297  0.821282  0.000000  1
  Ru  Ru21  1  0.809507  0.621531  0.000000  1
  Ru  Ru22  1  0.126567  0.636167  0.500000  1
  Ru  Ru23  1  0.363833  0.490401  0.500000  1
  Ru  Ru24  1  0.509599  0.873433  0.500000  1
  Ru  Ru25  1  0.000000  0.000000  0.000000  1
  Ru  Ru26  1  0.717188  0.715750  0.500000  1
  Ru  Ru27  1  0.998562  0.282812  0.500000  1
  Ru  Ru28  1  0.453273  0.005618  0.000000  1
  Ru  Ru29  1  0.552344  0.546727  0.000000  1
  Ru  Ru30  1  0.994382  0.447656  0.000000  1
  Ru  Ru31  1  0.812024  0.190493  0.000000  1
  Ru  Ru32  1  0.284250  0.001438  0.500000  1
  Pt  Pt33  1  0.868221  0.501903  0.500000  1
  Pt  Pt34  1  0.498097  0.366318  0.500000  1
  Pt  Pt35  1  0.633682  0.131779  0.500000  1
