# generated using pymatgen
data_Ho5Tm15Si15Pt
_symmetry_space_group_name_H-M   'P 1'
_cell_length_a   7.31493745
_cell_length_b   7.66129939
_cell_length_c   14.43575400
_cell_angle_alpha   89.94266906
_cell_angle_beta   90.05565924
_cell_angle_gamma   90.02185580
_symmetry_Int_Tables_number   1
_chemical_formula_structural   Ho5Tm15Si15Pt
_chemical_formula_sum   'Ho5 Tm15 Si15 Pt1'
_cell_volume   809.00660975
_cell_formula_units_Z   1
loop_
 _symmetry_equiv_pos_site_id
 _symmetry_equiv_pos_as_xyz
  1  'x, y, z'
loop_
 _atom_site_type_symbol
 _atom_site_label
 _atom_site_symmetry_multiplicity
 _atom_site_fract_x
 _atom_site_fract_y
 _atom_site_fract_z
 _atom_site_occupancy
  Ho  Ho0  1  0.975959  0.181141  0.402326  1
  Ho  Ho1  1  0.477027  0.316900  0.403261  1
  Ho  Ho2  1  0.975899  0.181368  0.097238  1
  Ho  Ho3  1  0.521442  0.680339  0.906210  1
  Ho  Ho4  1  0.022691  0.820261  0.594187  1
  Tm  Tm5  1  0.676405  0.180524  0.624416  1
  Tm  Tm6  1  0.187302  0.325371  0.875716  1
  Tm  Tm7  1  0.319811  0.820169  0.124150  1
  Tm  Tm8  1  0.818194  0.674988  0.374989  1
  Tm  Tm9  1  0.320369  0.819583  0.375924  1
  Tm  Tm10  1  0.818209  0.675585  0.124173  1
  Tm  Tm11  1  0.676039  0.181183  0.876229  1
  Tm  Tm12  1  0.187149  0.325298  0.624149  1
  Tm  Tm13  1  0.521726  0.680365  0.595023  1
  Tm  Tm14  1  0.024384  0.818981  0.904793  1
  Tm  Tm15  1  0.475252  0.316044  0.097966  1
  Tm  Tm16  1  0.842750  0.511456  0.749840  1
  Tm  Tm17  1  0.352127  0.984934  0.750031  1
  Tm  Tm18  1  0.149955  0.487202  0.249825  1
  Tm  Tm19  1  0.651113  0.010157  0.250106  1
  Si  Si20  1  0.652262  0.967553  0.460832  1
  Si  Si21  1  0.150281  0.529645  0.039921  1
  Si  Si22  1  0.347394  0.028324  0.961213  1
  Si  Si23  1  0.849844  0.471327  0.539583  1
  Si  Si24  1  0.348877  0.026935  0.539336  1
  Si  Si25  1  0.852386  0.472109  0.959765  1
  Si  Si26  1  0.649944  0.969882  0.040168  1
  Si  Si27  1  0.148586  0.529097  0.459701  1
  Si  Si28  1  0.978870  0.104998  0.750471  1
  Si  Si29  1  0.520238  0.604187  0.249724  1
  Si  Si30  1  0.021434  0.891777  0.249627  1
  Si  Si31  1  0.736673  0.876069  0.750449  1
  Si  Si32  1  0.223344  0.633550  0.749996  1
  Si  Si33  1  0.273088  0.129761  0.249758  1
  Si  Si34  1  0.771789  0.367538  0.249341  1
  Pt  Pt35  1  0.481182  0.405402  0.749568  1
