# generated using pymatgen
data_Eu3Mg3CuRh2
_symmetry_space_group_name_H-M   'P 1'
_cell_length_a   7.53097900
_cell_length_b   7.53097864
_cell_length_c   4.20566500
_cell_angle_alpha   90.00000000
_cell_angle_beta   90.00000000
_cell_angle_gamma   119.99999720
_symmetry_Int_Tables_number   1
_chemical_formula_structural   Eu3Mg3CuRh2
_chemical_formula_sum   'Eu3 Mg3 Cu1 Rh2'
_cell_volume   206.57043900
_cell_formula_units_Z   1
loop_
 _symmetry_equiv_pos_site_id
 _symmetry_equiv_pos_as_xyz
  1  'x, y, z'
loop_
 _atom_site_type_symbol
 _atom_site_label
 _atom_site_symmetry_multiplicity
 _atom_site_fract_x
 _atom_site_fract_y
 _atom_site_fract_z
 _atom_site_occupancy
  Eu  Eu0  1  0.407113  0.987694  0.000000  1
  Eu  Eu1  1  0.012306  0.419420  0.000000  1
  Eu  Eu2  1  0.580580  0.592887  0.000000  1
  Mg  Mg3  1  0.760304  0.995078  0.499999  1
  Mg  Mg4  1  0.234774  0.239697  0.499999  1
  Mg  Mg5  1  0.004922  0.765225  0.499999  1
  Cu  Cu6  1  0.666667  0.333333  0.499999  1
  Rh  Rh7  1  0.000000  0.000000  0.000000  1
  Rh  Rh8  1  0.333334  0.666667  0.499999  1
