# generated using pymatgen
data_Ti8Al14SiPt3Rh4
_symmetry_space_group_name_H-M   'P 1'
_cell_length_a   8.66481308
_cell_length_b   8.64804803
_cell_length_c   8.66481251
_cell_angle_alpha   119.99357362
_cell_angle_beta   119.98915099
_cell_angle_gamma   90.07052194
_symmetry_Int_Tables_number   1
_chemical_formula_structural   Ti8Al14SiPt3Rh4
_chemical_formula_sum   'Ti8 Al14 Si1 Pt3 Rh4'
_cell_volume   458.95172621
_cell_formula_units_Z   1
loop_
 _symmetry_equiv_pos_site_id
 _symmetry_equiv_pos_as_xyz
  1  'x, y, z'
loop_
 _atom_site_type_symbol
 _atom_site_label
 _atom_site_symmetry_multiplicity
 _atom_site_fract_x
 _atom_site_fract_y
 _atom_site_fract_z
 _atom_site_occupancy
  Ti  Ti0  1  0.795172  0.296620  0.088358  1
  Ti  Ti1  1  0.208262  0.296620  0.501448  1
  Ti  Ti2  1  0.203639  0.704230  0.500591  1
  Ti  Ti3  1  0.206750  0.707369  0.909692  1
  Ti  Ti4  1  0.797676  0.707369  0.500619  1
  Ti  Ti5  1  0.792058  0.292473  0.500416  1
  Ti  Ti6  1  0.380047  0.121534  0.741487  1
  Ti  Ti7  1  0.377094  0.637322  0.260229  1
  Al  Al8  1  0.158307  0.340083  0.181775  1
  Al  Al9  1  0.158644  0.980926  0.822283  1
  Al  Al10  1  0.155083  0.342319  0.817278  1
  Al  Al11  1  0.525041  0.342319  0.187236  1
  Al  Al12  1  0.841304  0.657540  0.816238  1
  Al  Al13  1  0.844208  0.025954  0.181746  1
  Al  Al14  1  0.842172  0.656856  0.178071  1
  Al  Al15  1  0.478784  0.656856  0.814684  1
  Al  Al16  1  0.377277  0.122599  0.263688  1
  Al  Al17  1  0.858912  0.122599  0.745322  1
  Al  Al18  1  0.619526  0.879288  0.259762  1
  Al  Al19  1  0.622320  0.361270  0.738950  1
  Al  Al20  1  0.623559  0.877068  0.739180  1
  Al  Al21  1  0.137887  0.877068  0.253509  1
  Si  Si22  1  0.998092  0.497151  0.499059  1
  Pt  Pt23  1  0.998881  0.998861  0.498584  1
  Pt  Pt24  1  0.500277  0.998861  0.999980  1
  Pt  Pt25  1  0.499755  0.500795  0.001039  1
  Rh  Rh26  1  0.499344  0.499883  0.498827  1
  Rh  Rh27  1  0.001056  0.499883  0.000539  1
  Rh  Rh28  1  0.000770  0.000111  0.999340  1
  Rh  Rh29  1  0.498100  0.998170  0.500071  1
