# generated using pymatgen
data_Os3RuO8
_symmetry_space_group_name_H-M   'P 1'
_cell_length_a   5.55230659
_cell_length_b   4.52748173
_cell_length_c   5.55252034
_cell_angle_alpha   89.89718929
_cell_angle_beta   109.65725076
_cell_angle_gamma   90.10256000
_symmetry_Int_Tables_number   1
_chemical_formula_structural   Os3RuO8
_chemical_formula_sum   'Os3 Ru1 O8'
_cell_volume   131.44433728
_cell_formula_units_Z   1
loop_
 _symmetry_equiv_pos_site_id
 _symmetry_equiv_pos_as_xyz
  1  'x, y, z'
loop_
 _atom_site_type_symbol
 _atom_site_label
 _atom_site_symmetry_multiplicity
 _atom_site_fract_x
 _atom_site_fract_y
 _atom_site_fract_z
 _atom_site_occupancy
  Os  Os0  1  0.749996  0.999976  0.249992  1
  Os  Os1  1  0.249999  0.499973  0.250007  1
  Os  Os2  1  0.749999  0.500025  0.749993  1
  Ru  Ru3  1  0.250003  0.000019  0.750010  1
  O  O4  1  0.405613  0.804820  0.099636  1
  O  O5  1  0.903929  0.693916  0.096101  1
  O  O6  1  0.094375  0.195119  0.400344  1
  O  O7  1  0.596081  0.306031  0.403918  1
  O  O8  1  0.405788  0.688861  0.594131  1
  O  O9  1  0.900350  0.804899  0.594352  1
  O  O10  1  0.094201  0.311192  0.905851  1
  O  O11  1  0.599662  0.195164  0.905665  1
