# generated using pymatgen
data_Dy3HoMoOs7
_symmetry_space_group_name_H-M   'P 1'
_cell_length_a   5.28749533
_cell_length_b   5.28749404
_cell_length_c   8.88365601
_cell_angle_alpha   89.99467140
_cell_angle_beta   90.00532879
_cell_angle_gamma   117.98492499
_symmetry_Int_Tables_number   1
_chemical_formula_structural   Dy3HoMoOs7
_chemical_formula_sum   'Dy3 Ho1 Mo1 Os7'
_cell_volume   219.32456803
_cell_formula_units_Z   1
loop_
 _symmetry_equiv_pos_site_id
 _symmetry_equiv_pos_as_xyz
  1  'x, y, z'
loop_
 _atom_site_type_symbol
 _atom_site_label
 _atom_site_symmetry_multiplicity
 _atom_site_fract_x
 _atom_site_fract_y
 _atom_site_fract_z
 _atom_site_occupancy
  Dy  Dy0  1  0.330297  0.669703  0.437975  1
  Dy  Dy1  1  0.666944  0.333056  0.566079  1
  Dy  Dy2  1  0.666948  0.333052  0.934000  1
  Ho  Ho3  1  0.330219  0.669781  0.062017  1
  Mo  Mo4  1  0.832181  0.167819  0.249842  1
  Os  Os5  1  0.993547  0.006453  0.501726  1
  Os  Os6  1  0.993604  0.006396  0.998356  1
  Os  Os7  1  0.827293  0.653553  0.249783  1
  Os  Os8  1  0.346447  0.172707  0.249783  1
  Os  Os9  1  0.177520  0.822480  0.750169  1
  Os  Os10  1  0.173332  0.338331  0.750135  1
  Os  Os11  1  0.661669  0.826668  0.750135  1
