# generated using pymatgen
data_YEr11Co5Bi
_symmetry_space_group_name_H-M   'P 1'
_cell_length_a   8.23592533
_cell_length_b   8.23592501
_cell_length_c   8.22250338
_cell_angle_alpha   110.85786817
_cell_angle_beta   110.82709247
_cell_angle_gamma   106.83159596
_symmetry_Int_Tables_number   1
_chemical_formula_structural   YEr11Co5Bi
_chemical_formula_sum   'Y1 Er11 Co5 Bi1'
_cell_volume   428.28007611
_cell_formula_units_Z   1
loop_
 _symmetry_equiv_pos_site_id
 _symmetry_equiv_pos_as_xyz
  1  'x, y, z'
loop_
 _atom_site_type_symbol
 _atom_site_label
 _atom_site_symmetry_multiplicity
 _atom_site_fract_x
 _atom_site_fract_y
 _atom_site_fract_z
 _atom_site_occupancy
  Y  Y0  1  0.287347  0.184973  0.472321  1
  Er  Er1  1  0.713259  0.816783  0.530041  1
  Er  Er2  1  0.287870  0.816316  0.104185  1
  Er  Er3  1  0.713121  0.183007  0.896128  1
  Er  Er4  1  0.621216  0.311788  0.309151  1
  Er  Er5  1  0.379415  0.689594  0.691243  1
  Er  Er6  1  0.001650  0.311828  0.691243  1
  Er  Er7  1  0.997362  0.687934  0.309151  1
  Er  Er8  1  0.208584  0.404478  0.194655  1
  Er  Er9  1  0.792547  0.597740  0.806037  1
  Er  Er10  1  0.208296  0.013489  0.806037  1
  Er  Er11  1  0.790177  0.986071  0.194655  1
  Co  Co12  1  0.999444  0.374882  0.374326  1
  Co  Co13  1  0.999867  0.624749  0.624617  1
  Co  Co14  1  0.389113  0.886285  0.499039  1
  Co  Co15  1  0.612754  0.109926  0.499039  1
  Co  Co16  1  0.998174  0.000530  0.998704  1
  Bi  Bi17  1  0.499804  0.499625  0.999429  1
