# generated using pymatgen
data_Na6YbI8
_symmetry_space_group_name_H-M   'P 1'
_cell_length_a   9.19852397
_cell_length_b   9.19852284
_cell_length_c   9.19852300
_cell_angle_alpha   60.00000303
_cell_angle_beta   60.00000707
_cell_angle_gamma   60.00000898
_symmetry_Int_Tables_number   1
_chemical_formula_structural   Na6YbI8
_chemical_formula_sum   'Na6 Yb1 I8'
_cell_volume   550.35054248
_cell_formula_units_Z   1
loop_
 _symmetry_equiv_pos_site_id
 _symmetry_equiv_pos_as_xyz
  1  'x, y, z'
loop_
 _atom_site_type_symbol
 _atom_site_label
 _atom_site_symmetry_multiplicity
 _atom_site_fract_x
 _atom_site_fract_y
 _atom_site_fract_z
 _atom_site_occupancy
  Na  Na0  1  0.500000  0.500000  0.000000  1
  Na  Na1  1  0.000000  0.500000  0.000000  1
  Na  Na2  1  0.500000  0.000000  0.000000  1
  Na  Na3  1  0.000000  0.500000  0.500000  1
  Na  Na4  1  0.500000  0.000000  0.500000  1
  Na  Na5  1  0.000000  0.000000  0.500000  1
  Yb  Yb6  1  0.000000  0.000000  0.000000  1
  I  I7  1  0.758645  0.241355  0.758645  1
  I  I8  1  0.250000  0.250000  0.250000  1
  I  I9  1  0.750000  0.750000  0.750000  1
  I  I10  1  0.241355  0.758645  0.241355  1
  I  I11  1  0.241355  0.758645  0.758645  1
  I  I12  1  0.758645  0.241355  0.241355  1
  I  I13  1  0.758645  0.758645  0.241355  1
  I  I14  1  0.241355  0.241355  0.758645  1
