# generated using pymatgen
data_Hf2CuPt3Rh2
_symmetry_space_group_name_H-M   'P 1'
_cell_length_a   4.08707200
_cell_length_b   5.56080100
_cell_length_c   11.06984700
_cell_angle_alpha   90.00000000
_cell_angle_beta   90.00000000
_cell_angle_gamma   90.00000000
_symmetry_Int_Tables_number   1
_chemical_formula_structural   Hf2CuPt3Rh2
_chemical_formula_sum   'Hf4 Cu2 Pt6 Rh4'
_cell_volume   251.58877500
_cell_formula_units_Z   2
loop_
 _symmetry_equiv_pos_site_id
 _symmetry_equiv_pos_as_xyz
  1  'x, y, z'
loop_
 _atom_site_type_symbol
 _atom_site_label
 _atom_site_symmetry_multiplicity
 _atom_site_fract_x
 _atom_site_fract_y
 _atom_site_fract_z
 _atom_site_occupancy
  Hf  Hf0  1  0.500000  0.234752  0.627193  1
  Hf  Hf1  1  0.500000  0.765248  0.372807  1
  Hf  Hf2  1  0.500000  0.734752  0.872807  1
  Hf  Hf3  1  0.500000  0.265248  0.127193  1
  Cu  Cu4  1  0.000000  0.500000  0.500000  1
  Cu  Cu5  1  0.000000  0.000000  0.000000  1
  Pt  Pt6  1  0.000000  0.479568  0.746743  1
  Pt  Pt7  1  0.000000  0.520432  0.253257  1
  Pt  Pt8  1  0.000000  0.000000  0.500000  1
  Pt  Pt9  1  0.000000  0.500000  0.000000  1
  Pt  Pt10  1  0.000000  0.020432  0.246743  1
  Pt  Pt11  1  0.000000  0.979568  0.753257  1
  Rh  Rh12  1  0.500000  0.232805  0.880616  1
  Rh  Rh13  1  0.500000  0.767195  0.119384  1
  Rh  Rh14  1  0.500000  0.732805  0.619384  1
  Rh  Rh15  1  0.500000  0.267195  0.380616  1
