# generated using pymatgen
data_TaNb11Co8(OsN)4
_symmetry_space_group_name_H-M   'P 1'
_cell_length_a   8.11182486
_cell_length_b   8.11182522
_cell_length_c   8.11738300
_cell_angle_alpha   59.97733705
_cell_angle_beta   59.97733559
_cell_angle_gamma   59.95104360
_symmetry_Int_Tables_number   1
_chemical_formula_structural   TaNb11Co8(OsN)4
_chemical_formula_sum   'Ta1 Nb11 Co8 Os4 N4'
_cell_volume   377.42312042
_cell_formula_units_Z   1
loop_
 _symmetry_equiv_pos_site_id
 _symmetry_equiv_pos_as_xyz
  1  'x, y, z'
loop_
 _atom_site_type_symbol
 _atom_site_label
 _atom_site_symmetry_multiplicity
 _atom_site_fract_x
 _atom_site_fract_y
 _atom_site_fract_z
 _atom_site_occupancy
  Ta  Ta0  1  0.805230  0.805230  0.194770  1
  Nb  Nb1  1  0.194186  0.194186  0.805814  1
  Nb  Nb2  1  0.806133  0.194139  0.806059  1
  Nb  Nb3  1  0.194139  0.806133  0.193669  1
  Nb  Nb4  1  0.194139  0.806133  0.806059  1
  Nb  Nb5  1  0.806133  0.194139  0.193669  1
  Nb  Nb6  1  0.442866  0.442866  0.057134  1
  Nb  Nb7  1  0.055966  0.055966  0.444034  1
  Nb  Nb8  1  0.443328  0.056719  0.444573  1
  Nb  Nb9  1  0.056719  0.443328  0.055380  1
  Nb  Nb10  1  0.056719  0.443328  0.444573  1
  Nb  Nb11  1  0.443328  0.056719  0.055380  1
  Co  Co12  1  0.734666  0.422438  0.421449  1
  Co  Co13  1  0.422438  0.734666  0.421449  1
  Co  Co14  1  0.422023  0.422023  0.734394  1
  Co  Co15  1  0.422023  0.422023  0.421562  1
  Co  Co16  1  0.515667  0.828175  0.828078  1
  Co  Co17  1  0.828175  0.515667  0.828078  1
  Co  Co18  1  0.828439  0.828439  0.513896  1
  Co  Co19  1  0.828439  0.828439  0.829224  1
  Os  Os20  1  0.125091  0.625471  0.624719  1
  Os  Os21  1  0.625471  0.125091  0.624719  1
  Os  Os22  1  0.625542  0.625542  0.125210  1
  Os  Os23  1  0.625542  0.625542  0.623707  1
  N  N24  1  0.626412  0.121757  0.125916  1
  N  N25  1  0.121757  0.626412  0.125916  1
  N  N26  1  0.124715  0.124715  0.625395  1
  N  N27  1  0.124715  0.124715  0.125174  1
