# generated using pymatgen
data_Er10PdPt17
_symmetry_space_group_name_H-M   'P 1'
_cell_length_a   9.72828200
_cell_length_b   9.72828200
_cell_length_c   5.74905800
_cell_angle_alpha   90.00000000
_cell_angle_beta   90.00000000
_cell_angle_gamma   89.99958773
_symmetry_Int_Tables_number   1
_chemical_formula_structural   Er10PdPt17
_chemical_formula_sum   'Er10 Pd1 Pt17'
_cell_volume   544.08780597
_cell_formula_units_Z   1
loop_
 _symmetry_equiv_pos_site_id
 _symmetry_equiv_pos_as_xyz
  1  'x, y, z'
loop_
 _atom_site_type_symbol
 _atom_site_label
 _atom_site_symmetry_multiplicity
 _atom_site_fract_x
 _atom_site_fract_y
 _atom_site_fract_z
 _atom_site_occupancy
  Er  Er0  1  0.452882  0.808965  0.000000  1
  Er  Er1  1  0.547118  0.191035  0.000000  1
  Er  Er2  1  0.191035  0.547118  0.000000  1
  Er  Er3  1  0.808965  0.452882  0.000000  1
  Er  Er4  1  0.500000  0.500000  0.500000  1
  Er  Er5  1  0.309942  0.047230  0.500000  1
  Er  Er6  1  0.690058  0.952770  0.500000  1
  Er  Er7  1  0.952770  0.690058  0.500000  1
  Er  Er8  1  0.047230  0.309942  0.500000  1
  Er  Er9  1  0.000000  0.000000  0.000000  1
  Pd  Pd10  1  0.000000  0.000000  0.500000  1
  Pt  Pt11  1  0.191700  0.808300  0.250311  1
  Pt  Pt12  1  0.808300  0.191700  0.749689  1
  Pt  Pt13  1  0.808300  0.191700  0.250311  1
  Pt  Pt14  1  0.191700  0.808300  0.749689  1
  Pt  Pt15  1  0.441052  0.782098  0.500000  1
  Pt  Pt16  1  0.558948  0.217902  0.500000  1
  Pt  Pt17  1  0.217902  0.558948  0.500000  1
  Pt  Pt18  1  0.782098  0.441052  0.500000  1
  Pt  Pt19  1  0.308078  0.308078  0.249729  1
  Pt  Pt20  1  0.691922  0.691922  0.750271  1
  Pt  Pt21  1  0.691922  0.691922  0.249729  1
  Pt  Pt22  1  0.308078  0.308078  0.750271  1
  Pt  Pt23  1  0.281658  0.058866  0.000000  1
  Pt  Pt24  1  0.718342  0.941134  0.000000  1
  Pt  Pt25  1  0.941134  0.718342  0.000000  1
  Pt  Pt26  1  0.058866  0.281658  0.000000  1
  Pt  Pt27  1  0.500000  0.500000  0.000000  1
