# generated using pymatgen
data_Ti3Mn8Ga
_symmetry_space_group_name_H-M   'P 1'
_cell_length_a   4.71716700
_cell_length_b   4.71716686
_cell_length_c   7.78456200
_cell_angle_alpha   90.00000000
_cell_angle_beta   90.00000000
_cell_angle_gamma   120.00000803
_symmetry_Int_Tables_number   1
_chemical_formula_structural   Ti3Mn8Ga
_chemical_formula_sum   'Ti3 Mn8 Ga1'
_cell_volume   150.01243774
_cell_formula_units_Z   1
loop_
 _symmetry_equiv_pos_site_id
 _symmetry_equiv_pos_as_xyz
  1  'x, y, z'
loop_
 _atom_site_type_symbol
 _atom_site_label
 _atom_site_symmetry_multiplicity
 _atom_site_fract_x
 _atom_site_fract_y
 _atom_site_fract_z
 _atom_site_occupancy
  Ti  Ti0  1  0.666667  0.333333  0.438970  1
  Ti  Ti1  1  0.666667  0.333333  0.064671  1
  Ti  Ti2  1  0.000000  0.000000  0.928053  1
  Mn  Mn3  1  0.333333  0.666667  0.500323  1
  Mn  Mn4  1  0.333333  0.666667  0.004921  1
  Mn  Mn5  1  0.506047  0.012094  0.749757  1
  Mn  Mn6  1  0.506047  0.493953  0.749757  1
  Mn  Mn7  1  0.987906  0.493953  0.749757  1
  Mn  Mn8  1  0.159340  0.318679  0.250057  1
  Mn  Mn9  1  0.159340  0.840660  0.250057  1
  Mn  Mn10  1  0.681321  0.840660  0.250057  1
  Ga  Ga11  1  0.000000  0.000000  0.563640  1
