# generated using pymatgen
data_Y4SBr6
_symmetry_space_group_name_H-M   'P 1'
_cell_length_a   3.98601100
_cell_length_b   13.01805500
_cell_length_c   13.75866400
_cell_angle_alpha   90.00000000
_cell_angle_beta   90.00000000
_cell_angle_gamma   90.00000000
_symmetry_Int_Tables_number   1
_chemical_formula_structural   Y4SBr6
_chemical_formula_sum   'Y8 S2 Br12'
_cell_volume   713.93859431
_cell_formula_units_Z   2
loop_
 _symmetry_equiv_pos_site_id
 _symmetry_equiv_pos_as_xyz
  1  'x, y, z'
loop_
 _atom_site_type_symbol
 _atom_site_label
 _atom_site_symmetry_multiplicity
 _atom_site_fract_x
 _atom_site_fract_y
 _atom_site_fract_z
 _atom_site_occupancy
  Y  Y0  1  0.500000  0.116095  0.344724  1
  Y  Y1  1  0.500000  0.883905  0.655276  1
  Y  Y2  1  0.500000  0.616095  0.155276  1
  Y  Y3  1  0.500000  0.383905  0.844724  1
  Y  Y4  1  0.000000  0.113019  0.575156  1
  Y  Y5  1  0.000000  0.886981  0.424844  1
  Y  Y6  1  0.000000  0.613019  0.924844  1
  Y  Y7  1  0.000000  0.386981  0.075156  1
  S  S8  1  0.500000  0.000000  0.500000  1
  S  S9  1  0.500000  0.500000  0.000000  1
  Br  Br10  1  0.500000  0.245092  0.161285  1
  Br  Br11  1  0.500000  0.754908  0.838715  1
  Br  Br12  1  0.500000  0.745092  0.338715  1
  Br  Br13  1  0.500000  0.254908  0.661285  1
  Br  Br14  1  0.000000  0.258374  0.413577  1
  Br  Br15  1  0.000000  0.741626  0.586423  1
  Br  Br16  1  0.000000  0.758374  0.086423  1
  Br  Br17  1  0.000000  0.241626  0.913577  1
  Br  Br18  1  0.000000  0.999249  0.240896  1
  Br  Br19  1  0.000000  0.000751  0.759104  1
  Br  Br20  1  0.000000  0.499249  0.259104  1
  Br  Br21  1  0.000000  0.500751  0.740896  1
