# generated using pymatgen
data_Lu2PdPtF14
_symmetry_space_group_name_H-M   'P 1'
_cell_length_a   5.46101927
_cell_length_b   8.69723112
_cell_length_c   11.80143327
_cell_angle_alpha   62.82119896
_cell_angle_beta   89.96934705
_cell_angle_gamma   90.07542916
_symmetry_Int_Tables_number   1
_chemical_formula_structural   Lu2PdPtF14
_chemical_formula_sum   'Lu4 Pd2 Pt2 F28'
_cell_volume   498.62770858
_cell_formula_units_Z   2
loop_
 _symmetry_equiv_pos_site_id
 _symmetry_equiv_pos_as_xyz
  1  'x, y, z'
loop_
 _atom_site_type_symbol
 _atom_site_label
 _atom_site_symmetry_multiplicity
 _atom_site_fract_x
 _atom_site_fract_y
 _atom_site_fract_z
 _atom_site_occupancy
  Lu  Lu0  1  0.261573  0.815866  0.262909  1
  Lu  Lu1  1  0.738427  0.184134  0.737091  1
  Lu  Lu2  1  0.762989  0.185410  0.234721  1
  Lu  Lu3  1  0.237011  0.814590  0.765279  1
  Pd  Pd4  1  0.759947  0.727817  0.043002  1
  Pd  Pd5  1  0.240053  0.272183  0.956998  1
  Pt  Pt6  1  0.260378  0.272210  0.456557  1
  Pt  Pt7  1  0.739622  0.727790  0.543443  1
  F  F8  1  0.938894  0.700694  0.414929  1
  F  F9  1  0.061106  0.299306  0.585071  1
  F  F10  1  0.436437  0.299714  0.083766  1
  F  F11  1  0.563563  0.700286  0.916234  1
  F  F12  1  0.465020  0.724570  0.137038  1
  F  F13  1  0.534980  0.275430  0.862962  1
  F  F14  1  0.964796  0.276631  0.360078  1
  F  F15  1  0.035204  0.723369  0.639922  1
  F  F16  1  0.950390  0.747466  0.176524  1
  F  F17  1  0.049610  0.252534  0.823476  1
  F  F18  1  0.452661  0.252047  0.322385  1
  F  F19  1  0.547339  0.747953  0.677615  1
  F  F20  1  0.777986  0.476517  0.142106  1
  F  F21  1  0.222014  0.523483  0.857894  1
  F  F22  1  0.279571  0.525557  0.355729  1
  F  F23  1  0.720429  0.474443  0.644271  1
  F  F24  1  0.936132  0.277112  0.043114  1
  F  F25  1  0.063868  0.722888  0.956886  1
  F  F26  1  0.434445  0.724726  0.454887  1
  F  F27  1  0.565555  0.275274  0.545113  1
  F  F28  1  0.747346  0.980662  0.448378  1
  F  F29  1  0.252654  0.019338  0.551622  1
  F  F30  1  0.246786  0.021886  0.049889  1
  F  F31  1  0.753214  0.978114  0.950111  1
  F  F32  1  0.581294  0.972350  0.232370  1
  F  F33  1  0.418706  0.027650  0.767630  1
  F  F34  1  0.081422  0.028511  0.266506  1
  F  F35  1  0.918578  0.971489  0.733494  1
