# generated using pymatgen
data_KZn4BiO7
_symmetry_space_group_name_H-M   'P 1'
_cell_length_a   6.36300400
_cell_length_b   6.36300304
_cell_length_c   10.33318700
_cell_angle_alpha   90.00000000
_cell_angle_beta   90.00000000
_cell_angle_gamma   120.00000499
_symmetry_Int_Tables_number   1
_chemical_formula_structural   KZn4BiO7
_chemical_formula_sum   'K2 Zn8 Bi2 O14'
_cell_volume   362.31742884
_cell_formula_units_Z   2
loop_
 _symmetry_equiv_pos_site_id
 _symmetry_equiv_pos_as_xyz
  1  'x, y, z'
loop_
 _atom_site_type_symbol
 _atom_site_label
 _atom_site_symmetry_multiplicity
 _atom_site_fract_x
 _atom_site_fract_y
 _atom_site_fract_z
 _atom_site_occupancy
  K  K0  1  0.333333  0.666667  0.822336  1
  K  K1  1  0.666667  0.333333  0.322336  1
  Zn  Zn2  1  0.000000  0.000000  0.251503  1
  Zn  Zn3  1  0.000000  0.000000  0.751503  1
  Zn  Zn4  1  0.341085  0.170542  0.006957  1
  Zn  Zn5  1  0.829458  0.658915  0.006957  1
  Zn  Zn6  1  0.829458  0.170542  0.006957  1
  Zn  Zn7  1  0.658915  0.829458  0.506957  1
  Zn  Zn8  1  0.170542  0.341085  0.506957  1
  Zn  Zn9  1  0.170542  0.829458  0.506957  1
  Bi  Bi10  1  0.333333  0.666667  0.195118  1
  Bi  Bi11  1  0.666667  0.333333  0.695118  1
  O  O12  1  0.000000  0.000000  0.060316  1
  O  O13  1  0.000000  0.000000  0.560316  1
  O  O14  1  0.170787  0.341574  0.315617  1
  O  O15  1  0.170787  0.829213  0.315617  1
  O  O16  1  0.658426  0.829213  0.315617  1
  O  O17  1  0.829213  0.658426  0.815617  1
  O  O18  1  0.829213  0.170787  0.815617  1
  O  O19  1  0.341574  0.170787  0.815617  1
  O  O20  1  0.495434  0.990869  0.074442  1
  O  O21  1  0.495434  0.504566  0.074442  1
  O  O22  1  0.009131  0.504566  0.074442  1
  O  O23  1  0.504566  0.009131  0.574442  1
  O  O24  1  0.504566  0.495434  0.574442  1
  O  O25  1  0.990869  0.495434  0.574442  1
