# generated using pymatgen
data_TbPr11Th4(MgRu)4
_symmetry_space_group_name_H-M   'P 1'
_cell_length_a   10.04389723
_cell_length_b   10.04389778
_cell_length_c   10.04946100
_cell_angle_alpha   59.98167245
_cell_angle_beta   59.98167066
_cell_angle_gamma   60.00542652
_symmetry_Int_Tables_number   1
_chemical_formula_structural   TbPr11Th4(MgRu)4
_chemical_formula_sum   'Tb1 Pr11 Th4 Mg4 Ru4'
_cell_volume   716.68735736
_cell_formula_units_Z   1
loop_
 _symmetry_equiv_pos_site_id
 _symmetry_equiv_pos_as_xyz
  1  'x, y, z'
loop_
 _atom_site_type_symbol
 _atom_site_label
 _atom_site_symmetry_multiplicity
 _atom_site_fract_x
 _atom_site_fract_y
 _atom_site_fract_z
 _atom_site_occupancy
  Tb  Tb0  1  0.192316  0.192316  0.807684  1
  Pr  Pr1  1  0.060221  0.439575  0.441043  1
  Pr  Pr2  1  0.439575  0.060221  0.059161  1
  Pr  Pr3  1  0.439575  0.060221  0.441043  1
  Pr  Pr4  1  0.060221  0.439575  0.059161  1
  Pr  Pr5  1  0.439162  0.439162  0.060838  1
  Pr  Pr6  1  0.059997  0.059997  0.440003  1
  Pr  Pr7  1  0.189529  0.812461  0.810512  1
  Pr  Pr8  1  0.812461  0.189529  0.187498  1
  Pr  Pr9  1  0.812461  0.189529  0.810512  1
  Pr  Pr10  1  0.189529  0.812461  0.187498  1
  Pr  Pr11  1  0.810708  0.810708  0.189292  1
  Th  Th12  1  0.592846  0.592846  0.593838  1
  Th  Th13  1  0.592846  0.592846  0.220472  1
  Th  Th14  1  0.593459  0.218441  0.594051  1
  Th  Th15  1  0.218441  0.593459  0.594051  1
  Mg  Mg16  1  0.828586  0.828586  0.829366  1
  Mg  Mg17  1  0.828586  0.828586  0.513461  1
  Mg  Mg18  1  0.830007  0.511990  0.829001  1
  Mg  Mg19  1  0.511990  0.830007  0.829001  1
  Ru  Ru20  1  0.394629  0.394629  0.398689  1
  Ru  Ru21  1  0.394629  0.394629  0.812054  1
  Ru  Ru22  1  0.397200  0.811028  0.395886  1
  Ru  Ru23  1  0.811028  0.397200  0.395886  1
