# generated using pymatgen
data_TbYTa3Ge4
_symmetry_space_group_name_H-M   'P 1'
_cell_length_a   7.01723700
_cell_length_b   7.17408600
_cell_length_c   13.58119000
_cell_angle_alpha   90.00000000
_cell_angle_beta   90.00000000
_cell_angle_gamma   90.00000000
_symmetry_Int_Tables_number   1
_chemical_formula_structural   TbYTa3Ge4
_chemical_formula_sum   'Tb4 Y4 Ta12 Ge16'
_cell_volume   683.70782145
_cell_formula_units_Z   4
loop_
 _symmetry_equiv_pos_site_id
 _symmetry_equiv_pos_as_xyz
  1  'x, y, z'
loop_
 _atom_site_type_symbol
 _atom_site_label
 _atom_site_symmetry_multiplicity
 _atom_site_fract_x
 _atom_site_fract_y
 _atom_site_fract_z
 _atom_site_occupancy
  Tb  Tb0  1  0.504971  0.326730  0.405710  1
  Tb  Tb1  1  0.004971  0.173270  0.094290  1
  Tb  Tb2  1  0.495029  0.673270  0.905710  1
  Tb  Tb3  1  0.995029  0.826730  0.594290  1
  Y  Y4  1  0.495003  0.673273  0.594294  1
  Y  Y5  1  0.995003  0.826727  0.905706  1
  Y  Y6  1  0.504997  0.326727  0.094294  1
  Y  Y7  1  0.004997  0.173273  0.405706  1
  Ta  Ta8  1  0.659411  0.169374  0.626321  1
  Ta  Ta9  1  0.159411  0.330626  0.873679  1
  Ta  Ta10  1  0.340589  0.830626  0.126321  1
  Ta  Ta11  1  0.840589  0.669374  0.373679  1
  Ta  Ta12  1  0.340607  0.830625  0.373678  1
  Ta  Ta13  1  0.840607  0.669375  0.126322  1
  Ta  Ta14  1  0.659393  0.169375  0.873678  1
  Ta  Ta15  1  0.159393  0.330625  0.626322  1
  Ta  Ta16  1  0.835035  0.484886  0.749993  1
  Ta  Ta17  1  0.335035  0.015114  0.750007  1
  Ta  Ta18  1  0.164965  0.515114  0.249993  1
  Ta  Ta19  1  0.664965  0.984886  0.250007  1
  Ge  Ge20  1  0.676045  0.960504  0.457768  1
  Ge  Ge21  1  0.176045  0.539496  0.042232  1
  Ge  Ge22  1  0.323955  0.039496  0.957768  1
  Ge  Ge23  1  0.823955  0.460504  0.542232  1
  Ge  Ge24  1  0.323963  0.039486  0.542227  1
  Ge  Ge25  1  0.823963  0.460514  0.957773  1
  Ge  Ge26  1  0.676037  0.960514  0.042227  1
  Ge  Ge27  1  0.176037  0.539486  0.457773  1
  Ge  Ge28  1  0.459719  0.378405  0.750002  1
  Ge  Ge29  1  0.959719  0.121595  0.749998  1
  Ge  Ge30  1  0.540281  0.621595  0.250002  1
  Ge  Ge31  1  0.040281  0.878405  0.249998  1
  Ge  Ge32  1  0.693750  0.860229  0.750000  1
  Ge  Ge33  1  0.193750  0.639771  0.750000  1
  Ge  Ge34  1  0.306250  0.139771  0.250000  1
  Ge  Ge35  1  0.806250  0.360229  0.250000  1
