# generated using pymatgen
data_Pu3AlNi3Ge2
_symmetry_space_group_name_H-M   'P 1'
_cell_length_a   6.85961115
_cell_length_b   6.85961023
_cell_length_c   3.92511400
_cell_angle_alpha   90.00000000
_cell_angle_beta   90.00000000
_cell_angle_gamma   120.62538530
_symmetry_Int_Tables_number   1
_chemical_formula_structural   Pu3AlNi3Ge2
_chemical_formula_sum   'Pu3 Al1 Ni3 Ge2'
_cell_volume   158.93164110
_cell_formula_units_Z   1
loop_
 _symmetry_equiv_pos_site_id
 _symmetry_equiv_pos_as_xyz
  1  'x, y, z'
loop_
 _atom_site_type_symbol
 _atom_site_label
 _atom_site_symmetry_multiplicity
 _atom_site_fract_x
 _atom_site_fract_y
 _atom_site_fract_z
 _atom_site_occupancy
  Pu  Pu0  1  0.421395  0.998586  0.500000  1
  Pu  Pu1  1  0.998586  0.421395  0.500000  1
  Pu  Pu2  1  0.582618  0.582618  0.500000  1
  Al  Al3  1  0.235292  0.235292  0.000000  1
  Ni  Ni4  1  0.334122  0.662896  0.000000  1
  Ni  Ni5  1  0.662896  0.334122  0.000000  1
  Ni  Ni6  1  0.997254  0.997254  0.500000  1
  Ge  Ge7  1  0.761682  0.006157  0.000000  1
  Ge  Ge8  1  0.006157  0.761682  0.000000  1
