# generated using pymatgen
data_Sr8LaPt6
_symmetry_space_group_name_H-M   'P 1'
_cell_length_a   8.09027355
_cell_length_b   8.09027344
_cell_length_c   8.09027406
_cell_angle_alpha   70.11299873
_cell_angle_beta   70.11300043
_cell_angle_gamma   70.11299696
_symmetry_Int_Tables_number   1
_chemical_formula_structural   Sr8LaPt6
_chemical_formula_sum   'Sr8 La1 Pt6'
_cell_volume   452.92030632
_cell_formula_units_Z   1
loop_
 _symmetry_equiv_pos_site_id
 _symmetry_equiv_pos_as_xyz
  1  'x, y, z'
loop_
 _atom_site_type_symbol
 _atom_site_label
 _atom_site_symmetry_multiplicity
 _atom_site_fract_x
 _atom_site_fract_y
 _atom_site_fract_z
 _atom_site_occupancy
  Sr  Sr0  1  0.003139  0.003139  0.003139  1
  Sr  Sr1  1  0.201571  0.201571  0.201571  1
  Sr  Sr2  1  0.330263  0.608273  0.844601  1
  Sr  Sr3  1  0.844601  0.330263  0.608273  1
  Sr  Sr4  1  0.608273  0.844601  0.330263  1
  Sr  Sr5  1  0.669746  0.391182  0.155293  1
  Sr  Sr6  1  0.155293  0.669746  0.391182  1
  Sr  Sr7  1  0.391182  0.155293  0.669746  1
  La  La8  1  0.803870  0.803870  0.803870  1
  Pt  Pt9  1  0.142167  0.953208  0.596112  1
  Pt  Pt10  1  0.596112  0.142167  0.953208  1
  Pt  Pt11  1  0.953208  0.596112  0.142167  1
  Pt  Pt12  1  0.838561  0.034082  0.427932  1
  Pt  Pt13  1  0.427932  0.838561  0.034082  1
  Pt  Pt14  1  0.034082  0.427932  0.838561  1
