# generated using pymatgen
data_Pr5Hf2ThBi10
_symmetry_space_group_name_H-M   'P 1'
_cell_length_a   9.78274200
_cell_length_b   9.78418699
_cell_length_c   6.51476600
_cell_angle_alpha   90.00000000
_cell_angle_beta   90.00000000
_cell_angle_gamma   119.99512147
_symmetry_Int_Tables_number   1
_chemical_formula_structural   Pr5Hf2ThBi10
_chemical_formula_sum   'Pr5 Hf2 Th1 Bi10'
_cell_volume   540.05270339
_cell_formula_units_Z   1
loop_
 _symmetry_equiv_pos_site_id
 _symmetry_equiv_pos_as_xyz
  1  'x, y, z'
loop_
 _atom_site_type_symbol
 _atom_site_label
 _atom_site_symmetry_multiplicity
 _atom_site_fract_x
 _atom_site_fract_y
 _atom_site_fract_z
 _atom_site_occupancy
  Pr  Pr0  1  0.380778  0.000000  0.750000  1
  Pr  Pr1  1  0.000911  0.619394  0.250000  1
  Pr  Pr2  1  0.999818  0.382865  0.750000  1
  Pr  Pr3  1  0.381516  0.380606  0.250000  1
  Pr  Pr4  1  0.616954  0.617135  0.750000  1
  Hf  Hf5  1  0.000921  0.000000  0.998059  1
  Hf  Hf6  1  0.000921  0.000000  0.501941  1
  Th  Th7  1  0.617453  0.000000  0.250000  1
  Bi  Bi8  1  0.264077  0.000000  0.250000  1
  Bi  Bi9  1  0.735427  0.000000  0.750000  1
  Bi  Bi10  1  0.998964  0.262475  0.250000  1
  Bi  Bi11  1  0.999323  0.736009  0.750000  1
  Bi  Bi12  1  0.736489  0.737525  0.250000  1
  Bi  Bi13  1  0.263315  0.263991  0.750000  1
  Bi  Bi14  1  0.334990  0.668415  0.000590  1
  Bi  Bi15  1  0.666576  0.331585  0.000590  1
  Bi  Bi16  1  0.666576  0.331585  0.499410  1
  Bi  Bi17  1  0.334990  0.668415  0.499410  1
