# generated using pymatgen
data_Y8Sb(PdPt)12
_symmetry_space_group_name_H-M   'P 1'
_cell_length_a   8.42310956
_cell_length_b   8.43408926
_cell_length_c   8.42308776
_cell_angle_alpha   89.97326028
_cell_angle_beta   89.91125701
_cell_angle_gamma   89.98967742
_symmetry_Int_Tables_number   1
_chemical_formula_structural   Y8Sb(PdPt)12
_chemical_formula_sum   'Y8 Sb1 Pd12 Pt12'
_cell_volume   598.38595702
_cell_formula_units_Z   1
loop_
 _symmetry_equiv_pos_site_id
 _symmetry_equiv_pos_as_xyz
  1  'x, y, z'
loop_
 _atom_site_type_symbol
 _atom_site_label
 _atom_site_symmetry_multiplicity
 _atom_site_fract_x
 _atom_site_fract_y
 _atom_site_fract_z
 _atom_site_occupancy
  Y  Y0  1  0.746770  0.745512  0.254201  1
  Y  Y1  1  0.745590  0.254565  0.745984  1
  Y  Y2  1  0.253993  0.745873  0.745912  1
  Y  Y3  1  0.746148  0.745466  0.745863  1
  Y  Y4  1  0.746401  0.254450  0.254160  1
  Y  Y5  1  0.254577  0.254202  0.746174  1
  Y  Y6  1  0.253417  0.746057  0.254119  1
  Y  Y7  1  0.253787  0.253922  0.253968  1
  Sb  Sb8  1  0.000870  0.999835  0.001114  1
  Pd  Pd9  1  0.499665  0.000112  0.264214  1
  Pd  Pd10  1  0.000002  0.264949  0.500050  1
  Pd  Pd11  1  0.499845  0.735004  0.999872  1
  Pd  Pd12  1  0.999724  0.000318  0.694724  1
  Pd  Pd13  1  0.000019  0.499790  0.264034  1
  Pd  Pd14  1  0.999742  0.306319  0.999466  1
  Pd  Pd15  1  0.999702  0.693511  0.999485  1
  Pd  Pd16  1  0.694287  0.999989  0.999659  1
  Pd  Pd17  1  0.264370  0.499994  0.000137  1
  Pd  Pd18  1  0.264252  0.999922  0.499693  1
  Pd  Pd19  1  0.999947  0.499794  0.735195  1
  Pd  Pd20  1  0.499856  0.264840  0.999922  1
  Pt  Pt21  1  0.999322  0.000192  0.307054  1
  Pt  Pt22  1  0.734580  0.999915  0.499828  1
  Pt  Pt23  1  0.734854  0.499999  0.000136  1
  Pt  Pt24  1  0.499807  0.000101  0.735016  1
  Pt  Pt25  1  0.000061  0.734801  0.500025  1
  Pt  Pt26  1  0.254231  0.500233  0.499936  1
  Pt  Pt27  1  0.500037  0.499891  0.746649  1
  Pt  Pt28  1  0.500080  0.499927  0.253968  1
  Pt  Pt29  1  0.500095  0.254272  0.500145  1
  Pt  Pt30  1  0.500054  0.746073  0.500134  1
  Pt  Pt31  1  0.746641  0.500198  0.499895  1
  Pt  Pt32  1  0.307276  0.999975  0.999265  1
