# generated using pymatgen
data_Ca3Yb3(YSn2)4
_symmetry_space_group_name_H-M   'P 1'
_cell_length_a   7.88171600
_cell_length_b   8.40463033
_cell_length_c   16.08801600
_cell_angle_alpha   90.03217704
_cell_angle_beta   90.00000000
_cell_angle_gamma   90.00000000
_symmetry_Int_Tables_number   1
_chemical_formula_structural   Ca3Yb3(YSn2)4
_chemical_formula_sum   'Ca6 Yb6 Y8 Sn16'
_cell_volume   1065.71681680
_cell_formula_units_Z   2
loop_
 _symmetry_equiv_pos_site_id
 _symmetry_equiv_pos_as_xyz
  1  'x, y, z'
loop_
 _atom_site_type_symbol
 _atom_site_label
 _atom_site_symmetry_multiplicity
 _atom_site_fract_x
 _atom_site_fract_y
 _atom_site_fract_z
 _atom_site_occupancy
  Ca  Ca0  1  0.507513  0.684883  0.593496  1
  Ca  Ca1  1  0.007513  0.815117  0.906504  1
  Ca  Ca2  1  0.492188  0.315371  0.092347  1
  Ca  Ca3  1  0.992188  0.184629  0.407653  1
  Ca  Ca4  1  0.491655  0.315241  0.407320  1
  Ca  Ca5  1  0.991655  0.184759  0.092680  1
  Yb  Yb6  1  0.508518  0.687685  0.905328  1
  Yb  Yb7  1  0.008518  0.812315  0.594672  1
  Yb  Yb8  1  0.840379  0.510848  0.750190  1
  Yb  Yb9  1  0.340379  0.989152  0.749810  1
  Yb  Yb10  1  0.160437  0.489435  0.250087  1
  Yb  Yb11  1  0.660437  0.010565  0.249913  1
  Y  Y12  1  0.675783  0.167239  0.622221  1
  Y  Y13  1  0.175783  0.332761  0.877779  1
  Y  Y14  1  0.324870  0.831897  0.121784  1
  Y  Y15  1  0.824870  0.668103  0.378216  1
  Y  Y16  1  0.324238  0.833185  0.377925  1
  Y  Y17  1  0.824238  0.666815  0.122075  1
  Y  Y18  1  0.676003  0.166795  0.877156  1
  Y  Y19  1  0.176003  0.333205  0.622844  1
  Sn  Sn20  1  0.665712  0.963096  0.459873  1
  Sn  Sn21  1  0.165712  0.536904  0.040127  1
  Sn  Sn22  1  0.333761  0.034793  0.957810  1
  Sn  Sn23  1  0.833761  0.465207  0.542190  1
  Sn  Sn24  1  0.330619  0.034921  0.542008  1
  Sn  Sn25  1  0.830619  0.465079  0.957992  1
  Sn  Sn26  1  0.666643  0.961828  0.039860  1
  Sn  Sn27  1  0.166643  0.538172  0.460140  1
  Sn  Sn28  1  0.474937  0.377012  0.750495  1
  Sn  Sn29  1  0.974937  0.122988  0.749505  1
  Sn  Sn30  1  0.526053  0.624905  0.250287  1
  Sn  Sn31  1  0.026053  0.875095  0.249713  1
  Sn  Sn32  1  0.719985  0.872759  0.749563  1
  Sn  Sn33  1  0.219985  0.627241  0.750437  1
  Sn  Sn34  1  0.280706  0.126173  0.249723  1
  Sn  Sn35  1  0.780706  0.373827  0.250277  1
