# generated using pymatgen
data_Nb2ReSi2Mo
_symmetry_space_group_name_H-M   'P 1'
_cell_length_a   7.66914336
_cell_length_b   7.68011487
_cell_length_c   7.66933922
_cell_angle_alpha   126.23207165
_cell_angle_beta   128.43490281
_cell_angle_gamma   77.69065856
_symmetry_Int_Tables_number   1
_chemical_formula_structural   Nb2ReSi2Mo
_chemical_formula_sum   'Nb6 Re3 Si6 Mo3'
_cell_volume   276.78601548
_cell_formula_units_Z   3
loop_
 _symmetry_equiv_pos_site_id
 _symmetry_equiv_pos_as_xyz
  1  'x, y, z'
loop_
 _atom_site_type_symbol
 _atom_site_label
 _atom_site_symmetry_multiplicity
 _atom_site_fract_x
 _atom_site_fract_y
 _atom_site_fract_z
 _atom_site_occupancy
  Nb  Nb0  1  0.550527  0.091688  0.040162  1
  Nb  Nb1  1  0.447344  0.493259  0.545668  1
  Nb  Nb2  1  0.947662  0.493197  0.045869  1
  Nb  Nb3  1  0.051582  0.091752  0.541335  1
  Nb  Nb4  1  0.752195  0.903923  0.652493  1
  Nb  Nb5  1  0.251465  0.903903  0.151773  1
  Re  Re6  1  0.870175  0.497011  0.626674  1
  Re  Re7  1  0.628222  0.753428  0.125162  1
  Re  Re8  1  0.370907  0.497385  0.126369  1
  Si  Si9  1  0.748773  0.499232  0.250610  1
  Si  Si10  1  0.248491  0.499206  0.750337  1
  Si  Si11  1  0.333779  0.826045  0.492291  1
  Si  Si12  1  0.668737  0.163215  0.494452  1
  Si  Si13  1  0.832452  0.825480  0.993122  1
  Si  Si14  1  0.168904  0.165812  0.997048  1
  Mo  Mo15  1  0.500510  0.242013  0.741450  1
  Mo  Mo16  1  0.999271  0.240374  0.241100  1
  Mo  Mo17  1  0.129003  0.755275  0.626284  1
