# generated using pymatgen
data_Ta4Al6PdAu
_symmetry_space_group_name_H-M   'P 1'
_cell_length_a   5.22285700
_cell_length_b   5.22285739
_cell_length_c   8.07715500
_cell_angle_alpha   90.00000000
_cell_angle_beta   90.00000000
_cell_angle_gamma   120.00000389
_symmetry_Int_Tables_number   1
_chemical_formula_structural   Ta4Al6PdAu
_chemical_formula_sum   'Ta4 Al6 Pd1 Au1'
_cell_volume   190.81184648
_cell_formula_units_Z   1
loop_
 _symmetry_equiv_pos_site_id
 _symmetry_equiv_pos_as_xyz
  1  'x, y, z'
loop_
 _atom_site_type_symbol
 _atom_site_label
 _atom_site_symmetry_multiplicity
 _atom_site_fract_x
 _atom_site_fract_y
 _atom_site_fract_z
 _atom_site_occupancy
  Ta  Ta0  1  0.333333  0.666667  0.928030  1
  Ta  Ta1  1  0.666667  0.333333  0.071970  1
  Ta  Ta2  1  0.666667  0.333333  0.426648  1
  Ta  Ta3  1  0.333333  0.666667  0.573352  1
  Al  Al4  1  0.827471  0.172529  0.744608  1
  Al  Al5  1  0.827471  0.654943  0.744608  1
  Al  Al6  1  0.345057  0.172529  0.744608  1
  Al  Al7  1  0.172529  0.827471  0.255392  1
  Al  Al8  1  0.172529  0.345057  0.255392  1
  Al  Al9  1  0.654943  0.827471  0.255392  1
  Pd  Pd10  1  0.000000  0.000000  0.500000  1
  Au  Au11  1  0.000000  0.000000  0.000000  1
