# generated using pymatgen
data_Ho10Ga3AgB16
_symmetry_space_group_name_H-M   'P 1'
_cell_length_a   7.21573604
_cell_length_b   7.21573604
_cell_length_c   8.31544400
_cell_angle_alpha   90.00000000
_cell_angle_beta   90.00000000
_cell_angle_gamma   90.01203764
_symmetry_Int_Tables_number   1
_chemical_formula_structural   Ho10Ga3AgB16
_chemical_formula_sum   'Ho10 Ga3 Ag1 B16'
_cell_volume   432.95893757
_cell_formula_units_Z   1
loop_
 _symmetry_equiv_pos_site_id
 _symmetry_equiv_pos_as_xyz
  1  'x, y, z'
loop_
 _atom_site_type_symbol
 _atom_site_label
 _atom_site_symmetry_multiplicity
 _atom_site_fract_x
 _atom_site_fract_y
 _atom_site_fract_z
 _atom_site_occupancy
  Ho  Ho0  1  0.682665  0.182665  0.214539  1
  Ho  Ho1  1  0.319966  0.819966  0.787344  1
  Ho  Ho2  1  0.319966  0.819966  0.212656  1
  Ho  Ho3  1  0.815428  0.682552  0.213662  1
  Ho  Ho4  1  0.815428  0.682552  0.786338  1
  Ho  Ho5  1  0.682665  0.182665  0.785461  1
  Ho  Ho6  1  0.182552  0.315428  0.786338  1
  Ho  Ho7  1  0.182552  0.315428  0.213662  1
  Ho  Ho8  1  0.001463  0.999439  0.500000  1
  Ho  Ho9  1  0.499439  0.501463  0.500000  1
  Ga  Ga10  1  0.878483  0.378483  0.500000  1
  Ga  Ga11  1  0.379242  0.120042  0.500000  1
  Ga  Ga12  1  0.620042  0.879242  0.500000  1
  Ag  Ag13  1  0.122578  0.622578  0.500000  1
  B  B14  1  0.171079  0.039809  0.000000  1
  B  B15  1  0.828524  0.960088  0.000000  1
  B  B16  1  0.959298  0.171968  0.000000  1
  B  B17  1  0.327897  0.540277  0.000000  1
  B  B18  1  0.040277  0.827897  0.000000  1
  B  B19  1  0.671968  0.459298  0.000000  1
  B  B20  1  0.539809  0.671079  0.000000  1
  B  B21  1  0.460088  0.328524  0.000000  1
  B  B22  1  0.090656  0.590656  0.000000  1
  B  B23  1  0.909279  0.409279  0.000000  1
  B  B24  1  0.409129  0.090917  0.000000  1
  B  B25  1  0.590917  0.909129  0.000000  1
  B  B26  1  0.000117  0.999190  0.160384  1
  B  B27  1  0.000117  0.999190  0.839616  1
  B  B28  1  0.499190  0.500117  0.839616  1
  B  B29  1  0.499190  0.500117  0.160384  1
