# generated using pymatgen
data_Dy2Ho2Co4HgI
_symmetry_space_group_name_H-M   'P 1'
_cell_length_a   3.91485400
_cell_length_b   3.91485485
_cell_length_c   16.64162500
_cell_angle_alpha   90.00000000
_cell_angle_beta   90.00000000
_cell_angle_gamma   119.99999280
_symmetry_Int_Tables_number   1
_chemical_formula_structural   Dy2Ho2Co4HgI
_chemical_formula_sum   'Dy2 Ho2 Co4 Hg1 I1'
_cell_volume   220.88062858
_cell_formula_units_Z   1
loop_
 _symmetry_equiv_pos_site_id
 _symmetry_equiv_pos_as_xyz
  1  'x, y, z'
loop_
 _atom_site_type_symbol
 _atom_site_label
 _atom_site_symmetry_multiplicity
 _atom_site_fract_x
 _atom_site_fract_y
 _atom_site_fract_z
 _atom_site_occupancy
  Dy  Dy0  1  0.000000  0.000000  0.602255  1
  Dy  Dy1  1  0.000000  0.000000  0.385691  1
  Ho  Ho2  1  0.000000  0.000000  0.113261  1
  Ho  Ho3  1  0.000000  0.000000  0.899134  1
  Co  Co4  1  0.333333  0.666667  0.497872  1
  Co  Co5  1  0.666667  0.333333  0.496736  1
  Co  Co6  1  0.666667  0.333333  0.003182  1
  Co  Co7  1  0.333333  0.666667  0.001958  1
  Hg  Hg8  1  0.333333  0.666667  0.249421  1
  I  I9  1  0.666667  0.333333  0.750490  1
