# generated using pymatgen
data_Dy3Tm7(Al2Ru3)2
_symmetry_space_group_name_H-M   'P 1'
_cell_length_a   8.29644911
_cell_length_b   8.29644820
_cell_length_c   8.29644899
_cell_angle_alpha   109.44011748
_cell_angle_beta   109.44010928
_cell_angle_gamma   109.44010731
_symmetry_Int_Tables_number   1
_chemical_formula_structural   Dy3Tm7(Al2Ru3)2
_chemical_formula_sum   'Dy3 Tm7 Al4 Ru6'
_cell_volume   440.10269297
_cell_formula_units_Z   1
loop_
 _symmetry_equiv_pos_site_id
 _symmetry_equiv_pos_as_xyz
  1  'x, y, z'
loop_
 _atom_site_type_symbol
 _atom_site_label
 _atom_site_symmetry_multiplicity
 _atom_site_fract_x
 _atom_site_fract_y
 _atom_site_fract_z
 _atom_site_occupancy
  Dy  Dy0  1  0.251186  0.182050  0.929771  1
  Dy  Dy1  1  0.929771  0.251186  0.182050  1
  Dy  Dy2  1  0.182050  0.929771  0.251186  1
  Tm  Tm3  1  0.785494  0.785494  0.785494  1
  Tm  Tm4  1  0.319905  0.570239  0.750226  1
  Tm  Tm5  1  0.750226  0.319905  0.570239  1
  Tm  Tm6  1  0.570239  0.750226  0.319905  1
  Tm  Tm7  1  0.712975  0.501640  0.999285  1
  Tm  Tm8  1  0.999285  0.712975  0.501640  1
  Tm  Tm9  1  0.501640  0.999285  0.712975  1
  Al  Al10  1  0.412267  0.412267  0.412267  1
  Al  Al11  1  0.089484  0.498444  0.000111  1
  Al  Al12  1  0.000111  0.089484  0.498444  1
  Al  Al13  1  0.498444  0.000111  0.089484  1
  Ru  Ru14  1  0.875079  0.123574  0.746575  1
  Ru  Ru15  1  0.746575  0.875079  0.123574  1
  Ru  Ru16  1  0.123574  0.746575  0.875079  1
  Ru  Ru17  1  0.251246  0.624351  0.376097  1
  Ru  Ru18  1  0.376097  0.251246  0.624351  1
  Ru  Ru19  1  0.624351  0.376097  0.251246  1
