# generated using pymatgen
data_Hf2ZrSn3Rh10
_symmetry_space_group_name_H-M   'P 1'
_cell_length_a   4.18443600
_cell_length_b   5.64237769
_cell_length_c   11.12935600
_cell_angle_alpha   90.78728609
_cell_angle_beta   90.00000000
_cell_angle_gamma   90.00000000
_symmetry_Int_Tables_number   1
_chemical_formula_structural   Hf2ZrSn3Rh10
_chemical_formula_sum   'Hf2 Zr1 Sn3 Rh10'
_cell_volume   262.74116266
_cell_formula_units_Z   1
loop_
 _symmetry_equiv_pos_site_id
 _symmetry_equiv_pos_as_xyz
  1  'x, y, z'
loop_
 _atom_site_type_symbol
 _atom_site_label
 _atom_site_symmetry_multiplicity
 _atom_site_fract_x
 _atom_site_fract_y
 _atom_site_fract_z
 _atom_site_occupancy
  Hf  Hf0  1  0.500000  0.671091  0.858786  1
  Hf  Hf1  1  0.500000  0.323548  0.141278  1
  Zr  Zr2  1  0.500000  0.828620  0.357724  1
  Sn  Sn3  1  0.500000  0.167557  0.645626  1
  Sn  Sn4  1  0.000000  0.516513  0.495579  1
  Sn  Sn5  1  0.000000  0.999030  0.000962  1
  Rh  Rh6  1  0.500000  0.196592  0.889496  1
  Rh  Rh7  1  0.500000  0.799726  0.113397  1
  Rh  Rh8  1  0.500000  0.692593  0.614686  1
  Rh  Rh9  1  0.500000  0.309358  0.383891  1
  Rh  Rh10  1  0.000000  0.427459  0.741552  1
  Rh  Rh11  1  0.000000  0.565932  0.248550  1
  Rh  Rh12  1  0.000000  0.018383  0.502355  1
  Rh  Rh13  1  0.000000  0.498751  0.998264  1
  Rh  Rh14  1  0.000000  0.067348  0.248259  1
  Rh  Rh15  1  0.000000  0.917500  0.759596  1
