# generated using pymatgen
data_Na2Mg2H12IrRh
_symmetry_space_group_name_H-M   'P 1'
_cell_length_a   6.91661142
_cell_length_b   6.91661142
_cell_length_c   6.91734000
_cell_angle_alpha   90.00000000
_cell_angle_beta   90.00000000
_cell_angle_gamma   89.90413993
_symmetry_Int_Tables_number   1
_chemical_formula_structural   Na2Mg2H12IrRh
_chemical_formula_sum   'Na4 Mg4 H24 Ir2 Rh2'
_cell_volume   330.92171741
_cell_formula_units_Z   2
loop_
 _symmetry_equiv_pos_site_id
 _symmetry_equiv_pos_as_xyz
  1  'x, y, z'
loop_
 _atom_site_type_symbol
 _atom_site_label
 _atom_site_symmetry_multiplicity
 _atom_site_fract_x
 _atom_site_fract_y
 _atom_site_fract_z
 _atom_site_occupancy
  Na  Na0  1  0.000000  0.000000  0.501956  1
  Na  Na1  1  0.000000  0.500000  0.998522  1
  Na  Na2  1  0.500000  0.000000  0.998522  1
  Na  Na3  1  0.000000  0.000000  0.998889  1
  Mg  Mg4  1  0.500000  0.500000  0.501102  1
  Mg  Mg5  1  0.000000  0.500000  0.500472  1
  Mg  Mg6  1  0.500000  0.000000  0.500472  1
  Mg  Mg7  1  0.500000  0.500000  0.002413  1
  H  H8  1  0.740516  0.740516  0.508655  1
  H  H9  1  0.259484  0.259484  0.508655  1
  H  H10  1  0.026943  0.733294  0.733770  1
  H  H11  1  0.266706  0.973057  0.733770  1
  H  H12  1  0.733294  0.026943  0.733770  1
  H  H13  1  0.973057  0.266706  0.733770  1
  H  H14  1  0.738058  0.505871  0.739114  1
  H  H15  1  0.505871  0.738058  0.739114  1
  H  H16  1  0.494129  0.261942  0.739114  1
  H  H17  1  0.261942  0.494129  0.739114  1
  H  H18  1  0.266688  0.733312  0.973528  1
  H  H19  1  0.733312  0.266688  0.973528  1
  H  H20  1  0.735856  0.735856  0.025522  1
  H  H21  1  0.264144  0.264144  0.025522  1
  H  H22  1  0.259044  0.508019  0.260161  1
  H  H23  1  0.491981  0.740956  0.260161  1
  H  H24  1  0.508019  0.259044  0.260161  1
  H  H25  1  0.740956  0.491981  0.260161  1
  H  H26  1  0.975070  0.735844  0.264673  1
  H  H27  1  0.735844  0.975070  0.264673  1
  H  H28  1  0.264156  0.024930  0.264673  1
  H  H29  1  0.024930  0.264156  0.264673  1
  H  H30  1  0.261472  0.738528  0.494747  1
  H  H31  1  0.738528  0.261472  0.494747  1
  Ir  Ir32  1  0.732163  0.732163  0.268516  1
  Ir  Ir33  1  0.267837  0.267837  0.268516  1
  Rh  Rh34  1  0.268227  0.731773  0.732425  1
  Rh  Rh35  1  0.731773  0.268227  0.732425  1
