# generated using pymatgen
data_Ho16TmLu3Pb16
_symmetry_space_group_name_H-M   'P 1'
_cell_length_a   8.14956874
_cell_length_b   15.56704900
_cell_length_c   8.23212401
_cell_angle_alpha   90.00000000
_cell_angle_beta   89.96451770
_cell_angle_gamma   90.00000000
_symmetry_Int_Tables_number   1
_chemical_formula_structural   Ho16TmLu3Pb16
_chemical_formula_sum   'Ho16 Tm1 Lu3 Pb16'
_cell_volume   1044.36603812
_cell_formula_units_Z   1
loop_
 _symmetry_equiv_pos_site_id
 _symmetry_equiv_pos_as_xyz
  1  'x, y, z'
loop_
 _atom_site_type_symbol
 _atom_site_label
 _atom_site_symmetry_multiplicity
 _atom_site_fract_x
 _atom_site_fract_y
 _atom_site_fract_z
 _atom_site_occupancy
  Ho  Ho0  1  0.622747  0.620614  0.159223  1
  Ho  Ho1  1  0.122793  0.879496  0.340810  1
  Ho  Ho2  1  0.376982  0.120452  0.840571  1
  Ho  Ho3  1  0.877418  0.379526  0.659150  1
  Ho  Ho4  1  0.376982  0.379548  0.840571  1
  Ho  Ho5  1  0.877418  0.120474  0.659150  1
  Ho  Ho6  1  0.622747  0.879386  0.159223  1
  Ho  Ho7  1  0.122793  0.620504  0.340810  1
  Ho  Ho8  1  0.465875  0.599884  0.676857  1
  Ho  Ho9  1  0.965852  0.900036  0.823144  1
  Ho  Ho10  1  0.533989  0.099889  0.323315  1
  Ho  Ho11  1  0.034216  0.400123  0.176991  1
  Ho  Ho12  1  0.533989  0.400111  0.323315  1
  Ho  Ho13  1  0.034216  0.099877  0.176991  1
  Ho  Ho14  1  0.465875  0.900116  0.676857  1
  Ho  Ho15  1  0.965852  0.599964  0.823144  1
  Tm  Tm16  1  0.708585  0.250000  0.996284  1
  Lu  Lu17  1  0.791323  0.750000  0.496204  1
  Lu  Lu18  1  0.291348  0.750000  0.003870  1
  Lu  Lu19  1  0.208723  0.250000  0.503883  1
  Pb  Pb20  1  0.718905  0.457288  0.967034  1
  Pb  Pb21  1  0.218880  0.043005  0.532867  1
  Pb  Pb22  1  0.281105  0.956912  0.032816  1
  Pb  Pb23  1  0.781064  0.543078  0.467112  1
  Pb  Pb24  1  0.281105  0.543088  0.032816  1
  Pb  Pb25  1  0.781064  0.956922  0.467112  1
  Pb  Pb26  1  0.718905  0.042712  0.967034  1
  Pb  Pb27  1  0.218880  0.456995  0.532867  1
  Pb  Pb28  1  0.428652  0.750000  0.372929  1
  Pb  Pb29  1  0.928679  0.750000  0.127199  1
  Pb  Pb30  1  0.571222  0.250000  0.626653  1
  Pb  Pb31  1  0.072141  0.250000  0.872425  1
  Pb  Pb32  1  0.653462  0.750000  0.846534  1
  Pb  Pb33  1  0.153523  0.750000  0.653251  1
  Pb  Pb34  1  0.346148  0.250000  0.153459  1
  Pb  Pb35  1  0.846540  0.250000  0.347524  1
