# generated using pymatgen
data_Tm10Ga4BiPt
_symmetry_space_group_name_H-M   'P 1'
_cell_length_a   8.93808955
_cell_length_b   8.93808952
_cell_length_c   8.93809000
_cell_angle_alpha   130.40614767
_cell_angle_beta   130.40614750
_cell_angle_gamma   72.75830770
_symmetry_Int_Tables_number   1
_chemical_formula_structural   Tm10Ga4BiPt
_chemical_formula_sum   'Tm10 Ga4 Bi1 Pt1'
_cell_volume   404.49485691
_cell_formula_units_Z   1
loop_
 _symmetry_equiv_pos_site_id
 _symmetry_equiv_pos_as_xyz
  1  'x, y, z'
loop_
 _atom_site_type_symbol
 _atom_site_label
 _atom_site_symmetry_multiplicity
 _atom_site_fract_x
 _atom_site_fract_y
 _atom_site_fract_z
 _atom_site_occupancy
  Tm  Tm0  1  0.982567  0.982567  0.000000  1
  Tm  Tm1  1  0.517433  0.517433  0.000000  1
  Tm  Tm2  1  0.838904  0.289241  0.836096  1
  Tm  Tm3  1  0.210759  0.661096  0.163904  1
  Tm  Tm4  1  0.453146  0.002807  0.163904  1
  Tm  Tm5  1  0.289241  0.453146  0.450339  1
  Tm  Tm6  1  0.046854  0.210759  0.549661  1
  Tm  Tm7  1  0.497193  0.046854  0.836096  1
  Tm  Tm8  1  0.661096  0.497193  0.450339  1
  Tm  Tm9  1  0.002807  0.838904  0.549661  1
  Ga  Ga10  1  0.124956  0.624956  0.749910  1
  Ga  Ga11  1  0.875044  0.375044  0.250090  1
  Ga  Ga12  1  0.624956  0.875044  0.500000  1
  Ga  Ga13  1  0.375044  0.124956  0.500000  1
  Bi  Bi14  1  0.750000  0.750000  0.000000  1
  Pt  Pt15  1  0.250000  0.250000  0.000000  1
