# generated using pymatgen
data_CaYb2(SiIr)4
_symmetry_space_group_name_H-M   'P 1'
_cell_length_a   6.45848156
_cell_length_b   6.45848141
_cell_length_c   6.45848178
_cell_angle_alpha   109.20229715
_cell_angle_beta   109.60584407
_cell_angle_gamma   109.60584977
_symmetry_Int_Tables_number   1
_chemical_formula_structural   CaYb2(SiIr)4
_chemical_formula_sum   'Ca1 Yb2 Si4 Ir4'
_cell_volume   207.37779008
_cell_formula_units_Z   1
loop_
 _symmetry_equiv_pos_site_id
 _symmetry_equiv_pos_as_xyz
  1  'x, y, z'
loop_
 _atom_site_type_symbol
 _atom_site_label
 _atom_site_symmetry_multiplicity
 _atom_site_fract_x
 _atom_site_fract_y
 _atom_site_fract_z
 _atom_site_occupancy
  Ca  Ca0  1  0.000000  0.500000  0.500000  1
  Yb  Yb1  1  0.500000  0.000000  0.500000  1
  Yb  Yb2  1  0.500000  0.500000  0.000000  1
  Si  Si3  1  0.000000  0.366317  0.999916  1
  Si  Si4  1  0.633600  0.633683  0.633683  1
  Si  Si5  1  0.000000  0.999916  0.366317  1
  Si  Si6  1  0.366400  0.000084  0.000084  1
  Ir  Ir7  1  0.000000  0.721499  0.001805  1
  Ir  Ir8  1  0.000000  0.001805  0.721499  1
  Ir  Ir9  1  0.280306  0.278501  0.278501  1
  Ir  Ir10  1  0.719694  0.998195  0.998195  1
