# generated using pymatgen
data_Hf7Zr3Al2Sn5Sb
_symmetry_space_group_name_H-M   'P 1'
_cell_length_a   8.69691600
_cell_length_b   8.69128281
_cell_length_c   5.83000100
_cell_angle_alpha   90.00000000
_cell_angle_beta   90.00000000
_cell_angle_gamma   120.02142746
_symmetry_Int_Tables_number   1
_chemical_formula_structural   Hf7Zr3Al2Sn5Sb
_chemical_formula_sum   'Hf7 Zr3 Al2 Sn5 Sb1'
_cell_volume   381.55276600
_cell_formula_units_Z   1
loop_
 _symmetry_equiv_pos_site_id
 _symmetry_equiv_pos_as_xyz
  1  'x, y, z'
loop_
 _atom_site_type_symbol
 _atom_site_label
 _atom_site_symmetry_multiplicity
 _atom_site_fract_x
 _atom_site_fract_y
 _atom_site_fract_z
 _atom_site_occupancy
  Hf  Hf0  1  0.275704  0.000000  0.250000  1
  Hf  Hf1  1  0.999276  0.275469  0.250000  1
  Hf  Hf2  1  0.723807  0.724531  0.250000  1
  Hf  Hf3  1  0.333442  0.667641  0.001480  1
  Hf  Hf4  1  0.665800  0.332359  0.498520  1
  Hf  Hf5  1  0.665800  0.332359  0.001480  1
  Hf  Hf6  1  0.333442  0.667641  0.498520  1
  Zr  Zr7  1  0.267359  0.264863  0.750000  1
  Zr  Zr8  1  0.002496  0.735137  0.750000  1
  Zr  Zr9  1  0.731932  0.000000  0.750000  1
  Al  Al10  1  0.999095  0.000000  0.009140  1
  Al  Al11  1  0.999095  0.000000  0.490860  1
  Sn  Sn12  1  0.616914  0.000000  0.250000  1
  Sn  Sn13  1  0.611466  0.611004  0.750000  1
  Sn  Sn14  1  0.000462  0.388996  0.750000  1
  Sn  Sn15  1  0.999066  0.615452  0.250000  1
  Sn  Sn16  1  0.383614  0.384548  0.250000  1
  Sb  Sb17  1  0.391228  0.000000  0.750000  1
