# generated using pymatgen
data_NaSr2Si2(AsPd5)4
_symmetry_space_group_name_H-M   'P 1'
_cell_length_a   8.93580194
_cell_length_b   8.85775392
_cell_length_c   8.85775240
_cell_angle_alpha   60.58380001
_cell_angle_beta   59.70809799
_cell_angle_gamma   59.70809383
_symmetry_Int_Tables_number   1
_chemical_formula_structural   NaSr2Si2(AsPd5)4
_chemical_formula_sum   'Na1 Sr2 Si2 As4 Pd20'
_cell_volume   495.67568620
_cell_formula_units_Z   1
loop_
 _symmetry_equiv_pos_site_id
 _symmetry_equiv_pos_as_xyz
  1  'x, y, z'
loop_
 _atom_site_type_symbol
 _atom_site_label
 _atom_site_symmetry_multiplicity
 _atom_site_fract_x
 _atom_site_fract_y
 _atom_site_fract_z
 _atom_site_occupancy
  Na  Na0  1  0.000000  0.000000  0.000000  1
  Sr  Sr1  1  0.750000  0.750000  0.750000  1
  Sr  Sr2  1  0.250000  0.250000  0.250000  1
  Si  Si3  1  0.265768  0.734232  0.734232  1
  Si  Si4  1  0.734232  0.265768  0.265768  1
  As  As5  1  0.737059  0.737059  0.262941  1
  As  As6  1  0.262941  0.262941  0.737059  1
  As  As7  1  0.737059  0.262941  0.737059  1
  As  As8  1  0.262941  0.737059  0.262941  1
  Pd  Pd9  1  0.608579  0.615445  0.615445  1
  Pd  Pd10  1  0.391421  0.384555  0.384555  1
  Pd  Pd11  1  0.160530  0.615445  0.615445  1
  Pd  Pd12  1  0.615445  0.160530  0.608579  1
  Pd  Pd13  1  0.839470  0.384555  0.384555  1
  Pd  Pd14  1  0.384555  0.839470  0.391421  1
  Pd  Pd15  1  0.615445  0.608579  0.160530  1
  Pd  Pd16  1  0.384555  0.391421  0.839470  1
  Pd  Pd17  1  0.008023  0.991977  0.652929  1
  Pd  Pd18  1  0.991977  0.008023  0.347071  1
  Pd  Pd19  1  0.347071  0.652929  0.991977  1
  Pd  Pd20  1  0.652929  0.347071  0.008023  1
  Pd  Pd21  1  0.008023  0.652929  0.991977  1
  Pd  Pd22  1  0.652929  0.008023  0.347071  1
  Pd  Pd23  1  0.991977  0.347071  0.008023  1
  Pd  Pd24  1  0.347071  0.991977  0.652929  1
  Pd  Pd25  1  0.652531  0.000000  0.000000  1
  Pd  Pd26  1  0.347469  0.000000  0.000000  1
  Pd  Pd27  1  0.000000  0.652531  0.347469  1
  Pd  Pd28  1  0.000000  0.347469  0.652531  1
