# generated using pymatgen
data_Dy3YAlRu7
_symmetry_space_group_name_H-M   'P 1'
_cell_length_a   5.38512205
_cell_length_b   5.38512222
_cell_length_c   8.61332800
_cell_angle_alpha   90.00725184
_cell_angle_beta   89.99274914
_cell_angle_gamma   119.98415705
_symmetry_Int_Tables_number   1
_chemical_formula_structural   Dy3YAlRu7
_chemical_formula_sum   'Dy3 Y1 Al1 Ru7'
_cell_volume   216.35255977
_cell_formula_units_Z   1
loop_
 _symmetry_equiv_pos_site_id
 _symmetry_equiv_pos_as_xyz
  1  'x, y, z'
loop_
 _atom_site_type_symbol
 _atom_site_label
 _atom_site_symmetry_multiplicity
 _atom_site_fract_x
 _atom_site_fract_y
 _atom_site_fract_z
 _atom_site_occupancy
  Dy  Dy0  1  0.333309  0.666691  0.430103  1
  Dy  Dy1  1  0.333278  0.666722  0.064919  1
  Dy  Dy2  1  0.666716  0.333284  0.935190  1
  Y  Y3  1  0.666681  0.333319  0.569738  1
  Al  Al4  1  0.000018  0.999982  0.499995  1
  Ru  Ru5  1  0.999998  0.000002  0.999931  1
  Ru  Ru6  1  0.171279  0.342338  0.748830  1
  Ru  Ru7  1  0.171082  0.828918  0.748782  1
  Ru  Ru8  1  0.657662  0.828721  0.748830  1
  Ru  Ru9  1  0.828799  0.657779  0.251222  1
  Ru  Ru10  1  0.828957  0.171043  0.251238  1
  Ru  Ru11  1  0.342221  0.171201  0.251222  1
