# generated using pymatgen
data_HoEr8Mg(Ni2Sb)2
_symmetry_space_group_name_H-M   'P 1'
_cell_length_a   8.53646858
_cell_length_b   8.53695676
_cell_length_c   8.53758404
_cell_angle_alpha   128.30881741
_cell_angle_beta   128.31210551
_cell_angle_gamma   76.10564467
_symmetry_Int_Tables_number   1
_chemical_formula_structural   HoEr8Mg(Ni2Sb)2
_chemical_formula_sum   'Ho1 Er8 Mg1 Ni4 Sb2'
_cell_volume   372.42400975
_cell_formula_units_Z   1
loop_
 _symmetry_equiv_pos_site_id
 _symmetry_equiv_pos_as_xyz
  1  'x, y, z'
loop_
 _atom_site_type_symbol
 _atom_site_label
 _atom_site_symmetry_multiplicity
 _atom_site_fract_x
 _atom_site_fract_y
 _atom_site_fract_z
 _atom_site_occupancy
  Ho  Ho0  1  0.287143  0.803426  0.824987  1
  Er  Er1  1  0.538029  0.713072  0.516239  1
  Er  Er2  1  0.021624  0.537917  0.824898  1
  Er  Er3  1  0.713223  0.196933  0.175216  1
  Er  Er4  1  0.978241  0.461922  0.174940  1
  Er  Er5  1  0.196792  0.021733  0.483630  1
  Er  Er6  1  0.462046  0.286983  0.483827  1
  Er  Er7  1  0.803151  0.978325  0.516310  1
  Er  Er8  1  0.500069  0.499895  0.000041  1
  Mg  Mg9  1  0.999929  0.000016  0.000036  1
  Ni  Ni10  1  0.378033  0.869546  0.247718  1
  Ni  Ni11  1  0.869309  0.621832  0.491313  1
  Ni  Ni12  1  0.621986  0.130457  0.752472  1
  Ni  Ni13  1  0.130367  0.377820  0.508342  1
  Sb  Sb14  1  0.742303  0.742215  0.000062  1
  Sb  Sb15  1  0.257754  0.257907  0.999970  1
