# generated using pymatgen
data_CsLuBeSe3
_symmetry_space_group_name_H-M   'P 1'
_cell_length_a   8.33808544
_cell_length_b   8.33808410
_cell_length_c   10.69766100
_cell_angle_alpha   90.00000000
_cell_angle_beta   90.00000000
_cell_angle_gamma   151.96362351
_symmetry_Int_Tables_number   1
_chemical_formula_structural   CsLuBeSe3
_chemical_formula_sum   'Cs2 Lu2 Be2 Se6'
_cell_volume   349.58187608
_cell_formula_units_Z   2
loop_
 _symmetry_equiv_pos_site_id
 _symmetry_equiv_pos_as_xyz
  1  'x, y, z'
loop_
 _atom_site_type_symbol
 _atom_site_label
 _atom_site_symmetry_multiplicity
 _atom_site_fract_x
 _atom_site_fract_y
 _atom_site_fract_z
 _atom_site_occupancy
  Cs  Cs0  1  0.760183  0.239817  0.250000  1
  Cs  Cs1  1  0.239817  0.760183  0.750000  1
  Lu  Lu2  1  0.500000  0.500000  0.000000  1
  Lu  Lu3  1  0.500000  0.500000  0.500000  1
  Be  Be4  1  0.037820  0.962180  0.250000  1
  Be  Be5  1  0.962180  0.037820  0.750000  1
  Se  Se6  1  0.110994  0.889005  0.072664  1
  Se  Se7  1  0.451932  0.548068  0.250000  1
  Se  Se8  1  0.110994  0.889005  0.427336  1
  Se  Se9  1  0.889005  0.110994  0.572664  1
  Se  Se10  1  0.548068  0.451932  0.750000  1
  Se  Se11  1  0.889005  0.110994  0.927335  1
