# generated using pymatgen
data_Tb5Ho5(Sn3Se)2
_symmetry_space_group_name_H-M   'P 1'
_cell_length_a   9.14018600
_cell_length_b   9.13769553
_cell_length_c   6.74009300
_cell_angle_alpha   90.00000000
_cell_angle_beta   90.00000000
_cell_angle_gamma   119.99098795
_symmetry_Int_Tables_number   1
_chemical_formula_structural   Tb5Ho5(Sn3Se)2
_chemical_formula_sum   'Tb5 Ho5 Sn6 Se2'
_cell_volume   487.55955201
_cell_formula_units_Z   1
loop_
 _symmetry_equiv_pos_site_id
 _symmetry_equiv_pos_as_xyz
  1  'x, y, z'
loop_
 _atom_site_type_symbol
 _atom_site_label
 _atom_site_symmetry_multiplicity
 _atom_site_fract_x
 _atom_site_fract_y
 _atom_site_fract_z
 _atom_site_occupancy
  Tb  Tb0  1  0.747226  0.747168  0.750000  1
  Tb  Tb1  1  0.252774  0.999942  0.750000  1
  Tb  Tb2  1  0.000000  0.252542  0.750000  1
  Tb  Tb3  1  0.252970  0.252992  0.250000  1
  Tb  Tb4  1  0.747030  0.000023  0.250000  1
  Ho  Ho5  1  0.666841  0.333537  0.000125  1
  Ho  Ho6  1  0.333159  0.666697  0.000125  1
  Ho  Ho7  1  0.333159  0.666697  0.499875  1
  Ho  Ho8  1  0.666841  0.333537  0.499875  1
  Ho  Ho9  1  0.000000  0.747703  0.250000  1
  Sn  Sn10  1  0.397203  0.397143  0.750000  1
  Sn  Sn11  1  0.602797  0.999939  0.750000  1
  Sn  Sn12  1  0.000000  0.602628  0.750000  1
  Sn  Sn13  1  0.603792  0.603032  0.250000  1
  Sn  Sn14  1  0.396208  0.999240  0.250000  1
  Sn  Sn15  1  0.000000  0.398123  0.250000  1
  Se  Se16  1  0.000000  0.999529  0.000468  1
  Se  Se17  1  0.000000  0.999529  0.499532  1
