# generated using pymatgen
data_Nd3SiPd5
_symmetry_space_group_name_H-M   'P 1'
_cell_length_a   8.42318378
_cell_length_b   8.42318378
_cell_length_c   8.42318315
_cell_angle_alpha   127.35928761
_cell_angle_beta   126.14092235
_cell_angle_gamma   78.66270066
_symmetry_Int_Tables_number   1
_chemical_formula_structural   Nd3SiPd5
_chemical_formula_sum   'Nd6 Si2 Pd10'
_cell_volume   371.30261456
_cell_formula_units_Z   2
loop_
 _symmetry_equiv_pos_site_id
 _symmetry_equiv_pos_as_xyz
  1  'x, y, z'
loop_
 _atom_site_type_symbol
 _atom_site_label
 _atom_site_symmetry_multiplicity
 _atom_site_fract_x
 _atom_site_fract_y
 _atom_site_fract_z
 _atom_site_occupancy
  Nd  Nd0  1  0.223441  0.449822  0.773619  1
  Nd  Nd1  1  0.776559  0.550178  0.226381  1
  Nd  Nd2  1  0.823797  0.050178  0.773619  1
  Nd  Nd3  1  0.176203  0.949822  0.226381  1
  Nd  Nd4  1  0.388029  0.250000  0.138029  1
  Nd  Nd5  1  0.611971  0.750000  0.861971  1
  Si  Si6  1  0.785734  0.250000  0.535734  1
  Si  Si7  1  0.214266  0.750000  0.464266  1
  Pd  Pd8  1  0.169160  0.406826  0.361766  1
  Pd  Pd9  1  0.830840  0.192606  0.237666  1
  Pd  Pd10  1  0.454940  0.093174  0.762334  1
  Pd  Pd11  1  0.545060  0.307394  0.638234  1
  Pd  Pd12  1  0.000000  0.500000  0.000000  1
  Pd  Pd13  1  0.000000  0.000000  0.500000  1
  Pd  Pd14  1  0.454940  0.692606  0.361766  1
  Pd  Pd15  1  0.545060  0.906826  0.237666  1
  Pd  Pd16  1  0.169160  0.807394  0.762334  1
  Pd  Pd17  1  0.830840  0.593174  0.638234  1
