# generated using pymatgen
data_Dy4AlTcOs6
_symmetry_space_group_name_H-M   'P 1'
_cell_length_a   5.33768250
_cell_length_b   5.33768387
_cell_length_c   8.77296410
_cell_angle_alpha   89.98488370
_cell_angle_beta   90.01511526
_cell_angle_gamma   119.22205884
_symmetry_Int_Tables_number   1
_chemical_formula_structural   Dy4AlTcOs6
_chemical_formula_sum   'Dy4 Al1 Tc1 Os6'
_cell_volume   218.13929547
_cell_formula_units_Z   1
loop_
 _symmetry_equiv_pos_site_id
 _symmetry_equiv_pos_as_xyz
  1  'x, y, z'
loop_
 _atom_site_type_symbol
 _atom_site_label
 _atom_site_symmetry_multiplicity
 _atom_site_fract_x
 _atom_site_fract_y
 _atom_site_fract_z
 _atom_site_occupancy
  Dy  Dy0  1  0.333348  0.666652  0.431127  1
  Dy  Dy1  1  0.666827  0.333173  0.570770  1
  Dy  Dy2  1  0.664849  0.335151  0.935691  1
  Dy  Dy3  1  0.331469  0.668531  0.062578  1
  Al  Al4  1  0.000826  0.999174  0.501735  1
  Tc  Tc5  1  0.829688  0.170312  0.249535  1
  Os  Os6  1  0.998893  0.001107  0.997581  1
  Os  Os7  1  0.828681  0.657443  0.251915  1
  Os  Os8  1  0.342557  0.171319  0.251915  1
  Os  Os9  1  0.173988  0.826012  0.748908  1
  Os  Os10  1  0.169541  0.340666  0.749122  1
  Os  Os11  1  0.659334  0.830459  0.749122  1
