# generated using pymatgen
data_CeCo2(AsRu)3
_symmetry_space_group_name_H-M   'P 1'
_cell_length_a   3.91179100
_cell_length_b   11.10123300
_cell_length_c   12.55539700
_cell_angle_alpha   90.00000000
_cell_angle_beta   90.00000000
_cell_angle_gamma   90.00000000
_symmetry_Int_Tables_number   1
_chemical_formula_structural   CeCo2(AsRu)3
_chemical_formula_sum   'Ce4 Co8 As12 Ru12'
_cell_volume   545.22694542
_cell_formula_units_Z   4
loop_
 _symmetry_equiv_pos_site_id
 _symmetry_equiv_pos_as_xyz
  1  'x, y, z'
loop_
 _atom_site_type_symbol
 _atom_site_label
 _atom_site_symmetry_multiplicity
 _atom_site_fract_x
 _atom_site_fract_y
 _atom_site_fract_z
 _atom_site_occupancy
  Ce  Ce0  1  0.250000  0.585203  0.703829  1
  Ce  Ce1  1  0.250000  0.914797  0.203829  1
  Ce  Ce2  1  0.750000  0.414797  0.296171  1
  Ce  Ce3  1  0.750000  0.085203  0.796171  1
  Co  Co4  1  0.250000  0.886920  0.696042  1
  Co  Co5  1  0.250000  0.613080  0.196042  1
  Co  Co6  1  0.750000  0.113080  0.303958  1
  Co  Co7  1  0.750000  0.386920  0.803958  1
  Co  Co8  1  0.250000  0.466150  0.932322  1
  Co  Co9  1  0.250000  0.033850  0.432322  1
  Co  Co10  1  0.750000  0.533850  0.067678  1
  Co  Co11  1  0.750000  0.966150  0.567678  1
  As  As12  1  0.250000  0.423945  0.111139  1
  As  As13  1  0.250000  0.076055  0.611139  1
  As  As14  1  0.750000  0.576055  0.888861  1
  As  As15  1  0.750000  0.923945  0.388861  1
  As  As16  1  0.250000  0.275019  0.871110  1
  As  As17  1  0.250000  0.224981  0.371110  1
  As  As18  1  0.750000  0.724981  0.128890  1
  As  As19  1  0.750000  0.775019  0.628890  1
  As  As20  1  0.250000  0.601457  0.386622  1
  As  As21  1  0.250000  0.898543  0.886622  1
  As  As22  1  0.750000  0.398543  0.613378  1
  As  As23  1  0.750000  0.101457  0.113378  1
  Ru  Ru24  1  0.250000  0.706947  0.988093  1
  Ru  Ru25  1  0.250000  0.793053  0.488093  1
  Ru  Ru26  1  0.750000  0.293053  0.011907  1
  Ru  Ru27  1  0.750000  0.206947  0.511907  1
  Ru  Ru28  1  0.250000  0.405307  0.483988  1
  Ru  Ru29  1  0.250000  0.094693  0.983988  1
  Ru  Ru30  1  0.750000  0.594693  0.516012  1
  Ru  Ru31  1  0.750000  0.905307  0.016012  1
  Ru  Ru32  1  0.250000  0.221703  0.178236  1
  Ru  Ru33  1  0.250000  0.278297  0.678236  1
  Ru  Ru34  1  0.750000  0.778297  0.821764  1
  Ru  Ru35  1  0.750000  0.721703  0.321764  1
