# generated using pymatgen
data_Y7TmAu4
_symmetry_space_group_name_H-M   'P 1'
_cell_length_a   4.95623600
_cell_length_b   7.16673845
_cell_length_c   8.96632354
_cell_angle_alpha   89.70611175
_cell_angle_beta   90.00000000
_cell_angle_gamma   90.00000000
_symmetry_Int_Tables_number   1
_chemical_formula_structural   Y7TmAu4
_chemical_formula_sum   'Y7 Tm1 Au4'
_cell_volume   318.48004484
_cell_formula_units_Z   1
loop_
 _symmetry_equiv_pos_site_id
 _symmetry_equiv_pos_as_xyz
  1  'x, y, z'
loop_
 _atom_site_type_symbol
 _atom_site_label
 _atom_site_symmetry_multiplicity
 _atom_site_fract_x
 _atom_site_fract_y
 _atom_site_fract_z
 _atom_site_occupancy
  Y  Y0  1  0.250000  0.351018  0.581638  1
  Y  Y1  1  0.750000  0.148990  0.080857  1
  Y  Y2  1  0.750000  0.649975  0.416570  1
  Y  Y3  1  0.250000  0.487754  0.174690  1
  Y  Y4  1  0.250000  0.988941  0.325665  1
  Y  Y5  1  0.750000  0.514794  0.821286  1
  Y  Y6  1  0.750000  0.010614  0.677280  1
  Tm  Tm7  1  0.250000  0.852457  0.920947  1
  Au  Au8  1  0.250000  0.251722  0.902408  1
  Au  Au9  1  0.250000  0.755723  0.603972  1
  Au  Au10  1  0.750000  0.743988  0.092773  1
  Au  Au11  1  0.750000  0.244022  0.401914  1
