# generated using pymatgen
data_PrPa5(Co3P2)6
_symmetry_space_group_name_H-M   'P 1'
_cell_length_a   3.77672400
_cell_length_b   10.40358700
_cell_length_c   12.33959200
_cell_angle_alpha   90.00000000
_cell_angle_beta   90.00000000
_cell_angle_gamma   90.00000000
_symmetry_Int_Tables_number   1
_chemical_formula_structural   PrPa5(Co3P2)6
_chemical_formula_sum   'Pr1 Pa5 Co18 P12'
_cell_volume   484.84079167
_cell_formula_units_Z   1
loop_
 _symmetry_equiv_pos_site_id
 _symmetry_equiv_pos_as_xyz
  1  'x, y, z'
loop_
 _atom_site_type_symbol
 _atom_site_label
 _atom_site_symmetry_multiplicity
 _atom_site_fract_x
 _atom_site_fract_y
 _atom_site_fract_z
 _atom_site_occupancy
  Pr  Pr0  1  0.500000  0.000000  0.480964  1
  Pa  Pa1  1  0.000000  0.500000  0.522336  1
  Pa  Pa2  1  0.500000  0.816496  0.208416  1
  Pa  Pa3  1  0.500000  0.183504  0.208416  1
  Pa  Pa4  1  0.000000  0.683870  0.791503  1
  Pa  Pa5  1  0.000000  0.316130  0.791503  1
  Co  Co6  1  0.500000  0.500000  0.159057  1
  Co  Co7  1  0.000000  0.000000  0.842066  1
  Co  Co8  1  0.500000  0.500000  0.701435  1
  Co  Co9  1  0.000000  0.000000  0.290149  1
  Co  Co10  1  0.000000  0.500000  0.978953  1
  Co  Co11  1  0.500000  0.000000  0.019664  1
  Co  Co12  1  0.500000  0.334047  0.994292  1
  Co  Co13  1  0.500000  0.665953  0.994292  1
  Co  Co14  1  0.000000  0.167488  0.005107  1
  Co  Co15  1  0.000000  0.832512  0.005107  1
  Co  Co16  1  0.500000  0.305727  0.428216  1
  Co  Co17  1  0.500000  0.694273  0.428216  1
  Co  Co18  1  0.000000  0.204832  0.574045  1
  Co  Co19  1  0.000000  0.795168  0.574045  1
  Co  Co20  1  0.500000  0.876447  0.716931  1
  Co  Co21  1  0.500000  0.123553  0.716931  1
  Co  Co22  1  0.000000  0.621667  0.285266  1
  Co  Co23  1  0.000000  0.378333  0.285266  1
  P  P24  1  0.500000  0.500000  0.880723  1
  P  P25  1  0.000000  0.000000  0.114941  1
  P  P26  1  0.500000  0.500000  0.339943  1
  P  P27  1  0.000000  0.000000  0.661462  1
  P  P28  1  0.500000  0.310045  0.612713  1
  P  P29  1  0.500000  0.689955  0.612713  1
  P  P30  1  0.000000  0.192038  0.387240  1
  P  P31  1  0.000000  0.807962  0.387240  1
  P  P32  1  0.500000  0.848902  0.897383  1
  P  P33  1  0.500000  0.151098  0.897383  1
  P  P34  1  0.000000  0.649941  0.103040  1
  P  P35  1  0.000000  0.350059  0.103040  1
