# generated using pymatgen
data_Er12Cd2Fe2Os
_symmetry_space_group_name_H-M   'P 1'
_cell_length_a   8.28085414
_cell_length_b   8.28094412
_cell_length_c   8.28085293
_cell_angle_alpha   108.47834218
_cell_angle_beta   108.47760095
_cell_angle_gamma   111.47606791
_symmetry_Int_Tables_number   1
_chemical_formula_structural   Er12Cd2Fe2Os
_chemical_formula_sum   'Er12 Cd2 Fe2 Os1'
_cell_volume   436.72691992
_cell_formula_units_Z   1
loop_
 _symmetry_equiv_pos_site_id
 _symmetry_equiv_pos_as_xyz
  1  'x, y, z'
loop_
 _atom_site_type_symbol
 _atom_site_label
 _atom_site_symmetry_multiplicity
 _atom_site_fract_x
 _atom_site_fract_y
 _atom_site_fract_z
 _atom_site_occupancy
  Er  Er0  1  0.308194  0.308161  0.616373  1
  Er  Er1  1  0.691806  0.691839  0.383627  1
  Er  Er2  1  0.308213  0.691839  0.000033  1
  Er  Er3  1  0.691787  0.308161  0.999967  1
  Er  Er4  1  0.429957  0.191874  0.238116  1
  Er  Er5  1  0.570043  0.808126  0.761884  1
  Er  Er6  1  0.953757  0.191874  0.761917  1
  Er  Er7  1  0.191884  0.953790  0.761907  1
  Er  Er8  1  0.046243  0.808126  0.238083  1
  Er  Er9  1  0.808116  0.046210  0.238093  1
  Er  Er10  1  0.191877  0.429988  0.238111  1
  Er  Er11  1  0.808123  0.570012  0.761889  1
  Cd  Cd12  1  0.500000  0.000000  0.500000  1
  Cd  Cd13  1  0.000000  0.500000  0.500000  1
  Fe  Fe14  1  0.384543  0.384547  0.000005  1
  Fe  Fe15  1  0.615457  0.615453  0.999995  1
  Os  Os16  1  0.000000  0.000000  0.000000  1
