# generated using pymatgen
data_K4Li2LuGaSb4
_symmetry_space_group_name_H-M   'P 1'
_cell_length_a   10.71701240
_cell_length_b   10.71701221
_cell_length_c   6.89267500
_cell_angle_alpha   90.00000000
_cell_angle_beta   90.00000000
_cell_angle_gamma   100.81440102
_symmetry_Int_Tables_number   1
_chemical_formula_structural   K4Li2LuGaSb4
_chemical_formula_sum   'K8 Li4 Lu2 Ga2 Sb8'
_cell_volume   777.59405209
_cell_formula_units_Z   2
loop_
 _symmetry_equiv_pos_site_id
 _symmetry_equiv_pos_as_xyz
  1  'x, y, z'
loop_
 _atom_site_type_symbol
 _atom_site_label
 _atom_site_symmetry_multiplicity
 _atom_site_fract_x
 _atom_site_fract_y
 _atom_site_fract_z
 _atom_site_occupancy
  K  K0  1  0.570805  0.929195  0.750000  1
  K  K1  1  0.929195  0.570805  0.250000  1
  K  K2  1  0.420957  0.079043  0.250000  1
  K  K3  1  0.079043  0.420957  0.750000  1
  K  K4  1  0.668453  0.322229  0.774124  1
  K  K5  1  0.831547  0.177771  0.274124  1
  K  K6  1  0.322229  0.668453  0.225876  1
  K  K7  1  0.177771  0.831547  0.725876  1
  Li  Li8  1  0.618373  0.618373  0.000000  1
  Li  Li9  1  0.881627  0.881627  0.500000  1
  Li  Li10  1  0.376358  0.376358  0.000000  1
  Li  Li11  1  0.123642  0.123642  0.500000  1
  Lu  Lu12  1  0.875248  0.875248  0.000000  1
  Lu  Lu13  1  0.624752  0.624752  0.500000  1
  Ga  Ga14  1  0.131657  0.131657  0.000000  1
  Ga  Ga15  1  0.368343  0.368343  0.500000  1
  Sb  Sb16  1  0.344812  0.155188  0.750000  1
  Sb  Sb17  1  0.155188  0.344812  0.250000  1
  Sb  Sb18  1  0.648089  0.851911  0.250000  1
  Sb  Sb19  1  0.851911  0.648089  0.750000  1
  Sb  Sb20  1  0.909519  0.107782  0.768615  1
  Sb  Sb21  1  0.590481  0.392218  0.268615  1
  Sb  Sb22  1  0.107782  0.909519  0.231385  1
  Sb  Sb23  1  0.392218  0.590481  0.731385  1
