# generated using pymatgen
data_Tm20Os4Rh7Au
_symmetry_space_group_name_H-M   'P 1'
_cell_length_a   10.74503515
_cell_length_b   10.74503479
_cell_length_c   6.36729000
_cell_angle_alpha   90.00956082
_cell_angle_beta   90.00956082
_cell_angle_gamma   89.66502124
_symmetry_Int_Tables_number   1
_chemical_formula_structural   Tm20Os4Rh7Au
_chemical_formula_sum   'Tm20 Os4 Rh7 Au1'
_cell_volume   735.12782661
_cell_formula_units_Z   1
loop_
 _symmetry_equiv_pos_site_id
 _symmetry_equiv_pos_as_xyz
  1  'x, y, z'
loop_
 _atom_site_type_symbol
 _atom_site_label
 _atom_site_symmetry_multiplicity
 _atom_site_fract_x
 _atom_site_fract_y
 _atom_site_fract_z
 _atom_site_occupancy
  Tm  Tm0  1  0.292719  0.084858  0.374968  1
  Tm  Tm1  1  0.295547  0.913653  0.876220  1
  Tm  Tm2  1  0.701870  0.082773  0.864115  1
  Tm  Tm3  1  0.702774  0.907815  0.379635  1
  Tm  Tm4  1  0.585720  0.793546  0.877050  1
  Tm  Tm5  1  0.577843  0.206441  0.376332  1
  Tm  Tm6  1  0.412712  0.793536  0.376757  1
  Tm  Tm7  1  0.413494  0.205409  0.877589  1
  Tm  Tm8  1  0.206454  0.414280  0.622950  1
  Tm  Tm9  1  0.206464  0.587288  0.123243  1
  Tm  Tm10  1  0.793559  0.422157  0.123668  1
  Tm  Tm11  1  0.794591  0.586506  0.622411  1
  Tm  Tm12  1  0.915142  0.707281  0.125032  1
  Tm  Tm13  1  0.917227  0.298130  0.635885  1
  Tm  Tm14  1  0.086347  0.704453  0.623780  1
  Tm  Tm15  1  0.092185  0.297226  0.120365  1
  Tm  Tm16  1  0.003081  0.995521  0.502756  1
  Tm  Tm17  1  0.004479  0.996919  0.997244  1
  Tm  Tm18  1  0.499324  0.500096  0.998984  1
  Tm  Tm19  1  0.499904  0.500676  0.501016  1
  Os  Os20  1  0.500107  0.999318  0.125585  1
  Os  Os21  1  0.498974  0.999033  0.623195  1
  Os  Os22  1  0.000967  0.501026  0.876805  1
  Os  Os23  1  0.000682  0.499893  0.374415  1
  Rh  Rh24  1  0.849422  0.849317  0.750762  1
  Rh  Rh25  1  0.150683  0.150578  0.749238  1
  Rh  Rh26  1  0.152538  0.847462  0.250000  1
  Rh  Rh27  1  0.652739  0.347261  0.750000  1
  Rh  Rh28  1  0.651188  0.651611  0.249961  1
  Rh  Rh29  1  0.348389  0.348812  0.250039  1
  Rh  Rh30  1  0.348062  0.651938  0.750000  1
  Au  Au31  1  0.844813  0.155187  0.250000  1
