# generated using pymatgen
data_PrDy2Ti(Co4P3)2
_symmetry_space_group_name_H-M   'P 1'
_cell_length_a   3.72554300
_cell_length_b   10.67405400
_cell_length_c   12.36448400
_cell_angle_alpha   90.00000000
_cell_angle_beta   90.00000000
_cell_angle_gamma   90.00000000
_symmetry_Int_Tables_number   1
_chemical_formula_structural   PrDy2Ti(Co4P3)2
_chemical_formula_sum   'Pr2 Dy4 Ti2 Co16 P12'
_cell_volume   491.69407256
_cell_formula_units_Z   2
loop_
 _symmetry_equiv_pos_site_id
 _symmetry_equiv_pos_as_xyz
  1  'x, y, z'
loop_
 _atom_site_type_symbol
 _atom_site_label
 _atom_site_symmetry_multiplicity
 _atom_site_fract_x
 _atom_site_fract_y
 _atom_site_fract_z
 _atom_site_occupancy
  Pr  Pr0  1  0.000000  0.500000  0.526480  1
  Pr  Pr1  1  0.500000  0.000000  0.473520  1
  Dy  Dy2  1  0.500000  0.819652  0.203183  1
  Dy  Dy3  1  0.500000  0.180348  0.203183  1
  Dy  Dy4  1  0.000000  0.680348  0.796817  1
  Dy  Dy5  1  0.000000  0.319652  0.796817  1
  Ti  Ti6  1  0.500000  0.500000  0.150231  1
  Ti  Ti7  1  0.000000  0.000000  0.849769  1
  Co  Co8  1  0.500000  0.500000  0.707416  1
  Co  Co9  1  0.000000  0.000000  0.292584  1
  Co  Co10  1  0.000000  0.500000  0.987395  1
  Co  Co11  1  0.500000  0.000000  0.012605  1
  Co  Co12  1  0.500000  0.331860  0.994181  1
  Co  Co13  1  0.500000  0.668140  0.994181  1
  Co  Co14  1  0.000000  0.168140  0.005819  1
  Co  Co15  1  0.000000  0.831860  0.005819  1
  Co  Co16  1  0.500000  0.295462  0.430332  1
  Co  Co17  1  0.500000  0.704538  0.430332  1
  Co  Co18  1  0.000000  0.204538  0.569668  1
  Co  Co19  1  0.000000  0.795462  0.569668  1
  Co  Co20  1  0.500000  0.879237  0.708923  1
  Co  Co21  1  0.500000  0.120763  0.708923  1
  Co  Co22  1  0.000000  0.620763  0.291077  1
  Co  Co23  1  0.000000  0.379237  0.291077  1
  P  P24  1  0.500000  0.500000  0.884974  1
  P  P25  1  0.000000  0.000000  0.115026  1
  P  P26  1  0.500000  0.500000  0.348031  1
  P  P27  1  0.000000  0.000000  0.651969  1
  P  P28  1  0.500000  0.306258  0.617815  1
  P  P29  1  0.500000  0.693742  0.617815  1
  P  P30  1  0.000000  0.193742  0.382185  1
  P  P31  1  0.000000  0.806258  0.382185  1
  P  P32  1  0.500000  0.842906  0.893101  1
  P  P33  1  0.500000  0.157094  0.893101  1
  P  P34  1  0.000000  0.657094  0.106899  1
  P  P35  1  0.000000  0.342906  0.106899  1
