# generated using pymatgen
data_YbSm4U5O19
_symmetry_space_group_name_H-M   'P 1'
_cell_length_a   6.77426149
_cell_length_b   7.59122325
_cell_length_c   8.54904912
_cell_angle_alpha   100.38013374
_cell_angle_beta   97.62133525
_cell_angle_gamma   107.27849132
_symmetry_Int_Tables_number   1
_chemical_formula_structural   YbSm4U5O19
_chemical_formula_sum   'Yb1 Sm4 U5 O19'
_cell_volume   404.73400683
_cell_formula_units_Z   1
loop_
 _symmetry_equiv_pos_site_id
 _symmetry_equiv_pos_as_xyz
  1  'x, y, z'
loop_
 _atom_site_type_symbol
 _atom_site_label
 _atom_site_symmetry_multiplicity
 _atom_site_fract_x
 _atom_site_fract_y
 _atom_site_fract_z
 _atom_site_occupancy
  Yb  Yb0  1  0.207838  0.912551  0.387374  1
  Sm  Sm1  1  0.802093  0.100923  0.601085  1
  Sm  Sm2  1  0.385835  0.294860  0.796065  1
  Sm  Sm3  1  0.606345  0.704895  0.204816  1
  Sm  Sm4  1  0.001140  0.501862  0.001009  1
  U  U5  1  0.780522  0.598975  0.600660  1
  U  U6  1  0.602962  0.203483  0.197968  1
  U  U7  1  0.002216  0.003732  0.000213  1
  U  U8  1  0.410579  0.809249  0.812420  1
  U  U9  1  0.200828  0.386942  0.390040  1
  O  O10  1  0.343241  0.061238  0.951973  1
  O  O11  1  0.430777  0.988622  0.651103  1
  O  O12  1  0.042306  0.218591  0.856337  1
  O  O13  1  0.725807  0.384240  0.736913  1
  O  O14  1  0.151868  0.181673  0.533287  1
  O  O15  1  0.359133  0.593612  0.953508  1
  O  O16  1  0.948676  0.267054  0.158489  1
  O  O17  1  0.897488  0.386587  0.463488  1
  O  O18  1  0.750229  0.864434  0.763682  1
  O  O19  1  0.546953  0.455693  0.361259  1
  O  O20  1  0.409027  0.553295  0.633653  1
  O  O21  1  0.253400  0.132327  0.231765  1
  O  O22  1  0.062685  0.717081  0.800102  1
  O  O23  1  0.644804  0.411680  0.059056  1
  O  O24  1  0.863235  0.802986  0.463757  1
  O  O25  1  0.248031  0.616556  0.275434  1
  O  O26  1  0.954312  0.785048  0.127292  1
  O  O27  1  0.573635  0.005318  0.346718  1
  O  O28  1  0.657951  0.944133  0.048773  1
