# generated using pymatgen
data_ZrMn12NbP7
_symmetry_space_group_name_H-M   'P 1'
_cell_length_a   9.11013500
_cell_length_b   9.11013582
_cell_length_c   3.56341900
_cell_angle_alpha   90.00000000
_cell_angle_beta   90.00000000
_cell_angle_gamma   120.00000065
_symmetry_Int_Tables_number   1
_chemical_formula_structural   ZrMn12NbP7
_chemical_formula_sum   'Zr1 Mn12 Nb1 P7'
_cell_volume   256.12217699
_cell_formula_units_Z   1
loop_
 _symmetry_equiv_pos_site_id
 _symmetry_equiv_pos_as_xyz
  1  'x, y, z'
loop_
 _atom_site_type_symbol
 _atom_site_label
 _atom_site_symmetry_multiplicity
 _atom_site_fract_x
 _atom_site_fract_y
 _atom_site_fract_z
 _atom_site_occupancy
  Zr  Zr0  1  0.666667  0.333333  0.500000  1
  Mn  Mn1  1  0.711153  0.617330  0.000000  1
  Mn  Mn2  1  0.382670  0.093823  0.000000  1
  Mn  Mn3  1  0.906177  0.288847  0.000000  1
  Mn  Mn4  1  0.212121  0.384654  0.000000  1
  Mn  Mn5  1  0.615346  0.827469  0.000000  1
  Mn  Mn6  1  0.172531  0.787879  0.000000  1
  Mn  Mn7  1  0.286309  0.226756  0.500000  1
  Mn  Mn8  1  0.773244  0.059552  0.500000  1
  Mn  Mn9  1  0.940448  0.713691  0.500000  1
  Mn  Mn10  1  0.458841  0.562121  0.500000  1
  Mn  Mn11  1  0.437879  0.896721  0.500000  1
  Mn  Mn12  1  0.103279  0.541159  0.500000  1
  Nb  Nb13  1  0.000000  0.000000  0.000000  1
  P  P14  1  0.457305  0.375588  0.000000  1
  P  P15  1  0.624412  0.081718  0.000000  1
  P  P16  1  0.918282  0.542695  0.000000  1
  P  P17  1  0.050983  0.252576  0.500000  1
  P  P18  1  0.747424  0.798408  0.500000  1
  P  P19  1  0.201592  0.949017  0.500000  1
  P  P20  1  0.333333  0.666667  0.000000  1
