# generated using pymatgen
data_CsFe2RhSe3
_symmetry_space_group_name_H-M   'P 1'
_cell_length_a   9.60448086
_cell_length_b   9.68336303
_cell_length_c   4.40600400
_cell_angle_alpha   90.00000000
_cell_angle_beta   90.00000000
_cell_angle_gamma   119.57037065
_symmetry_Int_Tables_number   1
_chemical_formula_structural   CsFe2RhSe3
_chemical_formula_sum   'Cs2 Fe4 Rh2 Se6'
_cell_volume   356.40152683
_cell_formula_units_Z   2
loop_
 _symmetry_equiv_pos_site_id
 _symmetry_equiv_pos_as_xyz
  1  'x, y, z'
loop_
 _atom_site_type_symbol
 _atom_site_label
 _atom_site_symmetry_multiplicity
 _atom_site_fract_x
 _atom_site_fract_y
 _atom_site_fract_z
 _atom_site_occupancy
  Cs  Cs0  1  0.332055  0.664569  0.250000  1
  Cs  Cs1  1  0.667945  0.335431  0.750000  1
  Fe  Fe2  1  0.833288  0.975275  0.250000  1
  Fe  Fe3  1  0.024652  0.857551  0.250000  1
  Fe  Fe4  1  0.975348  0.142449  0.750000  1
  Fe  Fe5  1  0.166712  0.024725  0.750000  1
  Rh  Rh6  1  0.156077  0.182841  0.250000  1
  Rh  Rh7  1  0.843923  0.817159  0.750000  1
  Se  Se8  1  0.951114  0.269136  0.250000  1
  Se  Se9  1  0.048886  0.730864  0.750000  1
  Se  Se10  1  0.725606  0.678340  0.250000  1
  Se  Se11  1  0.318339  0.047235  0.250000  1
  Se  Se12  1  0.681661  0.952765  0.750000  1
  Se  Se13  1  0.274394  0.321660  0.750000  1
