# generated using pymatgen
data_Er10Cd2CoHg
_symmetry_space_group_name_H-M   'P 1'
_cell_length_a   9.51622801
_cell_length_b   9.51185202
_cell_length_c   9.60324000
_cell_angle_alpha   90.00000000
_cell_angle_beta   90.00000000
_cell_angle_gamma   119.98478808
_symmetry_Int_Tables_number   1
_chemical_formula_structural   Er10Cd2CoHg
_chemical_formula_sum   'Er20 Cd4 Co2 Hg2'
_cell_volume   752.91316187
_cell_formula_units_Z   2
loop_
 _symmetry_equiv_pos_site_id
 _symmetry_equiv_pos_as_xyz
  1  'x, y, z'
loop_
 _atom_site_type_symbol
 _atom_site_label
 _atom_site_symmetry_multiplicity
 _atom_site_fract_x
 _atom_site_fract_y
 _atom_site_fract_z
 _atom_site_occupancy
  Er  Er0  1  0.996216  0.998108  0.493476  1
  Er  Er1  1  0.996216  0.998108  0.006524  1
  Er  Er2  1  0.545776  0.460203  0.250000  1
  Er  Er3  1  0.545776  0.085574  0.250000  1
  Er  Er4  1  0.915304  0.457652  0.250000  1
  Er  Er5  1  0.457268  0.542552  0.750000  1
  Er  Er6  1  0.457268  0.914716  0.750000  1
  Er  Er7  1  0.086513  0.543257  0.750000  1
  Er  Er8  1  0.212348  0.788720  0.436082  1
  Er  Er9  1  0.212348  0.423630  0.436082  1
  Er  Er10  1  0.576029  0.788015  0.436145  1
  Er  Er11  1  0.788233  0.212032  0.563889  1
  Er  Er12  1  0.788233  0.576200  0.563889  1
  Er  Er13  1  0.423684  0.211842  0.563097  1
  Er  Er14  1  0.788233  0.212032  0.936111  1
  Er  Er15  1  0.788233  0.576200  0.936111  1
  Er  Er16  1  0.423684  0.211842  0.936903  1
  Er  Er17  1  0.212348  0.788720  0.063918  1
  Er  Er18  1  0.212348  0.423630  0.063918  1
  Er  Er19  1  0.576029  0.788015  0.063855  1
  Cd  Cd20  1  0.235537  0.117769  0.250000  1
  Cd  Cd21  1  0.113405  0.885956  0.750000  1
  Cd  Cd22  1  0.113405  0.227450  0.750000  1
  Cd  Cd23  1  0.771131  0.885565  0.750000  1
  Co  Co24  1  0.333769  0.666885  0.250000  1
  Co  Co25  1  0.665962  0.332980  0.750000  1
  Hg  Hg26  1  0.882350  0.120968  0.250000  1
  Hg  Hg27  1  0.882350  0.761382  0.250000  1
