# generated using pymatgen
data_Tm3FeB7
_symmetry_space_group_name_H-M   'P 1'
_cell_length_a   7.91020208
_cell_length_b   7.91020226
_cell_length_c   9.20465400
_cell_angle_alpha   90.00000000
_cell_angle_beta   90.00000000
_cell_angle_gamma   155.34023934
_symmetry_Int_Tables_number   1
_chemical_formula_structural   Tm3FeB7
_chemical_formula_sum   'Tm6 Fe2 B14'
_cell_volume   240.30180658
_cell_formula_units_Z   2
loop_
 _symmetry_equiv_pos_site_id
 _symmetry_equiv_pos_as_xyz
  1  'x, y, z'
loop_
 _atom_site_type_symbol
 _atom_site_label
 _atom_site_symmetry_multiplicity
 _atom_site_fract_x
 _atom_site_fract_y
 _atom_site_fract_z
 _atom_site_occupancy
  Tm  Tm0  1  0.894637  0.105363  0.059105  1
  Tm  Tm1  1  0.105363  0.894637  0.559105  1
  Tm  Tm2  1  0.105363  0.894637  0.940895  1
  Tm  Tm3  1  0.894637  0.105363  0.440895  1
  Tm  Tm4  1  0.243703  0.756297  0.250000  1
  Tm  Tm5  1  0.756297  0.243703  0.750000  1
  Fe  Fe6  1  0.053523  0.946477  0.250000  1
  Fe  Fe7  1  0.946477  0.053523  0.750000  1
  B  B8  1  0.457054  0.542946  0.250000  1
  B  B9  1  0.542946  0.457054  0.750000  1
  B  B10  1  0.727930  0.272070  0.033743  1
  B  B11  1  0.272070  0.727930  0.533743  1
  B  B12  1  0.272070  0.727930  0.966257  1
  B  B13  1  0.727930  0.272070  0.466257  1
  B  B14  1  0.630235  0.369765  0.347485  1
  B  B15  1  0.369765  0.630235  0.847485  1
  B  B16  1  0.369765  0.630235  0.652515  1
  B  B17  1  0.630235  0.369765  0.152515  1
  B  B18  1  0.520894  0.479106  0.402172  1
  B  B19  1  0.479106  0.520894  0.902172  1
  B  B20  1  0.479106  0.520894  0.597828  1
  B  B21  1  0.520894  0.479106  0.097828  1
