# generated using pymatgen
data_Y3Er13(CdPt)4
_symmetry_space_group_name_H-M   'P 1'
_cell_length_a   9.62581577
_cell_length_b   9.62460018
_cell_length_c   9.62437606
_cell_angle_alpha   60.00912874
_cell_angle_beta   59.99924422
_cell_angle_gamma   59.99427774
_symmetry_Int_Tables_number   1
_chemical_formula_structural   Y3Er13(CdPt)4
_chemical_formula_sum   'Y3 Er13 Cd4 Pt4'
_cell_volume   630.50206521
_cell_formula_units_Z   1
loop_
 _symmetry_equiv_pos_site_id
 _symmetry_equiv_pos_as_xyz
  1  'x, y, z'
loop_
 _atom_site_type_symbol
 _atom_site_label
 _atom_site_symmetry_multiplicity
 _atom_site_fract_x
 _atom_site_fract_y
 _atom_site_fract_z
 _atom_site_occupancy
  Y  Y0  1  0.935257  0.564743  0.935257  1
  Y  Y1  1  0.564760  0.565261  0.934783  1
  Y  Y2  1  0.934783  0.935196  0.564760  1
  Er  Er3  1  0.352447  0.352430  0.352870  1
  Er  Er4  1  0.352768  0.352292  0.942200  1
  Er  Er5  1  0.352870  0.942252  0.352447  1
  Er  Er6  1  0.942200  0.352740  0.352768  1
  Er  Er7  1  0.810431  0.189161  0.189754  1
  Er  Er8  1  0.189754  0.810655  0.810431  1
  Er  Er9  1  0.189517  0.810483  0.189517  1
  Er  Er10  1  0.810565  0.189435  0.810565  1
  Er  Er11  1  0.189747  0.189162  0.810431  1
  Er  Er12  1  0.810431  0.810660  0.189747  1
  Er  Er13  1  0.935387  0.564675  0.564232  1
  Er  Er14  1  0.564232  0.935706  0.935387  1
  Er  Er15  1  0.564673  0.935327  0.564673  1
  Cd  Cd16  1  0.582009  0.582007  0.581759  1
  Cd  Cd17  1  0.581708  0.581982  0.254575  1
  Cd  Cd18  1  0.581759  0.254225  0.582009  1
  Cd  Cd19  1  0.254575  0.581735  0.581708  1
  Pt  Pt20  1  0.143599  0.143336  0.143336  1
  Pt  Pt21  1  0.143546  0.143536  0.569645  1
  Pt  Pt22  1  0.143336  0.569728  0.143599  1
  Pt  Pt23  1  0.569645  0.143273  0.143546  1
