# generated using pymatgen
data_TbCeTcB6
_symmetry_space_group_name_H-M   'P 1'
_cell_length_a   3.74767100
_cell_length_b   9.21052200
_cell_length_c   11.58508700
_cell_angle_alpha   90.00000000
_cell_angle_beta   90.00000000
_cell_angle_gamma   90.00000000
_symmetry_Int_Tables_number   1
_chemical_formula_structural   TbCeTcB6
_chemical_formula_sum   'Tb4 Ce4 Tc4 B24'
_cell_volume   399.89410483
_cell_formula_units_Z   4
loop_
 _symmetry_equiv_pos_site_id
 _symmetry_equiv_pos_as_xyz
  1  'x, y, z'
loop_
 _atom_site_type_symbol
 _atom_site_label
 _atom_site_symmetry_multiplicity
 _atom_site_fract_x
 _atom_site_fract_y
 _atom_site_fract_z
 _atom_site_occupancy
  Tb  Tb0  1  0.000000  0.944378  0.372440  1
  Tb  Tb1  1  0.000000  0.055622  0.627560  1
  Tb  Tb2  1  0.000000  0.444378  0.127560  1
  Tb  Tb3  1  0.000000  0.555622  0.872440  1
  Ce  Ce4  1  0.000000  0.323253  0.413876  1
  Ce  Ce5  1  0.000000  0.676747  0.586124  1
  Ce  Ce6  1  0.000000  0.823253  0.086124  1
  Ce  Ce7  1  0.000000  0.176747  0.913876  1
  Tc  Tc8  1  0.000000  0.638604  0.321255  1
  Tc  Tc9  1  0.000000  0.361396  0.678745  1
  Tc  Tc10  1  0.000000  0.138604  0.178745  1
  Tc  Tc11  1  0.000000  0.861396  0.821255  1
  B  B12  1  0.500000  0.554312  0.431705  1
  B  B13  1  0.500000  0.445688  0.568295  1
  B  B14  1  0.500000  0.054312  0.068295  1
  B  B15  1  0.500000  0.945688  0.931705  1
  B  B16  1  0.500000  0.747777  0.418853  1
  B  B17  1  0.500000  0.252223  0.581147  1
  B  B18  1  0.500000  0.247777  0.081147  1
  B  B19  1  0.500000  0.752223  0.918853  1
  B  B20  1  0.500000  0.791123  0.266614  1
  B  B21  1  0.500000  0.208877  0.733386  1
  B  B22  1  0.500000  0.291123  0.233386  1
  B  B23  1  0.500000  0.708877  0.766614  1
  B  B24  1  0.500000  0.632409  0.186420  1
  B  B25  1  0.500000  0.367591  0.813580  1
  B  B26  1  0.500000  0.132409  0.313580  1
  B  B27  1  0.500000  0.867591  0.686420  1
  B  B28  1  0.500000  0.984630  0.212701  1
  B  B29  1  0.500000  0.015370  0.787299  1
  B  B30  1  0.500000  0.484630  0.287299  1
  B  B31  1  0.500000  0.515370  0.712701  1
  B  B32  1  0.500000  0.609747  0.030458  1
  B  B33  1  0.500000  0.390253  0.969542  1
  B  B34  1  0.500000  0.109747  0.469542  1
  B  B35  1  0.500000  0.890253  0.530458  1
