# generated using pymatgen
data_Pr8Nd2IrRu3
_symmetry_space_group_name_H-M   'P 1'
_cell_length_a   8.99492859
_cell_length_b   9.01888913
_cell_length_c   7.43749497
_cell_angle_alpha   83.59934965
_cell_angle_beta   83.64652981
_cell_angle_gamma   43.36394215
_symmetry_Int_Tables_number   1
_chemical_formula_structural   Pr8Nd2IrRu3
_chemical_formula_sum   'Pr8 Nd2 Ir1 Ru3'
_cell_volume   411.31571366
_cell_formula_units_Z   1
loop_
 _symmetry_equiv_pos_site_id
 _symmetry_equiv_pos_as_xyz
  1  'x, y, z'
loop_
 _atom_site_type_symbol
 _atom_site_label
 _atom_site_symmetry_multiplicity
 _atom_site_fract_x
 _atom_site_fract_y
 _atom_site_fract_z
 _atom_site_occupancy
  Pr  Pr0  1  0.016115  0.800091  0.916928  1
  Pr  Pr1  1  0.201877  0.983452  0.585992  1
  Pr  Pr2  1  0.984033  0.200651  0.086131  1
  Pr  Pr3  1  0.795957  0.020467  0.413541  1
  Pr  Pr4  1  0.359078  0.207474  0.815357  1
  Pr  Pr5  1  0.789628  0.642000  0.685333  1
  Pr  Pr6  1  0.642516  0.790714  0.186007  1
  Pr  Pr7  1  0.208624  0.355584  0.314127  1
  Nd  Nd8  1  0.572815  0.427030  0.749491  1
  Nd  Nd9  1  0.427619  0.574101  0.248191  1
  Ir  Ir10  1  0.179974  0.596306  0.574708  1
  Ru  Ru11  1  0.398897  0.823891  0.924273  1
  Ru  Ru12  1  0.824056  0.399546  0.426120  1
  Ru  Ru13  1  0.598811  0.178693  0.073802  1
