# generated using pymatgen
data_K3Y(H6Ir)2
_symmetry_space_group_name_H-M   'P 1'
_cell_length_a   7.93509800
_cell_length_b   7.93509800
_cell_length_c   7.60302600
_cell_angle_alpha   90.00000000
_cell_angle_beta   90.00000000
_cell_angle_gamma   90.00000000
_symmetry_Int_Tables_number   1
_chemical_formula_structural   K3Y(H6Ir)2
_chemical_formula_sum   'K6 Y2 H24 Ir4'
_cell_volume   478.73046450
_cell_formula_units_Z   2
loop_
 _symmetry_equiv_pos_site_id
 _symmetry_equiv_pos_as_xyz
  1  'x, y, z'
loop_
 _atom_site_type_symbol
 _atom_site_label
 _atom_site_symmetry_multiplicity
 _atom_site_fract_x
 _atom_site_fract_y
 _atom_site_fract_z
 _atom_site_occupancy
  K  K0  1  0.000000  0.500000  0.500000  1
  K  K1  1  0.500000  0.000000  0.500000  1
  K  K2  1  0.000000  0.000000  0.500000  1
  K  K3  1  0.000000  0.500000  0.000000  1
  K  K4  1  0.500000  0.000000  0.000000  1
  K  K5  1  0.000000  0.000000  0.000000  1
  Y  Y6  1  0.500000  0.500000  0.500000  1
  Y  Y7  1  0.500000  0.500000  0.000000  1
  H  H8  1  0.716730  0.716730  0.471599  1
  H  H9  1  0.283270  0.283270  0.471599  1
  H  H10  1  0.080708  0.723001  0.750436  1
  H  H11  1  0.276999  0.919292  0.750436  1
  H  H12  1  0.723001  0.080708  0.750436  1
  H  H13  1  0.919292  0.276999  0.750436  1
  H  H14  1  0.716009  0.504526  0.749569  1
  H  H15  1  0.504526  0.716009  0.749569  1
  H  H16  1  0.495474  0.283991  0.749569  1
  H  H17  1  0.283991  0.495474  0.749569  1
  H  H18  1  0.283653  0.716347  0.971421  1
  H  H19  1  0.716347  0.283653  0.971421  1
  H  H20  1  0.716347  0.716347  0.028579  1
  H  H21  1  0.283653  0.283653  0.028579  1
  H  H22  1  0.283991  0.504526  0.250431  1
  H  H23  1  0.495474  0.716009  0.250431  1
  H  H24  1  0.504526  0.283991  0.250431  1
  H  H25  1  0.716009  0.495474  0.250431  1
  H  H26  1  0.919292  0.723001  0.249564  1
  H  H27  1  0.723001  0.919292  0.249564  1
  H  H28  1  0.276999  0.080708  0.249564  1
  H  H29  1  0.080708  0.276999  0.249564  1
  H  H30  1  0.283270  0.716730  0.528401  1
  H  H31  1  0.716730  0.283270  0.528401  1
  Ir  Ir32  1  0.291213  0.708787  0.749947  1
  Ir  Ir33  1  0.708787  0.291213  0.749947  1
  Ir  Ir34  1  0.708787  0.708787  0.250053  1
  Ir  Ir35  1  0.291213  0.291213  0.250053  1
