# generated using pymatgen
data_Sc6Al13MoOs7W2
_symmetry_space_group_name_H-M   'P 1'
_cell_length_a   8.81728678
_cell_length_b   8.82197401
_cell_length_c   8.82195294
_cell_angle_alpha   59.75139148
_cell_angle_beta   59.74953165
_cell_angle_gamma   59.74928733
_symmetry_Int_Tables_number   1
_chemical_formula_structural   Sc6Al13MoOs7W2
_chemical_formula_sum   'Sc6 Al13 Mo1 Os7 W2'
_cell_volume   482.47928636
_cell_formula_units_Z   1
loop_
 _symmetry_equiv_pos_site_id
 _symmetry_equiv_pos_as_xyz
  1  'x, y, z'
loop_
 _atom_site_type_symbol
 _atom_site_label
 _atom_site_symmetry_multiplicity
 _atom_site_fract_x
 _atom_site_fract_y
 _atom_site_fract_z
 _atom_site_occupancy
  Sc  Sc0  1  0.710524  0.711488  0.281963  1
  Sc  Sc1  1  0.291097  0.710482  0.289495  1
  Sc  Sc2  1  0.709425  0.290950  0.290949  1
  Sc  Sc3  1  0.291095  0.289489  0.710492  1
  Sc  Sc4  1  0.710526  0.281962  0.711486  1
  Sc  Sc5  1  0.282130  0.711457  0.711451  1
  Al  Al6  1  0.880313  0.880529  0.880532  1
  Al  Al7  1  0.120807  0.120805  0.637735  1
  Al  Al8  1  0.120805  0.637737  0.120804  1
  Al  Al9  1  0.637949  0.120676  0.120676  1
  Al  Al10  1  0.122641  0.122527  0.122529  1
  Al  Al11  1  0.664891  0.666021  0.009444  1
  Al  Al12  1  0.664891  0.009443  0.666021  1
  Al  Al13  1  0.010226  0.665301  0.665300  1
  Al  Al14  1  0.656053  0.656913  0.656913  1
  Al  Al15  1  0.335531  0.335435  0.996674  1
  Al  Al16  1  0.335531  0.996675  0.335434  1
  Al  Al17  1  0.996291  0.335572  0.335572  1
  Al  Al18  1  0.336052  0.335995  0.335996  1
  Mo  Mo19  1  0.363622  0.877245  0.877242  1
  Os  Os20  1  0.004079  0.004517  0.004516  1
  Os  Os21  1  0.998234  0.997887  0.496968  1
  Os  Os22  1  0.505650  0.996184  0.503181  1
  Os  Os23  1  0.995753  0.504771  0.504769  1
  Os  Os24  1  0.505649  0.503181  0.996181  1
  Os  Os25  1  0.998233  0.496970  0.997883  1
  Os  Os26  1  0.497719  0.998675  0.998674  1
  W  W27  1  0.877141  0.877155  0.363961  1
  W  W28  1  0.877144  0.363960  0.877156  1
