# generated using pymatgen
data_Lu2Pa(Ga2Co3)3
_symmetry_space_group_name_H-M   'P 1'
_cell_length_a   8.86081800
_cell_length_b   8.86081671
_cell_length_c   3.88121800
_cell_angle_alpha   90.00000000
_cell_angle_beta   90.00000000
_cell_angle_gamma   120.00000481
_symmetry_Int_Tables_number   1
_chemical_formula_structural   Lu2Pa(Ga2Co3)3
_chemical_formula_sum   'Lu2 Pa1 Ga6 Co9'
_cell_volume   263.90414836
_cell_formula_units_Z   1
loop_
 _symmetry_equiv_pos_site_id
 _symmetry_equiv_pos_as_xyz
  1  'x, y, z'
loop_
 _atom_site_type_symbol
 _atom_site_label
 _atom_site_symmetry_multiplicity
 _atom_site_fract_x
 _atom_site_fract_y
 _atom_site_fract_z
 _atom_site_occupancy
  Lu  Lu0  1  0.666667  0.333333  0.500000  1
  Lu  Lu1  1  0.333333  0.666667  0.500000  1
  Pa  Pa2  1  0.000000  0.000000  0.000000  1
  Ga  Ga3  1  0.676303  0.676303  0.500000  1
  Ga  Ga4  1  0.323697  0.000000  0.500000  1
  Ga  Ga5  1  0.000000  0.323697  0.500000  1
  Ga  Ga6  1  0.323697  0.323697  0.500000  1
  Ga  Ga7  1  0.676303  0.000000  0.500000  1
  Ga  Ga8  1  0.000000  0.676303  0.500000  1
  Co  Co9  1  0.500000  0.500000  0.000000  1
  Co  Co10  1  0.500000  0.000000  0.000000  1
  Co  Co11  1  0.000000  0.500000  0.000000  1
  Co  Co12  1  0.826589  0.173411  0.000000  1
  Co  Co13  1  0.826589  0.653178  0.000000  1
  Co  Co14  1  0.346822  0.173411  0.000000  1
  Co  Co15  1  0.173411  0.826589  0.000000  1
  Co  Co16  1  0.653178  0.826589  0.000000  1
  Co  Co17  1  0.173411  0.346822  0.000000  1
