# generated using pymatgen
data_CeEr7(CdRu)2
_symmetry_space_group_name_H-M   'P 1'
_cell_length_a   9.62436065
_cell_length_b   9.55777400
_cell_length_c   9.55777434
_cell_angle_alpha   59.66892450
_cell_angle_beta   59.76927491
_cell_angle_gamma   59.76927462
_symmetry_Int_Tables_number   1
_chemical_formula_structural   CeEr7(CdRu)2
_chemical_formula_sum   'Ce2 Er14 Cd4 Ru4'
_cell_volume   617.95404121
_cell_formula_units_Z   2
loop_
 _symmetry_equiv_pos_site_id
 _symmetry_equiv_pos_as_xyz
  1  'x, y, z'
loop_
 _atom_site_type_symbol
 _atom_site_label
 _atom_site_symmetry_multiplicity
 _atom_site_fract_x
 _atom_site_fract_y
 _atom_site_fract_z
 _atom_site_occupancy
  Ce  Ce0  1  0.968226  0.342800  0.342800  1
  Ce  Ce1  1  0.346174  0.342800  0.342800  1
  Er  Er2  1  0.561575  0.562420  0.938401  1
  Er  Er3  1  0.937604  0.562420  0.938401  1
  Er  Er4  1  0.561241  0.938759  0.938759  1
  Er  Er5  1  0.937604  0.938401  0.562420  1
  Er  Er6  1  0.561575  0.938401  0.562420  1
  Er  Er7  1  0.937184  0.562816  0.562816  1
  Er  Er8  1  0.190228  0.188295  0.811831  1
  Er  Er9  1  0.809646  0.188295  0.811831  1
  Er  Er10  1  0.189545  0.810455  0.810454  1
  Er  Er11  1  0.809646  0.811832  0.188295  1
  Er  Er12  1  0.190227  0.811831  0.188294  1
  Er  Er13  1  0.811030  0.188970  0.188970  1
  Er  Er14  1  0.349595  0.347298  0.953513  1
  Er  Er15  1  0.349595  0.953513  0.347298  1
  Cd  Cd16  1  0.580929  0.580733  0.257407  1
  Cd  Cd17  1  0.580929  0.257407  0.580733  1
  Cd  Cd18  1  0.259200  0.580506  0.580506  1
  Cd  Cd19  1  0.579786  0.580506  0.580506  1
  Ru  Ru20  1  0.138959  0.149997  0.572084  1
  Ru  Ru21  1  0.138959  0.572084  0.149997  1
  Ru  Ru22  1  0.576075  0.144730  0.144730  1
  Ru  Ru23  1  0.134465  0.144730  0.144730  1
