# generated using pymatgen
data_Mg11Al5GaPd7
_symmetry_space_group_name_H-M   'P 1'
_cell_length_a   8.47331516
_cell_length_b   8.43453182
_cell_length_c   8.47331753
_cell_angle_alpha   59.53020812
_cell_angle_beta   59.33759602
_cell_angle_gamma   59.53026409
_symmetry_Int_Tables_number   1
_chemical_formula_structural   Mg11Al5GaPd7
_chemical_formula_sum   'Mg11 Al5 Ga1 Pd7'
_cell_volume   423.00160215
_cell_formula_units_Z   1
loop_
 _symmetry_equiv_pos_site_id
 _symmetry_equiv_pos_as_xyz
  1  'x, y, z'
loop_
 _atom_site_type_symbol
 _atom_site_label
 _atom_site_symmetry_multiplicity
 _atom_site_fract_x
 _atom_site_fract_y
 _atom_site_fract_z
 _atom_site_occupancy
  Mg  Mg0  1  0.199685  0.190320  0.807342  1
  Mg  Mg1  1  0.190303  0.807976  0.809148  1
  Mg  Mg2  1  0.058061  0.442462  0.058061  1
  Mg  Mg3  1  0.807342  0.190320  0.199686  1
  Mg  Mg4  1  0.059043  0.444911  0.437392  1
  Mg  Mg5  1  0.442869  0.058189  0.442868  1
  Mg  Mg6  1  0.437392  0.444911  0.059043  1
  Mg  Mg7  1  0.809148  0.807976  0.190303  1
  Mg  Mg8  1  0.439809  0.057673  0.056797  1
  Mg  Mg9  1  0.800926  0.192967  0.800925  1
  Mg  Mg10  1  0.056798  0.057673  0.439809  1
  Al  Al11  1  0.200837  0.799880  0.200838  1
  Al  Al12  1  0.615437  0.631577  0.615437  1
  Al  Al13  1  0.138545  0.628138  0.619253  1
  Al  Al14  1  0.619253  0.628138  0.138545  1
  Al  Al15  1  0.625499  0.120761  0.625499  1
  Ga  Ga16  1  0.828633  0.508918  0.828633  1
  Pd  Pd17  1  0.838799  0.830647  0.838799  1
  Pd  Pd18  1  0.482602  0.827665  0.850444  1
  Pd  Pd19  1  0.408988  0.771850  0.408988  1
  Pd  Pd20  1  0.850443  0.827665  0.482603  1
  Pd  Pd21  1  0.766627  0.409274  0.411840  1
  Pd  Pd22  1  0.411118  0.410833  0.411118  1
  Pd  Pd23  1  0.411840  0.409273  0.766627  1
