# generated using pymatgen
data_NdFe2BC
_symmetry_space_group_name_H-M   'P 1'
_cell_length_a   5.54580284
_cell_length_b   5.54580271
_cell_length_c   5.54580290
_cell_angle_alpha   142.27701587
_cell_angle_beta   142.27700805
_cell_angle_gamma   54.41174797
_symmetry_Int_Tables_number   1
_chemical_formula_structural   NdFe2BC
_chemical_formula_sum   'Nd1 Fe2 B1 C1'
_cell_volume   63.41576917
_cell_formula_units_Z   1
loop_
 _symmetry_equiv_pos_site_id
 _symmetry_equiv_pos_as_xyz
  1  'x, y, z'
loop_
 _atom_site_type_symbol
 _atom_site_label
 _atom_site_symmetry_multiplicity
 _atom_site_fract_x
 _atom_site_fract_y
 _atom_site_fract_z
 _atom_site_occupancy
  Nd  Nd0  1  0.998696  0.998696  0.000000  1
  Fe  Fe1  1  0.745706  0.245706  0.500000  1
  Fe  Fe2  1  0.245706  0.745706  0.500000  1
  B  B3  1  0.333217  0.333217  0.000000  1
  C  C4  1  0.676675  0.676675  0.000000  1
