# generated using pymatgen
data_HfPa5(Co6Sn)2
_symmetry_space_group_name_H-M   'P 1'
_cell_length_a   5.30372300
_cell_length_b   7.23212494
_cell_length_c   8.27749689
_cell_angle_alpha   89.26875114
_cell_angle_beta   90.00000000
_cell_angle_gamma   90.00000000
_symmetry_Int_Tables_number   1
_chemical_formula_structural   HfPa5(Co6Sn)2
_chemical_formula_sum   'Hf1 Pa5 Co12 Sn2'
_cell_volume   317.47564152
_cell_formula_units_Z   1
loop_
 _symmetry_equiv_pos_site_id
 _symmetry_equiv_pos_as_xyz
  1  'x, y, z'
loop_
 _atom_site_type_symbol
 _atom_site_label
 _atom_site_symmetry_multiplicity
 _atom_site_fract_x
 _atom_site_fract_y
 _atom_site_fract_z
 _atom_site_occupancy
  Hf  Hf0  1  0.750000  0.441427  0.092368  1
  Pa  Pa1  1  0.750000  0.890743  0.855455  1
  Pa  Pa2  1  0.750000  0.393530  0.653999  1
  Pa  Pa3  1  0.250000  0.113161  0.141532  1
  Pa  Pa4  1  0.250000  0.599802  0.346696  1
  Pa  Pa5  1  0.750000  0.937767  0.408000  1
  Co  Co6  1  0.750000  0.582663  0.379432  1
  Co  Co7  1  0.750000  0.082650  0.131809  1
  Co  Co8  1  0.250000  0.422196  0.611422  1
  Co  Co9  1  0.250000  0.916320  0.888134  1
  Co  Co10  1  0.996192  0.263136  0.370615  1
  Co  Co11  1  0.501613  0.765298  0.127081  1
  Co  Co12  1  0.495062  0.738235  0.615644  1
  Co  Co13  1  0.003391  0.231520  0.876462  1
  Co  Co14  1  0.004938  0.738235  0.615644  1
  Co  Co15  1  0.496609  0.231520  0.876462  1
  Co  Co16  1  0.503808  0.263136  0.370615  1
  Co  Co17  1  0.998387  0.765298  0.127081  1
  Sn  Sn18  1  0.250000  0.067137  0.606339  1
  Sn  Sn19  1  0.250000  0.556228  0.905212  1
