# generated using pymatgen
data_LiEr3In3Pt2
_symmetry_space_group_name_H-M   'P 1'
_cell_length_a   7.78707000
_cell_length_b   7.78706962
_cell_length_c   3.68686200
_cell_angle_alpha   90.00000000
_cell_angle_beta   90.00000000
_cell_angle_gamma   120.00000162
_symmetry_Int_Tables_number   1
_chemical_formula_structural   LiEr3In3Pt2
_chemical_formula_sum   'Li1 Er3 In3 Pt2'
_cell_volume   193.61350312
_cell_formula_units_Z   1
loop_
 _symmetry_equiv_pos_site_id
 _symmetry_equiv_pos_as_xyz
  1  'x, y, z'
loop_
 _atom_site_type_symbol
 _atom_site_label
 _atom_site_symmetry_multiplicity
 _atom_site_fract_x
 _atom_site_fract_y
 _atom_site_fract_z
 _atom_site_occupancy
  Li  Li0  1  0.000000  0.000000  0.500000  1
  Er  Er1  1  0.584063  0.000000  0.500000  1
  Er  Er2  1  0.415937  0.415937  0.500000  1
  Er  Er3  1  0.000000  0.584063  0.500000  1
  In  In4  1  0.744480  0.744480  0.000000  1
  In  In5  1  0.000000  0.255520  0.000000  1
  In  In6  1  0.255520  0.000000  0.000000  1
  Pt  Pt7  1  0.333333  0.666667  0.000000  1
  Pt  Pt8  1  0.666667  0.333333  0.000000  1
