# generated using pymatgen
data_YbZrNiAs2
_symmetry_space_group_name_H-M   'P 1'
_cell_length_a   4.09628800
_cell_length_b   4.09628896
_cell_length_c   13.59487300
_cell_angle_alpha   90.00000000
_cell_angle_beta   90.00000000
_cell_angle_gamma   120.00000840
_symmetry_Int_Tables_number   1
_chemical_formula_structural   YbZrNiAs2
_chemical_formula_sum   'Yb2 Zr2 Ni2 As4'
_cell_volume   197.55445054
_cell_formula_units_Z   2
loop_
 _symmetry_equiv_pos_site_id
 _symmetry_equiv_pos_as_xyz
  1  'x, y, z'
loop_
 _atom_site_type_symbol
 _atom_site_label
 _atom_site_symmetry_multiplicity
 _atom_site_fract_x
 _atom_site_fract_y
 _atom_site_fract_z
 _atom_site_occupancy
  Yb  Yb0  1  0.666667  0.333333  0.348758  1
  Yb  Yb1  1  0.333333  0.666667  0.848758  1
  Zr  Zr2  1  0.666667  0.333333  0.614595  1
  Zr  Zr3  1  0.333333  0.666667  0.114595  1
  Ni  Ni4  1  0.000000  0.000000  0.026104  1
  Ni  Ni5  1  0.000000  0.000000  0.526104  1
  As  As6  1  0.666667  0.333333  0.979932  1
  As  As7  1  0.333333  0.666667  0.479932  1
  As  As8  1  0.000000  0.000000  0.714942  1
  As  As9  1  0.000000  0.000000  0.214942  1
