# generated using pymatgen
data_LaYb5Sm2(Cu2Sn5)2
_symmetry_space_group_name_H-M   'P 1'
_cell_length_a   4.49188300
_cell_length_b   8.87111800
_cell_length_c   14.16080300
_cell_angle_alpha   90.00000000
_cell_angle_beta   90.00000000
_cell_angle_gamma   90.00000000
_symmetry_Int_Tables_number   1
_chemical_formula_structural   LaYb5Sm2(Cu2Sn5)2
_chemical_formula_sum   'La1 Yb5 Sm2 Cu4 Sn10'
_cell_volume   564.28001972
_cell_formula_units_Z   1
loop_
 _symmetry_equiv_pos_site_id
 _symmetry_equiv_pos_as_xyz
  1  'x, y, z'
loop_
 _atom_site_type_symbol
 _atom_site_label
 _atom_site_symmetry_multiplicity
 _atom_site_fract_x
 _atom_site_fract_y
 _atom_site_fract_z
 _atom_site_occupancy
  La  La0  1  0.500000  0.144370  0.000000  1
  Yb  Yb1  1  0.500000  0.791433  0.741214  1
  Yb  Yb2  1  0.000000  0.204542  0.753359  1
  Yb  Yb3  1  0.000000  0.204542  0.246641  1
  Yb  Yb4  1  0.000000  0.863205  0.500000  1
  Yb  Yb5  1  0.500000  0.791433  0.258786  1
  Sm  Sm6  1  0.500000  0.695955  0.000000  1
  Sm  Sm7  1  0.000000  0.295501  0.500000  1
  Cu  Cu8  1  0.500000  0.377157  0.644597  1
  Cu  Cu9  1  0.000000  0.625215  0.850106  1
  Cu  Cu10  1  0.000000  0.625215  0.149894  1
  Cu  Cu11  1  0.500000  0.377157  0.355403  1
  Sn  Sn12  1  0.500000  0.081671  0.395623  1
  Sn  Sn13  1  0.000000  0.551837  0.662630  1
  Sn  Sn14  1  0.000000  0.419590  0.000000  1
  Sn  Sn15  1  0.500000  0.446497  0.166138  1
  Sn  Sn16  1  0.500000  0.592246  0.500000  1
  Sn  Sn17  1  0.500000  0.446497  0.833862  1
  Sn  Sn18  1  0.000000  0.916213  0.895861  1
  Sn  Sn19  1  0.000000  0.551837  0.337370  1
  Sn  Sn20  1  0.500000  0.081671  0.604377  1
  Sn  Sn21  1  0.000000  0.916213  0.104139  1
