# generated using pymatgen
data_DyGaHgPt3
_symmetry_space_group_name_H-M   'P 1'
_cell_length_a   5.23368792
_cell_length_b   5.23368619
_cell_length_c   5.23368686
_cell_angle_alpha   63.69069124
_cell_angle_beta   63.69070182
_cell_angle_gamma   63.69067924
_symmetry_Int_Tables_number   1
_chemical_formula_structural   DyGaHgPt3
_chemical_formula_sum   'Dy1 Ga1 Hg1 Pt3'
_cell_volume   109.63017228
_cell_formula_units_Z   1
loop_
 _symmetry_equiv_pos_site_id
 _symmetry_equiv_pos_as_xyz
  1  'x, y, z'
loop_
 _atom_site_type_symbol
 _atom_site_label
 _atom_site_symmetry_multiplicity
 _atom_site_fract_x
 _atom_site_fract_y
 _atom_site_fract_z
 _atom_site_occupancy
  Dy  Dy0  1  0.004634  0.004634  0.004634  1
  Ga  Ga1  1  0.622596  0.622596  0.622596  1
  Hg  Hg2  1  0.251814  0.251814  0.251814  1
  Pt  Pt3  1  0.623448  0.623448  0.124061  1
  Pt  Pt4  1  0.623448  0.124061  0.623448  1
  Pt  Pt5  1  0.124061  0.623448  0.623448  1
