# generated using pymatgen
data_Nd9U3Se20
_symmetry_space_group_name_H-M   'P 1'
_cell_length_a   7.90974617
_cell_length_b   8.43659500
_cell_length_c   12.56962617
_cell_angle_alpha   90.00000000
_cell_angle_beta   90.14078965
_cell_angle_gamma   90.00000000
_symmetry_Int_Tables_number   1
_chemical_formula_structural   Nd9U3Se20
_chemical_formula_sum   'Nd9 U3 Se20'
_cell_volume   838.78527691
_cell_formula_units_Z   1
loop_
 _symmetry_equiv_pos_site_id
 _symmetry_equiv_pos_as_xyz
  1  'x, y, z'
loop_
 _atom_site_type_symbol
 _atom_site_label
 _atom_site_symmetry_multiplicity
 _atom_site_fract_x
 _atom_site_fract_y
 _atom_site_fract_z
 _atom_site_occupancy
  Nd  Nd0  1  0.523144  0.499737  0.320999  1
  Nd  Nd1  1  0.976491  0.002562  0.822001  1
  Nd  Nd2  1  0.478720  0.998299  0.678239  1
  Nd  Nd3  1  0.019882  0.503591  0.179123  1
  Nd  Nd4  1  0.478720  0.501701  0.678239  1
  Nd  Nd5  1  0.019882  0.996409  0.179123  1
  Nd  Nd6  1  0.523144  0.000263  0.320999  1
  Nd  Nd7  1  0.976491  0.497438  0.822001  1
  Nd  Nd8  1  0.076552  0.750000  0.494297  1
  U  U9  1  0.424341  0.750000  0.988368  1
  U  U10  1  0.936807  0.250000  0.504625  1
  U  U11  1  0.571223  0.250000  0.010186  1
  Se  Se12  1  0.834321  0.968082  0.599850  1
  Se  Se13  1  0.660052  0.544466  0.093892  1
  Se  Se14  1  0.163552  0.449595  0.401409  1
  Se  Se15  1  0.337430  0.045448  0.904371  1
  Se  Se16  1  0.163552  0.050405  0.401409  1
  Se  Se17  1  0.337430  0.454552  0.904371  1
  Se  Se18  1  0.834321  0.531918  0.599850  1
  Se  Se19  1  0.660052  0.955534  0.093892  1
  Se  Se20  1  0.824209  0.750000  0.311197  1
  Se  Se21  1  0.670977  0.750000  0.816075  1
  Se  Se22  1  0.171533  0.250000  0.683314  1
  Se  Se23  1  0.330494  0.250000  0.183297  1
  Se  Se24  1  0.461058  0.750000  0.499191  1
  Se  Se25  1  0.043426  0.750000  0.000292  1
  Se  Se26  1  0.549628  0.250000  0.498809  1
  Se  Se27  1  0.954311  0.250000  0.001216  1
  Se  Se28  1  0.199775  0.750000  0.721383  1
  Se  Se29  1  0.303175  0.750000  0.212658  1
  Se  Se30  1  0.802149  0.250000  0.285062  1
  Se  Se31  1  0.693159  0.250000  0.790264  1
