# generated using pymatgen
data_Tb2Er2Al17GaRh6
_symmetry_space_group_name_H-M   'P 1'
_cell_length_a   7.53743903
_cell_length_b   7.53743934
_cell_length_c   9.47287200
_cell_angle_alpha   90.00000000
_cell_angle_beta   90.00000000
_cell_angle_gamma   119.16479089
_symmetry_Int_Tables_number   1
_chemical_formula_structural   Tb2Er2Al17GaRh6
_chemical_formula_sum   'Tb2 Er2 Al17 Ga1 Rh6'
_cell_volume   469.95236102
_cell_formula_units_Z   1
loop_
 _symmetry_equiv_pos_site_id
 _symmetry_equiv_pos_as_xyz
  1  'x, y, z'
loop_
 _atom_site_type_symbol
 _atom_site_label
 _atom_site_symmetry_multiplicity
 _atom_site_fract_x
 _atom_site_fract_y
 _atom_site_fract_z
 _atom_site_occupancy
  Tb  Tb0  1  0.993624  0.675672  0.750000  1
  Tb  Tb1  1  0.675672  0.993624  0.750000  1
  Er  Er2  1  0.004805  0.326540  0.250000  1
  Er  Er3  1  0.326540  0.004805  0.250000  1
  Al  Al4  1  0.870411  0.870411  0.250000  1
  Al  Al5  1  0.002015  0.337069  0.574659  1
  Al  Al6  1  0.998925  0.663530  0.424251  1
  Al  Al7  1  0.998925  0.663530  0.075749  1
  Al  Al8  1  0.337069  0.002015  0.925341  1
  Al  Al9  1  0.002015  0.337069  0.925341  1
  Al  Al10  1  0.663530  0.998925  0.075749  1
  Al  Al11  1  0.663530  0.998925  0.424251  1
  Al  Al12  1  0.337069  0.002015  0.574659  1
  Al  Al13  1  0.332161  0.332161  0.052936  1
  Al  Al14  1  0.665600  0.665600  0.952529  1
  Al  Al15  1  0.665600  0.665600  0.547471  1
  Al  Al16  1  0.332161  0.332161  0.447064  1
  Al  Al17  1  0.339262  0.551865  0.750000  1
  Al  Al18  1  0.660354  0.448338  0.250000  1
  Al  Al19  1  0.551865  0.339262  0.750000  1
  Al  Al20  1  0.448338  0.660354  0.250000  1
  Ga  Ga21  1  0.133833  0.133833  0.750000  1
  Rh  Rh22  1  0.671449  0.327323  0.499595  1
  Rh  Rh23  1  0.327323  0.671449  0.499595  1
  Rh  Rh24  1  0.327323  0.671449  0.000405  1
  Rh  Rh25  1  0.671449  0.327323  0.000405  1
  Rh  Rh26  1  0.999576  0.999576  0.497128  1
  Rh  Rh27  1  0.999576  0.999576  0.002872  1
