# generated using pymatgen
data_Er12Th4MgIn3Rh4
_symmetry_space_group_name_H-M   'P 1'
_cell_length_a   9.71491400
_cell_length_b   9.72106052
_cell_length_c   9.72106100
_cell_angle_alpha   60.00000178
_cell_angle_beta   59.97907038
_cell_angle_gamma   59.97907668
_symmetry_Int_Tables_number   1
_chemical_formula_structural   Er12Th4MgIn3Rh4
_chemical_formula_sum   'Er12 Th4 Mg1 In3 Rh4'
_cell_volume   648.95389361
_cell_formula_units_Z   1
loop_
 _symmetry_equiv_pos_site_id
 _symmetry_equiv_pos_as_xyz
  1  'x, y, z'
loop_
 _atom_site_type_symbol
 _atom_site_label
 _atom_site_symmetry_multiplicity
 _atom_site_fract_x
 _atom_site_fract_y
 _atom_site_fract_z
 _atom_site_occupancy
  Er  Er0  1  0.812797  0.187154  0.187154  1
  Er  Er1  1  0.185832  0.813893  0.813893  1
  Er  Er2  1  0.185832  0.813893  0.186383  1
  Er  Er3  1  0.812797  0.187154  0.812894  1
  Er  Er4  1  0.185832  0.186383  0.813893  1
  Er  Er5  1  0.812797  0.812894  0.187154  1
  Er  Er6  1  0.933332  0.566695  0.566695  1
  Er  Er7  1  0.566942  0.933616  0.933616  1
  Er  Er8  1  0.566942  0.933616  0.565826  1
  Er  Er9  1  0.933332  0.566695  0.933278  1
  Er  Er10  1  0.566942  0.565826  0.933616  1
  Er  Er11  1  0.933332  0.933278  0.566695  1
  Th  Th12  1  0.347966  0.348622  0.348622  1
  Th  Th13  1  0.347966  0.348622  0.954789  1
  Th  Th14  1  0.347966  0.954789  0.348622  1
  Th  Th15  1  0.953741  0.348752  0.348752  1
  Mg  Mg16  1  0.258800  0.580399  0.580399  1
  In  In17  1  0.582452  0.584069  0.584069  1
  In  In18  1  0.582452  0.584069  0.249409  1
  In  In19  1  0.582452  0.249409  0.584069  1
  Rh  Rh20  1  0.142969  0.143193  0.143193  1
  Rh  Rh21  1  0.142969  0.143193  0.570643  1
  Rh  Rh22  1  0.142969  0.570643  0.143193  1
  Rh  Rh23  1  0.570584  0.143138  0.143138  1
