# generated using pymatgen
data_Dy6GaTcTe
_symmetry_space_group_name_H-M   'P 1'
_cell_length_a   8.15579500
_cell_length_b   8.15579418
_cell_length_c   4.17112900
_cell_angle_alpha   90.00000000
_cell_angle_beta   90.00000000
_cell_angle_gamma   119.99999927
_symmetry_Int_Tables_number   1
_chemical_formula_structural   Dy6GaTcTe
_chemical_formula_sum   'Dy6 Ga1 Tc1 Te1'
_cell_volume   240.27955266
_cell_formula_units_Z   1
loop_
 _symmetry_equiv_pos_site_id
 _symmetry_equiv_pos_as_xyz
  1  'x, y, z'
loop_
 _atom_site_type_symbol
 _atom_site_label
 _atom_site_symmetry_multiplicity
 _atom_site_fract_x
 _atom_site_fract_y
 _atom_site_fract_z
 _atom_site_occupancy
  Dy  Dy0  1  0.594736  0.990461  0.500000  1
  Dy  Dy1  1  0.395725  0.405264  0.500000  1
  Dy  Dy2  1  0.009539  0.604275  0.500000  1
  Dy  Dy3  1  0.007493  0.244205  0.000000  1
  Dy  Dy4  1  0.755795  0.763288  0.000000  1
  Dy  Dy5  1  0.236712  0.992507  0.000000  1
  Ga  Ga6  1  0.333333  0.666667  0.000000  1
  Tc  Tc7  1  0.000000  0.000000  0.500000  1
  Te  Te8  1  0.666667  0.333333  0.000000  1
