# generated using pymatgen
data_RbNaSi2Se5
_symmetry_space_group_name_H-M   'P 1'
_cell_length_a   10.01601312
_cell_length_b   10.01601348
_cell_length_c   11.40378800
_cell_angle_alpha   90.00000000
_cell_angle_beta   90.00000000
_cell_angle_gamma   91.39805173
_symmetry_Int_Tables_number   1
_chemical_formula_structural   RbNaSi2Se5
_chemical_formula_sum   'Rb4 Na4 Si8 Se20'
_cell_volume   1143.69341482
_cell_formula_units_Z   4
loop_
 _symmetry_equiv_pos_site_id
 _symmetry_equiv_pos_as_xyz
  1  'x, y, z'
loop_
 _atom_site_type_symbol
 _atom_site_label
 _atom_site_symmetry_multiplicity
 _atom_site_fract_x
 _atom_site_fract_y
 _atom_site_fract_z
 _atom_site_occupancy
  Rb  Rb0  1  0.566549  0.096558  0.750000  1
  Rb  Rb1  1  0.433451  0.903442  0.250000  1
  Rb  Rb2  1  0.903442  0.433451  0.750000  1
  Rb  Rb3  1  0.096558  0.566549  0.250000  1
  Na  Na4  1  0.147796  0.147796  0.500000  1
  Na  Na5  1  0.852204  0.852204  0.000000  1
  Na  Na6  1  0.852204  0.852204  0.500000  1
  Na  Na7  1  0.147796  0.147796  0.000000  1
  Si  Si8  1  0.559267  0.704085  0.750000  1
  Si  Si9  1  0.440733  0.295915  0.250000  1
  Si  Si10  1  0.295915  0.440733  0.750000  1
  Si  Si11  1  0.704085  0.559267  0.250000  1
  Si  Si12  1  0.241432  0.758568  0.911083  1
  Si  Si13  1  0.758568  0.241432  0.411083  1
  Si  Si14  1  0.241432  0.758568  0.588917  1
  Si  Si15  1  0.758568  0.241432  0.088917  1
  Se  Se16  1  0.758677  0.775644  0.250000  1
  Se  Se17  1  0.241323  0.224356  0.750000  1
  Se  Se18  1  0.224356  0.241323  0.250000  1
  Se  Se19  1  0.775644  0.758677  0.750000  1
  Se  Se20  1  0.148619  0.851381  0.067530  1
  Se  Se21  1  0.851381  0.148619  0.567530  1
  Se  Se22  1  0.148619  0.851381  0.432470  1
  Se  Se23  1  0.851381  0.148619  0.932470  1
  Se  Se24  1  0.143972  0.856028  0.750000  1
  Se  Se25  1  0.856028  0.143972  0.250000  1
  Se  Se26  1  0.529578  0.199399  0.082568  1
  Se  Se27  1  0.470422  0.800601  0.582568  1
  Se  Se28  1  0.800601  0.470422  0.417432  1
  Se  Se29  1  0.199399  0.529578  0.917432  1
  Se  Se30  1  0.470422  0.800601  0.917432  1
  Se  Se31  1  0.529578  0.199399  0.417432  1
  Se  Se32  1  0.199399  0.529578  0.582568  1
  Se  Se33  1  0.800601  0.470422  0.082568  1
  Se  Se34  1  0.525193  0.474807  0.750000  1
  Se  Se35  1  0.474807  0.525193  0.250000  1
