# generated using pymatgen
data_Cs6CeAgBr12
_symmetry_space_group_name_H-M   'P 1'
_cell_length_a   9.80132500
_cell_length_b   9.77448883
_cell_length_c   8.11274600
_cell_angle_alpha   90.00000000
_cell_angle_beta   90.00000000
_cell_angle_gamma   90.29530542
_symmetry_Int_Tables_number   1
_chemical_formula_structural   Cs6CeAgBr12
_chemical_formula_sum   'Cs6 Ce1 Ag1 Br12'
_cell_volume   777.21460880
_cell_formula_units_Z   1
loop_
 _symmetry_equiv_pos_site_id
 _symmetry_equiv_pos_as_xyz
  1  'x, y, z'
loop_
 _atom_site_type_symbol
 _atom_site_label
 _atom_site_symmetry_multiplicity
 _atom_site_fract_x
 _atom_site_fract_y
 _atom_site_fract_z
 _atom_site_occupancy
  Cs  Cs0  1  0.000000  0.000000  0.500000  1
  Cs  Cs1  1  0.000000  0.000000  0.000000  1
  Cs  Cs2  1  0.248338  0.591932  0.500000  1
  Cs  Cs3  1  0.751662  0.408068  0.500000  1
  Cs  Cs4  1  0.418884  0.222319  0.000000  1
  Cs  Cs5  1  0.581116  0.777681  0.000000  1
  Ce  Ce6  1  0.000000  0.500000  0.000000  1
  Ag  Ag7  1  0.500000  0.000000  0.500000  1
  Br  Br8  1  0.690296  0.064210  0.736471  1
  Br  Br9  1  0.309704  0.935790  0.736471  1
  Br  Br10  1  0.939165  0.691601  0.246327  1
  Br  Br11  1  0.060835  0.308399  0.246327  1
  Br  Br12  1  0.309704  0.935790  0.263529  1
  Br  Br13  1  0.690296  0.064210  0.263529  1
  Br  Br14  1  0.060835  0.308399  0.753673  1
  Br  Br15  1  0.939165  0.691601  0.753673  1
  Br  Br16  1  0.580132  0.735784  0.500000  1
  Br  Br17  1  0.419868  0.264216  0.500000  1
  Br  Br18  1  0.274371  0.573475  0.000000  1
  Br  Br19  1  0.725629  0.426525  0.000000  1
