# generated using pymatgen
data_La3Nd5Se12
_symmetry_space_group_name_H-M   'P 1'
_cell_length_a   7.89813013
_cell_length_b   4.24996400
_cell_length_c   16.44578127
_cell_angle_alpha   90.00000000
_cell_angle_beta   89.97922535
_cell_angle_gamma   90.00000000
_symmetry_Int_Tables_number   1
_chemical_formula_structural   La3Nd5Se12
_chemical_formula_sum   'La3 Nd5 Se12'
_cell_volume   552.03170001
_cell_formula_units_Z   1
loop_
 _symmetry_equiv_pos_site_id
 _symmetry_equiv_pos_as_xyz
  1  'x, y, z'
loop_
 _atom_site_type_symbol
 _atom_site_label
 _atom_site_symmetry_multiplicity
 _atom_site_fract_x
 _atom_site_fract_y
 _atom_site_fract_z
 _atom_site_occupancy
  La  La0  1  0.356735  0.500000  0.702705  1
  La  La1  1  0.856128  0.500000  0.796303  1
  La  La2  1  0.267383  0.000000  0.957709  1
  Nd  Nd3  1  0.735888  0.500000  0.045226  1
  Nd  Nd4  1  0.142875  0.000000  0.205650  1
  Nd  Nd5  1  0.643806  0.000000  0.296133  1
  Nd  Nd6  1  0.234015  0.500000  0.455105  1
  Nd  Nd7  1  0.766001  0.000000  0.542808  1
  Se  Se8  1  0.124134  0.500000  0.069441  1
  Se  Se9  1  0.509854  0.000000  0.110524  1
  Se  Se10  1  0.853130  0.500000  0.219384  1
  Se  Se11  1  0.353911  0.500000  0.281076  1
  Se  Se12  1  0.008605  0.000000  0.390473  1
  Se  Se13  1  0.624420  0.500000  0.432411  1
  Se  Se14  1  0.374782  0.000000  0.564781  1
  Se  Se15  1  0.990295  0.500000  0.607050  1
  Se  Se16  1  0.646754  0.000000  0.717367  1
  Se  Se17  1  0.145315  0.000000  0.780591  1
  Se  Se18  1  0.494124  0.500000  0.890698  1
  Se  Se19  1  0.871849  0.000000  0.934565  1
