# generated using pymatgen
data_ErGePRu2
_symmetry_space_group_name_H-M   'P 1'
_cell_length_a   5.67074467
_cell_length_b   5.67074394
_cell_length_c   5.67074350
_cell_angle_alpha   137.09623061
_cell_angle_beta   137.09622834
_cell_angle_gamma   62.29002737
_symmetry_Int_Tables_number   1
_chemical_formula_structural   ErGePRu2
_chemical_formula_sum   'Er1 Ge1 P1 Ru2'
_cell_volume   83.49880185
_cell_formula_units_Z   1
loop_
 _symmetry_equiv_pos_site_id
 _symmetry_equiv_pos_as_xyz
  1  'x, y, z'
loop_
 _atom_site_type_symbol
 _atom_site_label
 _atom_site_symmetry_multiplicity
 _atom_site_fract_x
 _atom_site_fract_y
 _atom_site_fract_z
 _atom_site_occupancy
  Er  Er0  1  0.998085  0.998085  0.000000  1
  Ge  Ge1  1  0.620503  0.620503  0.000000  1
  P  P2  1  0.366138  0.366138  0.000000  1
  Ru  Ru3  1  0.257637  0.757637  0.500000  1
  Ru  Ru4  1  0.757637  0.257637  0.500000  1
