# generated using pymatgen
data_Zr13Sc7(Bi5P)2
_symmetry_space_group_name_H-M   'P 1'
_cell_length_a   7.48234299
_cell_length_b   8.94748100
_cell_length_c   11.18240077
_cell_angle_alpha   90.00000000
_cell_angle_beta   90.33061869
_cell_angle_gamma   90.00000000
_symmetry_Int_Tables_number   1
_chemical_formula_structural   Zr13Sc7(Bi5P)2
_chemical_formula_sum   'Zr13 Sc7 Bi10 P2'
_cell_volume   748.62826436
_cell_formula_units_Z   1
loop_
 _symmetry_equiv_pos_site_id
 _symmetry_equiv_pos_as_xyz
  1  'x, y, z'
loop_
 _atom_site_type_symbol
 _atom_site_label
 _atom_site_symmetry_multiplicity
 _atom_site_fract_x
 _atom_site_fract_y
 _atom_site_fract_z
 _atom_site_occupancy
  Zr  Zr0  1  0.184640  0.029170  0.944372  1
  Zr  Zr1  1  0.315095  0.031632  0.441945  1
  Zr  Zr2  1  0.315095  0.468368  0.441945  1
  Zr  Zr3  1  0.350186  0.750000  0.702952  1
  Zr  Zr4  1  0.452165  0.750000  0.997631  1
  Zr  Zr5  1  0.815975  0.923712  0.058292  1
  Zr  Zr6  1  0.641749  0.750000  0.299363  1
  Zr  Zr7  1  0.040139  0.750000  0.497256  1
  Zr  Zr8  1  0.681059  0.923574  0.555022  1
  Zr  Zr9  1  0.184640  0.470830  0.944372  1
  Zr  Zr10  1  0.164542  0.750000  0.217882  1
  Zr  Zr11  1  0.681059  0.576426  0.555022  1
  Zr  Zr12  1  0.815975  0.576288  0.058292  1
  Sc  Sc13  1  0.162872  0.250000  0.216633  1
  Sc  Sc14  1  0.337577  0.250000  0.715770  1
  Sc  Sc15  1  0.994956  0.250000  0.495177  1
  Sc  Sc16  1  0.663835  0.250000  0.273895  1
  Sc  Sc17  1  0.504868  0.250000  0.993190  1
  Sc  Sc18  1  0.834657  0.250000  0.773194  1
  Sc  Sc19  1  0.863471  0.750000  0.800250  1
  Bi  Bi20  1  0.069368  0.494101  0.676629  1
  Bi  Bi21  1  0.570121  0.508925  0.823906  1
  Bi  Bi22  1  0.930175  0.993925  0.323732  1
  Bi  Bi23  1  0.431161  0.008605  0.175234  1
  Bi  Bi24  1  0.570121  0.991075  0.823906  1
  Bi  Bi25  1  0.431161  0.491395  0.175234  1
  Bi  Bi26  1  0.069368  0.005899  0.676629  1
  Bi  Bi27  1  0.930175  0.506075  0.323732  1
  Bi  Bi28  1  0.600501  0.250000  0.530092  1
  Bi  Bi29  1  0.900921  0.250000  0.028638  1
  P  P30  1  0.406325  0.750000  0.473568  1
  P  P31  1  0.086047  0.750000  0.986246  1
