# generated using pymatgen
data_Sc8Ti3Re8Si16Ru
_symmetry_space_group_name_H-M   'P 1'
_cell_length_a   6.63367377
_cell_length_b   6.63438153
_cell_length_c   12.62886433
_cell_angle_alpha   90.21205185
_cell_angle_beta   90.13957342
_cell_angle_gamma   90.53321909
_symmetry_Int_Tables_number   1
_chemical_formula_structural   Sc8Ti3Re8Si16Ru
_chemical_formula_sum   'Sc8 Ti3 Re8 Si16 Ru1'
_cell_volume   555.77082391
_cell_formula_units_Z   1
loop_
 _symmetry_equiv_pos_site_id
 _symmetry_equiv_pos_as_xyz
  1  'x, y, z'
loop_
 _atom_site_type_symbol
 _atom_site_label
 _atom_site_symmetry_multiplicity
 _atom_site_fract_x
 _atom_site_fract_y
 _atom_site_fract_z
 _atom_site_occupancy
  Sc  Sc0  1  0.010378  0.661232  0.031138  1
  Sc  Sc1  1  0.987011  0.340562  0.532779  1
  Sc  Sc2  1  0.342338  0.990934  0.466966  1
  Sc  Sc3  1  0.156428  0.486094  0.781461  1
  Sc  Sc4  1  0.839292  0.507940  0.282042  1
  Sc  Sc5  1  0.491581  0.160931  0.219471  1
  Sc  Sc6  1  0.511608  0.844255  0.718640  1
  Sc  Sc7  1  0.662261  0.012686  0.966580  1
  Ti  Ti8  1  0.655763  0.659124  0.500352  1
  Ti  Ti9  1  0.158367  0.841242  0.250544  1
  Ti  Ti10  1  0.341020  0.342916  0.998529  1
  Re  Re11  1  0.001618  0.178178  0.134876  1
  Re  Re12  1  0.821024  0.997932  0.367002  1
  Re  Re13  1  0.317040  0.502369  0.386618  1
  Re  Re14  1  0.684033  0.509332  0.888359  1
  Re  Re15  1  0.484855  0.319176  0.610815  1
  Re  Re16  1  0.499651  0.680828  0.111907  1
  Re  Re17  1  0.193307  0.005557  0.864861  1
  Re  Re18  1  0.837399  0.162900  0.747858  1
  Si  Si19  1  0.021764  0.717141  0.443800  1
  Si  Si20  1  0.624273  0.294041  0.425821  1
  Si  Si21  1  0.375849  0.705962  0.925119  1
  Si  Si22  1  0.193923  0.112773  0.674555  1
  Si  Si23  1  0.294851  0.627582  0.573409  1
  Si  Si24  1  0.705869  0.373519  0.074438  1
  Si  Si25  1  0.795756  0.872138  0.176633  1
  Si  Si26  1  0.125747  0.205259  0.324369  1
  Si  Si27  1  0.975076  0.282420  0.940846  1
  Si  Si28  1  0.725562  0.023643  0.562315  1
  Si  Si29  1  0.220122  0.477045  0.193720  1
  Si  Si30  1  0.769661  0.516570  0.694842  1
  Si  Si31  1  0.481104  0.230393  0.803329  1
  Si  Si32  1  0.523049  0.779845  0.305944  1
  Si  Si33  1  0.286106  0.977959  0.058032  1
  Si  Si34  1  0.881564  0.804643  0.823268  1
  Ru  Ru35  1  0.004750  0.794880  0.638757  1
