# generated using pymatgen
data_TbYPb4
_symmetry_space_group_name_H-M   'P 1'
_cell_length_a   8.60277212
_cell_length_b   8.60277271
_cell_length_c   4.53721400
_cell_angle_alpha   90.00000000
_cell_angle_beta   90.00000000
_cell_angle_gamma   148.78739344
_symmetry_Int_Tables_number   1
_chemical_formula_structural   TbYPb4
_chemical_formula_sum   'Tb1 Y1 Pb4'
_cell_volume   174.01082971
_cell_formula_units_Z   1
loop_
 _symmetry_equiv_pos_site_id
 _symmetry_equiv_pos_as_xyz
  1  'x, y, z'
loop_
 _atom_site_type_symbol
 _atom_site_label
 _atom_site_symmetry_multiplicity
 _atom_site_fract_x
 _atom_site_fract_y
 _atom_site_fract_z
 _atom_site_occupancy
  Tb  Tb0  1  0.595315  0.404685  0.250000  1
  Y  Y1  1  0.404733  0.595267  0.749999  1
  Pb  Pb2  1  0.931624  0.068376  0.250000  1
  Pb  Pb3  1  0.248533  0.751467  0.250000  1
  Pb  Pb4  1  0.751396  0.248604  0.749999  1
  Pb  Pb5  1  0.068400  0.931600  0.749999  1
