# generated using pymatgen
data_DyEr7In3Tc
_symmetry_space_group_name_H-M   'P 1'
_cell_length_a   10.33010746
_cell_length_b   10.33094619
_cell_length_c   6.99042208
_cell_angle_alpha   89.90733516
_cell_angle_beta   90.09356039
_cell_angle_gamma   119.94721483
_symmetry_Int_Tables_number   1
_chemical_formula_structural   DyEr7In3Tc
_chemical_formula_sum   'Dy2 Er14 In6 Tc2'
_cell_volume   646.41132886
_cell_formula_units_Z   2
loop_
 _symmetry_equiv_pos_site_id
 _symmetry_equiv_pos_as_xyz
  1  'x, y, z'
loop_
 _atom_site_type_symbol
 _atom_site_label
 _atom_site_symmetry_multiplicity
 _atom_site_fract_x
 _atom_site_fract_y
 _atom_site_fract_z
 _atom_site_occupancy
  Dy  Dy0  1  0.530569  0.061306  0.796206  1
  Dy  Dy1  1  0.938705  0.469454  0.796209  1
  Er  Er2  1  0.530772  0.469259  0.796757  1
  Er  Er3  1  0.468618  0.937378  0.296745  1
  Er  Er4  1  0.062631  0.531383  0.296738  1
  Er  Er5  1  0.468707  0.531282  0.297160  1
  Er  Er6  1  0.822417  0.645234  0.499269  1
  Er  Er7  1  0.354767  0.177584  0.499300  1
  Er  Er8  1  0.822868  0.177161  0.498986  1
  Er  Er9  1  0.177854  0.355200  0.999995  1
  Er  Er10  1  0.644779  0.822136  0.000008  1
  Er  Er11  1  0.177453  0.822540  0.000173  1
  Er  Er12  1  0.666507  0.333482  0.168853  1
  Er  Er13  1  0.333530  0.666473  0.667364  1
  Er  Er14  1  0.000038  0.999899  0.775735  1
  Er  Er15  1  0.000067  0.999954  0.275563  1
  In  In16  1  0.836871  0.674247  0.038451  1
  In  In17  1  0.325782  0.163166  0.038422  1
  In  In18  1  0.837218  0.162797  0.038774  1
  In  In19  1  0.163035  0.326065  0.538129  1
  In  In20  1  0.673910  0.836975  0.538156  1
  In  In21  1  0.163072  0.836877  0.538350  1
  Tc  Tc22  1  0.666648  0.333331  0.570841  1
  Tc  Tc23  1  0.333181  0.666819  0.069722  1
