# generated using pymatgen
data_Dy16MgCd3NiRu3
_symmetry_space_group_name_H-M   'P 1'
_cell_length_a   9.60744485
_cell_length_b   9.67901862
_cell_length_c   9.67901872
_cell_angle_alpha   59.68349567
_cell_angle_beta   59.39294151
_cell_angle_gamma   59.39295248
_symmetry_Int_Tables_number   1
_chemical_formula_structural   Dy16MgCd3NiRu3
_chemical_formula_sum   'Dy16 Mg1 Cd3 Ni1 Ru3'
_cell_volume   629.04093847
_cell_formula_units_Z   1
loop_
 _symmetry_equiv_pos_site_id
 _symmetry_equiv_pos_as_xyz
  1  'x, y, z'
loop_
 _atom_site_type_symbol
 _atom_site_label
 _atom_site_symmetry_multiplicity
 _atom_site_fract_x
 _atom_site_fract_y
 _atom_site_fract_z
 _atom_site_occupancy
  Dy  Dy0  1  0.600766  0.596486  0.596486  1
  Dy  Dy1  1  0.600142  0.595005  0.211847  1
  Dy  Dy2  1  0.600142  0.211847  0.595005  1
  Dy  Dy3  1  0.212326  0.595684  0.595684  1
  Dy  Dy4  1  0.060535  0.438601  0.438601  1
  Dy  Dy5  1  0.434095  0.062328  0.062328  1
  Dy  Dy6  1  0.437802  0.060964  0.439308  1
  Dy  Dy7  1  0.061055  0.438210  0.061969  1
  Dy  Dy8  1  0.437802  0.439308  0.060964  1
  Dy  Dy9  1  0.061055  0.061969  0.438210  1
  Dy  Dy10  1  0.189184  0.811232  0.811232  1
  Dy  Dy11  1  0.808832  0.187086  0.187086  1
  Dy  Dy12  1  0.808224  0.188164  0.817692  1
  Dy  Dy13  1  0.189360  0.810476  0.189248  1
  Dy  Dy14  1  0.808224  0.817692  0.188164  1
  Dy  Dy15  1  0.189360  0.189248  0.810476  1
  Mg  Mg16  1  0.824591  0.826135  0.826135  1
  Cd  Cd17  1  0.830377  0.830982  0.506687  1
  Cd  Cd18  1  0.830377  0.506687  0.830982  1
  Cd  Cd19  1  0.506032  0.830925  0.830925  1
  Ni  Ni20  1  0.827591  0.392312  0.392312  1
  Ru  Ru21  1  0.393204  0.389229  0.389229  1
  Ru  Ru22  1  0.394461  0.390524  0.828905  1
  Ru  Ru23  1  0.394461  0.828905  0.390524  1
