# generated using pymatgen
data_Lu3Ta6B20W
_symmetry_space_group_name_H-M   'P 1'
_cell_length_a   6.22653927
_cell_length_b   7.10132803
_cell_length_c   7.54536600
_cell_angle_alpha   94.52815074
_cell_angle_beta   101.95501447
_cell_angle_gamma   115.94816133
_symmetry_Int_Tables_number   1
_chemical_formula_structural   Lu3Ta6B20W
_chemical_formula_sum   'Lu3 Ta6 B20 W1'
_cell_volume   287.98580714
_cell_formula_units_Z   1
loop_
 _symmetry_equiv_pos_site_id
 _symmetry_equiv_pos_as_xyz
  1  'x, y, z'
loop_
 _atom_site_type_symbol
 _atom_site_label
 _atom_site_symmetry_multiplicity
 _atom_site_fract_x
 _atom_site_fract_y
 _atom_site_fract_z
 _atom_site_occupancy
  Lu  Lu0  1  0.500878  0.800492  0.400065  1
  Lu  Lu1  1  0.001530  0.402461  0.199295  1
  Lu  Lu2  1  0.498000  0.196659  0.600599  1
  Ta  Ta3  1  0.499137  0.000296  0.998284  1
  Ta  Ta4  1  0.997583  0.798580  0.401164  1
  Ta  Ta5  1  0.499376  0.597174  0.800601  1
  Ta  Ta6  1  0.502415  0.403226  0.198705  1
  Ta  Ta7  1  0.000524  0.198168  0.598880  1
  Ta  Ta8  1  0.999940  0.600953  0.802582  1
  B  B9  1  0.331431  0.232036  0.868382  1
  B  B10  1  0.333946  0.634936  0.060717  1
  B  B11  1  0.167988  0.366243  0.931176  1
  B  B12  1  0.330378  0.034645  0.260995  1
  B  B13  1  0.164869  0.770872  0.128426  1
  B  B14  1  0.835582  0.232009  0.866382  1
  B  B15  1  0.165440  0.165143  0.329804  1
  B  B16  1  0.832397  0.636140  0.064025  1
  B  B17  1  0.332151  0.431572  0.469595  1
  B  B18  1  0.665864  0.367870  0.933339  1
  B  B19  1  0.834981  0.033041  0.262578  1
  B  B20  1  0.668943  0.769254  0.129652  1
  B  B21  1  0.330610  0.829447  0.671959  1
  B  B22  1  0.165543  0.564965  0.537895  1
  B  B23  1  0.665968  0.168137  0.329664  1
  B  B24  1  0.834319  0.434524  0.468916  1
  B  B25  1  0.164797  0.965328  0.737514  1
  B  B26  1  0.835069  0.831754  0.672083  1
  B  B27  1  0.669930  0.566977  0.536580  1
  B  B28  1  0.669494  0.964607  0.740272  1
  W  W29  1  0.000917  0.002487  0.999871  1
