# generated using pymatgen
data_NaHoSnBr6
_symmetry_space_group_name_H-M   'P 1'
_cell_length_a   7.94527793
_cell_length_b   7.94547419
_cell_length_c   7.94514741
_cell_angle_alpha   56.12240630
_cell_angle_beta   56.12208105
_cell_angle_gamma   56.12264225
_symmetry_Int_Tables_number   1
_chemical_formula_structural   NaHoSnBr6
_chemical_formula_sum   'Na1 Ho1 Sn1 Br6'
_cell_volume   322.82020630
_cell_formula_units_Z   1
loop_
 _symmetry_equiv_pos_site_id
 _symmetry_equiv_pos_as_xyz
  1  'x, y, z'
loop_
 _atom_site_type_symbol
 _atom_site_label
 _atom_site_symmetry_multiplicity
 _atom_site_fract_x
 _atom_site_fract_y
 _atom_site_fract_z
 _atom_site_occupancy
  Na  Na0  1  0.669843  0.669846  0.669844  1
  Ho  Ho1  1  0.999747  0.999767  0.999757  1
  Sn  Sn2  1  0.330915  0.330916  0.330923  1
  Br  Br3  1  0.233578  0.612471  0.916677  1
  Br  Br4  1  0.612453  0.916688  0.233576  1
  Br  Br5  1  0.916693  0.233575  0.612451  1
  Br  Br6  1  0.763221  0.385441  0.088100  1
  Br  Br7  1  0.385445  0.088089  0.763217  1
  Br  Br8  1  0.088109  0.763207  0.385455  1
