# generated using pymatgen
data_La2Ga12Cu
_symmetry_space_group_name_H-M   'P 1'
_cell_length_a   6.22773200
_cell_length_b   6.22773200
_cell_length_c   15.47254900
_cell_angle_alpha   90.00000000
_cell_angle_beta   90.00000000
_cell_angle_gamma   90.00000000
_symmetry_Int_Tables_number   1
_chemical_formula_structural   La2Ga12Cu
_chemical_formula_sum   'La4 Ga24 Cu2'
_cell_volume   600.09733358
_cell_formula_units_Z   2
loop_
 _symmetry_equiv_pos_site_id
 _symmetry_equiv_pos_as_xyz
  1  'x, y, z'
loop_
 _atom_site_type_symbol
 _atom_site_label
 _atom_site_symmetry_multiplicity
 _atom_site_fract_x
 _atom_site_fract_y
 _atom_site_fract_z
 _atom_site_occupancy
  La  La0  1  0.500000  0.000000  0.245376  1
  La  La1  1  0.000000  0.500000  0.245376  1
  La  La2  1  0.000000  0.500000  0.754624  1
  La  La3  1  0.500000  0.000000  0.754624  1
  Ga  Ga4  1  0.500000  0.500000  0.821449  1
  Ga  Ga5  1  0.000000  0.000000  0.821449  1
  Ga  Ga6  1  0.750056  0.749944  0.915606  1
  Ga  Ga7  1  0.250056  0.750056  0.915606  1
  Ga  Ga8  1  0.000000  0.000000  0.340476  1
  Ga  Ga9  1  0.249944  0.749944  0.084394  1
  Ga  Ga10  1  0.823769  0.323769  0.570602  1
  Ga  Ga11  1  0.500000  0.500000  0.340476  1
  Ga  Ga12  1  0.249944  0.250056  0.915606  1
  Ga  Ga13  1  0.749944  0.750056  0.084394  1
  Ga  Ga14  1  0.323769  0.176231  0.570602  1
  Ga  Ga15  1  0.676231  0.176231  0.429398  1
  Ga  Ga16  1  0.000000  0.000000  0.659524  1
  Ga  Ga17  1  0.176231  0.323769  0.429398  1
  Ga  Ga18  1  0.250056  0.249944  0.084394  1
  Ga  Ga19  1  0.823769  0.676231  0.429398  1
  Ga  Ga20  1  0.676231  0.823769  0.570602  1
  Ga  Ga21  1  0.000000  0.000000  0.178551  1
  Ga  Ga22  1  0.176231  0.676231  0.570602  1
  Ga  Ga23  1  0.500000  0.500000  0.659524  1
  Ga  Ga24  1  0.749944  0.249944  0.915606  1
  Ga  Ga25  1  0.500000  0.500000  0.178551  1
  Ga  Ga26  1  0.323769  0.823769  0.429398  1
  Ga  Ga27  1  0.750056  0.250056  0.084394  1
  Cu  Cu28  1  0.500000  0.000000  0.000000  1
  Cu  Cu29  1  0.000000  0.500000  0.000000  1
