# generated using pymatgen
data_Tb3UAs6Ru7
_symmetry_space_group_name_H-M   'P 1'
_cell_length_a   7.22820129
_cell_length_b   7.22820039
_cell_length_c   7.30034100
_cell_angle_alpha   109.67352223
_cell_angle_beta   109.67351968
_cell_angle_gamma   109.26816079
_symmetry_Int_Tables_number   1
_chemical_formula_structural   Tb3UAs6Ru7
_chemical_formula_sum   'Tb3 U1 As6 Ru7'
_cell_volume   292.88108187
_cell_formula_units_Z   1
loop_
 _symmetry_equiv_pos_site_id
 _symmetry_equiv_pos_as_xyz
  1  'x, y, z'
loop_
 _atom_site_type_symbol
 _atom_site_label
 _atom_site_symmetry_multiplicity
 _atom_site_fract_x
 _atom_site_fract_y
 _atom_site_fract_z
 _atom_site_occupancy
  Tb  Tb0  1  0.500000  0.000000  0.000000  1
  Tb  Tb1  1  0.000000  0.500000  0.000000  1
  Tb  Tb2  1  0.500000  0.500000  0.500000  1
  U  U3  1  0.000000  0.000000  0.500000  1
  As  As4  1  0.317219  0.000000  0.315136  1
  As  As5  1  0.000000  0.317219  0.315136  1
  As  As6  1  0.000000  0.682781  0.684864  1
  As  As7  1  0.317219  0.317219  0.002083  1
  As  As8  1  0.682781  0.682781  0.997917  1
  As  As9  1  0.682781  0.000000  0.684864  1
  Ru  Ru10  1  0.755553  0.511107  0.255553  1
  Ru  Ru11  1  0.511107  0.755553  0.255553  1
  Ru  Ru12  1  0.488893  0.244447  0.744447  1
  Ru  Ru13  1  0.755553  0.244447  0.500000  1
  Ru  Ru14  1  0.244447  0.755553  0.500000  1
  Ru  Ru15  1  0.244447  0.488893  0.744447  1
  Ru  Ru16  1  0.000000  0.000000  0.000000  1
