# generated using pymatgen
data_HfZrNb(ReSi)3
_symmetry_space_group_name_H-M   'P 1'
_cell_length_a   6.93159701
_cell_length_b   6.91471812
_cell_length_c   3.39643300
_cell_angle_alpha   90.00000000
_cell_angle_beta   90.00000000
_cell_angle_gamma   119.49827799
_symmetry_Int_Tables_number   1
_chemical_formula_structural   HfZrNb(ReSi)3
_chemical_formula_sum   'Hf1 Zr1 Nb1 Re3 Si3'
_cell_volume   141.68862915
_cell_formula_units_Z   1
loop_
 _symmetry_equiv_pos_site_id
 _symmetry_equiv_pos_as_xyz
  1  'x, y, z'
loop_
 _atom_site_type_symbol
 _atom_site_label
 _atom_site_symmetry_multiplicity
 _atom_site_fract_x
 _atom_site_fract_y
 _atom_site_fract_z
 _atom_site_occupancy
  Hf  Hf0  1  0.002258  0.403548  0.500000  1
  Zr  Zr1  1  0.404435  0.002503  0.500000  1
  Nb  Nb2  1  0.595738  0.596112  0.500000  1
  Re  Re3  1  0.745303  0.997673  0.000000  1
  Re  Re4  1  0.996254  0.742790  0.000000  1
  Re  Re5  1  0.254031  0.255654  0.000000  1
  Si  Si6  1  0.337831  0.665522  0.000000  1
  Si  Si7  1  0.667141  0.338964  0.000000  1
  Si  Si8  1  0.997009  0.997235  0.500000  1
