# generated using pymatgen
data_Ca3Nd3(Eu7Ga6)2
_symmetry_space_group_name_H-M   'P 1'
_cell_length_a   8.13418126
_cell_length_b   8.13984909
_cell_length_c   14.97392300
_cell_angle_alpha   90.00697557
_cell_angle_beta   90.01454551
_cell_angle_gamma   89.99521880
_symmetry_Int_Tables_number   1
_chemical_formula_structural   Ca3Nd3(Eu7Ga6)2
_chemical_formula_sum   'Ca3 Nd3 Eu14 Ga12'
_cell_volume   991.43849180
_cell_formula_units_Z   1
loop_
 _symmetry_equiv_pos_site_id
 _symmetry_equiv_pos_as_xyz
  1  'x, y, z'
loop_
 _atom_site_type_symbol
 _atom_site_label
 _atom_site_symmetry_multiplicity
 _atom_site_fract_x
 _atom_site_fract_y
 _atom_site_fract_z
 _atom_site_occupancy
  Ca  Ca0  1  0.999998  0.498863  0.737072  1
  Ca  Ca1  1  0.998997  0.498825  0.241363  1
  Ca  Ca2  1  0.501570  0.000221  0.254020  1
  Nd  Nd3  1  0.812061  0.828686  0.607065  1
  Nd  Nd4  1  0.182517  0.823069  0.107233  1
  Nd  Nd5  1  0.502355  0.999763  0.777495  1
  Eu  Eu6  1  0.166791  0.823347  0.395657  1
  Eu  Eu7  1  0.833689  0.177379  0.395828  1
  Eu  Eu8  1  0.679144  0.670640  0.395941  1
  Eu  Eu9  1  0.665992  0.317443  0.603423  1
  Eu  Eu10  1  0.332336  0.681607  0.603209  1
  Eu  Eu11  1  0.670542  0.679498  0.101942  1
  Eu  Eu12  1  0.681836  0.340136  0.896560  1
  Eu  Eu13  1  0.841681  0.822066  0.898045  1
  Eu  Eu14  1  0.320056  0.330231  0.394873  1
  Eu  Eu15  1  0.182146  0.165989  0.602961  1
  Eu  Eu16  1  0.821901  0.169859  0.102209  1
  Eu  Eu17  1  0.319123  0.661612  0.897537  1
  Eu  Eu18  1  0.329390  0.320961  0.102603  1
  Eu  Eu19  1  0.158007  0.178935  0.897360  1
  Ga  Ga20  1  0.610885  0.388884  0.250196  1
  Ga  Ga21  1  0.115847  0.887773  0.746946  1
  Ga  Ga22  1  0.390001  0.381197  0.751174  1
  Ga  Ga23  1  0.385795  0.616460  0.246019  1
  Ga  Ga24  1  0.890039  0.884770  0.245645  1
  Ga  Ga25  1  0.613614  0.622733  0.748159  1
  Ga  Ga26  1  0.997352  0.509256  0.508680  1
  Ga  Ga27  1  0.878478  0.107431  0.746567  1
  Ga  Ga28  1  0.507605  0.996497  0.495695  1
  Ga  Ga29  1  0.491442  0.997319  0.994030  1
  Ga  Ga30  1  0.115756  0.109555  0.245170  1
  Ga  Ga31  1  0.003058  0.508997  0.009327  1
