# generated using pymatgen
data_Sr4Ga2IrPd3
_symmetry_space_group_name_H-M   'P 1'
_cell_length_a   5.92426257
_cell_length_b   5.95485422
_cell_length_c   8.11027658
_cell_angle_alpha   79.14621441
_cell_angle_beta   79.25950302
_cell_angle_gamma   60.98742757
_symmetry_Int_Tables_number   1
_chemical_formula_structural   Sr4Ga2IrPd3
_chemical_formula_sum   'Sr4 Ga2 Ir1 Pd3'
_cell_volume   244.22663886
_cell_formula_units_Z   1
loop_
 _symmetry_equiv_pos_site_id
 _symmetry_equiv_pos_as_xyz
  1  'x, y, z'
loop_
 _atom_site_type_symbol
 _atom_site_label
 _atom_site_symmetry_multiplicity
 _atom_site_fract_x
 _atom_site_fract_y
 _atom_site_fract_z
 _atom_site_occupancy
  Sr  Sr0  1  0.782724  0.521101  0.348206  1
  Sr  Sr1  1  0.488646  0.212975  0.145043  1
  Sr  Sr2  1  0.216462  0.485930  0.652213  1
  Sr  Sr3  1  0.513050  0.781370  0.855343  1
  Ga  Ga4  1  0.111886  0.878370  0.243355  1
  Ga  Ga5  1  0.891809  0.100654  0.758484  1
  Ir  Ir6  1  0.002959  0.744567  0.004245  1
  Pd  Pd7  1  0.252408  0.996814  0.491226  1
  Pd  Pd8  1  0.998263  0.272071  0.996980  1
  Pd  Pd9  1  0.741792  0.006149  0.504905  1
