# generated using pymatgen
data_Pa3P4Rh7
_symmetry_space_group_name_H-M   'P 1'
_cell_length_a   7.85256560
_cell_length_b   7.85256485
_cell_length_c   9.27395200
_cell_angle_alpha   55.65832578
_cell_angle_beta   55.65832953
_cell_angle_gamma   29.27240101
_symmetry_Int_Tables_number   1
_chemical_formula_structural   Pa3P4Rh7
_chemical_formula_sum   'Pa3 P4 Rh7'
_cell_volume   227.17152329
_cell_formula_units_Z   1
loop_
 _symmetry_equiv_pos_site_id
 _symmetry_equiv_pos_as_xyz
  1  'x, y, z'
loop_
 _atom_site_type_symbol
 _atom_site_label
 _atom_site_symmetry_multiplicity
 _atom_site_fract_x
 _atom_site_fract_y
 _atom_site_fract_z
 _atom_site_occupancy
  Pa  Pa0  1  0.500000  0.500000  0.500000  1
  Pa  Pa1  1  0.823510  0.823510  0.171612  1
  Pa  Pa2  1  0.176490  0.176490  0.828388  1
  P  P3  1  0.393307  0.393307  0.331794  1
  P  P4  1  0.606693  0.606693  0.668206  1
  P  P5  1  0.844593  0.844593  0.755093  1
  P  P6  1  0.155407  0.155407  0.244907  1
  Rh  Rh7  1  0.670518  0.670518  0.068338  1
  Rh  Rh8  1  0.006650  0.006650  0.214241  1
  Rh  Rh9  1  0.993350  0.993350  0.785759  1
  Rh  Rh10  1  0.500000  0.500000  0.000000  1
  Rh  Rh11  1  0.200824  0.200824  0.455542  1
  Rh  Rh12  1  0.799176  0.799176  0.544458  1
  Rh  Rh13  1  0.329482  0.329482  0.931662  1
