# generated using pymatgen
data_HfTa2Nb7Si6
_symmetry_space_group_name_H-M   'P 1'
_cell_length_a   7.61580255
_cell_length_b   7.61580244
_cell_length_c   7.59182460
_cell_angle_alpha   128.28854038
_cell_angle_beta   128.28853683
_cell_angle_gamma   76.02872177
_symmetry_Int_Tables_number   1
_chemical_formula_structural   HfTa2Nb7Si6
_chemical_formula_sum   'Hf1 Ta2 Nb7 Si6'
_cell_volume   263.91679749
_cell_formula_units_Z   1
loop_
 _symmetry_equiv_pos_site_id
 _symmetry_equiv_pos_as_xyz
  1  'x, y, z'
loop_
 _atom_site_type_symbol
 _atom_site_label
 _atom_site_symmetry_multiplicity
 _atom_site_fract_x
 _atom_site_fract_y
 _atom_site_fract_z
 _atom_site_occupancy
  Hf  Hf0  1  0.816642  0.316642  0.828136  1
  Ta  Ta1  1  0.999913  0.998794  0.001168  1
  Ta  Ta2  1  0.498794  0.499913  0.001168  1
  Nb  Nb3  1  0.018728  0.184022  0.500649  1
  Nb  Nb4  1  0.684022  0.518728  0.500649  1
  Nb  Nb5  1  0.519273  0.019273  0.835449  1
  Nb  Nb6  1  0.188978  0.688978  0.170213  1
  Nb  Nb7  1  0.980476  0.813924  0.498859  1
  Nb  Nb8  1  0.313924  0.480476  0.498859  1
  Nb  Nb9  1  0.477920  0.977920  0.161694  1
  Si  Si10  1  0.750382  0.754006  0.001719  1
  Si  Si11  1  0.254006  0.250382  0.001719  1
  Si  Si12  1  0.370371  0.128861  0.500550  1
  Si  Si13  1  0.628861  0.870371  0.500550  1
  Si  Si14  1  0.870724  0.370724  0.242447  1
  Si  Si15  1  0.126984  0.626984  0.756168  1
