# generated using pymatgen
data_Hf12Zn5Cu7N4
_symmetry_space_group_name_H-M   'P 1'
_cell_length_a   8.41321979
_cell_length_b   8.41103262
_cell_length_c   8.41322000
_cell_angle_alpha   59.99139688
_cell_angle_beta   59.99999916
_cell_angle_gamma   59.99139262
_symmetry_Int_Tables_number   1
_chemical_formula_structural   Hf12Zn5Cu7N4
_chemical_formula_sum   'Hf12 Zn5 Cu7 N4'
_cell_volume   420.92265056
_cell_formula_units_Z   1
loop_
 _symmetry_equiv_pos_site_id
 _symmetry_equiv_pos_as_xyz
  1  'x, y, z'
loop_
 _atom_site_type_symbol
 _atom_site_label
 _atom_site_symmetry_multiplicity
 _atom_site_fract_x
 _atom_site_fract_y
 _atom_site_fract_z
 _atom_site_occupancy
  Hf  Hf0  1  0.810852  0.188151  0.190144  1
  Hf  Hf1  1  0.189662  0.810079  0.189662  1
  Hf  Hf2  1  0.810596  0.810079  0.189662  1
  Hf  Hf3  1  0.189662  0.810079  0.810596  1
  Hf  Hf4  1  0.810852  0.188151  0.810852  1
  Hf  Hf5  1  0.190144  0.188151  0.810852  1
  Hf  Hf6  1  0.439359  0.060101  0.061181  1
  Hf  Hf7  1  0.062229  0.437599  0.062229  1
  Hf  Hf8  1  0.437942  0.437599  0.062229  1
  Hf  Hf9  1  0.062229  0.437599  0.437942  1
  Hf  Hf10  1  0.439359  0.060101  0.439359  1
  Hf  Hf11  1  0.061181  0.060101  0.439359  1
  Zn  Zn12  1  0.829396  0.511814  0.829396  1
  Zn  Zn13  1  0.623402  0.625936  0.127260  1
  Zn  Zn14  1  0.623402  0.625936  0.623402  1
  Zn  Zn15  1  0.127260  0.625936  0.623402  1
  Zn  Zn16  1  0.625169  0.124492  0.625169  1
  Cu  Cu17  1  0.417190  0.416735  0.748883  1
  Cu  Cu18  1  0.417190  0.416735  0.417190  1
  Cu  Cu19  1  0.748883  0.416735  0.417190  1
  Cu  Cu20  1  0.417155  0.748535  0.417155  1
  Cu  Cu21  1  0.833158  0.833920  0.499765  1
  Cu  Cu22  1  0.833158  0.833920  0.833158  1
  Cu  Cu23  1  0.499765  0.833920  0.833158  1
  N  N24  1  0.125501  0.124099  0.624900  1
  N  N25  1  0.125501  0.124099  0.125501  1
  N  N26  1  0.624900  0.124099  0.125501  1
  N  N27  1  0.124900  0.625300  0.124900  1
