# generated using pymatgen
data_NdSm5Nb2(Co4P3)4
_symmetry_space_group_name_H-M   'P 1'
_cell_length_a   3.74890800
_cell_length_b   10.71527200
_cell_length_c   12.44878200
_cell_angle_alpha   90.00000000
_cell_angle_beta   90.00000000
_cell_angle_gamma   90.00000000
_symmetry_Int_Tables_number   1
_chemical_formula_structural   NdSm5Nb2(Co4P3)4
_chemical_formula_sum   'Nd1 Sm5 Nb2 Co16 P12'
_cell_volume   500.07465534
_cell_formula_units_Z   1
loop_
 _symmetry_equiv_pos_site_id
 _symmetry_equiv_pos_as_xyz
  1  'x, y, z'
loop_
 _atom_site_type_symbol
 _atom_site_label
 _atom_site_symmetry_multiplicity
 _atom_site_fract_x
 _atom_site_fract_y
 _atom_site_fract_z
 _atom_site_occupancy
  Nd  Nd0  1  0.000000  0.500000  0.525965  1
  Sm  Sm1  1  0.500000  0.000000  0.474592  1
  Sm  Sm2  1  0.500000  0.819599  0.205377  1
  Sm  Sm3  1  0.500000  0.180401  0.205377  1
  Sm  Sm4  1  0.000000  0.680542  0.794789  1
  Sm  Sm5  1  0.000000  0.319458  0.794789  1
  Nb  Nb6  1  0.500000  0.500000  0.154736  1
  Nb  Nb7  1  0.000000  0.000000  0.844767  1
  Co  Co8  1  0.500000  0.500000  0.703568  1
  Co  Co9  1  0.000000  0.000000  0.297407  1
  Co  Co10  1  0.000000  0.500000  0.986081  1
  Co  Co11  1  0.500000  0.000000  0.013898  1
  Co  Co12  1  0.500000  0.332381  0.991921  1
  Co  Co13  1  0.500000  0.667619  0.991921  1
  Co  Co14  1  0.000000  0.167545  0.008031  1
  Co  Co15  1  0.000000  0.832455  0.008031  1
  Co  Co16  1  0.500000  0.294470  0.431725  1
  Co  Co17  1  0.500000  0.705530  0.431725  1
  Co  Co18  1  0.000000  0.204125  0.568145  1
  Co  Co19  1  0.000000  0.795875  0.568145  1
  Co  Co20  1  0.500000  0.879105  0.705643  1
  Co  Co21  1  0.500000  0.120895  0.705643  1
  Co  Co22  1  0.000000  0.621296  0.294066  1
  Co  Co23  1  0.000000  0.378704  0.294066  1
  P  P24  1  0.500000  0.500000  0.884222  1
  P  P25  1  0.000000  0.000000  0.115989  1
  P  P26  1  0.500000  0.500000  0.350948  1
  P  P27  1  0.000000  0.000000  0.647839  1
  P  P28  1  0.500000  0.307018  0.614857  1
  P  P29  1  0.500000  0.692982  0.614857  1
  P  P30  1  0.000000  0.191603  0.385427  1
  P  P31  1  0.000000  0.808397  0.385427  1
  P  P32  1  0.500000  0.842664  0.895436  1
  P  P33  1  0.500000  0.157336  0.895436  1
  P  P34  1  0.000000  0.657381  0.104578  1
  P  P35  1  0.000000  0.342619  0.104578  1
