# generated using pymatgen
data_YTm9(In3Cl)2
_symmetry_space_group_name_H-M   'P 1'
_cell_length_a   9.04734100
_cell_length_b   9.05600486
_cell_length_c   6.63494800
_cell_angle_alpha   90.00000000
_cell_angle_beta   90.00000000
_cell_angle_gamma   119.96835408
_symmetry_Int_Tables_number   1
_chemical_formula_structural   YTm9(In3Cl)2
_chemical_formula_sum   'Y1 Tm9 In6 Cl2'
_cell_volume   470.93846443
_cell_formula_units_Z   1
loop_
 _symmetry_equiv_pos_site_id
 _symmetry_equiv_pos_as_xyz
  1  'x, y, z'
loop_
 _atom_site_type_symbol
 _atom_site_label
 _atom_site_symmetry_multiplicity
 _atom_site_fract_x
 _atom_site_fract_y
 _atom_site_fract_z
 _atom_site_occupancy
  Y  Y0  1  0.256739  0.000000  0.750000  1
  Tm  Tm1  1  0.333963  0.666330  0.499864  1
  Tm  Tm2  1  0.667633  0.333670  0.499864  1
  Tm  Tm3  1  0.667633  0.333670  0.000136  1
  Tm  Tm4  1  0.333963  0.666330  0.000136  1
  Tm  Tm5  1  0.740415  0.000000  0.250000  1
  Tm  Tm6  1  0.999934  0.258526  0.750000  1
  Tm  Tm7  1  0.000201  0.741079  0.250000  1
  Tm  Tm8  1  0.741408  0.741474  0.750000  1
  Tm  Tm9  1  0.259122  0.258921  0.250000  1
  In  In10  1  0.605664  0.000000  0.750000  1
  In  In11  1  0.395204  0.000000  0.250000  1
  In  In12  1  0.999057  0.602636  0.750000  1
  In  In13  1  0.000083  0.395272  0.250000  1
  In  In14  1  0.396422  0.397364  0.750000  1
  In  In15  1  0.604812  0.604728  0.250000  1
  Cl  Cl16  1  0.998875  0.000000  0.498515  1
  Cl  Cl17  1  0.998875  0.000000  0.001485  1
