# generated using pymatgen
data_LaPr5(GaPd5)2
_symmetry_space_group_name_H-M   'P 1'
_cell_length_a   8.52071529
_cell_length_b   8.52071565
_cell_length_c   8.52071400
_cell_angle_alpha   127.99185660
_cell_angle_beta   126.24246964
_cell_angle_gamma   78.06785160
_symmetry_Int_Tables_number   1
_chemical_formula_structural   LaPr5(GaPd5)2
_chemical_formula_sum   'La1 Pr5 Ga2 Pd10'
_cell_volume   381.00096490
_cell_formula_units_Z   1
loop_
 _symmetry_equiv_pos_site_id
 _symmetry_equiv_pos_as_xyz
  1  'x, y, z'
loop_
 _atom_site_type_symbol
 _atom_site_label
 _atom_site_symmetry_multiplicity
 _atom_site_fract_x
 _atom_site_fract_y
 _atom_site_fract_z
 _atom_site_occupancy
  La  La0  1  0.624299  0.750000  0.874299  1
  Pr  Pr1  1  0.820396  0.049979  0.770416  1
  Pr  Pr2  1  0.220436  0.450021  0.770416  1
  Pr  Pr3  1  0.180493  0.950545  0.229948  1
  Pr  Pr4  1  0.378448  0.250000  0.128448  1
  Pr  Pr5  1  0.779405  0.549455  0.229948  1
  Ga  Ga6  1  0.220424  0.750000  0.470424  1
  Ga  Ga7  1  0.778327  0.250000  0.528327  1
  Pd  Pd8  1  0.831564  0.605418  0.644193  1
  Pd  Pd9  1  0.538775  0.312629  0.644193  1
  Pd  Pd10  1  0.460564  0.104916  0.772003  1
  Pd  Pd11  1  0.831564  0.187371  0.226146  1
  Pd  Pd12  1  0.167087  0.395084  0.355648  1
  Pd  Pd13  1  0.460564  0.688561  0.355648  1
  Pd  Pd14  1  0.538775  0.894582  0.226146  1
  Pd  Pd15  1  0.167087  0.811439  0.772003  1
  Pd  Pd16  1  0.000897  0.001280  0.502177  1
  Pd  Pd17  1  0.000897  0.498720  0.999618  1
