# generated using pymatgen
data_Tm6Ti4Al12Os7
_symmetry_space_group_name_H-M   'P 1'
_cell_length_a   8.95860431
_cell_length_b   8.95860461
_cell_length_c   8.95860500
_cell_angle_alpha   60.00000224
_cell_angle_beta   60.00000113
_cell_angle_gamma   59.99999759
_symmetry_Int_Tables_number   1
_chemical_formula_structural   Tm6Ti4Al12Os7
_chemical_formula_sum   'Tm6 Ti4 Al12 Os7'
_cell_volume   508.40067357
_cell_formula_units_Z   1
loop_
 _symmetry_equiv_pos_site_id
 _symmetry_equiv_pos_as_xyz
  1  'x, y, z'
loop_
 _atom_site_type_symbol
 _atom_site_label
 _atom_site_symmetry_multiplicity
 _atom_site_fract_x
 _atom_site_fract_y
 _atom_site_fract_z
 _atom_site_occupancy
  Tm  Tm0  1  0.708001  0.708001  0.291999  1
  Tm  Tm1  1  0.291999  0.708001  0.291999  1
  Tm  Tm2  1  0.708001  0.291999  0.291999  1
  Tm  Tm3  1  0.291999  0.291999  0.708001  1
  Tm  Tm4  1  0.708001  0.291999  0.708001  1
  Tm  Tm5  1  0.291999  0.708001  0.708001  1
  Ti  Ti6  1  0.880232  0.880232  0.359301  1
  Ti  Ti7  1  0.880232  0.359301  0.880232  1
  Ti  Ti8  1  0.359301  0.880232  0.880232  1
  Ti  Ti9  1  0.880232  0.880232  0.880232  1
  Al  Al10  1  0.119126  0.119126  0.642621  1
  Al  Al11  1  0.119126  0.642621  0.119126  1
  Al  Al12  1  0.642621  0.119126  0.119126  1
  Al  Al13  1  0.119126  0.119126  0.119126  1
  Al  Al14  1  0.669329  0.669329  0.992013  1
  Al  Al15  1  0.669329  0.992013  0.669329  1
  Al  Al16  1  0.992013  0.669329  0.669329  1
  Al  Al17  1  0.669329  0.669329  0.669329  1
  Al  Al18  1  0.331163  0.331163  0.006512  1
  Al  Al19  1  0.331163  0.006512  0.331163  1
  Al  Al20  1  0.006512  0.331163  0.331163  1
  Al  Al21  1  0.331163  0.331163  0.331163  1
  Os  Os22  1  0.000000  0.000000  0.000000  1
  Os  Os23  1  0.998707  0.998707  0.501293  1
  Os  Os24  1  0.501293  0.998707  0.501293  1
  Os  Os25  1  0.998707  0.501293  0.501293  1
  Os  Os26  1  0.501293  0.501293  0.998707  1
  Os  Os27  1  0.998707  0.501293  0.998707  1
  Os  Os28  1  0.501293  0.998707  0.998707  1
