# generated using pymatgen
data_Ho10AgPPb6
_symmetry_space_group_name_H-M   'P 1'
_cell_length_a   6.73769000
_cell_length_b   9.15619124
_cell_length_c   9.15619000
_cell_angle_alpha   120.00000273
_cell_angle_beta   90.00000000
_cell_angle_gamma   90.00000000
_symmetry_Int_Tables_number   1
_chemical_formula_structural   Ho10AgPPb6
_chemical_formula_sum   'Ho10 Ag1 P1 Pb6'
_cell_volume   489.18293259
_cell_formula_units_Z   1
loop_
 _symmetry_equiv_pos_site_id
 _symmetry_equiv_pos_as_xyz
  1  'x, y, z'
loop_
 _atom_site_type_symbol
 _atom_site_label
 _atom_site_symmetry_multiplicity
 _atom_site_fract_x
 _atom_site_fract_y
 _atom_site_fract_z
 _atom_site_occupancy
  Ho  Ho0  1  0.772433  0.747733  0.747733  1
  Ho  Ho1  1  0.227567  0.252267  0.252267  1
  Ho  Ho2  1  0.772433  0.000000  0.252267  1
  Ho  Ho3  1  0.227567  0.000000  0.747733  1
  Ho  Ho4  1  0.772433  0.252267  0.000000  1
  Ho  Ho5  1  0.227567  0.747733  0.000000  1
  Ho  Ho6  1  0.000000  0.666667  0.333333  1
  Ho  Ho7  1  0.000000  0.333333  0.666667  1
  Ho  Ho8  1  0.500000  0.333333  0.666667  1
  Ho  Ho9  1  0.500000  0.666667  0.333333  1
  Ag  Ag10  1  0.500000  0.000000  0.000000  1
  P  P11  1  0.000000  0.000000  0.000000  1
  Pb  Pb12  1  0.747261  0.392127  0.392127  1
  Pb  Pb13  1  0.252739  0.607873  0.607873  1
  Pb  Pb14  1  0.747261  0.000000  0.607873  1
  Pb  Pb15  1  0.252739  0.000000  0.392127  1
  Pb  Pb16  1  0.747261  0.607873  0.000000  1
  Pb  Pb17  1  0.252739  0.392127  0.000000  1
