# generated using pymatgen
data_Er2Ga2Os2C
_symmetry_space_group_name_H-M   'P 1'
_cell_length_a   5.87099660
_cell_length_b   5.87099648
_cell_length_c   6.81128000
_cell_angle_alpha   125.11776542
_cell_angle_beta   125.11775264
_cell_angle_gamma   41.24521229
_symmetry_Int_Tables_number   1
_chemical_formula_structural   Er2Ga2Os2C
_chemical_formula_sum   'Er2 Ga2 Os2 C1'
_cell_volume   122.09372315
_cell_formula_units_Z   1
loop_
 _symmetry_equiv_pos_site_id
 _symmetry_equiv_pos_as_xyz
  1  'x, y, z'
loop_
 _atom_site_type_symbol
 _atom_site_label
 _atom_site_symmetry_multiplicity
 _atom_site_fract_x
 _atom_site_fract_y
 _atom_site_fract_z
 _atom_site_occupancy
  Er  Er0  1  0.562654  0.562654  0.291633  1
  Er  Er1  1  0.437346  0.437346  0.708366  1
  Ga  Ga2  1  0.851023  0.851023  0.317965  1
  Ga  Ga3  1  0.148976  0.148976  0.682034  1
  Os  Os4  1  0.202019  0.202019  0.099456  1
  Os  Os5  1  0.797981  0.797981  0.900544  1
  C  C6  1  0.000000  0.000000  0.000000  1
