# generated using pymatgen
data_CaLa2(As3Pd10)2
_symmetry_space_group_name_H-M   'P 1'
_cell_length_a   8.95092797
_cell_length_b   8.95092892
_cell_length_c   8.95092900
_cell_angle_alpha   60.00000339
_cell_angle_beta   59.99999989
_cell_angle_gamma   59.99999916
_symmetry_Int_Tables_number   1
_chemical_formula_structural   CaLa2(As3Pd10)2
_chemical_formula_sum   'Ca1 La2 As6 Pd20'
_cell_volume   507.09495858
_cell_formula_units_Z   1
loop_
 _symmetry_equiv_pos_site_id
 _symmetry_equiv_pos_as_xyz
  1  'x, y, z'
loop_
 _atom_site_type_symbol
 _atom_site_label
 _atom_site_symmetry_multiplicity
 _atom_site_fract_x
 _atom_site_fract_y
 _atom_site_fract_z
 _atom_site_occupancy
  Ca  Ca0  1  0.000000  0.000000  0.000000  1
  La  La1  1  0.250000  0.250000  0.250000  1
  La  La2  1  0.750000  0.750000  0.750000  1
  As  As3  1  0.737690  0.262310  0.262310  1
  As  As4  1  0.262310  0.737690  0.737690  1
  As  As5  1  0.262310  0.737690  0.262310  1
  As  As6  1  0.737690  0.262310  0.737690  1
  As  As7  1  0.262310  0.262310  0.737690  1
  As  As8  1  0.737690  0.737690  0.262310  1
  Pd  Pd9  1  0.384664  0.384664  0.384664  1
  Pd  Pd10  1  0.615336  0.615336  0.615336  1
  Pd  Pd11  1  0.384664  0.384664  0.846007  1
  Pd  Pd12  1  0.384664  0.846007  0.384664  1
  Pd  Pd13  1  0.615336  0.615336  0.153993  1
  Pd  Pd14  1  0.615336  0.153993  0.615336  1
  Pd  Pd15  1  0.846007  0.384664  0.384664  1
  Pd  Pd16  1  0.153993  0.615336  0.615336  1
  Pd  Pd17  1  0.349803  0.000000  0.000000  1
  Pd  Pd18  1  0.650197  0.000000  0.000000  1
  Pd  Pd19  1  0.000000  0.349803  0.650197  1
  Pd  Pd20  1  0.000000  0.650197  0.349803  1
  Pd  Pd21  1  0.000000  0.349803  0.000000  1
  Pd  Pd22  1  0.650197  0.000000  0.349803  1
  Pd  Pd23  1  0.000000  0.650197  0.000000  1
  Pd  Pd24  1  0.349803  0.000000  0.650197  1
  Pd  Pd25  1  0.000000  0.000000  0.349803  1
  Pd  Pd26  1  0.000000  0.000000  0.650197  1
  Pd  Pd27  1  0.650197  0.349803  0.000000  1
  Pd  Pd28  1  0.349803  0.650197  0.000000  1
