# generated using pymatgen
data_Mn2Nb3Al4
_symmetry_space_group_name_H-M   'P 1'
_cell_length_a   8.72644579
_cell_length_b   8.83420554
_cell_length_c   8.22047400
_cell_angle_alpha   90.00000000
_cell_angle_beta   90.00000000
_cell_angle_gamma   120.88290816
_symmetry_Int_Tables_number   1
_chemical_formula_structural   Mn2Nb3Al4
_chemical_formula_sum   'Mn8 Nb12 Al16'
_cell_volume   543.87538664
_cell_formula_units_Z   4
loop_
 _symmetry_equiv_pos_site_id
 _symmetry_equiv_pos_as_xyz
  1  'x, y, z'
loop_
 _atom_site_type_symbol
 _atom_site_label
 _atom_site_symmetry_multiplicity
 _atom_site_fract_x
 _atom_site_fract_y
 _atom_site_fract_z
 _atom_site_occupancy
  Mn  Mn0  1  0.178924  0.503464  0.750000  1
  Mn  Mn1  1  0.821076  0.496536  0.250000  1
  Mn  Mn2  1  0.483531  0.652186  0.750000  1
  Mn  Mn3  1  0.500235  0.167039  0.750000  1
  Mn  Mn4  1  0.516469  0.347814  0.250000  1
  Mn  Mn5  1  0.499765  0.832961  0.250000  1
  Mn  Mn6  1  0.000000  0.000000  0.500000  1
  Mn  Mn7  1  0.000000  0.000000  0.000000  1
  Nb  Nb8  1  0.331757  0.001920  0.061036  1
  Nb  Nb9  1  0.668243  0.998080  0.938964  1
  Nb  Nb10  1  0.000682  0.328804  0.058114  1
  Nb  Nb11  1  0.668243  0.998080  0.561036  1
  Nb  Nb12  1  0.000682  0.328804  0.441886  1
  Nb  Nb13  1  0.999318  0.671196  0.941886  1
  Nb  Nb14  1  0.331757  0.001920  0.438964  1
  Nb  Nb15  1  0.999318  0.671196  0.558114  1
  Nb  Nb16  1  0.666514  0.671245  0.061464  1
  Nb  Nb17  1  0.333486  0.328755  0.938536  1
  Nb  Nb18  1  0.333486  0.328755  0.561464  1
  Nb  Nb19  1  0.666514  0.671245  0.438536  1
  Al  Al20  1  0.341967  0.844091  0.750000  1
  Al  Al21  1  0.653852  0.502025  0.750000  1
  Al  Al22  1  0.658033  0.155909  0.250000  1
  Al  Al23  1  0.346148  0.497975  0.250000  1
  Al  Al24  1  0.845807  0.341515  0.750000  1
  Al  Al25  1  0.154193  0.658485  0.250000  1
  Al  Al26  1  0.337965  0.670440  0.499913  1
  Al  Al27  1  0.662035  0.329560  0.500087  1
  Al  Al28  1  0.662035  0.329560  0.999913  1
  Al  Al29  1  0.337965  0.670440  0.000087  1
  Al  Al30  1  0.173040  0.003353  0.750000  1
  Al  Al31  1  0.826960  0.996647  0.250000  1
  Al  Al32  1  0.009645  0.177518  0.750000  1
  Al  Al33  1  0.990355  0.822482  0.250000  1
  Al  Al34  1  0.819459  0.832337  0.750000  1
  Al  Al35  1  0.180541  0.167663  0.250000  1
