# generated using pymatgen
data_Ho(Si2Ir3)2
_symmetry_space_group_name_H-M   'P 1'
_cell_length_a   7.04140900
_cell_length_b   7.04141005
_cell_length_c   3.83386600
_cell_angle_alpha   90.00000000
_cell_angle_beta   90.00000000
_cell_angle_gamma   119.99999975
_symmetry_Int_Tables_number   1
_chemical_formula_structural   Ho(Si2Ir3)2
_chemical_formula_sum   'Ho1 Si4 Ir6'
_cell_volume   164.62158139
_cell_formula_units_Z   1
loop_
 _symmetry_equiv_pos_site_id
 _symmetry_equiv_pos_as_xyz
  1  'x, y, z'
loop_
 _atom_site_type_symbol
 _atom_site_label
 _atom_site_symmetry_multiplicity
 _atom_site_fract_x
 _atom_site_fract_y
 _atom_site_fract_z
 _atom_site_occupancy
  Ho  Ho0  1  0.000000  0.000000  0.000000  1
  Si  Si1  1  0.803589  0.196411  0.500000  1
  Si  Si2  1  0.803589  0.607178  0.500000  1
  Si  Si3  1  0.392822  0.196411  0.500000  1
  Si  Si4  1  0.333333  0.666667  0.000000  1
  Ir  Ir5  1  0.533131  0.466869  0.000000  1
  Ir  Ir6  1  0.533131  0.066263  0.000000  1
  Ir  Ir7  1  0.933737  0.466869  0.000000  1
  Ir  Ir8  1  0.197219  0.802781  0.500000  1
  Ir  Ir9  1  0.197219  0.394439  0.500000  1
  Ir  Ir10  1  0.605561  0.802781  0.500000  1
