# generated using pymatgen
data_Nd16Cd3HgPt4
_symmetry_space_group_name_H-M   'P 1'
_cell_length_a   10.00449132
_cell_length_b   10.00449093
_cell_length_c   10.00449050
_cell_angle_alpha   60.23472694
_cell_angle_beta   60.23472811
_cell_angle_gamma   60.23472828
_symmetry_Int_Tables_number   1
_chemical_formula_structural   Nd16Cd3HgPt4
_chemical_formula_sum   'Nd16 Cd3 Hg1 Pt4'
_cell_volume   711.82246017
_cell_formula_units_Z   1
loop_
 _symmetry_equiv_pos_site_id
 _symmetry_equiv_pos_as_xyz
  1  'x, y, z'
loop_
 _atom_site_type_symbol
 _atom_site_label
 _atom_site_symmetry_multiplicity
 _atom_site_fract_x
 _atom_site_fract_y
 _atom_site_fract_z
 _atom_site_occupancy
  Nd  Nd0  1  0.349066  0.349066  0.349066  1
  Nd  Nd1  1  0.352105  0.352105  0.945280  1
  Nd  Nd2  1  0.352105  0.945280  0.352105  1
  Nd  Nd3  1  0.945280  0.352105  0.352105  1
  Nd  Nd4  1  0.809830  0.191509  0.191509  1
  Nd  Nd5  1  0.191942  0.807668  0.807668  1
  Nd  Nd6  1  0.191509  0.809830  0.191509  1
  Nd  Nd7  1  0.807668  0.191942  0.807668  1
  Nd  Nd8  1  0.191509  0.191509  0.809830  1
  Nd  Nd9  1  0.807668  0.807668  0.191942  1
  Nd  Nd10  1  0.938537  0.563292  0.563292  1
  Nd  Nd11  1  0.562834  0.935395  0.935395  1
  Nd  Nd12  1  0.563292  0.938537  0.563292  1
  Nd  Nd13  1  0.935395  0.562834  0.935395  1
  Nd  Nd14  1  0.563292  0.563292  0.938537  1
  Nd  Nd15  1  0.935395  0.935395  0.562834  1
  Cd  Cd16  1  0.580256  0.580256  0.257801  1
  Cd  Cd17  1  0.580256  0.257801  0.580256  1
  Cd  Cd18  1  0.257801  0.580256  0.580256  1
  Hg  Hg19  1  0.584176  0.584176  0.584176  1
  Pt  Pt20  1  0.144109  0.144109  0.144109  1
  Pt  Pt21  1  0.142053  0.142053  0.571868  1
  Pt  Pt22  1  0.142053  0.571868  0.142053  1
  Pt  Pt23  1  0.571868  0.142053  0.142053  1
