# generated using pymatgen
data_Nd6Zn2Ga2Pt13
_symmetry_space_group_name_H-M   'P 1'
_cell_length_a   8.38832558
_cell_length_b   8.42508547
_cell_length_c   8.38832580
_cell_angle_alpha   109.42026183
_cell_angle_beta   109.39607575
_cell_angle_gamma   109.42026075
_symmetry_Int_Tables_number   1
_chemical_formula_structural   Nd6Zn2Ga2Pt13
_chemical_formula_sum   'Nd6 Zn2 Ga2 Pt13'
_cell_volume   457.34967911
_cell_formula_units_Z   1
loop_
 _symmetry_equiv_pos_site_id
 _symmetry_equiv_pos_as_xyz
  1  'x, y, z'
loop_
 _atom_site_type_symbol
 _atom_site_label
 _atom_site_symmetry_multiplicity
 _atom_site_fract_x
 _atom_site_fract_y
 _atom_site_fract_z
 _atom_site_occupancy
  Nd  Nd0  1  0.698639  0.700687  0.002048  1
  Nd  Nd1  1  0.301589  0.000000  0.301589  1
  Nd  Nd2  1  0.997952  0.299313  0.301361  1
  Nd  Nd3  1  0.301361  0.299313  0.997952  1
  Nd  Nd4  1  0.698411  0.000000  0.698411  1
  Nd  Nd5  1  0.002048  0.700687  0.698639  1
  Zn  Zn6  1  0.000000  0.000000  0.500000  1
  Zn  Zn7  1  0.500000  0.000000  0.000000  1
  Ga  Ga8  1  0.000000  0.500000  0.000000  1
  Ga  Ga9  1  0.500000  0.500000  0.500000  1
  Pt  Pt10  1  0.324825  0.324717  0.648920  1
  Pt  Pt11  1  0.673208  0.000000  0.326792  1
  Pt  Pt12  1  0.000108  0.675283  0.324203  1
  Pt  Pt13  1  0.675797  0.324717  0.999892  1
  Pt  Pt14  1  0.321538  0.643075  0.321538  1
  Pt  Pt15  1  0.999892  0.324717  0.675797  1
  Pt  Pt16  1  0.324203  0.675283  0.000108  1
  Pt  Pt17  1  0.326792  0.000000  0.673208  1
  Pt  Pt18  1  0.648920  0.324717  0.324825  1
  Pt  Pt19  1  0.675175  0.675283  0.351080  1
  Pt  Pt20  1  0.678462  0.356925  0.678462  1
  Pt  Pt21  1  0.351080  0.675283  0.675175  1
  Pt  Pt22  1  0.000000  0.000000  0.000000  1
