# generated using pymatgen
data_Tb2P7(Ru5Pt)2
_symmetry_space_group_name_H-M   'P 1'
_cell_length_a   9.52142459
_cell_length_b   9.58706153
_cell_length_c   3.89917100
_cell_angle_alpha   90.00000000
_cell_angle_beta   90.00000000
_cell_angle_gamma   120.18687439
_symmetry_Int_Tables_number   1
_chemical_formula_structural   Tb2P7(Ru5Pt)2
_chemical_formula_sum   'Tb2 P7 Ru10 Pt2'
_cell_volume   307.65889070
_cell_formula_units_Z   1
loop_
 _symmetry_equiv_pos_site_id
 _symmetry_equiv_pos_as_xyz
  1  'x, y, z'
loop_
 _atom_site_type_symbol
 _atom_site_label
 _atom_site_symmetry_multiplicity
 _atom_site_fract_x
 _atom_site_fract_y
 _atom_site_fract_z
 _atom_site_occupancy
  Tb  Tb0  1  0.668168  0.333114  0.500000  1
  Tb  Tb1  1  0.324445  0.663244  0.000000  1
  P  P2  1  0.604578  0.710113  0.500000  1
  P  P3  1  0.999101  0.001990  0.000000  1
  P  P4  1  0.278459  0.882528  0.500000  1
  P  P5  1  0.102304  0.402566  0.500000  1
  P  P6  1  0.885320  0.588994  0.000000  1
  P  P7  1  0.414047  0.283247  0.000000  1
  P  P8  1  0.715433  0.124575  0.000000  1
  Ru  Ru9  1  0.899177  0.133481  0.500000  1
  Ru  Ru10  1  0.249789  0.108213  0.500000  1
  Ru  Ru11  1  0.867534  0.772657  0.500000  1
  Ru  Ru12  1  0.727912  0.885840  0.000000  1
  Ru  Ru13  1  0.114907  0.849813  0.000000  1
  Ru  Ru14  1  0.159043  0.269238  0.000000  1
  Ru  Ru15  1  0.443439  0.059117  0.000000  1
  Ru  Ru16  1  0.939382  0.375178  0.000000  1
  Ru  Ru17  1  0.624858  0.560468  0.000000  1
  Ru  Ru18  1  0.054044  0.617716  0.500000  1
  Pt  Pt19  1  0.546292  0.927522  0.500000  1
  Pt  Pt20  1  0.381771  0.450384  0.500000  1
