# generated using pymatgen
data_Hf8Nb2Sn7Au
_symmetry_space_group_name_H-M   'P 1'
_cell_length_a   5.83011500
_cell_length_b   8.67399733
_cell_length_c   8.67387500
_cell_angle_alpha   120.00047612
_cell_angle_beta   90.00059402
_cell_angle_gamma   89.99880529
_symmetry_Int_Tables_number   1
_chemical_formula_structural   Hf8Nb2Sn7Au
_chemical_formula_sum   'Hf8 Nb2 Sn7 Au1'
_cell_volume   379.87272548
_cell_formula_units_Z   1
loop_
 _symmetry_equiv_pos_site_id
 _symmetry_equiv_pos_as_xyz
  1  'x, y, z'
loop_
 _atom_site_type_symbol
 _atom_site_label
 _atom_site_symmetry_multiplicity
 _atom_site_fract_x
 _atom_site_fract_y
 _atom_site_fract_z
 _atom_site_occupancy
  Hf  Hf0  1  0.999999  0.666664  0.333329  1
  Hf  Hf1  1  0.999999  0.333335  0.666671  1
  Hf  Hf2  1  0.745309  0.279626  0.000000  1
  Hf  Hf3  1  0.745310  0.720385  0.720374  1
  Hf  Hf4  1  0.745310  0.000011  0.279626  1
  Hf  Hf5  1  0.254681  0.720374  0.000000  1
  Hf  Hf6  1  0.254684  0.279616  0.279627  1
  Hf  Hf7  1  0.254684  0.999989  0.720373  1
  Nb  Nb8  1  0.500001  0.333335  0.666671  1
  Nb  Nb9  1  0.500001  0.666664  0.333329  1
  Sn  Sn10  1  0.748414  0.614599  0.000000  1
  Sn  Sn11  1  0.748418  0.385426  0.385426  1
  Sn  Sn12  1  0.748418  0.000000  0.614574  1
  Sn  Sn13  1  0.251583  0.385402  0.000000  1
  Sn  Sn14  1  0.251592  0.614576  0.614577  1
  Sn  Sn15  1  0.251592  0.999999  0.385423  1
  Sn  Sn16  1  0.999995  0.000000  0.000000  1
  Au  Au17  1  0.500011  0.999999  0.000000  1
