# generated using pymatgen
data_Tb2ThFe8CoP6
_symmetry_space_group_name_H-M   'P 1'
_cell_length_a   3.75228200
_cell_length_b   10.59714500
_cell_length_c   12.28416500
_cell_angle_alpha   90.00000000
_cell_angle_beta   90.00000000
_cell_angle_gamma   90.00000000
_symmetry_Int_Tables_number   1
_chemical_formula_structural   Tb2ThFe8CoP6
_chemical_formula_sum   'Tb4 Th2 Fe16 Co2 P12'
_cell_volume   488.46110550
_cell_formula_units_Z   2
loop_
 _symmetry_equiv_pos_site_id
 _symmetry_equiv_pos_as_xyz
  1  'x, y, z'
loop_
 _atom_site_type_symbol
 _atom_site_label
 _atom_site_symmetry_multiplicity
 _atom_site_fract_x
 _atom_site_fract_y
 _atom_site_fract_z
 _atom_site_occupancy
  Tb  Tb0  1  0.500000  0.818164  0.205166  1
  Tb  Tb1  1  0.500000  0.181836  0.205166  1
  Tb  Tb2  1  0.000000  0.681836  0.794834  1
  Tb  Tb3  1  0.000000  0.318164  0.794834  1
  Th  Th4  1  0.000000  0.500000  0.525813  1
  Th  Th5  1  0.500000  0.000000  0.474187  1
  Fe  Fe6  1  0.500000  0.500000  0.150391  1
  Fe  Fe7  1  0.000000  0.000000  0.849609  1
  Fe  Fe8  1  0.000000  0.500000  0.988548  1
  Fe  Fe9  1  0.500000  0.000000  0.011452  1
  Fe  Fe10  1  0.500000  0.328172  0.997005  1
  Fe  Fe11  1  0.500000  0.671828  0.997005  1
  Fe  Fe12  1  0.000000  0.171828  0.002995  1
  Fe  Fe13  1  0.000000  0.828172  0.002995  1
  Fe  Fe14  1  0.500000  0.301048  0.428867  1
  Fe  Fe15  1  0.500000  0.698952  0.428867  1
  Fe  Fe16  1  0.000000  0.198952  0.571133  1
  Fe  Fe17  1  0.000000  0.801048  0.571133  1
  Fe  Fe18  1  0.500000  0.883750  0.712623  1
  Fe  Fe19  1  0.500000  0.116250  0.712623  1
  Fe  Fe20  1  0.000000  0.616250  0.287377  1
  Fe  Fe21  1  0.000000  0.383750  0.287377  1
  Co  Co22  1  0.500000  0.500000  0.699908  1
  Co  Co23  1  0.000000  0.000000  0.300092  1
  P  P24  1  0.500000  0.500000  0.885439  1
  P  P25  1  0.000000  0.000000  0.114561  1
  P  P26  1  0.500000  0.500000  0.335798  1
  P  P27  1  0.000000  0.000000  0.664202  1
  P  P28  1  0.500000  0.300411  0.615674  1
  P  P29  1  0.500000  0.699589  0.615674  1
  P  P30  1  0.000000  0.199589  0.384326  1
  P  P31  1  0.000000  0.800411  0.384326  1
  P  P32  1  0.500000  0.850390  0.891275  1
  P  P33  1  0.500000  0.149610  0.891275  1
  P  P34  1  0.000000  0.649610  0.108725  1
  P  P35  1  0.000000  0.350390  0.108725  1
