# generated using pymatgen
data_IrS8Cl3
_symmetry_space_group_name_H-M   'P 1'
_cell_length_a   8.52549366
_cell_length_b   9.67802556
_cell_length_c   9.65682896
_cell_angle_alpha   104.49965586
_cell_angle_beta   114.44392164
_cell_angle_gamma   99.70184607
_symmetry_Int_Tables_number   1
_chemical_formula_structural   IrS8Cl3
_chemical_formula_sum   'Ir2 S16 Cl6'
_cell_volume   667.95134935
_cell_formula_units_Z   2
loop_
 _symmetry_equiv_pos_site_id
 _symmetry_equiv_pos_as_xyz
  1  'x, y, z'
loop_
 _atom_site_type_symbol
 _atom_site_label
 _atom_site_symmetry_multiplicity
 _atom_site_fract_x
 _atom_site_fract_y
 _atom_site_fract_z
 _atom_site_occupancy
  Ir  Ir0  1  0.837391  0.078165  0.881009  1
  Ir  Ir1  1  0.162609  0.921835  0.118991  1
  S  S2  1  0.856711  0.566529  0.890674  1
  S  S3  1  0.143289  0.433471  0.109326  1
  S  S4  1  0.706869  0.389266  0.687626  1
  S  S5  1  0.293131  0.610734  0.312374  1
  S  S6  1  0.773857  0.177683  0.676522  1
  S  S7  1  0.226143  0.822317  0.323478  1
  S  S8  1  0.941585  0.171391  0.569032  1
  S  S9  1  0.058415  0.828609  0.430968  1
  S  S10  1  0.932842  0.280535  0.121123  1
  S  S11  1  0.067158  0.719465  0.878877  1
  S  S12  1  0.695687  0.350437  0.075016  1
  S  S13  1  0.304313  0.649563  0.924984  1
  S  S14  1  0.742433  0.499870  0.287377  1
  S  S15  1  0.257567  0.500130  0.712623  1
  S  S16  1  0.793077  0.713490  0.274512  1
  S  S17  1  0.206923  0.286510  0.725488  1
  Cl  Cl18  1  0.529229  0.043532  0.803726  1
  Cl  Cl19  1  0.470771  0.956468  0.196274  1
  Cl  Cl20  1  0.855318  0.922092  0.043555  1
  Cl  Cl21  1  0.144682  0.077908  0.956445  1
  Cl  Cl22  1  0.746536  0.855586  0.658369  1
  Cl  Cl23  1  0.253464  0.144414  0.341631  1
