# generated using pymatgen
data_Ho2MnAl9Ni2
_symmetry_space_group_name_H-M   'P 1'
_cell_length_a   7.39481098
_cell_length_b   7.39480992
_cell_length_c   9.31525100
_cell_angle_alpha   90.00000000
_cell_angle_beta   90.00000000
_cell_angle_gamma   118.31618330
_symmetry_Int_Tables_number   1
_chemical_formula_structural   Ho2MnAl9Ni2
_chemical_formula_sum   'Ho4 Mn2 Al18 Ni4'
_cell_volume   448.43631216
_cell_formula_units_Z   2
loop_
 _symmetry_equiv_pos_site_id
 _symmetry_equiv_pos_as_xyz
  1  'x, y, z'
loop_
 _atom_site_type_symbol
 _atom_site_label
 _atom_site_symmetry_multiplicity
 _atom_site_fract_x
 _atom_site_fract_y
 _atom_site_fract_z
 _atom_site_occupancy
  Ho  Ho0  1  0.992153  0.678240  0.250000  1
  Ho  Ho1  1  0.007847  0.321760  0.750000  1
  Ho  Ho2  1  0.678240  0.992153  0.250000  1
  Ho  Ho3  1  0.321760  0.007847  0.750000  1
  Mn  Mn4  1  0.000000  0.000000  0.000000  1
  Mn  Mn5  1  0.000000  0.000000  0.500000  1
  Al  Al6  1  0.126620  0.126620  0.250000  1
  Al  Al7  1  0.873380  0.873380  0.750000  1
  Al  Al8  1  0.330107  0.330107  0.542482  1
  Al  Al9  1  0.669893  0.669893  0.042482  1
  Al  Al10  1  0.330107  0.330107  0.957518  1
  Al  Al11  1  0.669893  0.669893  0.457518  1
  Al  Al12  1  0.341029  0.555169  0.250000  1
  Al  Al13  1  0.658971  0.444831  0.750000  1
  Al  Al14  1  0.555169  0.341029  0.250000  1
  Al  Al15  1  0.444831  0.658971  0.750000  1
  Al  Al16  1  0.997763  0.334048  0.072666  1
  Al  Al17  1  0.002237  0.665952  0.572666  1
  Al  Al18  1  0.334048  0.997763  0.427334  1
  Al  Al19  1  0.665952  0.002237  0.927334  1
  Al  Al20  1  0.002237  0.665952  0.927334  1
  Al  Al21  1  0.997763  0.334048  0.427334  1
  Al  Al22  1  0.665952  0.002237  0.572666  1
  Al  Al23  1  0.334048  0.997763  0.072666  1
  Ni  Ni24  1  0.670247  0.329753  0.000000  1
  Ni  Ni25  1  0.329753  0.670247  0.500000  1
  Ni  Ni26  1  0.329753  0.670247  0.000000  1
  Ni  Ni27  1  0.670247  0.329753  0.500000  1
