# generated using pymatgen
data_Ho2Lu3AlSb2
_symmetry_space_group_name_H-M   'P 1'
_cell_length_a   8.77033136
_cell_length_b   8.75593910
_cell_length_c   6.30604000
_cell_angle_alpha   90.00000000
_cell_angle_beta   90.00000000
_cell_angle_gamma   119.94572839
_symmetry_Int_Tables_number   1
_chemical_formula_structural   Ho2Lu3AlSb2
_chemical_formula_sum   'Ho4 Lu6 Al2 Sb4'
_cell_volume   419.60758785
_cell_formula_units_Z   2
loop_
 _symmetry_equiv_pos_site_id
 _symmetry_equiv_pos_as_xyz
  1  'x, y, z'
loop_
 _atom_site_type_symbol
 _atom_site_label
 _atom_site_symmetry_multiplicity
 _atom_site_fract_x
 _atom_site_fract_y
 _atom_site_fract_z
 _atom_site_occupancy
  Ho  Ho0  1  0.008411  0.242781  0.250000  1
  Ho  Ho1  1  0.008411  0.765630  0.750000  1
  Ho  Ho2  1  0.242286  0.232885  0.750000  1
  Ho  Ho3  1  0.242286  0.009400  0.250000  1
  Lu  Lu4  1  0.335461  0.667731  0.000000  1
  Lu  Lu5  1  0.655715  0.327857  0.500000  1
  Lu  Lu6  1  0.655715  0.327857  0.000000  1
  Lu  Lu7  1  0.335461  0.667731  0.500000  1
  Lu  Lu8  1  0.755646  0.998741  0.750000  1
  Lu  Lu9  1  0.755646  0.756905  0.250000  1
  Al  Al10  1  0.398731  0.996715  0.750000  1
  Al  Al11  1  0.398731  0.402015  0.250000  1
  Sb  Sb12  1  0.997613  0.606753  0.250000  1
  Sb  Sb13  1  0.997613  0.390860  0.750000  1
  Sb  Sb14  1  0.606137  0.605634  0.750000  1
  Sb  Sb15  1  0.606137  0.000502  0.250000  1
