# generated using pymatgen
data_Yb2DyYB16
_symmetry_space_group_name_H-M   'P 1'
_cell_length_a   7.11335600
_cell_length_b   7.12036600
_cell_length_c   4.03250400
_cell_angle_alpha   90.00000000
_cell_angle_beta   90.00000000
_cell_angle_gamma   90.00180336
_symmetry_Int_Tables_number   1
_chemical_formula_structural   Yb2DyYB16
_chemical_formula_sum   'Yb2 Dy1 Y1 B16'
_cell_volume   204.24511057
_cell_formula_units_Z   1
loop_
 _symmetry_equiv_pos_site_id
 _symmetry_equiv_pos_as_xyz
  1  'x, y, z'
loop_
 _atom_site_type_symbol
 _atom_site_label
 _atom_site_symmetry_multiplicity
 _atom_site_fract_x
 _atom_site_fract_y
 _atom_site_fract_z
 _atom_site_occupancy
  Yb  Yb0  1  0.183323  0.683403  0.000000  1
  Yb  Yb1  1  0.683254  0.816622  0.000000  1
  Dy  Dy2  1  0.317406  0.182864  0.000000  1
  Y  Y3  1  0.817546  0.317245  0.000000  1
  B  B4  1  0.324361  0.461781  0.500000  1
  B  B5  1  0.676310  0.537804  0.500000  1
  B  B6  1  0.537679  0.324039  0.500000  1
  B  B7  1  0.461963  0.675710  0.500000  1
  B  B8  1  0.999542  0.998134  0.203353  1
  B  B9  1  0.499372  0.501810  0.796659  1
  B  B10  1  0.999542  0.998134  0.796647  1
  B  B11  1  0.499372  0.501810  0.203341  1
  B  B12  1  0.586383  0.086738  0.500000  1
  B  B13  1  0.086599  0.413198  0.500000  1
  B  B14  1  0.913396  0.586439  0.500000  1
  B  B15  1  0.413390  0.913713  0.500000  1
  B  B16  1  0.038046  0.175886  0.500000  1
  B  B17  1  0.176318  0.962421  0.500000  1
  B  B18  1  0.824322  0.037976  0.500000  1
  B  B19  1  0.961875  0.824273  0.500000  1
