# generated using pymatgen
data_Ce3Ge2S8F
_symmetry_space_group_name_H-M   'P 1'
_cell_length_a   7.60981735
_cell_length_b   9.18331652
_cell_length_c   11.21007219
_cell_angle_alpha   101.39785900
_cell_angle_beta   90.02275563
_cell_angle_gamma   114.49712563
_symmetry_Int_Tables_number   1
_chemical_formula_structural   Ce3Ge2S8F
_chemical_formula_sum   'Ce6 Ge4 S16 F2'
_cell_volume   695.83526627
_cell_formula_units_Z   2
loop_
 _symmetry_equiv_pos_site_id
 _symmetry_equiv_pos_as_xyz
  1  'x, y, z'
loop_
 _atom_site_type_symbol
 _atom_site_label
 _atom_site_symmetry_multiplicity
 _atom_site_fract_x
 _atom_site_fract_y
 _atom_site_fract_z
 _atom_site_occupancy
  Ce  Ce0  1  0.343458  0.422737  0.175275  1
  Ce  Ce1  1  0.652516  0.000162  0.250977  1
  Ce  Ce2  1  0.920759  0.577053  0.324478  1
  Ce  Ce3  1  0.079243  0.422948  0.675523  1
  Ce  Ce4  1  0.347483  0.999838  0.749023  1
  Ce  Ce5  1  0.656541  0.577263  0.824725  1
  Ge  Ge6  1  0.703194  0.310858  0.018756  1
  Ge  Ge7  1  0.392693  0.688695  0.481269  1
  Ge  Ge8  1  0.607306  0.311305  0.518731  1
  Ge  Ge9  1  0.296805  0.689142  0.981244  1
  S  S10  1  0.396174  0.141926  0.026905  1
  S  S11  1  0.729872  0.567329  0.089848  1
  S  S12  1  0.911174  0.282887  0.142554  1
  S  S13  1  0.259118  0.719528  0.180189  1
  S  S14  1  0.539141  0.280295  0.319755  1
  S  S15  1  0.628496  0.716581  0.357626  1
  S  S16  1  0.162373  0.432460  0.410105  1
  S  S17  1  0.255095  0.857873  0.472463  1
  S  S18  1  0.744905  0.142127  0.527537  1
  S  S19  1  0.837627  0.567540  0.589894  1
  S  S20  1  0.371503  0.283419  0.642373  1
  S  S21  1  0.460858  0.719704  0.680244  1
  S  S22  1  0.740883  0.280471  0.819812  1
  S  S23  1  0.088826  0.717113  0.857447  1
  S  S24  1  0.270128  0.432671  0.910153  1
  S  S25  1  0.603827  0.858073  0.973094  1
  F  F26  1  0.926303  0.001168  0.251692  1
  F  F27  1  0.073698  0.998832  0.748308  1
