# generated using pymatgen
data_Sc12Ga(WI8)2
_symmetry_space_group_name_H-M   'P 1'
_cell_length_a   9.19216644
_cell_length_b   12.22938187
_cell_length_c   12.88421100
_cell_angle_alpha   116.93167365
_cell_angle_beta   101.04028543
_cell_angle_gamma   100.46294907
_symmetry_Int_Tables_number   1
_chemical_formula_structural   Sc12Ga(WI8)2
_chemical_formula_sum   'Sc12 Ga1 W2 I16'
_cell_volume   1206.33330741
_cell_formula_units_Z   1
loop_
 _symmetry_equiv_pos_site_id
 _symmetry_equiv_pos_as_xyz
  1  'x, y, z'
loop_
 _atom_site_type_symbol
 _atom_site_label
 _atom_site_symmetry_multiplicity
 _atom_site_fract_x
 _atom_site_fract_y
 _atom_site_fract_z
 _atom_site_occupancy
  Sc  Sc0  1  0.101268  0.261021  0.353713  1
  Sc  Sc1  1  0.898732  0.738979  0.646287  1
  Sc  Sc2  1  0.762394  0.537376  0.324057  1
  Sc  Sc3  1  0.237606  0.462624  0.675943  1
  Sc  Sc4  1  0.295473  0.739237  0.646169  1
  Sc  Sc5  1  0.704527  0.260763  0.353831  1
  Sc  Sc6  1  0.161211  0.537473  0.323839  1
  Sc  Sc7  1  0.838789  0.462527  0.676161  1
  Sc  Sc8  1  0.412565  0.369824  0.291209  1
  Sc  Sc9  1  0.587435  0.630176  0.708791  1
  Sc  Sc10  1  0.461884  0.320732  0.519847  1
  Sc  Sc11  1  0.538116  0.679268  0.480153  1
  Ga  Ga12  1  0.000000  0.500000  0.500000  1
  W  W13  1  0.319757  0.500111  0.499925  1
  W  W14  1  0.680244  0.499889  0.500075  1
  I  I15  1  0.391401  0.734847  0.878407  1
  I  I16  1  0.608599  0.265153  0.121593  1
  I  I17  1  0.184416  0.954826  0.777863  1
  I  I18  1  0.815584  0.045174  0.222137  1
  I  I19  1  0.338497  0.101620  0.256438  1
  I  I20  1  0.661503  0.898380  0.743562  1
  I  I21  1  0.563736  0.436726  0.796309  1
  I  I22  1  0.436264  0.563274  0.203691  1
  I  I23  1  0.301718  0.823372  0.462528  1
  I  I24  1  0.698282  0.176628  0.537472  1
  I  I25  1  0.164995  0.177058  0.537117  1
  I  I26  1  0.835005  0.822942  0.462883  1
  I  I27  1  0.926451  0.572907  0.162633  1
  I  I28  1  0.073549  0.427093  0.837367  1
  I  I29  1  0.924849  0.734576  0.878489  1
  I  I30  1  0.075151  0.265424  0.121511  1
