# generated using pymatgen
data_AgHgAuO4
_symmetry_space_group_name_H-M   'P 1'
_cell_length_a   6.80711129
_cell_length_b   6.80711131
_cell_length_c   6.74523808
_cell_angle_alpha   126.38943474
_cell_angle_beta   126.79429095
_cell_angle_gamma   79.54998878
_symmetry_Int_Tables_number   1
_chemical_formula_structural   AgHgAuO4
_chemical_formula_sum   'Ag2 Hg2 Au2 O8'
_cell_volume   194.00889799
_cell_formula_units_Z   2
loop_
 _symmetry_equiv_pos_site_id
 _symmetry_equiv_pos_as_xyz
  1  'x, y, z'
loop_
 _atom_site_type_symbol
 _atom_site_label
 _atom_site_symmetry_multiplicity
 _atom_site_fract_x
 _atom_site_fract_y
 _atom_site_fract_z
 _atom_site_occupancy
  Ag  Ag0  1  0.375000  0.625000  0.750000  1
  Ag  Ag1  1  0.875000  0.625000  0.250000  1
  Hg  Hg2  1  0.751336  0.251336  0.500000  1
  Hg  Hg3  1  0.998664  0.998664  0.000000  1
  Au  Au4  1  0.375000  0.125000  0.750000  1
  Au  Au5  1  0.375000  0.625000  0.250000  1
  O  O6  1  0.044465  0.417513  0.047133  1
  O  O7  1  0.750081  0.288102  0.123874  1
  O  O8  1  0.164228  0.626207  0.876126  1
  O  O9  1  0.370380  0.997334  0.952867  1
  O  O10  1  0.705535  0.832487  0.452867  1
  O  O11  1  0.999919  0.961898  0.376126  1
  O  O12  1  0.379620  0.252666  0.547133  1
  O  O13  1  0.585772  0.623793  0.623874  1
