# generated using pymatgen
data_LaPr3Cr2O12
_symmetry_space_group_name_H-M   'P 1'
_cell_length_a   4.43645223
_cell_length_b   7.49424860
_cell_length_c   8.46683932
_cell_angle_alpha   106.80672562
_cell_angle_beta   89.84194966
_cell_angle_gamma   107.19019232
_symmetry_Int_Tables_number   1
_chemical_formula_structural   LaPr3Cr2O12
_chemical_formula_sum   'La1 Pr3 Cr2 O12'
_cell_volume   256.38747351
_cell_formula_units_Z   1
loop_
 _symmetry_equiv_pos_site_id
 _symmetry_equiv_pos_as_xyz
  1  'x, y, z'
loop_
 _atom_site_type_symbol
 _atom_site_label
 _atom_site_symmetry_multiplicity
 _atom_site_fract_x
 _atom_site_fract_y
 _atom_site_fract_z
 _atom_site_occupancy
  La  La0  1  0.335301  0.654744  0.913698  1
  Pr  Pr1  1  0.662878  0.340688  0.086299  1
  Pr  Pr2  1  0.320554  0.658024  0.415227  1
  Pr  Pr3  1  0.678469  0.339723  0.583118  1
  Cr  Cr4  1  0.043271  0.000473  0.251320  1
  Cr  Cr5  1  0.956901  0.001915  0.749222  1
  O  O6  1  0.266553  0.003067  0.092599  1
  O  O7  1  0.223032  0.485266  0.122749  1
  O  O8  1  0.736220  0.798721  0.201262  1
  O  O9  1  0.925697  0.198350  0.301734  1
  O  O10  1  0.736021  0.513418  0.378511  1
  O  O11  1  0.269064  0.002554  0.409873  1
  O  O12  1  0.731071  0.998801  0.590117  1
  O  O13  1  0.263107  0.485633  0.620354  1
  O  O14  1  0.064729  0.800631  0.699680  1
  O  O15  1  0.270244  0.200293  0.796861  1
  O  O16  1  0.779129  0.509974  0.877334  1
  O  O17  1  0.737762  0.007724  0.910042  1
