# generated using pymatgen
data_La20Sn5Bi3Ru4
_symmetry_space_group_name_H-M   'P 1'
_cell_length_a   8.30956000
_cell_length_b   9.24830509
_cell_length_c   12.78772200
_cell_angle_alpha   89.86742103
_cell_angle_beta   90.04871434
_cell_angle_gamma   89.87140585
_symmetry_Int_Tables_number   1
_chemical_formula_structural   La20Sn5Bi3Ru4
_chemical_formula_sum   'La20 Sn5 Bi3 Ru4'
_cell_volume   982.72260824
_cell_formula_units_Z   1
loop_
 _symmetry_equiv_pos_site_id
 _symmetry_equiv_pos_as_xyz
  1  'x, y, z'
loop_
 _atom_site_type_symbol
 _atom_site_label
 _atom_site_symmetry_multiplicity
 _atom_site_fract_x
 _atom_site_fract_y
 _atom_site_fract_z
 _atom_site_occupancy
  La  La0  1  0.656534  0.744467  0.708946  1
  La  La1  1  0.343083  0.253788  0.289143  1
  La  La2  1  0.155844  0.255070  0.793164  1
  La  La3  1  0.840494  0.748000  0.208842  1
  La  La4  1  0.128792  0.744323  0.802601  1
  La  La5  1  0.866887  0.252865  0.198554  1
  La  La6  1  0.629400  0.255594  0.697430  1
  La  La7  1  0.373776  0.746314  0.300988  1
  La  La8  1  0.554569  0.747731  0.998032  1
  La  La9  1  0.449947  0.252586  0.004487  1
  La  La10  1  0.054604  0.254713  0.503183  1
  La  La11  1  0.945859  0.744642  0.497162  1
  La  La12  1  0.822218  0.464985  0.933136  1
  La  La13  1  0.175858  0.533603  0.067623  1
  La  La14  1  0.323332  0.535013  0.566338  1
  La  La15  1  0.181138  0.966511  0.066018  1
  La  La16  1  0.677296  0.464689  0.432475  1
  La  La17  1  0.824214  0.034105  0.937873  1
  La  La18  1  0.674655  0.033973  0.431084  1
  La  La19  1  0.322808  0.966623  0.564481  1
  Sn  Sn20  1  0.067897  0.505662  0.328131  1
  Sn  Sn21  1  0.568548  0.005382  0.170554  1
  Sn  Sn22  1  0.930884  0.494487  0.671889  1
  Sn  Sn23  1  0.569482  0.495107  0.171076  1
  Sn  Sn24  1  0.430202  0.505293  0.828928  1
  Bi  Bi25  1  0.929109  0.006035  0.672138  1
  Bi  Bi26  1  0.071184  0.993779  0.328565  1
  Bi  Bi27  1  0.429671  0.994744  0.827028  1
  Ru  Ru28  1  0.917938  0.751244  0.983322  1
  Ru  Ru29  1  0.083502  0.247333  0.017874  1
  Ru  Ru30  1  0.417257  0.248396  0.515616  1
  Ru  Ru31  1  0.583018  0.752941  0.483317  1
