# generated using pymatgen
data_Yb2Lu2MoOs7
_symmetry_space_group_name_H-M   'P 1'
_cell_length_a   5.37470800
_cell_length_b   5.37470916
_cell_length_c   8.54681600
_cell_angle_alpha   90.00000000
_cell_angle_beta   90.00000000
_cell_angle_gamma   119.99999289
_symmetry_Int_Tables_number   1
_chemical_formula_structural   Yb2Lu2MoOs7
_chemical_formula_sum   'Yb2 Lu2 Mo1 Os7'
_cell_volume   213.81829386
_cell_formula_units_Z   1
loop_
 _symmetry_equiv_pos_site_id
 _symmetry_equiv_pos_as_xyz
  1  'x, y, z'
loop_
 _atom_site_type_symbol
 _atom_site_label
 _atom_site_symmetry_multiplicity
 _atom_site_fract_x
 _atom_site_fract_y
 _atom_site_fract_z
 _atom_site_occupancy
  Yb  Yb0  1  0.333333  0.666667  0.441791  1
  Yb  Yb1  1  0.666667  0.333333  0.558209  1
  Lu  Lu2  1  0.666667  0.333333  0.925758  1
  Lu  Lu3  1  0.333333  0.666667  0.074242  1
  Mo  Mo4  1  0.000000  0.000000  0.000000  1
  Os  Os5  1  0.173161  0.346323  0.753297  1
  Os  Os6  1  0.173161  0.826839  0.753297  1
  Os  Os7  1  0.346323  0.173161  0.246703  1
  Os  Os8  1  0.826839  0.653677  0.246703  1
  Os  Os9  1  0.653677  0.826839  0.753297  1
  Os  Os10  1  0.826839  0.173161  0.246703  1
  Os  Os11  1  0.000000  0.000000  0.500000  1
