# generated using pymatgen
data_CaYb4Sn2Bi
_symmetry_space_group_name_H-M   'P 1'
_cell_length_a   9.36961278
_cell_length_b   9.36961765
_cell_length_c   9.34156354
_cell_angle_alpha   96.86598495
_cell_angle_beta   96.86585110
_cell_angle_gamma   139.60735965
_symmetry_Int_Tables_number   1
_chemical_formula_structural   CaYb4Sn2Bi
_chemical_formula_sum   'Ca2 Yb8 Sn4 Bi2'
_cell_volume   498.56043080
_cell_formula_units_Z   2
loop_
 _symmetry_equiv_pos_site_id
 _symmetry_equiv_pos_as_xyz
  1  'x, y, z'
loop_
 _atom_site_type_symbol
 _atom_site_label
 _atom_site_symmetry_multiplicity
 _atom_site_fract_x
 _atom_site_fract_y
 _atom_site_fract_z
 _atom_site_occupancy
  Ca  Ca0  1  0.251781  0.751780  0.499999  1
  Ca  Ca1  1  0.748220  0.248220  0.499999  1
  Yb  Yb2  1  0.086956  0.208547  0.295503  1
  Yb  Yb3  1  0.913044  0.791454  0.704498  1
  Yb  Yb4  1  0.789857  0.077207  0.867068  1
  Yb  Yb5  1  0.422793  0.710142  0.132932  1
  Yb  Yb6  1  0.210141  0.922792  0.132932  1
  Yb  Yb7  1  0.577208  0.289859  0.867068  1
  Yb  Yb8  1  0.708546  0.586955  0.295505  1
  Yb  Yb9  1  0.291454  0.413043  0.704496  1
  Sn  Sn10  1  0.345453  0.154548  0.500001  1
  Sn  Sn11  1  0.654546  0.845453  0.500000  1
  Sn  Sn12  1  0.250002  0.249999  0.000000  1
  Sn  Sn13  1  0.749999  0.749999  0.000000  1
  Bi  Bi14  1  0.158951  0.658951  0.817902  1
  Bi  Bi15  1  0.841050  0.341049  0.182097  1
