# generated using pymatgen
data_Tb3Dy5(AgIr)2
_symmetry_space_group_name_H-M   'P 1'
_cell_length_a   9.56750046
_cell_length_b   9.56750118
_cell_length_c   9.56750100
_cell_angle_alpha   59.99999718
_cell_angle_beta   59.99999466
_cell_angle_gamma   60.00000096
_symmetry_Int_Tables_number   1
_chemical_formula_structural   Tb3Dy5(AgIr)2
_chemical_formula_sum   'Tb6 Dy10 Ag4 Ir4'
_cell_volume   619.27066958
_cell_formula_units_Z   2
loop_
 _symmetry_equiv_pos_site_id
 _symmetry_equiv_pos_as_xyz
  1  'x, y, z'
loop_
 _atom_site_type_symbol
 _atom_site_label
 _atom_site_symmetry_multiplicity
 _atom_site_fract_x
 _atom_site_fract_y
 _atom_site_fract_z
 _atom_site_occupancy
  Tb  Tb0  1  0.187294  0.812706  0.812706  1
  Tb  Tb1  1  0.812706  0.187294  0.187294  1
  Tb  Tb2  1  0.812706  0.187294  0.812706  1
  Tb  Tb3  1  0.187294  0.812706  0.187294  1
  Tb  Tb4  1  0.812706  0.812706  0.187294  1
  Tb  Tb5  1  0.187294  0.187294  0.812706  1
  Dy  Dy6  1  0.601337  0.601337  0.601337  1
  Dy  Dy7  1  0.601337  0.601337  0.195991  1
  Dy  Dy8  1  0.601337  0.195991  0.601337  1
  Dy  Dy9  1  0.195991  0.601337  0.601337  1
  Dy  Dy10  1  0.061188  0.438812  0.438812  1
  Dy  Dy11  1  0.438812  0.061188  0.061188  1
  Dy  Dy12  1  0.438812  0.061188  0.438812  1
  Dy  Dy13  1  0.061188  0.438812  0.061188  1
  Dy  Dy14  1  0.438812  0.438812  0.061188  1
  Dy  Dy15  1  0.061188  0.061188  0.438812  1
  Ag  Ag16  1  0.831806  0.831806  0.831806  1
  Ag  Ag17  1  0.831806  0.831806  0.504584  1
  Ag  Ag18  1  0.831806  0.504584  0.831806  1
  Ag  Ag19  1  0.504584  0.831806  0.831806  1
  Ir  Ir20  1  0.392359  0.392359  0.392359  1
  Ir  Ir21  1  0.392359  0.392359  0.822924  1
  Ir  Ir22  1  0.392359  0.822924  0.392359  1
  Ir  Ir23  1  0.822924  0.392359  0.392359  1
