# generated using pymatgen
data_YbInCu3Rh
_symmetry_space_group_name_H-M   'P 1'
_cell_length_a   5.22163007
_cell_length_b   5.22162954
_cell_length_c   5.22163075
_cell_angle_alpha   57.61692315
_cell_angle_beta   57.61692868
_cell_angle_gamma   57.61693103
_symmetry_Int_Tables_number   1
_chemical_formula_structural   YbInCu3Rh
_chemical_formula_sum   'Yb1 In1 Cu3 Rh1'
_cell_volume   95.15639865
_cell_formula_units_Z   1
loop_
 _symmetry_equiv_pos_site_id
 _symmetry_equiv_pos_as_xyz
  1  'x, y, z'
loop_
 _atom_site_type_symbol
 _atom_site_label
 _atom_site_symmetry_multiplicity
 _atom_site_fract_x
 _atom_site_fract_y
 _atom_site_fract_z
 _atom_site_occupancy
  Yb  Yb0  1  0.750979  0.750979  0.750979  1
  In  In1  1  0.003328  0.003328  0.003328  1
  Cu  Cu2  1  0.374705  0.873500  0.374705  1
  Cu  Cu3  1  0.374705  0.374705  0.873500  1
  Cu  Cu4  1  0.873500  0.374705  0.374705  1
  Rh  Rh5  1  0.372783  0.372783  0.372783  1
