# generated using pymatgen
data_Lu3SiGe2Os3
_symmetry_space_group_name_H-M   'P 1'
_cell_length_a   7.13313300
_cell_length_b   7.13313328
_cell_length_c   3.51472700
_cell_angle_alpha   90.00000000
_cell_angle_beta   90.00000000
_cell_angle_gamma   119.99999406
_symmetry_Int_Tables_number   1
_chemical_formula_structural   Lu3SiGe2Os3
_chemical_formula_sum   'Lu3 Si1 Ge2 Os3'
_cell_volume   154.87556931
_cell_formula_units_Z   1
loop_
 _symmetry_equiv_pos_site_id
 _symmetry_equiv_pos_as_xyz
  1  'x, y, z'
loop_
 _atom_site_type_symbol
 _atom_site_label
 _atom_site_symmetry_multiplicity
 _atom_site_fract_x
 _atom_site_fract_y
 _atom_site_fract_z
 _atom_site_occupancy
  Lu  Lu0  1  0.399335  0.399335  0.500000  1
  Lu  Lu1  1  0.600665  0.000000  0.500000  1
  Lu  Lu2  1  0.000000  0.600665  0.500000  1
  Si  Si3  1  0.000000  0.000000  0.500000  1
  Ge  Ge4  1  0.666667  0.333333  0.000000  1
  Ge  Ge5  1  0.333333  0.666667  0.000000  1
  Os  Os6  1  0.755445  0.755445  0.000000  1
  Os  Os7  1  0.244555  0.000000  0.000000  1
  Os  Os8  1  0.000000  0.244555  0.000000  1
