# generated using pymatgen
data_ScTa4NbAl16Ir7
_symmetry_space_group_name_H-M   'P 1'
_cell_length_a   8.60799503
_cell_length_b   8.60878391
_cell_length_c   8.62087514
_cell_angle_alpha   59.97400449
_cell_angle_beta   59.95654351
_cell_angle_gamma   60.09598703
_symmetry_Int_Tables_number   1
_chemical_formula_structural   ScTa4NbAl16Ir7
_chemical_formula_sum   'Sc1 Ta4 Nb1 Al16 Ir7'
_cell_volume   451.82028271
_cell_formula_units_Z   1
loop_
 _symmetry_equiv_pos_site_id
 _symmetry_equiv_pos_as_xyz
  1  'x, y, z'
loop_
 _atom_site_type_symbol
 _atom_site_label
 _atom_site_symmetry_multiplicity
 _atom_site_fract_x
 _atom_site_fract_y
 _atom_site_fract_z
 _atom_site_occupancy
  Sc  Sc0  1  0.187270  0.187771  0.812229  1
  Ta  Ta1  1  0.176282  0.819597  0.822283  1
  Ta  Ta2  1  0.818162  0.177717  0.180403  1
  Ta  Ta3  1  0.820483  0.175658  0.824342  1
  Ta  Ta4  1  0.830757  0.831529  0.168471  1
  Nb  Nb5  1  0.180305  0.816542  0.183458  1
  Al  Al6  1  0.836769  0.836769  0.836685  1
  Al  Al7  1  0.837943  0.837028  0.487931  1
  Al  Al8  1  0.481486  0.838081  0.840387  1
  Al  Al9  1  0.838196  0.482450  0.839781  1
  Al  Al10  1  0.159955  0.159613  0.161919  1
  Al  Al11  1  0.160426  0.160219  0.517550  1
  Al  Al12  1  0.162902  0.512069  0.162972  1
  Al  Al13  1  0.510223  0.163315  0.163231  1
  Al  Al14  1  0.619208  0.619426  0.619761  1
  Al  Al15  1  0.619325  0.619431  0.141370  1
  Al  Al16  1  0.139844  0.622322  0.618822  1
  Al  Al17  1  0.622104  0.140125  0.618784  1
  Al  Al18  1  0.380988  0.381178  0.377678  1
  Al  Al19  1  0.381015  0.381216  0.859875  1
  Al  Al20  1  0.380128  0.858630  0.380569  1
  Al  Al21  1  0.858396  0.380239  0.380574  1
  Ir  Ir22  1  0.497942  0.499374  0.500626  1
  Ir  Ir23  1  0.997433  0.501688  0.498312  1
  Ir  Ir24  1  0.503253  0.998895  0.001105  1
  Ir  Ir25  1  0.502827  0.998076  0.497359  1
  Ir  Ir26  1  0.499679  0.498579  0.000178  1
  Ir  Ir27  1  0.998262  0.502641  0.001924  1
  Ir  Ir28  1  0.998436  0.999822  0.501421  1
