# generated using pymatgen
data_Hf8Co7Si14Tc
_symmetry_space_group_name_H-M   'P 1'
_cell_length_a   9.45850812
_cell_length_b   9.46959934
_cell_length_c   9.48178797
_cell_angle_alpha   94.19420287
_cell_angle_beta   94.13170453
_cell_angle_gamma   148.70742304
_symmetry_Int_Tables_number   1
_chemical_formula_structural   Hf8Co7Si14Tc
_chemical_formula_sum   'Hf8 Co7 Si14 Tc1'
_cell_volume   424.83672107
_cell_formula_units_Z   1
loop_
 _symmetry_equiv_pos_site_id
 _symmetry_equiv_pos_as_xyz
  1  'x, y, z'
loop_
 _atom_site_type_symbol
 _atom_site_label
 _atom_site_symmetry_multiplicity
 _atom_site_fract_x
 _atom_site_fract_y
 _atom_site_fract_z
 _atom_site_occupancy
  Hf  Hf0  1  0.137586  0.137567  0.275232  1
  Hf  Hf1  1  0.862475  0.862466  0.724849  1
  Hf  Hf2  1  0.135991  0.860271  0.998741  1
  Hf  Hf3  1  0.862735  0.138458  0.998733  1
  Hf  Hf4  1  0.304745  0.498463  0.803221  1
  Hf  Hf5  1  0.696075  0.499917  0.196078  1
  Hf  Hf6  1  0.500014  0.696168  0.196060  1
  Hf  Hf7  1  0.498454  0.304742  0.803202  1
  Co  Co8  1  0.396455  0.896459  0.792921  1
  Co  Co9  1  0.896566  0.100086  0.500941  1
  Co  Co10  1  0.604385  0.400821  0.500948  1
  Co  Co11  1  0.601355  0.101370  0.202713  1
  Co  Co12  1  0.898400  0.398399  0.796800  1
  Co  Co13  1  0.103262  0.900491  0.501208  1
  Co  Co14  1  0.397911  0.600715  0.501200  1
  Si  Si15  1  0.290065  0.290024  0.580032  1
  Si  Si16  1  0.709753  0.709717  0.419530  1
  Si  Si17  1  0.299407  0.716603  0.994385  1
  Si  Si18  1  0.694986  0.277791  0.994372  1
  Si  Si19  1  0.089609  0.496521  0.593119  1
  Si  Si20  1  0.900891  0.493440  0.413256  1
  Si  Si21  1  0.512354  0.919835  0.413253  1
  Si  Si22  1  0.503474  0.096596  0.593119  1
  Si  Si23  1  0.249601  0.250247  0.999594  1
  Si  Si24  1  0.750016  0.749383  0.999595  1
  Si  Si25  1  0.306189  0.011578  0.301734  1
  Si  Si26  1  0.700510  0.000666  0.699664  1
  Si  Si27  1  0.999134  0.699001  0.699653  1
  Si  Si28  1  0.995540  0.290150  0.301703  1
  Tc  Tc29  1  0.102061  0.602059  0.204145  1
