# generated using pymatgen
data_KTm(GeO3)2
_symmetry_space_group_name_H-M   'P 1'
_cell_length_a   7.23370172
_cell_length_b   7.23370214
_cell_length_c   5.75911011
_cell_angle_alpha   79.48623234
_cell_angle_beta   79.48622605
_cell_angle_gamma   85.70717642
_symmetry_Int_Tables_number   1
_chemical_formula_structural   KTm(GeO3)2
_chemical_formula_sum   'K2 Tm2 Ge4 O12'
_cell_volume   291.05056959
_cell_formula_units_Z   2
loop_
 _symmetry_equiv_pos_site_id
 _symmetry_equiv_pos_as_xyz
  1  'x, y, z'
loop_
 _atom_site_type_symbol
 _atom_site_label
 _atom_site_symmetry_multiplicity
 _atom_site_fract_x
 _atom_site_fract_y
 _atom_site_fract_z
 _atom_site_occupancy
  K  K0  1  0.316629  0.683371  0.750000  1
  K  K1  1  0.683371  0.316629  0.250000  1
  Tm  Tm2  1  0.893218  0.106782  0.750000  1
  Tm  Tm3  1  0.106782  0.893218  0.250000  1
  Ge  Ge4  1  0.196088  0.370541  0.287679  1
  Ge  Ge5  1  0.803912  0.629459  0.712321  1
  Ge  Ge6  1  0.629459  0.803912  0.212321  1
  Ge  Ge7  1  0.370541  0.196088  0.787679  1
  O  O8  1  0.636171  0.666730  0.977933  1
  O  O9  1  0.333270  0.363829  0.522067  1
  O  O10  1  0.363829  0.333270  0.022067  1
  O  O11  1  0.666730  0.636171  0.477933  1
  O  O12  1  0.400297  0.893660  0.281252  1
  O  O13  1  0.106340  0.599703  0.218748  1
  O  O14  1  0.599703  0.106340  0.718748  1
  O  O15  1  0.893660  0.400297  0.781252  1
  O  O16  1  0.958291  0.818271  0.630762  1
  O  O17  1  0.181729  0.041709  0.869238  1
  O  O18  1  0.041709  0.181729  0.369238  1
  O  O19  1  0.818271  0.958291  0.130762  1
