# generated using pymatgen
data_Gd(TiZn2)2
_symmetry_space_group_name_H-M   'P 1'
_cell_length_a   5.49185990
_cell_length_b   5.49185957
_cell_length_c   5.49186000
_cell_angle_alpha   101.38304268
_cell_angle_beta   101.38304200
_cell_angle_gamma   127.24795717
_symmetry_Int_Tables_number   1
_chemical_formula_structural   Gd(TiZn2)2
_chemical_formula_sum   'Gd1 Ti2 Zn4'
_cell_volume   118.12524283
_cell_formula_units_Z   1
loop_
 _symmetry_equiv_pos_site_id
 _symmetry_equiv_pos_as_xyz
  1  'x, y, z'
loop_
 _atom_site_type_symbol
 _atom_site_label
 _atom_site_symmetry_multiplicity
 _atom_site_fract_x
 _atom_site_fract_y
 _atom_site_fract_z
 _atom_site_occupancy
  Gd  Gd0  1  0.000000  0.000000  0.000000  1
  Ti  Ti1  1  0.250000  0.750000  0.500000  1
  Ti  Ti2  1  0.750000  0.250000  0.500000  1
  Zn  Zn3  1  0.306919  0.306919  0.613837  1
  Zn  Zn4  1  0.693081  0.693081  0.386163  1
  Zn  Zn5  1  0.693081  0.306919  0.000000  1
  Zn  Zn6  1  0.306919  0.693081  0.000000  1
