# generated using pymatgen
data_Dy2MnCr2O8
_symmetry_space_group_name_H-M   'P 1'
_cell_length_a   6.25392020
_cell_length_b   6.25392091
_cell_length_c   5.12928753
_cell_angle_alpha   71.98207754
_cell_angle_beta   71.98206963
_cell_angle_gamma   57.86231835
_symmetry_Int_Tables_number   1
_chemical_formula_structural   Dy2MnCr2O8
_chemical_formula_sum   'Dy2 Mn1 Cr2 O8'
_cell_volume   158.91161882
_cell_formula_units_Z   1
loop_
 _symmetry_equiv_pos_site_id
 _symmetry_equiv_pos_as_xyz
  1  'x, y, z'
loop_
 _atom_site_type_symbol
 _atom_site_label
 _atom_site_symmetry_multiplicity
 _atom_site_fract_x
 _atom_site_fract_y
 _atom_site_fract_z
 _atom_site_occupancy
  Dy  Dy0  1  0.721745  0.721778  0.337287  1
  Dy  Dy1  1  0.278222  0.278255  0.662713  1
  Mn  Mn2  1  0.743826  0.256174  0.000000  1
  Cr  Cr3  1  0.998928  0.001072  0.500000  1
  Cr  Cr4  1  0.257452  0.742548  0.000000  1
  O  O5  1  0.407203  0.384218  0.938774  1
  O  O6  1  0.615782  0.592797  0.061226  1
  O  O7  1  0.890756  0.906580  0.916008  1
  O  O8  1  0.093420  0.109244  0.083992  1
  O  O9  1  0.337239  0.893748  0.595682  1
  O  O10  1  0.885392  0.336215  0.609679  1
  O  O11  1  0.106252  0.662761  0.404318  1
  O  O12  1  0.663785  0.114608  0.390321  1
