# generated using pymatgen
data_PuSCl9
_symmetry_space_group_name_H-M   'P 1'
_cell_length_a   8.32786079
_cell_length_b   8.32786178
_cell_length_c   14.64349929
_cell_angle_alpha   75.67309317
_cell_angle_beta   75.67309049
_cell_angle_gamma   62.25571110
_symmetry_Int_Tables_number   1
_chemical_formula_structural   PuSCl9
_chemical_formula_sum   'Pu2 S2 Cl18'
_cell_volume   860.44396554
_cell_formula_units_Z   2
loop_
 _symmetry_equiv_pos_site_id
 _symmetry_equiv_pos_as_xyz
  1  'x, y, z'
loop_
 _atom_site_type_symbol
 _atom_site_label
 _atom_site_symmetry_multiplicity
 _atom_site_fract_x
 _atom_site_fract_y
 _atom_site_fract_z
 _atom_site_occupancy
  Pu  Pu0  1  0.000000  0.000000  0.000000  1
  Pu  Pu1  1  0.500000  0.500000  0.500000  1
  S  S2  1  0.844904  0.844904  0.721449  1
  S  S3  1  0.155096  0.155096  0.278551  1
  Cl  Cl4  1  0.039723  0.403027  0.200586  1
  Cl  Cl5  1  0.276644  0.693789  0.383571  1
  Cl  Cl6  1  0.306211  0.723356  0.616429  1
  Cl  Cl7  1  0.403027  0.039723  0.200586  1
  Cl  Cl8  1  0.693789  0.276644  0.383571  1
  Cl  Cl9  1  0.684505  0.684505  0.432139  1
  Cl  Cl10  1  0.213608  0.213608  0.388543  1
  Cl  Cl11  1  0.596973  0.960277  0.799414  1
  Cl  Cl12  1  0.711451  0.288549  0.000000  1
  Cl  Cl13  1  0.723356  0.306211  0.616429  1
  Cl  Cl14  1  0.960277  0.596973  0.799414  1
  Cl  Cl15  1  0.786392  0.786392  0.611457  1
  Cl  Cl16  1  0.814148  0.814148  0.050757  1
  Cl  Cl17  1  0.994529  0.994529  0.175725  1
  Cl  Cl18  1  0.315495  0.315495  0.567861  1
  Cl  Cl19  1  0.185852  0.185852  0.949243  1
  Cl  Cl20  1  0.288549  0.711451  0.000000  1
  Cl  Cl21  1  0.005471  0.005471  0.824275  1
