# generated using pymatgen
data_Ca3Y7(AgPb3)2
_symmetry_space_group_name_H-M   'P 1'
_cell_length_a   9.32703000
_cell_length_b   9.32703007
_cell_length_c   6.93179100
_cell_angle_alpha   90.00000000
_cell_angle_beta   90.00000000
_cell_angle_gamma   119.99999976
_symmetry_Int_Tables_number   1
_chemical_formula_structural   Ca3Y7(AgPb3)2
_chemical_formula_sum   'Ca3 Y7 Ag2 Pb6'
_cell_volume   522.23123422
_cell_formula_units_Z   1
loop_
 _symmetry_equiv_pos_site_id
 _symmetry_equiv_pos_as_xyz
  1  'x, y, z'
loop_
 _atom_site_type_symbol
 _atom_site_label
 _atom_site_symmetry_multiplicity
 _atom_site_fract_x
 _atom_site_fract_y
 _atom_site_fract_z
 _atom_site_occupancy
  Ca  Ca0  1  0.333333  0.666667  0.000000  1
  Ca  Ca1  1  0.666667  0.333333  0.000000  1
  Ca  Ca2  1  0.666667  0.333333  0.500000  1
  Y  Y3  1  0.265261  0.000648  0.248946  1
  Y  Y4  1  0.735387  0.000648  0.751054  1
  Y  Y5  1  0.999352  0.264613  0.248946  1
  Y  Y6  1  0.999352  0.734739  0.751054  1
  Y  Y7  1  0.735387  0.734739  0.248946  1
  Y  Y8  1  0.265261  0.264613  0.751054  1
  Y  Y9  1  0.333333  0.666667  0.500000  1
  Ag  Ag10  1  0.000000  0.000000  0.000000  1
  Ag  Ag11  1  0.000000  0.000000  0.500000  1
  Pb  Pb12  1  0.612974  0.996918  0.254214  1
  Pb  Pb13  1  0.383943  0.996918  0.745786  1
  Pb  Pb14  1  0.003082  0.616057  0.254214  1
  Pb  Pb15  1  0.003082  0.387026  0.745786  1
  Pb  Pb16  1  0.383943  0.387026  0.254214  1
  Pb  Pb17  1  0.612974  0.616057  0.745786  1
