# generated using pymatgen
data_Y16MgHg3Rh4
_symmetry_space_group_name_H-M   'P 1'
_cell_length_a   9.65376927
_cell_length_b   9.63886701
_cell_length_c   9.63886700
_cell_angle_alpha   60.00000348
_cell_angle_beta   60.05105463
_cell_angle_gamma   60.05105242
_symmetry_Int_Tables_number   1
_chemical_formula_structural   Y16MgHg3Rh4
_chemical_formula_sum   'Y16 Mg1 Hg3 Rh4'
_cell_volume   634.70015978
_cell_formula_units_Z   1
loop_
 _symmetry_equiv_pos_site_id
 _symmetry_equiv_pos_as_xyz
  1  'x, y, z'
loop_
 _atom_site_type_symbol
 _atom_site_label
 _atom_site_symmetry_multiplicity
 _atom_site_fract_x
 _atom_site_fract_y
 _atom_site_fract_z
 _atom_site_occupancy
  Y  Y0  1  0.601447  0.599132  0.599132  1
  Y  Y1  1  0.601447  0.599132  0.200291  1
  Y  Y2  1  0.601447  0.200291  0.599132  1
  Y  Y3  1  0.190684  0.603106  0.603106  1
  Y  Y4  1  0.060245  0.439743  0.439743  1
  Y  Y5  1  0.436268  0.062908  0.062908  1
  Y  Y6  1  0.436268  0.062908  0.437915  1
  Y  Y7  1  0.060245  0.439743  0.060270  1
  Y  Y8  1  0.436268  0.437915  0.062908  1
  Y  Y9  1  0.060245  0.060270  0.439743  1
  Y  Y10  1  0.184300  0.814284  0.814284  1
  Y  Y11  1  0.813105  0.186184  0.186184  1
  Y  Y12  1  0.813105  0.186184  0.814527  1
  Y  Y13  1  0.184300  0.814284  0.187132  1
  Y  Y14  1  0.813105  0.814527  0.186184  1
  Y  Y15  1  0.184300  0.187132  0.814284  1
  Mg  Mg16  1  0.533579  0.822140  0.822140  1
  Hg  Hg17  1  0.831247  0.835742  0.835742  1
  Hg  Hg18  1  0.831247  0.835742  0.497268  1
  Hg  Hg19  1  0.831247  0.497268  0.835742  1
  Rh  Rh20  1  0.391214  0.393884  0.393884  1
  Rh  Rh21  1  0.391214  0.393884  0.821019  1
  Rh  Rh22  1  0.391214  0.821019  0.393884  1
  Rh  Rh23  1  0.822261  0.392580  0.392580  1
