# generated using pymatgen
data_LaSm(P2Rh3)2
_symmetry_space_group_name_H-M   'P 1'
_cell_length_a   3.97455900
_cell_length_b   11.33972992
_cell_length_c   12.95129103
_cell_angle_alpha   90.13536039
_cell_angle_beta   90.00000000
_cell_angle_gamma   90.00000000
_symmetry_Int_Tables_number   1
_chemical_formula_structural   LaSm(P2Rh3)2
_chemical_formula_sum   'La3 Sm3 P12 Rh18'
_cell_volume   583.71856978
_cell_formula_units_Z   3
loop_
 _symmetry_equiv_pos_site_id
 _symmetry_equiv_pos_as_xyz
  1  'x, y, z'
loop_
 _atom_site_type_symbol
 _atom_site_label
 _atom_site_symmetry_multiplicity
 _atom_site_fract_x
 _atom_site_fract_y
 _atom_site_fract_z
 _atom_site_occupancy
  La  La0  1  0.000000  0.499670  0.522285  1
  La  La1  1  0.500000  0.000864  0.478806  1
  La  La2  1  0.500000  0.816399  0.204620  1
  Sm  Sm3  1  0.500000  0.185857  0.203191  1
  Sm  Sm4  1  0.000000  0.684417  0.796305  1
  Sm  Sm5  1  0.000000  0.314411  0.795708  1
  P  P6  1  0.500000  0.499079  0.880814  1
  P  P7  1  0.000000  0.001855  0.116551  1
  P  P8  1  0.500000  0.500194  0.345925  1
  P  P9  1  0.000000  0.999779  0.654355  1
  P  P10  1  0.500000  0.311232  0.618558  1
  P  P11  1  0.500000  0.688369  0.620054  1
  P  P12  1  0.000000  0.189271  0.381230  1
  P  P13  1  0.000000  0.810589  0.384938  1
  P  P14  1  0.500000  0.845271  0.894049  1
  P  P15  1  0.500000  0.154601  0.893229  1
  P  P16  1  0.000000  0.650749  0.104939  1
  P  P17  1  0.000000  0.346648  0.105616  1
  Rh  Rh18  1  0.500000  0.500921  0.167558  1
  Rh  Rh19  1  0.000000  0.001271  0.832340  1
  Rh  Rh20  1  0.500000  0.499517  0.703959  1
  Rh  Rh21  1  0.000000  0.001103  0.296442  1
  Rh  Rh22  1  0.000000  0.499140  0.980316  1
  Rh  Rh23  1  0.500000  0.001136  0.015921  1
  Rh  Rh24  1  0.500000  0.334651  0.995147  1
  Rh  Rh25  1  0.500000  0.664421  0.994028  1
  Rh  Rh26  1  0.000000  0.166496  0.004359  1
  Rh  Rh27  1  0.000000  0.834614  0.002242  1
  Rh  Rh28  1  0.500000  0.293045  0.429358  1
  Rh  Rh29  1  0.500000  0.706446  0.431853  1
  Rh  Rh30  1  0.000000  0.207501  0.570672  1
  Rh  Rh31  1  0.000000  0.793520  0.572200  1
  Rh  Rh32  1  0.500000  0.874411  0.713505  1
  Rh  Rh33  1  0.500000  0.125297  0.712194  1
  Rh  Rh34  1  0.000000  0.623438  0.289764  1
  Rh  Rh35  1  0.000000  0.373816  0.286968  1
