# generated using pymatgen
data_Yb(Tm3Se4)2
_symmetry_space_group_name_H-M   'P 1'
_cell_length_a   8.03228875
_cell_length_b   8.05550870
_cell_length_c   8.03228900
_cell_angle_alpha   120.09567486
_cell_angle_beta   89.80450763
_cell_angle_gamma   120.09567411
_symmetry_Int_Tables_number   1
_chemical_formula_structural   Yb(Tm3Se4)2
_chemical_formula_sum   'Yb1 Tm6 Se8'
_cell_volume   367.06150304
_cell_formula_units_Z   1
loop_
 _symmetry_equiv_pos_site_id
 _symmetry_equiv_pos_as_xyz
  1  'x, y, z'
loop_
 _atom_site_type_symbol
 _atom_site_label
 _atom_site_symmetry_multiplicity
 _atom_site_fract_x
 _atom_site_fract_y
 _atom_site_fract_z
 _atom_site_occupancy
  Yb  Yb0  1  0.250002  0.000001  0.750000  1
  Tm  Tm1  1  0.249997  0.999994  0.249996  1
  Tm  Tm2  1  0.250001  0.500001  0.249997  1
  Tm  Tm3  1  0.750002  0.000000  0.249999  1
  Tm  Tm4  1  0.250006  0.500004  0.750002  1
  Tm  Tm5  1  0.749996  0.999999  0.750005  1
  Tm  Tm6  1  0.749994  0.500000  0.750003  1
  Se  Se7  1  0.998754  0.000003  0.001250  1
  Se  Se8  1  0.501249  0.999999  0.498751  1
  Se  Se9  1  0.996884  0.998516  0.496886  1
  Se  Se10  1  0.996884  0.495251  0.496885  1
  Se  Se11  1  0.502687  0.500001  0.497313  1
  Se  Se12  1  0.997314  0.499999  0.002686  1
  Se  Se13  1  0.503116  0.504748  0.003118  1
  Se  Se14  1  0.503117  0.001486  0.003118  1
