# generated using pymatgen
data_Hf8Ti6Nb3Si16Mo3
_symmetry_space_group_name_H-M   'P 1'
_cell_length_a   6.57059239
_cell_length_b   6.74918967
_cell_length_c   12.97058254
_cell_angle_alpha   89.96120337
_cell_angle_beta   89.99164176
_cell_angle_gamma   89.98633656
_symmetry_Int_Tables_number   1
_chemical_formula_structural   Hf8Ti6Nb3Si16Mo3
_chemical_formula_sum   'Hf8 Ti6 Nb3 Si16 Mo3'
_cell_volume   575.19555932
_cell_formula_units_Z   1
loop_
 _symmetry_equiv_pos_site_id
 _symmetry_equiv_pos_as_xyz
  1  'x, y, z'
loop_
 _atom_site_type_symbol
 _atom_site_label
 _atom_site_symmetry_multiplicity
 _atom_site_fract_x
 _atom_site_fract_y
 _atom_site_fract_z
 _atom_site_occupancy
  Hf  Hf0  1  0.496481  0.328004  0.092893  1
  Hf  Hf1  1  0.997560  0.172243  0.407190  1
  Hf  Hf2  1  0.502880  0.673849  0.591544  1
  Hf  Hf3  1  0.001815  0.826392  0.908962  1
  Hf  Hf4  1  0.505432  0.671818  0.908312  1
  Hf  Hf5  1  0.003772  0.828996  0.591549  1
  Hf  Hf6  1  0.495416  0.328090  0.406588  1
  Hf  Hf7  1  0.996528  0.172036  0.093202  1
  Ti  Ti8  1  0.833850  0.330561  0.624151  1
  Ti  Ti9  1  0.334025  0.168483  0.876219  1
  Ti  Ti10  1  0.166768  0.668433  0.125265  1
  Ti  Ti11  1  0.666911  0.831172  0.374029  1
  Ti  Ti12  1  0.164501  0.666964  0.374425  1
  Ti  Ti13  1  0.665455  0.832716  0.126106  1
  Nb  Nb14  1  0.832296  0.330898  0.877377  1
  Nb  Nb15  1  0.334493  0.167764  0.622352  1
  Nb  Nb16  1  0.661206  0.004562  0.749951  1
  Si  Si17  1  0.673941  0.038407  0.535612  1
  Si  Si18  1  0.173542  0.461731  0.962518  1
  Si  Si19  1  0.328493  0.960725  0.039425  1
  Si  Si20  1  0.828824  0.539022  0.461188  1
  Si  Si21  1  0.330151  0.957470  0.457750  1
  Si  Si22  1  0.830574  0.541916  0.041915  1
  Si  Si23  1  0.667703  0.035207  0.964146  1
  Si  Si24  1  0.168292  0.464291  0.537486  1
  Si  Si25  1  0.531780  0.388713  0.749613  1
  Si  Si26  1  0.037898  0.115839  0.750374  1
  Si  Si27  1  0.465125  0.615768  0.250079  1
  Si  Si28  1  0.966174  0.884840  0.250002  1
  Si  Si29  1  0.798038  0.638145  0.748307  1
  Si  Si30  1  0.292622  0.856851  0.751885  1
  Si  Si31  1  0.203359  0.360495  0.249959  1
  Si  Si32  1  0.704076  0.140265  0.250046  1
  Mo  Mo33  1  0.160446  0.496335  0.749835  1
  Mo  Mo34  1  0.339990  0.995788  0.249735  1
  Mo  Mo35  1  0.839584  0.505211  0.250011  1
