# generated using pymatgen
data_BaNaAsO3
_symmetry_space_group_name_H-M   'P 1'
_cell_length_a   5.92895019
_cell_length_b   5.92895005
_cell_length_c   6.75780805
_cell_angle_alpha   89.79783302
_cell_angle_beta   89.79783610
_cell_angle_gamma   60.12927683
_symmetry_Int_Tables_number   1
_chemical_formula_structural   BaNaAsO3
_chemical_formula_sum   'Ba2 Na2 As2 O6'
_cell_volume   205.99313220
_cell_formula_units_Z   2
loop_
 _symmetry_equiv_pos_site_id
 _symmetry_equiv_pos_as_xyz
  1  'x, y, z'
loop_
 _atom_site_type_symbol
 _atom_site_label
 _atom_site_symmetry_multiplicity
 _atom_site_fract_x
 _atom_site_fract_y
 _atom_site_fract_z
 _atom_site_occupancy
  Ba  Ba0  1  0.334170  0.334170  0.346243  1
  Ba  Ba1  1  0.665829  0.665829  0.653757  1
  Na  Na2  1  0.000000  0.000000  0.000000  1
  Na  Na3  1  0.000000  0.000000  0.500000  1
  As  As4  1  0.670992  0.670992  0.159405  1
  As  As5  1  0.329007  0.329007  0.840595  1
  O  O6  1  0.830389  0.830389  0.263840  1
  O  O7  1  0.829738  0.370423  0.293650  1
  O  O8  1  0.370423  0.829738  0.293650  1
  O  O9  1  0.629577  0.170262  0.706350  1
  O  O10  1  0.170262  0.629577  0.706350  1
  O  O11  1  0.169611  0.169611  0.736160  1
