# generated using pymatgen
data_Yb2MnSiPd13
_symmetry_space_group_name_H-M   'P 1'
_cell_length_a   8.91287731
_cell_length_b   8.90075900
_cell_length_c   7.02021354
_cell_angle_alpha   90.00000000
_cell_angle_beta   90.45180018
_cell_angle_gamma   90.00000000
_symmetry_Int_Tables_number   1
_chemical_formula_structural   Yb2MnSiPd13
_chemical_formula_sum   'Yb4 Mn2 Si2 Pd26'
_cell_volume   556.90586360
_cell_formula_units_Z   2
loop_
 _symmetry_equiv_pos_site_id
 _symmetry_equiv_pos_as_xyz
  1  'x, y, z'
loop_
 _atom_site_type_symbol
 _atom_site_label
 _atom_site_symmetry_multiplicity
 _atom_site_fract_x
 _atom_site_fract_y
 _atom_site_fract_z
 _atom_site_occupancy
  Yb  Yb0  1  0.515843  0.000000  0.935512  1
  Yb  Yb1  1  0.984157  0.500000  0.064488  1
  Yb  Yb2  1  0.002949  0.000000  0.498744  1
  Yb  Yb3  1  0.497051  0.500000  0.501256  1
  Mn  Mn4  1  0.250000  0.750000  0.000000  1
  Mn  Mn5  1  0.250000  0.250000  0.000000  1
  Si  Si6  1  0.503465  0.000000  0.442607  1
  Si  Si7  1  0.996535  0.500000  0.557393  1
  Pd  Pd8  1  0.334826  0.834822  0.614981  1
  Pd  Pd9  1  0.334826  0.165178  0.614981  1
  Pd  Pd10  1  0.666342  0.832895  0.618653  1
  Pd  Pd11  1  0.666342  0.167105  0.618653  1
  Pd  Pd12  1  0.165174  0.665178  0.385019  1
  Pd  Pd13  1  0.165174  0.334822  0.385019  1
  Pd  Pd14  1  0.833658  0.667105  0.381347  1
  Pd  Pd15  1  0.833658  0.332895  0.381347  1
  Pd  Pd16  1  0.497058  0.768715  0.252807  1
  Pd  Pd17  1  0.497058  0.231285  0.252807  1
  Pd  Pd18  1  0.271825  0.000000  0.250441  1
  Pd  Pd19  1  0.734183  0.000000  0.256216  1
  Pd  Pd20  1  0.002942  0.731285  0.747193  1
  Pd  Pd21  1  0.002942  0.268715  0.747193  1
  Pd  Pd22  1  0.228175  0.500000  0.749559  1
  Pd  Pd23  1  0.765817  0.500000  0.743784  1
  Pd  Pd24  1  0.492693  0.344973  0.859322  1
  Pd  Pd25  1  0.492693  0.655027  0.859322  1
  Pd  Pd26  1  0.856075  0.000000  0.852061  1
  Pd  Pd27  1  0.164256  0.000000  0.861245  1
  Pd  Pd28  1  0.007307  0.155027  0.140678  1
  Pd  Pd29  1  0.007307  0.844973  0.140678  1
  Pd  Pd30  1  0.643925  0.500000  0.147939  1
  Pd  Pd31  1  0.335744  0.500000  0.138755  1
  Pd  Pd32  1  0.750000  0.750000  0.000000  1
  Pd  Pd33  1  0.750000  0.250000  0.000000  1
