# generated using pymatgen
data_Sc20Sn5Bi3Se4
_symmetry_space_group_name_H-M   'P 1'
_cell_length_a   7.48689194
_cell_length_b   8.64618685
_cell_length_c   11.25319705
_cell_angle_alpha   90.00588712
_cell_angle_beta   89.93116608
_cell_angle_gamma   89.92527065
_symmetry_Int_Tables_number   1
_chemical_formula_structural   Sc20Sn5Bi3Se4
_chemical_formula_sum   'Sc20 Sn5 Bi3 Se4'
_cell_volume   728.45280528
_cell_formula_units_Z   1
loop_
 _symmetry_equiv_pos_site_id
 _symmetry_equiv_pos_as_xyz
  1  'x, y, z'
loop_
 _atom_site_type_symbol
 _atom_site_label
 _atom_site_symmetry_multiplicity
 _atom_site_fract_x
 _atom_site_fract_y
 _atom_site_fract_z
 _atom_site_occupancy
  Sc  Sc0  1  0.192059  0.055645  0.939394  1
  Sc  Sc1  1  0.313343  0.055691  0.434444  1
  Sc  Sc2  1  0.312239  0.442278  0.440150  1
  Sc  Sc3  1  0.347507  0.745604  0.713513  1
  Sc  Sc4  1  0.470449  0.753145  0.999316  1
  Sc  Sc5  1  0.144336  0.242311  0.211455  1
  Sc  Sc6  1  0.811011  0.945413  0.064040  1
  Sc  Sc7  1  0.643728  0.757721  0.288754  1
  Sc  Sc8  1  0.031703  0.749201  0.502051  1
  Sc  Sc9  1  0.686332  0.943430  0.563152  1
  Sc  Sc10  1  0.187575  0.444420  0.933818  1
  Sc  Sc11  1  0.360058  0.253717  0.713499  1
  Sc  Sc12  1  0.154298  0.759213  0.210024  1
  Sc  Sc13  1  0.969301  0.250231  0.498259  1
  Sc  Sc14  1  0.687253  0.555419  0.566085  1
  Sc  Sc15  1  0.654139  0.241356  0.289123  1
  Sc  Sc16  1  0.812102  0.557517  0.059301  1
  Sc  Sc17  1  0.531803  0.247040  0.996238  1
  Sc  Sc18  1  0.840298  0.254319  0.788340  1
  Sc  Sc19  1  0.850778  0.746194  0.788639  1
  Sn  Sn20  1  0.069703  0.491167  0.672997  1
  Sn  Sn21  1  0.569736  0.507925  0.828169  1
  Sn  Sn22  1  0.929767  0.991599  0.328254  1
  Sn  Sn23  1  0.430201  0.008105  0.172497  1
  Sn  Sn24  1  0.570446  0.991833  0.825189  1
  Bi  Bi25  1  0.428321  0.491661  0.174877  1
  Bi  Bi26  1  0.071666  0.008810  0.675858  1
  Bi  Bi27  1  0.927779  0.509043  0.323243  1
  Se  Se28  1  0.416908  0.749269  0.478614  1
  Se  Se29  1  0.082262  0.750380  0.976251  1
  Se  Se30  1  0.584220  0.249822  0.522944  1
  Se  Se31  1  0.918680  0.250520  0.021514  1
