# generated using pymatgen
data_RbPr5Nd(CBr6)2
_symmetry_space_group_name_H-M   'P 1'
_cell_length_a   9.25001407
_cell_length_b   9.23428384
_cell_length_c   9.78117631
_cell_angle_alpha   71.19764616
_cell_angle_beta   70.09133115
_cell_angle_gamma   72.56144118
_symmetry_Int_Tables_number   1
_chemical_formula_structural   RbPr5Nd(CBr6)2
_chemical_formula_sum   'Rb1 Pr5 Nd1 C2 Br12'
_cell_volume   726.50185740
_cell_formula_units_Z   1
loop_
 _symmetry_equiv_pos_site_id
 _symmetry_equiv_pos_as_xyz
  1  'x, y, z'
loop_
 _atom_site_type_symbol
 _atom_site_label
 _atom_site_symmetry_multiplicity
 _atom_site_fract_x
 _atom_site_fract_y
 _atom_site_fract_z
 _atom_site_occupancy
  Rb  Rb0  1  0.999419  0.500291  0.000102  1
  Pr  Pr1  1  0.478236  0.122459  0.178676  1
  Pr  Pr2  1  0.784554  0.034524  0.405332  1
  Pr  Pr3  1  0.596726  0.718850  0.472749  1
  Pr  Pr4  1  0.403069  0.281028  0.526889  1
  Pr  Pr5  1  0.215404  0.965267  0.595395  1
  Nd  Nd6  1  0.522585  0.878099  0.819341  1
  C  C7  1  0.494424  0.026927  0.425428  1
  C  C8  1  0.505539  0.972828  0.574604  1
  Br  Br9  1  0.802386  0.171192  0.080818  1
  Br  Br10  1  0.591559  0.787874  0.139297  1
  Br  Br11  1  0.348790  0.438044  0.225383  1
  Br  Br12  1  0.137518  0.077791  0.292508  1
  Br  Br13  1  0.928391  0.724788  0.349248  1
  Br  Br14  1  0.717423  0.369209  0.425769  1
  Br  Br15  1  0.282263  0.630831  0.574797  1
  Br  Br16  1  0.071226  0.275104  0.650836  1
  Br  Br17  1  0.860969  0.921973  0.708809  1
  Br  Br18  1  0.650237  0.563859  0.775627  1
  Br  Br19  1  0.408561  0.209997  0.858969  1
  Br  Br20  1  0.200725  0.829062  0.919426  1
