# generated using pymatgen
data_Li2TbThSi2Sn
_symmetry_space_group_name_H-M   'P 1'
_cell_length_a   9.65944101
_cell_length_b   9.65944310
_cell_length_c   6.84644100
_cell_angle_alpha   90.00000000
_cell_angle_beta   90.00000000
_cell_angle_gamma   153.26514141
_symmetry_Int_Tables_number   1
_chemical_formula_structural   Li2TbThSi2Sn
_chemical_formula_sum   'Li4 Tb2 Th2 Si4 Sn2'
_cell_volume   287.37480355
_cell_formula_units_Z   2
loop_
 _symmetry_equiv_pos_site_id
 _symmetry_equiv_pos_as_xyz
  1  'x, y, z'
loop_
 _atom_site_type_symbol
 _atom_site_label
 _atom_site_symmetry_multiplicity
 _atom_site_fract_x
 _atom_site_fract_y
 _atom_site_fract_z
 _atom_site_occupancy
  Li  Li0  1  0.184134  0.815866  0.056912  1
  Li  Li1  1  0.184134  0.815866  0.443088  1
  Li  Li2  1  0.815866  0.184134  0.943088  1
  Li  Li3  1  0.815866  0.184134  0.556912  1
  Tb  Tb4  1  0.352509  0.647491  0.250000  1
  Tb  Tb5  1  0.647491  0.352509  0.750000  1
  Th  Th6  1  0.548165  0.451835  0.250000  1
  Th  Th7  1  0.451835  0.548165  0.750000  1
  Si  Si8  1  0.058145  0.941855  0.930918  1
  Si  Si9  1  0.941855  0.058145  0.069082  1
  Si  Si10  1  0.941855  0.058145  0.430918  1
  Si  Si11  1  0.058145  0.941855  0.569082  1
  Sn  Sn12  1  0.721832  0.278168  0.250000  1
  Sn  Sn13  1  0.278168  0.721832  0.750000  1
