# generated using pymatgen
data_Dy20Ir8Ru3Rh
_symmetry_space_group_name_H-M   'P 1'
_cell_length_a   10.83807300
_cell_length_b   10.83807300
_cell_length_c   6.42686300
_cell_angle_alpha   90.00000000
_cell_angle_beta   90.00000000
_cell_angle_gamma   90.00000000
_symmetry_Int_Tables_number   1
_chemical_formula_structural   Dy20Ir8Ru3Rh
_chemical_formula_sum   'Dy20 Ir8 Ru3 Rh1'
_cell_volume   754.92391943
_cell_formula_units_Z   1
loop_
 _symmetry_equiv_pos_site_id
 _symmetry_equiv_pos_as_xyz
  1  'x, y, z'
loop_
 _atom_site_type_symbol
 _atom_site_label
 _atom_site_symmetry_multiplicity
 _atom_site_fract_x
 _atom_site_fract_y
 _atom_site_fract_z
 _atom_site_occupancy
  Dy  Dy0  1  0.291928  0.087708  0.381692  1
  Dy  Dy1  1  0.291576  0.912288  0.876662  1
  Dy  Dy2  1  0.708424  0.087712  0.876662  1
  Dy  Dy3  1  0.708072  0.912292  0.381692  1
  Dy  Dy4  1  0.587712  0.791576  0.876662  1
  Dy  Dy5  1  0.587708  0.208072  0.381692  1
  Dy  Dy6  1  0.412292  0.791928  0.381692  1
  Dy  Dy7  1  0.412288  0.208424  0.876662  1
  Dy  Dy8  1  0.206151  0.413399  0.620976  1
  Dy  Dy9  1  0.206173  0.586862  0.121097  1
  Dy  Dy10  1  0.793827  0.413138  0.121097  1
  Dy  Dy11  1  0.793849  0.586601  0.620976  1
  Dy  Dy12  1  0.913138  0.706173  0.121097  1
  Dy  Dy13  1  0.913399  0.293849  0.620976  1
  Dy  Dy14  1  0.086601  0.706151  0.620976  1
  Dy  Dy15  1  0.086862  0.293827  0.121097  1
  Dy  Dy16  1  0.000000  0.000000  0.500191  1
  Dy  Dy17  1  0.000000  0.000000  0.000402  1
  Dy  Dy18  1  0.500000  0.500000  0.000402  1
  Dy  Dy19  1  0.500000  0.500000  0.500191  1
  Ir  Ir20  1  0.846628  0.151986  0.249583  1
  Ir  Ir21  1  0.846853  0.847686  0.750140  1
  Ir  Ir22  1  0.153147  0.152314  0.750140  1
  Ir  Ir23  1  0.153372  0.848014  0.249583  1
  Ir  Ir24  1  0.652314  0.346853  0.750140  1
  Ir  Ir25  1  0.651986  0.653372  0.249583  1
  Ir  Ir26  1  0.348014  0.346628  0.249583  1
  Ir  Ir27  1  0.347686  0.653147  0.750140  1
  Ru  Ru28  1  0.500000  0.000000  0.623471  1
  Ru  Ru29  1  0.000000  0.500000  0.876177  1
  Ru  Ru30  1  0.000000  0.500000  0.376062  1
  Rh  Rh31  1  0.500000  0.000000  0.122497  1
