# generated using pymatgen
data_Sr4InSn3
_symmetry_space_group_name_H-M   'P 1'
_cell_length_a   4.66445600
_cell_length_b   5.02307300
_cell_length_c   12.20391600
_cell_angle_alpha   90.00000000
_cell_angle_beta   90.00000000
_cell_angle_gamma   90.00000000
_symmetry_Int_Tables_number   1
_chemical_formula_structural   Sr4InSn3
_chemical_formula_sum   'Sr4 In1 Sn3'
_cell_volume   285.93656802
_cell_formula_units_Z   1
loop_
 _symmetry_equiv_pos_site_id
 _symmetry_equiv_pos_as_xyz
  1  'x, y, z'
loop_
 _atom_site_type_symbol
 _atom_site_label
 _atom_site_symmetry_multiplicity
 _atom_site_fract_x
 _atom_site_fract_y
 _atom_site_fract_z
 _atom_site_occupancy
  Sr  Sr0  1  0.250000  0.000000  0.363901  1
  Sr  Sr1  1  0.250000  0.500000  0.863106  1
  Sr  Sr2  1  0.750000  0.500000  0.136387  1
  Sr  Sr3  1  0.750000  0.000000  0.636608  1
  In  In4  1  0.250000  0.000000  0.077274  1
  Sn  Sn5  1  0.250000  0.500000  0.576745  1
  Sn  Sn6  1  0.750000  0.500000  0.422625  1
  Sn  Sn7  1  0.750000  0.000000  0.923354  1
