# generated using pymatgen
data_PrNdSn4Hg
_symmetry_space_group_name_H-M   'P 1'
_cell_length_a   17.36530011
_cell_length_b   17.36529914
_cell_length_c   4.64409700
_cell_angle_alpha   90.00000000
_cell_angle_beta   90.00000000
_cell_angle_gamma   164.03304816
_symmetry_Int_Tables_number   1
_chemical_formula_structural   PrNdSn4Hg
_chemical_formula_sum   'Pr2 Nd2 Sn8 Hg2'
_cell_volume   385.23821974
_cell_formula_units_Z   2
loop_
 _symmetry_equiv_pos_site_id
 _symmetry_equiv_pos_as_xyz
  1  'x, y, z'
loop_
 _atom_site_type_symbol
 _atom_site_label
 _atom_site_symmetry_multiplicity
 _atom_site_fract_x
 _atom_site_fract_y
 _atom_site_fract_z
 _atom_site_occupancy
  Pr  Pr0  1  0.928680  0.071320  0.500000  1
  Pr  Pr1  1  0.071320  0.928680  0.500000  1
  Nd  Nd2  1  0.797104  0.202896  0.500000  1
  Nd  Nd3  1  0.202896  0.797104  0.500000  1
  Sn  Sn4  1  0.637879  0.362121  0.500000  1
  Sn  Sn5  1  0.362121  0.637879  0.500000  1
  Sn  Sn6  1  0.719045  0.280955  0.000000  1
  Sn  Sn7  1  0.280955  0.719045  0.000000  1
  Sn  Sn8  1  0.568269  0.431731  0.000000  1
  Sn  Sn9  1  0.431731  0.568269  0.000000  1
  Sn  Sn10  1  0.861875  0.138125  0.000000  1
  Sn  Sn11  1  0.138125  0.861875  0.000000  1
  Hg  Hg12  1  0.500000  0.500000  0.500000  1
  Hg  Hg13  1  0.000000  0.000000  0.000000  1
