# generated using pymatgen
data_TbErTm4CoBr10
_symmetry_space_group_name_H-M   'P 1'
_cell_length_a   7.25955479
_cell_length_b   9.06702502
_cell_length_c   9.06302420
_cell_angle_alpha   107.34792427
_cell_angle_beta   96.50207318
_cell_angle_gamma   105.22244852
_symmetry_Int_Tables_number   1
_chemical_formula_structural   TbErTm4CoBr10
_chemical_formula_sum   'Tb1 Er1 Tm4 Co1 Br10'
_cell_volume   537.42531509
_cell_formula_units_Z   1
loop_
 _symmetry_equiv_pos_site_id
 _symmetry_equiv_pos_as_xyz
  1  'x, y, z'
loop_
 _atom_site_type_symbol
 _atom_site_label
 _atom_site_symmetry_multiplicity
 _atom_site_fract_x
 _atom_site_fract_y
 _atom_site_fract_z
 _atom_site_occupancy
  Tb  Tb0  1  0.880438  0.954153  0.737782  1
  Er  Er1  1  0.118495  0.045363  0.265682  1
  Tm  Tm2  1  0.649313  0.869653  0.326622  1
  Tm  Tm3  1  0.350781  0.130669  0.673801  1
  Tm  Tm4  1  0.969310  0.291118  0.589105  1
  Tm  Tm5  1  0.030947  0.708626  0.409009  1
  Co  Co6  1  0.999555  0.999592  0.500949  1
  Br  Br7  1  0.543482  0.177307  0.412765  1
  Br  Br8  1  0.453219  0.821100  0.585120  1
  Br  Br9  1  0.221146  0.747872  0.156902  1
  Br  Br10  1  0.777526  0.255909  0.841804  1
  Br  Br11  1  0.914696  0.624076  0.670565  1
  Br  Br12  1  0.086967  0.372326  0.326059  1
  Br  Br13  1  0.751651  0.915895  0.044974  1
  Br  Br14  1  0.252815  0.086185  0.959494  1
  Br  Br15  1  0.653138  0.549304  0.227491  1
  Br  Br16  1  0.346524  0.450853  0.771878  1
