# generated using pymatgen
data_Hf17Ta3Si15Sb
_symmetry_space_group_name_H-M   'P 1'
_cell_length_a   7.07039228
_cell_length_b   7.04005175
_cell_length_c   12.87284225
_cell_angle_alpha   89.88455966
_cell_angle_beta   89.60830757
_cell_angle_gamma   90.12574823
_symmetry_Int_Tables_number   1
_chemical_formula_structural   Hf17Ta3Si15Sb
_chemical_formula_sum   'Hf17 Ta3 Si15 Sb1'
_cell_volume   640.73982681
_cell_formula_units_Z   1
loop_
 _symmetry_equiv_pos_site_id
 _symmetry_equiv_pos_as_xyz
  1  'x, y, z'
loop_
 _atom_site_type_symbol
 _atom_site_label
 _atom_site_symmetry_multiplicity
 _atom_site_fract_x
 _atom_site_fract_y
 _atom_site_fract_z
 _atom_site_occupancy
  Hf  Hf0  1  0.180477  0.172392  0.998201  1
  Hf  Hf1  1  0.498653  0.152208  0.532297  1
  Hf  Hf2  1  0.495062  0.840277  0.028436  1
  Hf  Hf3  1  0.649339  0.996803  0.287929  1
  Hf  Hf4  1  0.343926  0.994061  0.778404  1
  Hf  Hf5  1  0.848840  0.513705  0.964389  1
  Hf  Hf6  1  0.153928  0.499584  0.468848  1
  Hf  Hf7  1  0.000549  0.652412  0.716680  1
  Hf  Hf8  1  0.013504  0.357812  0.227102  1
  Hf  Hf9  1  0.488863  0.363052  0.126071  1
  Hf  Hf10  1  0.502492  0.645212  0.625726  1
  Hf  Hf11  1  0.851699  0.999887  0.871281  1
  Hf  Hf12  1  0.148316  0.997877  0.377949  1
  Hf  Hf13  1  0.646922  0.503592  0.374784  1
  Hf  Hf14  1  0.352429  0.498840  0.871447  1
  Hf  Hf15  1  0.012828  0.841420  0.127943  1
  Hf  Hf16  1  0.997538  0.145855  0.623008  1
  Ta  Ta17  1  0.675065  0.325304  0.748229  1
  Ta  Ta18  1  0.326636  0.675012  0.251642  1
  Ta  Ta19  1  0.825151  0.825595  0.500578  1
  Si  Si20  1  0.202349  0.853609  0.572817  1
  Si  Si21  1  0.644175  0.702471  0.820486  1
  Si  Si22  1  0.358253  0.297166  0.324424  1
  Si  Si23  1  0.854649  0.203084  0.427709  1
  Si  Si24  1  0.143024  0.796183  0.926032  1
  Si  Si25  1  0.702221  0.648260  0.178392  1
  Si  Si26  1  0.297083  0.352390  0.676479  1
  Si  Si27  1  0.539254  0.195186  0.927449  1
  Si  Si28  1  0.450502  0.798971  0.437181  1
  Si  Si29  1  0.697209  0.953004  0.683669  1
  Si  Si30  1  0.305316  0.046582  0.186704  1
  Si  Si31  1  0.801798  0.453183  0.564561  1
  Si  Si32  1  0.196847  0.547103  0.062325  1
  Si  Si33  1  0.952061  0.701839  0.318092  1
  Si  Si34  1  0.044423  0.303001  0.813000  1
  Sb  Sb35  1  0.798624  0.147069  0.079741  1
