# generated using pymatgen
data_Ca4Co(NiAs)7
_symmetry_space_group_name_H-M   'P 1'
_cell_length_a   3.96474000
_cell_length_b   12.81086762
_cell_length_c   12.91183736
_cell_angle_alpha   80.89672841
_cell_angle_beta   90.00000000
_cell_angle_gamma   90.00000000
_symmetry_Int_Tables_number   1
_chemical_formula_structural   Ca4Co(NiAs)7
_chemical_formula_sum   'Ca8 Co2 Ni14 As14'
_cell_volume   647.55479818
_cell_formula_units_Z   2
loop_
 _symmetry_equiv_pos_site_id
 _symmetry_equiv_pos_as_xyz
  1  'x, y, z'
loop_
 _atom_site_type_symbol
 _atom_site_label
 _atom_site_symmetry_multiplicity
 _atom_site_fract_x
 _atom_site_fract_y
 _atom_site_fract_z
 _atom_site_occupancy
  Ca  Ca0  1  0.250000  0.100703  0.794851  1
  Ca  Ca1  1  0.750000  0.899297  0.205149  1
  Ca  Ca2  1  0.250000  0.286644  0.104843  1
  Ca  Ca3  1  0.750000  0.713356  0.895157  1
  Ca  Ca4  1  0.250000  0.520176  0.292555  1
  Ca  Ca5  1  0.750000  0.479824  0.707445  1
  Ca  Ca6  1  0.250000  0.211728  0.442504  1
  Ca  Ca7  1  0.750000  0.788272  0.557496  1
  Co  Co8  1  0.250000  0.982716  0.574819  1
  Co  Co9  1  0.750000  0.017284  0.425181  1
  Ni  Ni10  1  0.250000  0.662489  0.727368  1
  Ni  Ni11  1  0.750000  0.337511  0.272632  1
  Ni  Ni12  1  0.250000  0.559995  0.049399  1
  Ni  Ni13  1  0.750000  0.440005  0.950601  1
  Ni  Ni14  1  0.250000  0.060606  0.280369  1
  Ni  Ni15  1  0.750000  0.939394  0.719631  1
  Ni  Ni16  1  0.250000  0.426419  0.528935  1
  Ni  Ni17  1  0.750000  0.573581  0.471065  1
  Ni  Ni18  1  0.250000  0.916046  0.001575  1
  Ni  Ni19  1  0.750000  0.083954  0.998425  1
  Ni  Ni20  1  0.250000  0.729095  0.398390  1
  Ni  Ni21  1  0.750000  0.270905  0.601610  1
  Ni  Ni22  1  0.250000  0.346847  0.860089  1
  Ni  Ni23  1  0.750000  0.653153  0.139911  1
  As  As24  1  0.250000  0.058046  0.096052  1
  As  As25  1  0.750000  0.941954  0.903948  1
  As  As26  1  0.250000  0.310447  0.686596  1
  As  As27  1  0.750000  0.689553  0.313404  1
  As  As28  1  0.250000  0.606618  0.561511  1
  As  As29  1  0.750000  0.393382  0.438489  1
  As  As30  1  0.250000  0.841395  0.716649  1
  As  As31  1  0.750000  0.158605  0.283351  1
  As  As32  1  0.750000  0.259312  0.918608  1
  As  As33  1  0.250000  0.740688  0.081392  1
  As  As34  1  0.750000  0.087692  0.586746  1
  As  As35  1  0.250000  0.912308  0.413254  1
  As  As36  1  0.750000  0.471370  0.128205  1
  As  As37  1  0.250000  0.528630  0.871795  1
