# generated using pymatgen
data_Na5UO5
_symmetry_space_group_name_H-M   'P 1'
_cell_length_a   6.02170587
_cell_length_b   6.02170589
_cell_length_c   6.64414858
_cell_angle_alpha   72.81053600
_cell_angle_beta   72.81053509
_cell_angle_gamma   45.15612592
_symmetry_Int_Tables_number   1
_chemical_formula_structural   Na5UO5
_chemical_formula_sum   'Na5 U1 O5'
_cell_volume   161.83606018
_cell_formula_units_Z   1
loop_
 _symmetry_equiv_pos_site_id
 _symmetry_equiv_pos_as_xyz
  1  'x, y, z'
loop_
 _atom_site_type_symbol
 _atom_site_label
 _atom_site_symmetry_multiplicity
 _atom_site_fract_x
 _atom_site_fract_y
 _atom_site_fract_z
 _atom_site_occupancy
  Na  Na0  1  0.319471  0.318524  0.358144  1
  Na  Na1  1  0.299915  0.299380  0.828999  1
  Na  Na2  1  0.700620  0.700085  0.171001  1
  Na  Na3  1  0.681476  0.680529  0.641856  1
  Na  Na4  1  0.003140  0.996860  0.000000  1
  U  U5  1  0.999818  0.000182  0.500000  1
  O  O6  1  0.863321  0.862343  0.337890  1
  O  O7  1  0.851827  0.850849  0.801344  1
  O  O8  1  0.149151  0.148173  0.198656  1
  O  O9  1  0.137657  0.136679  0.662110  1
  O  O10  1  0.499907  0.500093  0.500000  1
