# generated using pymatgen
data_Dy3ScMnC6
_symmetry_space_group_name_H-M   'P 1'
_cell_length_a   8.21307100
_cell_length_b   8.21307137
_cell_length_c   5.11847600
_cell_angle_alpha   90.00000000
_cell_angle_beta   90.00000000
_cell_angle_gamma   119.99997837
_symmetry_Int_Tables_number   1
_chemical_formula_structural   Dy3ScMnC6
_chemical_formula_sum   'Dy6 Sc2 Mn2 C12'
_cell_volume   299.00783720
_cell_formula_units_Z   2
loop_
 _symmetry_equiv_pos_site_id
 _symmetry_equiv_pos_as_xyz
  1  'x, y, z'
loop_
 _atom_site_type_symbol
 _atom_site_label
 _atom_site_symmetry_multiplicity
 _atom_site_fract_x
 _atom_site_fract_y
 _atom_site_fract_z
 _atom_site_occupancy
  Dy  Dy0  1  0.615106  0.674257  0.750000  1
  Dy  Dy1  1  0.940850  0.615106  0.250000  1
  Dy  Dy2  1  0.674257  0.059150  0.250000  1
  Dy  Dy3  1  0.325743  0.940850  0.750000  1
  Dy  Dy4  1  0.059150  0.384894  0.750000  1
  Dy  Dy5  1  0.384894  0.325743  0.250000  1
  Sc  Sc6  1  0.000000  0.000000  0.500000  1
  Sc  Sc7  1  0.000000  0.000000  0.000000  1
  Mn  Mn8  1  0.666667  0.333333  0.750000  1
  Mn  Mn9  1  0.333333  0.666667  0.250000  1
  C  C10  1  0.970728  0.754894  0.750000  1
  C  C11  1  0.215835  0.970728  0.250000  1
  C  C12  1  0.754894  0.784165  0.250000  1
  C  C13  1  0.245106  0.215835  0.750000  1
  C  C14  1  0.784165  0.029272  0.750000  1
  C  C15  1  0.029272  0.245106  0.250000  1
  C  C16  1  0.863271  0.565726  0.750000  1
  C  C17  1  0.297544  0.863271  0.250000  1
  C  C18  1  0.565726  0.702456  0.250000  1
  C  C19  1  0.434274  0.297544  0.750000  1
  C  C20  1  0.136729  0.434274  0.250000  1
  C  C21  1  0.702456  0.136729  0.750000  1
