# generated using pymatgen
data_Ti6V4Si6C
_symmetry_space_group_name_H-M   'P 1'
_cell_length_a   7.34270800
_cell_length_b   7.34270693
_cell_length_c   4.95559000
_cell_angle_alpha   90.00000000
_cell_angle_beta   90.00000000
_cell_angle_gamma   119.99999582
_symmetry_Int_Tables_number   1
_chemical_formula_structural   Ti6V4Si6C
_chemical_formula_sum   'Ti6 V4 Si6 C1'
_cell_volume   231.38674146
_cell_formula_units_Z   1
loop_
 _symmetry_equiv_pos_site_id
 _symmetry_equiv_pos_as_xyz
  1  'x, y, z'
loop_
 _atom_site_type_symbol
 _atom_site_label
 _atom_site_symmetry_multiplicity
 _atom_site_fract_x
 _atom_site_fract_y
 _atom_site_fract_z
 _atom_site_occupancy
  Ti  Ti0  1  0.000000  0.760427  0.254145  1
  Ti  Ti1  1  0.239573  0.239573  0.254145  1
  Ti  Ti2  1  0.760427  0.000000  0.254145  1
  Ti  Ti3  1  0.000000  0.239573  0.745855  1
  Ti  Ti4  1  0.760427  0.760427  0.745855  1
  Ti  Ti5  1  0.239573  0.000000  0.745855  1
  V  V6  1  0.333333  0.666667  0.000000  1
  V  V7  1  0.666667  0.333333  0.000000  1
  V  V8  1  0.666667  0.333333  0.500000  1
  V  V9  1  0.333333  0.666667  0.500000  1
  Si  Si10  1  0.000000  0.403870  0.243959  1
  Si  Si11  1  0.596130  0.596130  0.243959  1
  Si  Si12  1  0.403870  0.000000  0.243959  1
  Si  Si13  1  0.000000  0.596130  0.756041  1
  Si  Si14  1  0.403870  0.403870  0.756041  1
  Si  Si15  1  0.596130  0.000000  0.756041  1
  C  C16  1  0.000000  0.000000  0.500000  1
