# generated using pymatgen
data_Er4ZnGaRu6
_symmetry_space_group_name_H-M   'P 1'
_cell_length_a   5.37502900
_cell_length_b   5.32772178
_cell_length_c   8.63486937
_cell_angle_alpha   90.71653551
_cell_angle_beta   90.00000000
_cell_angle_gamma   120.29416079
_symmetry_Int_Tables_number   1
_chemical_formula_structural   Er4ZnGaRu6
_chemical_formula_sum   'Er4 Zn1 Ga1 Ru6'
_cell_volume   213.48542610
_cell_formula_units_Z   1
loop_
 _symmetry_equiv_pos_site_id
 _symmetry_equiv_pos_as_xyz
  1  'x, y, z'
loop_
 _atom_site_type_symbol
 _atom_site_label
 _atom_site_symmetry_multiplicity
 _atom_site_fract_x
 _atom_site_fract_y
 _atom_site_fract_z
 _atom_site_occupancy
  Er  Er0  1  0.331742  0.663485  0.435875  1
  Er  Er1  1  0.667609  0.335217  0.563293  1
  Er  Er2  1  0.666577  0.333154  0.933273  1
  Er  Er3  1  0.336718  0.673438  0.073357  1
  Zn  Zn4  1  0.168693  0.337385  0.746683  1
  Ga  Ga5  1  0.993231  0.986462  0.004170  1
  Ru  Ru6  1  0.180770  0.838017  0.751917  1
  Ru  Ru7  1  0.346585  0.172356  0.246690  1
  Ru  Ru8  1  0.829848  0.659696  0.253707  1
  Ru  Ru9  1  0.657247  0.838017  0.751917  1
  Ru  Ru10  1  0.825771  0.172356  0.246690  1
  Ru  Ru11  1  0.995209  0.990418  0.492428  1
