# generated using pymatgen
data_Tb5Mo3(P3Ir4)4
_symmetry_space_group_name_H-M   'P 1'
_cell_length_a   12.68365100
_cell_length_b   12.68364990
_cell_length_c   3.99410400
_cell_angle_alpha   90.00000000
_cell_angle_beta   90.00000000
_cell_angle_gamma   120.00000025
_symmetry_Int_Tables_number   1
_chemical_formula_structural   Tb5Mo3(P3Ir4)4
_chemical_formula_sum   'Tb5 Mo3 P12 Ir16'
_cell_volume   556.46586551
_cell_formula_units_Z   1
loop_
 _symmetry_equiv_pos_site_id
 _symmetry_equiv_pos_as_xyz
  1  'x, y, z'
loop_
 _atom_site_type_symbol
 _atom_site_label
 _atom_site_symmetry_multiplicity
 _atom_site_fract_x
 _atom_site_fract_y
 _atom_site_fract_z
 _atom_site_occupancy
  Tb  Tb0  1  0.333333  0.666667  0.500000  1
  Tb  Tb1  1  0.666667  0.333333  0.500000  1
  Tb  Tb2  1  0.000000  0.812919  0.000000  1
  Tb  Tb3  1  0.187081  0.187081  0.000000  1
  Tb  Tb4  1  0.812919  0.000000  0.000000  1
  Mo  Mo5  1  0.000000  0.453482  0.500000  1
  Mo  Mo6  1  0.546518  0.546518  0.500000  1
  Mo  Mo7  1  0.453482  0.000000  0.500000  1
  P  P8  1  0.000000  0.638465  0.500000  1
  P  P9  1  0.361535  0.361535  0.500000  1
  P  P10  1  0.638465  0.000000  0.500000  1
  P  P11  1  0.516431  0.684351  0.000000  1
  P  P12  1  0.315649  0.832080  0.000000  1
  P  P13  1  0.167920  0.483569  0.000000  1
  P  P14  1  0.483569  0.167920  0.000000  1
  P  P15  1  0.684351  0.516431  0.000000  1
  P  P16  1  0.832080  0.315649  0.000000  1
  P  P17  1  0.000000  0.177028  0.500000  1
  P  P18  1  0.822972  0.822972  0.500000  1
  P  P19  1  0.177028  0.000000  0.500000  1
  Ir  Ir20  1  0.509267  0.866783  0.000000  1
  Ir  Ir21  1  0.133217  0.642485  0.000000  1
  Ir  Ir22  1  0.357515  0.490733  0.000000  1
  Ir  Ir23  1  0.490733  0.357515  0.000000  1
  Ir  Ir24  1  0.866783  0.509267  0.000000  1
  Ir  Ir25  1  0.642485  0.133217  0.000000  1
  Ir  Ir26  1  0.000000  0.286620  0.000000  1
  Ir  Ir27  1  0.713380  0.713380  0.000000  1
  Ir  Ir28  1  0.286620  0.000000  0.000000  1
  Ir  Ir29  1  0.625697  0.804318  0.500000  1
  Ir  Ir30  1  0.195682  0.821379  0.500000  1
  Ir  Ir31  1  0.178621  0.374303  0.500000  1
  Ir  Ir32  1  0.374303  0.178621  0.500000  1
  Ir  Ir33  1  0.804318  0.625697  0.500000  1
  Ir  Ir34  1  0.821379  0.195682  0.500000  1
  Ir  Ir35  1  0.000000  0.000000  0.500000  1
