# generated using pymatgen
data_Y18Er2Cd6PdPt
_symmetry_space_group_name_H-M   'P 1'
_cell_length_a   9.71592400
_cell_length_b   9.71592450
_cell_length_c   9.83351600
_cell_angle_alpha   90.00000000
_cell_angle_beta   90.00000000
_cell_angle_gamma   120.00000512
_symmetry_Int_Tables_number   1
_chemical_formula_structural   Y18Er2Cd6PdPt
_chemical_formula_sum   'Y18 Er2 Cd6 Pd1 Pt1'
_cell_volume   803.91045761
_cell_formula_units_Z   1
loop_
 _symmetry_equiv_pos_site_id
 _symmetry_equiv_pos_as_xyz
  1  'x, y, z'
loop_
 _atom_site_type_symbol
 _atom_site_label
 _atom_site_symmetry_multiplicity
 _atom_site_fract_x
 _atom_site_fract_y
 _atom_site_fract_z
 _atom_site_occupancy
  Y  Y0  1  0.207609  0.792391  0.940759  1
  Y  Y1  1  0.207609  0.415217  0.940759  1
  Y  Y2  1  0.584783  0.792391  0.940759  1
  Y  Y3  1  0.792800  0.207200  0.058371  1
  Y  Y4  1  0.792800  0.585601  0.058371  1
  Y  Y5  1  0.414399  0.207200  0.058371  1
  Y  Y6  1  0.792800  0.207200  0.441629  1
  Y  Y7  1  0.792800  0.585601  0.441629  1
  Y  Y8  1  0.414399  0.207200  0.441629  1
  Y  Y9  1  0.207609  0.792391  0.559241  1
  Y  Y10  1  0.207609  0.415217  0.559241  1
  Y  Y11  1  0.584783  0.792391  0.559241  1
  Y  Y12  1  0.542437  0.457563  0.750000  1
  Y  Y13  1  0.542437  0.084874  0.750000  1
  Y  Y14  1  0.915126  0.457563  0.750000  1
  Y  Y15  1  0.457110  0.542890  0.250000  1
  Y  Y16  1  0.457110  0.914219  0.250000  1
  Y  Y17  1  0.085781  0.542890  0.250000  1
  Er  Er18  1  0.000000  0.000000  0.000202  1
  Er  Er19  1  0.000000  0.000000  0.499798  1
  Cd  Cd20  1  0.884938  0.115062  0.750000  1
  Cd  Cd21  1  0.884938  0.769876  0.750000  1
  Cd  Cd22  1  0.230124  0.115062  0.750000  1
  Cd  Cd23  1  0.114932  0.885068  0.250000  1
  Cd  Cd24  1  0.114932  0.229863  0.250000  1
  Cd  Cd25  1  0.770137  0.885068  0.250000  1
  Pd  Pd26  1  0.666667  0.333333  0.250000  1
  Pt  Pt27  1  0.333333  0.666667  0.750000  1
