# generated using pymatgen
data_Ca8Fe2AuN8
_symmetry_space_group_name_H-M   'P 1'
_cell_length_a   9.37928856
_cell_length_b   4.99176471
_cell_length_c   7.22609000
_cell_angle_alpha   90.00000000
_cell_angle_beta   73.32149333
_cell_angle_gamma   74.56731441
_symmetry_Int_Tables_number   1
_chemical_formula_structural   Ca8Fe2AuN8
_chemical_formula_sum   'Ca8 Fe2 Au1 N8'
_cell_volume   311.33100903
_cell_formula_units_Z   1
loop_
 _symmetry_equiv_pos_site_id
 _symmetry_equiv_pos_as_xyz
  1  'x, y, z'
loop_
 _atom_site_type_symbol
 _atom_site_label
 _atom_site_symmetry_multiplicity
 _atom_site_fract_x
 _atom_site_fract_y
 _atom_site_fract_z
 _atom_site_occupancy
  Ca  Ca0  1  0.066155  0.966922  0.747318  1
  Ca  Ca1  1  0.933845  0.033078  0.252682  1
  Ca  Ca2  1  0.663867  0.668066  0.463700  1
  Ca  Ca3  1  0.336133  0.331934  0.536300  1
  Ca  Ca4  1  0.820353  0.589823  0.973331  1
  Ca  Ca5  1  0.179647  0.410177  0.026669  1
  Ca  Ca6  1  0.603416  0.198291  0.808870  1
  Ca  Ca7  1  0.396584  0.801709  0.191130  1
  Fe  Fe8  1  0.378452  0.810775  0.793973  1
  Fe  Fe9  1  0.621548  0.189225  0.206027  1
  Au  Au10  1  0.000000  0.500000  0.500000  1
  N  N11  1  0.213732  0.893134  0.998280  1
  N  N12  1  0.786268  0.106866  0.001720  1
  N  N13  1  0.358194  0.820903  0.561902  1
  N  N14  1  0.641806  0.179097  0.438098  1
  N  N15  1  0.561742  0.719129  0.826030  1
  N  N16  1  0.438258  0.280871  0.173970  1
  N  N17  1  0.071829  0.464085  0.752165  1
  N  N18  1  0.928171  0.535915  0.247835  1
