# generated using pymatgen
data_Y11HoInCo4Au
_symmetry_space_group_name_H-M   'P 1'
_cell_length_a   8.39948963
_cell_length_b   8.39461497
_cell_length_c   8.39461475
_cell_angle_alpha   110.96044519
_cell_angle_beta   110.50390909
_cell_angle_gamma   106.95572860
_symmetry_Int_Tables_number   1
_chemical_formula_structural   Y11HoInCo4Au
_chemical_formula_sum   'Y11 Ho1 In1 Co4 Au1'
_cell_volume   455.11981542
_cell_formula_units_Z   1
loop_
 _symmetry_equiv_pos_site_id
 _symmetry_equiv_pos_as_xyz
  1  'x, y, z'
loop_
 _atom_site_type_symbol
 _atom_site_label
 _atom_site_symmetry_multiplicity
 _atom_site_fract_x
 _atom_site_fract_y
 _atom_site_fract_z
 _atom_site_occupancy
  Y  Y0  1  0.315270  0.619473  0.303663  1
  Y  Y1  1  0.684872  0.381082  0.696874  1
  Y  Y2  1  0.315270  0.011605  0.695797  1
  Y  Y3  1  0.684872  0.988000  0.303790  1
  Y  Y4  1  0.185932  0.290771  0.477253  1
  Y  Y5  1  0.813730  0.708566  0.521461  1
  Y  Y6  1  0.185932  0.708679  0.895161  1
  Y  Y7  1  0.813730  0.292269  0.105163  1
  Y  Y8  1  0.425356  0.221147  0.204209  1
  Y  Y9  1  0.575012  0.778994  0.796018  1
  Y  Y10  1  0.016807  0.220685  0.796124  1
  Ho  Ho11  1  0.985146  0.780343  0.204802  1
  In  In12  1  0.500192  0.499941  0.000250  1
  Co  Co13  1  0.110509  0.611029  0.499480  1
  Co  Co14  1  0.889291  0.389168  0.500123  1
  Co  Co15  1  0.379019  0.999139  0.379879  1
  Co  Co16  1  0.619096  0.000102  0.618994  1
  Au  Au17  1  0.999965  0.999007  0.000958  1
