# generated using pymatgen
data_Sc2MnBe2Ir4Rh
_symmetry_space_group_name_H-M   'P 1'
_cell_length_a   9.44052089
_cell_length_b   9.44089389
_cell_length_c   3.12044300
_cell_angle_alpha   90.00000000
_cell_angle_beta   90.00000000
_cell_angle_gamma   90.04969308
_symmetry_Int_Tables_number   1
_chemical_formula_structural   Sc2MnBe2Ir4Rh
_chemical_formula_sum   'Sc4 Mn2 Be4 Ir8 Rh2'
_cell_volume   278.11548119
_cell_formula_units_Z   2
loop_
 _symmetry_equiv_pos_site_id
 _symmetry_equiv_pos_as_xyz
  1  'x, y, z'
loop_
 _atom_site_type_symbol
 _atom_site_label
 _atom_site_symmetry_multiplicity
 _atom_site_fract_x
 _atom_site_fract_y
 _atom_site_fract_z
 _atom_site_occupancy
  Sc  Sc0  1  0.824328  0.323191  0.000000  1
  Sc  Sc1  1  0.323995  0.175526  0.000000  1
  Sc  Sc2  1  0.676005  0.824474  0.000000  1
  Sc  Sc3  1  0.175672  0.676809  0.000000  1
  Mn  Mn4  1  0.000000  0.000000  0.000000  1
  Mn  Mn5  1  0.500000  0.500000  0.000000  1
  Be  Be6  1  0.623153  0.123680  0.000000  1
  Be  Be7  1  0.123801  0.376991  0.000000  1
  Be  Be8  1  0.876199  0.623009  0.000000  1
  Be  Be9  1  0.376847  0.876320  0.000000  1
  Ir  Ir10  1  0.069019  0.208785  0.500000  1
  Ir  Ir11  1  0.208741  0.931273  0.500000  1
  Ir  Ir12  1  0.791259  0.068727  0.500000  1
  Ir  Ir13  1  0.930981  0.791215  0.500000  1
  Ir  Ir14  1  0.430373  0.708562  0.500000  1
  Ir  Ir15  1  0.569627  0.291438  0.500000  1
  Ir  Ir16  1  0.500000  0.000000  0.500000  1
  Ir  Ir17  1  0.000000  0.500000  0.500000  1
  Rh  Rh18  1  0.709655  0.570180  0.500000  1
  Rh  Rh19  1  0.290345  0.429820  0.500000  1
