# generated using pymatgen
data_CaTb5YFeI12
_symmetry_space_group_name_H-M   'P 1'
_cell_length_a   9.76334635
_cell_length_b   9.76060540
_cell_length_c   9.82445737
_cell_angle_alpha   106.88717054
_cell_angle_beta   107.06045892
_cell_angle_gamma   106.69548670
_symmetry_Int_Tables_number   1
_chemical_formula_structural   CaTb5YFeI12
_chemical_formula_sum   'Ca1 Tb5 Y1 Fe1 I12'
_cell_volume   782.21423876
_cell_formula_units_Z   1
loop_
 _symmetry_equiv_pos_site_id
 _symmetry_equiv_pos_as_xyz
  1  'x, y, z'
loop_
 _atom_site_type_symbol
 _atom_site_label
 _atom_site_symmetry_multiplicity
 _atom_site_fract_x
 _atom_site_fract_y
 _atom_site_fract_z
 _atom_site_occupancy
  Ca  Ca0  1  0.499843  0.499949  0.500076  1
  Tb  Tb1  1  0.713019  0.976026  0.907169  1
  Tb  Tb2  1  0.975037  0.901887  0.698508  1
  Tb  Tb3  1  0.092741  0.286494  0.024314  1
  Tb  Tb4  1  0.287123  0.024068  0.092921  1
  Tb  Tb5  1  0.907367  0.713618  0.975556  1
  Y  Y6  1  0.025106  0.098040  0.301721  1
  Fe  Fe7  1  0.000066  0.000116  0.000122  1
  I  I8  1  0.072811  0.226027  0.681733  1
  I  I9  1  0.378315  0.148709  0.455652  1
  I  I10  1  0.621005  0.851097  0.544314  1
  I  I11  1  0.224421  0.682811  0.072383  1
  I  I12  1  0.775696  0.317228  0.927779  1
  I  I13  1  0.681642  0.071815  0.223377  1
  I  I14  1  0.544431  0.622120  0.850088  1
  I  I15  1  0.850372  0.542245  0.622461  1
  I  I16  1  0.927220  0.774571  0.317284  1
  I  I17  1  0.319259  0.928443  0.777182  1
  I  I18  1  0.455620  0.377979  0.150098  1
  I  I19  1  0.148907  0.456755  0.377263  1
