# generated using pymatgen
data_DyHo6P12Rh17
_symmetry_space_group_name_H-M   'P 1'
_cell_length_a   3.94404400
_cell_length_b   11.25334100
_cell_length_c   12.87039700
_cell_angle_alpha   90.00000000
_cell_angle_beta   90.00000000
_cell_angle_gamma   90.00000000
_symmetry_Int_Tables_number   1
_chemical_formula_structural   DyHo6P12Rh17
_chemical_formula_sum   'Dy1 Ho6 P12 Rh17'
_cell_volume   571.23547961
_cell_formula_units_Z   1
loop_
 _symmetry_equiv_pos_site_id
 _symmetry_equiv_pos_as_xyz
  1  'x, y, z'
loop_
 _atom_site_type_symbol
 _atom_site_label
 _atom_site_symmetry_multiplicity
 _atom_site_fract_x
 _atom_site_fract_y
 _atom_site_fract_z
 _atom_site_occupancy
  Dy  Dy0  1  0.500000  0.500000  0.156488  1
  Ho  Ho1  1  0.000000  0.500000  0.523335  1
  Ho  Ho2  1  0.500000  0.000000  0.477809  1
  Ho  Ho3  1  0.500000  0.818321  0.206721  1
  Ho  Ho4  1  0.500000  0.181679  0.206721  1
  Ho  Ho5  1  0.000000  0.683256  0.796594  1
  Ho  Ho6  1  0.000000  0.316744  0.796594  1
  P  P7  1  0.500000  0.314220  0.619675  1
  P  P8  1  0.500000  0.685780  0.619675  1
  P  P9  1  0.000000  0.185182  0.384444  1
  P  P10  1  0.000000  0.814818  0.384444  1
  P  P11  1  0.500000  0.500000  0.876907  1
  P  P12  1  0.000000  0.000000  0.122053  1
  P  P13  1  0.500000  0.851346  0.888079  1
  P  P14  1  0.500000  0.148654  0.888079  1
  P  P15  1  0.000000  0.665386  0.104629  1
  P  P16  1  0.000000  0.334614  0.104629  1
  P  P17  1  0.500000  0.500000  0.366503  1
  P  P18  1  0.000000  0.000000  0.647410  1
  Rh  Rh19  1  0.000000  0.500000  0.979213  1
  Rh  Rh20  1  0.500000  0.000000  0.022401  1
  Rh  Rh21  1  0.500000  0.288719  0.435565  1
  Rh  Rh22  1  0.500000  0.711281  0.435565  1
  Rh  Rh23  1  0.000000  0.203321  0.571797  1
  Rh  Rh24  1  0.000000  0.796679  0.571797  1
  Rh  Rh25  1  0.500000  0.874674  0.709034  1
  Rh  Rh26  1  0.500000  0.125326  0.709034  1
  Rh  Rh27  1  0.000000  0.629677  0.293732  1
  Rh  Rh28  1  0.000000  0.370323  0.293732  1
  Rh  Rh29  1  0.500000  0.327180  0.985386  1
  Rh  Rh30  1  0.500000  0.672820  0.985386  1
  Rh  Rh31  1  0.000000  0.162036  0.004137  1
  Rh  Rh32  1  0.000000  0.837964  0.004137  1
  Rh  Rh33  1  0.000000  0.000000  0.828358  1
  Rh  Rh34  1  0.500000  0.500000  0.700415  1
  Rh  Rh35  1  0.000000  0.000000  0.299522  1
