# generated using pymatgen
data_LiHo11(SiPd)12
_symmetry_space_group_name_H-M   'P 1'
_cell_length_a   4.31210600
_cell_length_b   7.41315496
_cell_length_c   20.82908621
_cell_angle_alpha   90.30354767
_cell_angle_beta   90.00000000
_cell_angle_gamma   90.00000000
_symmetry_Int_Tables_number   1
_chemical_formula_structural   LiHo11(SiPd)12
_chemical_formula_sum   'Li1 Ho11 Si12 Pd12'
_cell_volume   665.81968245
_cell_formula_units_Z   1
loop_
 _symmetry_equiv_pos_site_id
 _symmetry_equiv_pos_as_xyz
  1  'x, y, z'
loop_
 _atom_site_type_symbol
 _atom_site_label
 _atom_site_symmetry_multiplicity
 _atom_site_fract_x
 _atom_site_fract_y
 _atom_site_fract_z
 _atom_site_occupancy
  Li  Li0  1  0.250000  0.786719  0.498003  1
  Ho  Ho1  1  0.250000  0.706742  0.336406  1
  Ho  Ho2  1  0.750000  0.297616  0.665336  1
  Ho  Ho3  1  0.750000  0.204084  0.167802  1
  Ho  Ho4  1  0.250000  0.795200  0.832213  1
  Ho  Ho5  1  0.250000  0.795673  0.167074  1
  Ho  Ho6  1  0.750000  0.204001  0.833413  1
  Ho  Ho7  1  0.750000  0.296100  0.335414  1
  Ho  Ho8  1  0.250000  0.707927  0.662251  1
  Ho  Ho9  1  0.250000  0.708938  0.000883  1
  Ho  Ho10  1  0.750000  0.291353  0.999337  1
  Ho  Ho11  1  0.750000  0.197240  0.499667  1
  Si  Si12  1  0.250000  0.090491  0.070887  1
  Si  Si13  1  0.750000  0.909847  0.929172  1
  Si  Si14  1  0.750000  0.594578  0.433480  1
  Si  Si15  1  0.250000  0.410403  0.568497  1
  Si  Si16  1  0.250000  0.086725  0.272166  1
  Si  Si17  1  0.750000  0.912413  0.728054  1
  Si  Si18  1  0.750000  0.586530  0.229074  1
  Si  Si19  1  0.250000  0.414053  0.770643  1
  Si  Si20  1  0.250000  0.086614  0.397233  1
  Si  Si21  1  0.750000  0.912866  0.604206  1
  Si  Si22  1  0.750000  0.589342  0.104600  1
  Si  Si23  1  0.250000  0.410851  0.895362  1
  Pd  Pd24  1  0.250000  0.417843  0.236982  1
  Pd  Pd25  1  0.750000  0.583311  0.763359  1
  Pd  Pd26  1  0.750000  0.916028  0.264158  1
  Pd  Pd27  1  0.250000  0.084268  0.735929  1
  Pd  Pd28  1  0.250000  0.419806  0.441316  1
  Pd  Pd29  1  0.750000  0.589290  0.557397  1
  Pd  Pd30  1  0.750000  0.917013  0.061630  1
  Pd  Pd31  1  0.250000  0.082897  0.938415  1
  Pd  Pd32  1  0.250000  0.420484  0.093799  1
  Pd  Pd33  1  0.750000  0.579884  0.906127  1
  Pd  Pd34  1  0.750000  0.915024  0.406430  1
  Pd  Pd35  1  0.250000  0.077845  0.593287  1
