# generated using pymatgen
data_Ho2ReOs3
_symmetry_space_group_name_H-M   'P 1'
_cell_length_a   5.34720890
_cell_length_b   5.20462801
_cell_length_c   8.99797700
_cell_angle_alpha   90.00000000
_cell_angle_beta   90.00000000
_cell_angle_gamma   119.12178987
_symmetry_Int_Tables_number   1
_chemical_formula_structural   Ho2ReOs3
_chemical_formula_sum   'Ho4 Re2 Os6'
_cell_volume   218.76003696
_cell_formula_units_Z   2
loop_
 _symmetry_equiv_pos_site_id
 _symmetry_equiv_pos_as_xyz
  1  'x, y, z'
loop_
 _atom_site_type_symbol
 _atom_site_label
 _atom_site_symmetry_multiplicity
 _atom_site_fract_x
 _atom_site_fract_y
 _atom_site_fract_z
 _atom_site_occupancy
  Ho  Ho0  1  0.330293  0.661455  0.436311  1
  Ho  Ho1  1  0.669707  0.331161  0.936311  1
  Ho  Ho2  1  0.669707  0.331161  0.563689  1
  Ho  Ho3  1  0.330293  0.661455  0.063689  1
  Re  Re4  1  0.165092  0.837121  0.750000  1
  Re  Re5  1  0.834908  0.672029  0.250000  1
  Os  Os6  1  0.655420  0.832362  0.750000  1
  Os  Os7  1  0.344580  0.176942  0.250000  1
  Os  Os8  1  0.827003  0.179639  0.250000  1
  Os  Os9  1  0.172997  0.352636  0.750000  1
  Os  Os10  1  0.000000  0.982020  0.500000  1
  Os  Os11  1  0.000000  0.982020  0.000000  1
