# generated using pymatgen
data_Ac4YbIr3
_symmetry_space_group_name_H-M   'P 1'
_cell_length_a   6.90971100
_cell_length_b   11.61278300
_cell_length_c   11.61278300
_cell_angle_alpha   90.00000000
_cell_angle_beta   90.00000000
_cell_angle_gamma   90.00000000
_symmetry_Int_Tables_number   1
_chemical_formula_structural   Ac4YbIr3
_chemical_formula_sum   'Ac16 Yb4 Ir12'
_cell_volume   931.82102383
_cell_formula_units_Z   4
loop_
 _symmetry_equiv_pos_site_id
 _symmetry_equiv_pos_as_xyz
  1  'x, y, z'
loop_
 _atom_site_type_symbol
 _atom_site_label
 _atom_site_symmetry_multiplicity
 _atom_site_fract_x
 _atom_site_fract_y
 _atom_site_fract_z
 _atom_site_occupancy
  Ac  Ac0  1  0.393740  0.838261  0.537777  1
  Ac  Ac1  1  0.893740  0.661739  0.537777  1
  Ac  Ac2  1  0.893740  0.838261  0.962223  1
  Ac  Ac3  1  0.393740  0.661739  0.962223  1
  Ac  Ac4  1  0.893740  0.537777  0.838261  1
  Ac  Ac5  1  0.393740  0.962223  0.838261  1
  Ac  Ac6  1  0.393740  0.537777  0.661739  1
  Ac  Ac7  1  0.893740  0.962223  0.661739  1
  Ac  Ac8  1  0.606260  0.161739  0.462224  1
  Ac  Ac9  1  0.106260  0.338261  0.462224  1
  Ac  Ac10  1  0.106260  0.161739  0.037777  1
  Ac  Ac11  1  0.606260  0.338261  0.037777  1
  Ac  Ac12  1  0.106260  0.462224  0.161739  1
  Ac  Ac13  1  0.606260  0.037777  0.161739  1
  Ac  Ac14  1  0.606260  0.462224  0.338261  1
  Ac  Ac15  1  0.106260  0.037777  0.338261  1
  Yb  Yb16  1  0.500000  0.750000  0.250000  1
  Yb  Yb17  1  0.000000  0.750000  0.250000  1
  Yb  Yb18  1  0.000000  0.250000  0.750000  1
  Yb  Yb19  1  0.500000  0.250000  0.750000  1
  Ir  Ir20  1  0.250000  0.902054  0.097946  1
  Ir  Ir21  1  0.750000  0.597946  0.097946  1
  Ir  Ir22  1  0.750000  0.902054  0.402054  1
  Ir  Ir23  1  0.250000  0.597946  0.402054  1
  Ir  Ir24  1  0.750000  0.097946  0.902054  1
  Ir  Ir25  1  0.250000  0.402054  0.902054  1
  Ir  Ir26  1  0.250000  0.097946  0.597946  1
  Ir  Ir27  1  0.750000  0.402054  0.597946  1
  Ir  Ir28  1  0.127364  0.750000  0.750000  1
  Ir  Ir29  1  0.627364  0.750000  0.750000  1
  Ir  Ir30  1  0.872636  0.250000  0.250000  1
  Ir  Ir31  1  0.372636  0.250000  0.250000  1
