# generated using pymatgen
data_YbTmU6(ReB6)4
_symmetry_space_group_name_H-M   'P 1'
_cell_length_a   3.63523500
_cell_length_b   9.28133098
_cell_length_c   11.38246164
_cell_angle_alpha   89.91970242
_cell_angle_beta   90.00000000
_cell_angle_gamma   90.00000000
_symmetry_Int_Tables_number   1
_chemical_formula_structural   YbTmU6(ReB6)4
_chemical_formula_sum   'Yb1 Tm1 U6 Re4 B24'
_cell_volume   384.04182085
_cell_formula_units_Z   1
loop_
 _symmetry_equiv_pos_site_id
 _symmetry_equiv_pos_as_xyz
  1  'x, y, z'
loop_
 _atom_site_type_symbol
 _atom_site_label
 _atom_site_symmetry_multiplicity
 _atom_site_fract_x
 _atom_site_fract_y
 _atom_site_fract_z
 _atom_site_occupancy
  Yb  Yb0  1  0.000000  0.662989  0.591614  1
  Tm  Tm1  1  0.000000  0.336742  0.408513  1
  U  U2  1  0.000000  0.835959  0.092729  1
  U  U3  1  0.000000  0.164006  0.907056  1
  U  U4  1  0.000000  0.955652  0.396827  1
  U  U5  1  0.000000  0.043014  0.603626  1
  U  U6  1  0.000000  0.457469  0.103621  1
  U  U7  1  0.000000  0.543010  0.895441  1
  Re  Re8  1  0.000000  0.646874  0.315851  1
  Re  Re9  1  0.000000  0.351877  0.683541  1
  Re  Re10  1  0.000000  0.143688  0.178248  1
  Re  Re11  1  0.000000  0.856872  0.822764  1
  B  B12  1  0.500000  0.551618  0.431134  1
  B  B13  1  0.500000  0.448231  0.569032  1
  B  B14  1  0.500000  0.049899  0.067658  1
  B  B15  1  0.500000  0.950213  0.932628  1
  B  B16  1  0.500000  0.742248  0.423075  1
  B  B17  1  0.500000  0.257734  0.576356  1
  B  B18  1  0.500000  0.243170  0.076575  1
  B  B19  1  0.500000  0.757169  0.923494  1
  B  B20  1  0.500000  0.803334  0.273547  1
  B  B21  1  0.500000  0.196186  0.726270  1
  B  B22  1  0.500000  0.302506  0.225939  1
  B  B23  1  0.500000  0.698371  0.774587  1
  B  B24  1  0.500000  0.644823  0.187855  1
  B  B25  1  0.500000  0.354794  0.811929  1
  B  B26  1  0.500000  0.145088  0.311835  1
  B  B27  1  0.500000  0.855666  0.688665  1
  B  B28  1  0.500000  0.987134  0.219229  1
  B  B29  1  0.500000  0.012620  0.780999  1
  B  B30  1  0.500000  0.487569  0.281492  1
  B  B31  1  0.500000  0.511265  0.718574  1
  B  B32  1  0.500000  0.643146  0.039152  1
  B  B33  1  0.500000  0.356922  0.960715  1
  B  B34  1  0.500000  0.141121  0.460714  1
  B  B35  1  0.500000  0.861020  0.538716  1
