# generated using pymatgen
data_Tb3YAl16(GaRh3)2
_symmetry_space_group_name_H-M   'P 1'
_cell_length_a   7.53566700
_cell_length_b   7.53532966
_cell_length_c   9.55953000
_cell_angle_alpha   90.00000000
_cell_angle_beta   90.00000000
_cell_angle_gamma   119.35430959
_symmetry_Int_Tables_number   1
_chemical_formula_structural   Tb3YAl16(GaRh3)2
_chemical_formula_sum   'Tb3 Y1 Al16 Ga2 Rh6'
_cell_volume   473.12970048
_cell_formula_units_Z   1
loop_
 _symmetry_equiv_pos_site_id
 _symmetry_equiv_pos_as_xyz
  1  'x, y, z'
loop_
 _atom_site_type_symbol
 _atom_site_label
 _atom_site_symmetry_multiplicity
 _atom_site_fract_x
 _atom_site_fract_y
 _atom_site_fract_z
 _atom_site_occupancy
  Tb  Tb0  1  0.994268  0.673151  0.250000  1
  Tb  Tb1  1  0.005770  0.326784  0.750000  1
  Tb  Tb2  1  0.673216  0.994279  0.250000  1
  Y  Y3  1  0.326983  0.005771  0.750000  1
  Al  Al4  1  0.001713  0.335623  0.073232  1
  Al  Al5  1  0.998377  0.664495  0.926762  1
  Al  Al6  1  0.998377  0.664495  0.573238  1
  Al  Al7  1  0.335618  0.001693  0.426875  1
  Al  Al8  1  0.001713  0.335623  0.426768  1
  Al  Al9  1  0.664268  0.998291  0.573228  1
  Al  Al10  1  0.664268  0.998291  0.926772  1
  Al  Al11  1  0.335618  0.001693  0.073125  1
  Al  Al12  1  0.334437  0.334341  0.551779  1
  Al  Al13  1  0.665561  0.665559  0.448263  1
  Al  Al14  1  0.665561  0.665559  0.051737  1
  Al  Al15  1  0.334437  0.334341  0.948221  1
  Al  Al16  1  0.337576  0.548694  0.250000  1
  Al  Al17  1  0.662375  0.451163  0.750000  1
  Al  Al18  1  0.548631  0.337558  0.250000  1
  Al  Al19  1  0.451201  0.662442  0.750000  1
  Ga  Ga20  1  0.131466  0.131467  0.250000  1
  Ga  Ga21  1  0.868606  0.868721  0.750000  1
  Rh  Rh22  1  0.671722  0.328201  0.999951  1
  Rh  Rh23  1  0.328221  0.671783  0.999953  1
  Rh  Rh24  1  0.328221  0.671783  0.500047  1
  Rh  Rh25  1  0.671722  0.328201  0.500049  1
  Rh  Rh26  1  0.000037  0.999999  0.999970  1
  Rh  Rh27  1  0.000037  0.999999  0.500030  1
