# generated using pymatgen
data_Dy5(ZnB4)2
_symmetry_space_group_name_H-M   'P 1'
_cell_length_a   7.19913600
_cell_length_b   7.19913600
_cell_length_c   8.41211900
_cell_angle_alpha   90.00000000
_cell_angle_beta   90.00000000
_cell_angle_gamma   90.00000000
_symmetry_Int_Tables_number   1
_chemical_formula_structural   Dy5(ZnB4)2
_chemical_formula_sum   'Dy10 Zn4 B16'
_cell_volume   435.97959502
_cell_formula_units_Z   2
loop_
 _symmetry_equiv_pos_site_id
 _symmetry_equiv_pos_as_xyz
  1  'x, y, z'
loop_
 _atom_site_type_symbol
 _atom_site_label
 _atom_site_symmetry_multiplicity
 _atom_site_fract_x
 _atom_site_fract_y
 _atom_site_fract_z
 _atom_site_occupancy
  Dy  Dy0  1  0.681986  0.181986  0.212533  1
  Dy  Dy1  1  0.318014  0.818014  0.787467  1
  Dy  Dy2  1  0.318014  0.818014  0.212533  1
  Dy  Dy3  1  0.818014  0.681986  0.212533  1
  Dy  Dy4  1  0.818014  0.681986  0.787467  1
  Dy  Dy5  1  0.681986  0.181986  0.787467  1
  Dy  Dy6  1  0.181986  0.318014  0.787467  1
  Dy  Dy7  1  0.181986  0.318014  0.212533  1
  Dy  Dy8  1  0.000000  0.000000  0.500000  1
  Dy  Dy9  1  0.500000  0.500000  0.500000  1
  Zn  Zn10  1  0.118153  0.618153  0.500000  1
  Zn  Zn11  1  0.881847  0.381847  0.500000  1
  Zn  Zn12  1  0.381847  0.118153  0.500000  1
  Zn  Zn13  1  0.618153  0.881847  0.500000  1
  B  B14  1  0.171955  0.040349  0.000000  1
  B  B15  1  0.828045  0.959651  0.000000  1
  B  B16  1  0.959651  0.171955  0.000000  1
  B  B17  1  0.328045  0.540349  0.000000  1
  B  B18  1  0.040349  0.828045  0.000000  1
  B  B19  1  0.671955  0.459651  0.000000  1
  B  B20  1  0.540349  0.671955  0.000000  1
  B  B21  1  0.459651  0.328045  0.000000  1
  B  B22  1  0.090529  0.590529  0.000000  1
  B  B23  1  0.909471  0.409471  0.000000  1
  B  B24  1  0.409471  0.090529  0.000000  1
  B  B25  1  0.590529  0.909471  0.000000  1
  B  B26  1  0.000000  0.000000  0.157789  1
  B  B27  1  0.000000  0.000000  0.842211  1
  B  B28  1  0.500000  0.500000  0.842211  1
  B  B29  1  0.500000  0.500000  0.157789  1
