# generated using pymatgen
data_Dy4HoCo(P2Ru3)6
_symmetry_space_group_name_H-M   'P 1'
_cell_length_a   12.49767348
_cell_length_b   12.51131334
_cell_length_c   3.97088000
_cell_angle_alpha   90.00000000
_cell_angle_beta   90.00000000
_cell_angle_gamma   120.03611397
_symmetry_Int_Tables_number   1
_chemical_formula_structural   Dy4HoCo(P2Ru3)6
_chemical_formula_sum   'Dy4 Ho1 Co1 P12 Ru18'
_cell_volume   537.51589472
_cell_formula_units_Z   1
loop_
 _symmetry_equiv_pos_site_id
 _symmetry_equiv_pos_as_xyz
  1  'x, y, z'
loop_
 _atom_site_type_symbol
 _atom_site_label
 _atom_site_symmetry_multiplicity
 _atom_site_fract_x
 _atom_site_fract_y
 _atom_site_fract_z
 _atom_site_occupancy
  Dy  Dy0  1  0.666714  0.333334  0.000000  1
  Dy  Dy1  1  0.333286  0.666621  0.000000  1
  Dy  Dy2  1  0.817269  0.817234  0.500000  1
  Dy  Dy3  1  0.182731  0.999965  0.500000  1
  Ho  Ho4  1  0.000000  0.182950  0.500000  1
  Co  Co5  1  0.000000  0.000109  0.000000  1
  P  P6  1  0.693270  0.169380  0.500000  1
  P  P7  1  0.830564  0.523713  0.500000  1
  P  P8  1  0.476100  0.306691  0.500000  1
  P  P9  1  0.169436  0.693148  0.500000  1
  P  P10  1  0.523900  0.830590  0.500000  1
  P  P11  1  0.306730  0.476109  0.500000  1
  P  P12  1  0.176912  0.177264  0.000000  1
  P  P13  1  0.823088  0.000352  0.000000  1
  P  P14  1  0.000000  0.822763  0.000000  1
  P  P15  1  0.627125  0.627182  0.000000  1
  P  P16  1  0.372875  0.000058  0.000000  1
  P  P17  1  0.000000  0.372772  0.000000  1
  Ru  Ru18  1  0.873836  0.365118  0.500000  1
  Ru  Ru19  1  0.634793  0.508583  0.500000  1
  Ru  Ru20  1  0.491335  0.126121  0.500000  1
  Ru  Ru21  1  0.365207  0.873789  0.500000  1
  Ru  Ru22  1  0.508665  0.634786  0.500000  1
  Ru  Ru23  1  0.126164  0.491282  0.500000  1
  Ru  Ru24  1  0.443964  0.444095  0.000000  1
  Ru  Ru25  1  0.556036  0.000130  0.000000  1
  Ru  Ru26  1  0.000000  0.555897  0.000000  1
  Ru  Ru27  1  0.809246  0.184087  0.000000  1
  Ru  Ru28  1  0.816031  0.624875  0.000000  1
  Ru  Ru29  1  0.374991  0.191151  0.000000  1
  Ru  Ru30  1  0.183969  0.808845  0.000000  1
  Ru  Ru31  1  0.625009  0.816162  0.000000  1
  Ru  Ru32  1  0.190754  0.374843  0.000000  1
  Ru  Ru33  1  0.279165  0.279348  0.500000  1
  Ru  Ru34  1  0.720835  0.000183  0.500000  1
  Ru  Ru35  1  0.000000  0.720470  0.500000  1
