# generated using pymatgen
data_Cs3RbTb4(Bi2Se5)4
_symmetry_space_group_name_H-M   'P 1'
_cell_length_a   4.19414600
_cell_length_b   12.48901749
_cell_length_c   23.04350509
_cell_angle_alpha   90.11462728
_cell_angle_beta   90.00000000
_cell_angle_gamma   90.00000000
_symmetry_Int_Tables_number   1
_chemical_formula_structural   Cs3RbTb4(Bi2Se5)4
_chemical_formula_sum   'Cs3 Rb1 Tb4 Bi8 Se20'
_cell_volume   1207.03395756
_cell_formula_units_Z   1
loop_
 _symmetry_equiv_pos_site_id
 _symmetry_equiv_pos_as_xyz
  1  'x, y, z'
loop_
 _atom_site_type_symbol
 _atom_site_label
 _atom_site_symmetry_multiplicity
 _atom_site_fract_x
 _atom_site_fract_y
 _atom_site_fract_z
 _atom_site_occupancy
  Cs  Cs0  1  0.250000  0.489153  0.210820  1
  Cs  Cs1  1  0.750000  0.510546  0.788698  1
  Cs  Cs2  1  0.750000  0.989330  0.289305  1
  Rb  Rb3  1  0.250000  0.011229  0.710344  1
  Tb  Tb4  1  0.250000  0.363380  0.023295  1
  Tb  Tb5  1  0.750000  0.636374  0.976113  1
  Tb  Tb6  1  0.750000  0.863870  0.477632  1
  Tb  Tb7  1  0.250000  0.136716  0.524796  1
  Bi  Bi8  1  0.250000  0.802759  0.120795  1
  Bi  Bi9  1  0.750000  0.195287  0.877130  1
  Bi  Bi10  1  0.750000  0.302299  0.379123  1
  Bi  Bi11  1  0.250000  0.700084  0.622075  1
  Bi  Bi12  1  0.250000  0.594626  0.427142  1
  Bi  Bi13  1  0.750000  0.404834  0.574387  1
  Bi  Bi14  1  0.750000  0.094553  0.073026  1
  Bi  Bi15  1  0.250000  0.905459  0.925092  1
  Se  Se16  1  0.250000  0.809628  0.394732  1
  Se  Se17  1  0.750000  0.190037  0.608045  1
  Se  Se18  1  0.750000  0.309544  0.106289  1
  Se  Se19  1  0.250000  0.690066  0.893146  1
  Se  Se20  1  0.250000  0.247775  0.303172  1
  Se  Se21  1  0.750000  0.757110  0.697635  1
  Se  Se22  1  0.750000  0.748217  0.196547  1
  Se  Se23  1  0.250000  0.245880  0.800630  1
  Se  Se24  1  0.250000  0.354918  0.481631  1
  Se  Se25  1  0.750000  0.644555  0.519640  1
  Se  Se26  1  0.750000  0.856310  0.017831  1
  Se  Se27  1  0.250000  0.144363  0.980488  1
  Se  Se28  1  0.250000  0.026616  0.152787  1
  Se  Se29  1  0.750000  0.972690  0.844776  1
  Se  Se30  1  0.750000  0.526108  0.347309  1
  Se  Se31  1  0.250000  0.475054  0.653511  1
  Se  Se32  1  0.250000  0.583452  0.057561  1
  Se  Se33  1  0.750000  0.416444  0.941764  1
  Se  Se34  1  0.750000  0.083071  0.443087  1
  Se  Se35  1  0.250000  0.917665  0.559645  1
