# generated using pymatgen
data_Mo(PtRh)4
_symmetry_space_group_name_H-M   'P 1'
_cell_length_a   6.19611669
_cell_length_b   6.19611724
_cell_length_c   6.19611764
_cell_angle_alpha   95.67513291
_cell_angle_beta   95.67513459
_cell_angle_gamma   143.34304393
_symmetry_Int_Tables_number   1
_chemical_formula_structural   Mo(PtRh)4
_chemical_formula_sum   'Mo1 Pt4 Rh4'
_cell_volume   134.81526269
_cell_formula_units_Z   1
loop_
 _symmetry_equiv_pos_site_id
 _symmetry_equiv_pos_as_xyz
  1  'x, y, z'
loop_
 _atom_site_type_symbol
 _atom_site_label
 _atom_site_symmetry_multiplicity
 _atom_site_fract_x
 _atom_site_fract_y
 _atom_site_fract_z
 _atom_site_occupancy
  Mo  Mo0  1  0.000000  0.000000  0.000000  1
  Pt  Pt1  1  0.000000  0.326535  0.326535  1
  Pt  Pt2  1  0.000000  0.673465  0.673465  1
  Pt  Pt3  1  0.673465  0.000000  0.673465  1
  Pt  Pt4  1  0.326535  0.000000  0.326535  1
  Rh  Rh5  1  0.339653  0.339653  0.679305  1
  Rh  Rh6  1  0.660347  0.660347  0.320695  1
  Rh  Rh7  1  0.660347  0.339653  0.000000  1
  Rh  Rh8  1  0.339653  0.660347  0.000000  1
