# generated using pymatgen
data_Zr2Al2GaFe
_symmetry_space_group_name_H-M   'P 1'
_cell_length_a   6.64716100
_cell_length_b   6.64716050
_cell_length_c   7.98504200
_cell_angle_alpha   90.00000000
_cell_angle_beta   90.00000000
_cell_angle_gamma   119.99999751
_symmetry_Int_Tables_number   1
_chemical_formula_structural   Zr2Al2GaFe
_chemical_formula_sum   'Zr6 Al6 Ga3 Fe3'
_cell_volume   305.54853831
_cell_formula_units_Z   3
loop_
 _symmetry_equiv_pos_site_id
 _symmetry_equiv_pos_as_xyz
  1  'x, y, z'
loop_
 _atom_site_type_symbol
 _atom_site_label
 _atom_site_symmetry_multiplicity
 _atom_site_fract_x
 _atom_site_fract_y
 _atom_site_fract_z
 _atom_site_occupancy
  Zr  Zr0  1  0.008986  0.597354  0.760149  1
  Zr  Zr1  1  0.009159  0.597469  0.239877  1
  Zr  Zr2  1  0.588310  0.990841  0.239877  1
  Zr  Zr3  1  0.588368  0.991014  0.760149  1
  Zr  Zr4  1  0.402531  0.411690  0.239877  1
  Zr  Zr5  1  0.402646  0.411632  0.760149  1
  Al  Al6  1  0.999623  0.233283  0.499991  1
  Al  Al7  1  0.755433  0.768953  0.999971  1
  Al  Al8  1  0.013521  0.244567  0.999971  1
  Al  Al9  1  0.233659  0.000377  0.499991  1
  Al  Al10  1  0.231047  0.986479  0.999971  1
  Al  Al11  1  0.766717  0.766341  0.499991  1
  Ga  Ga12  1  0.333333  0.666667  0.500124  1
  Ga  Ga13  1  0.666667  0.333333  0.499954  1
  Ga  Ga14  1  0.666667  0.333333  0.000099  1
  Fe  Fe15  1  0.000000  0.000000  0.251299  1
  Fe  Fe16  1  0.000000  0.000000  0.748677  1
  Fe  Fe17  1  0.333333  0.666667  0.999879  1
