# generated using pymatgen
data_Tb5Y3Mg2(SiB4)4
_symmetry_space_group_name_H-M   'P 1'
_cell_length_a   7.18600009
_cell_length_b   7.18600009
_cell_length_c   7.88498101
_cell_angle_alpha   90.00486647
_cell_angle_beta   90.00486647
_cell_angle_gamma   89.98244280
_symmetry_Int_Tables_number   1
_chemical_formula_structural   Tb5Y3Mg2(SiB4)4
_chemical_formula_sum   'Tb5 Y3 Mg2 Si4 B16'
_cell_volume   407.16933730
_cell_formula_units_Z   1
loop_
 _symmetry_equiv_pos_site_id
 _symmetry_equiv_pos_as_xyz
  1  'x, y, z'
loop_
 _atom_site_type_symbol
 _atom_site_label
 _atom_site_symmetry_multiplicity
 _atom_site_fract_x
 _atom_site_fract_y
 _atom_site_fract_z
 _atom_site_occupancy
  Tb  Tb0  1  0.816971  0.683103  0.233860  1
  Tb  Tb1  1  0.816916  0.683012  0.766122  1
  Tb  Tb2  1  0.683005  0.183005  0.766090  1
  Tb  Tb3  1  0.183012  0.316916  0.766122  1
  Tb  Tb4  1  0.183103  0.316971  0.233860  1
  Y  Y5  1  0.682875  0.182875  0.233681  1
  Y  Y6  1  0.317117  0.817117  0.766381  1
  Y  Y7  1  0.317076  0.817076  0.233618  1
  Mg  Mg8  1  0.000070  0.999965  0.499940  1
  Mg  Mg9  1  0.499965  0.500070  0.499940  1
  Si  Si10  1  0.115466  0.615466  0.499915  1
  Si  Si11  1  0.884743  0.384743  0.499863  1
  Si  Si12  1  0.384807  0.114952  0.499868  1
  Si  Si13  1  0.614952  0.884807  0.499868  1
  B  B14  1  0.173514  0.039910  0.000057  1
  B  B15  1  0.826544  0.960017  0.000082  1
  B  B16  1  0.960167  0.173551  0.000034  1
  B  B17  1  0.326355  0.539906  0.000107  1
  B  B18  1  0.039906  0.826355  0.000107  1
  B  B19  1  0.673551  0.460167  0.000034  1
  B  B20  1  0.539910  0.673514  0.000057  1
  B  B21  1  0.460017  0.326544  0.000082  1
  B  B22  1  0.089604  0.589604  0.000048  1
  B  B23  1  0.910352  0.410352  0.999923  1
  B  B24  1  0.410226  0.089740  0.000026  1
  B  B25  1  0.589740  0.910226  0.000026  1
  B  B26  1  0.000038  0.999933  0.161334  1
  B  B27  1  0.000081  0.999986  0.838812  1
  B  B28  1  0.499986  0.500081  0.838812  1
  B  B29  1  0.499933  0.500038  0.161334  1
