# generated using pymatgen
data_Sc8Mn2Re9Si16Ni
_symmetry_space_group_name_H-M   'P 1'
_cell_length_a   6.59926484
_cell_length_b   6.57442014
_cell_length_c   12.38134675
_cell_angle_alpha   89.80304394
_cell_angle_beta   89.44325329
_cell_angle_gamma   89.71420254
_symmetry_Int_Tables_number   1
_chemical_formula_structural   Sc8Mn2Re9Si16Ni
_chemical_formula_sum   'Sc8 Mn2 Re9 Si16 Ni1'
_cell_volume   537.14618700
_cell_formula_units_Z   1
loop_
 _symmetry_equiv_pos_site_id
 _symmetry_equiv_pos_as_xyz
  1  'x, y, z'
loop_
 _atom_site_type_symbol
 _atom_site_label
 _atom_site_symmetry_multiplicity
 _atom_site_fract_x
 _atom_site_fract_y
 _atom_site_fract_z
 _atom_site_occupancy
  Sc  Sc0  1  0.011026  0.669663  0.031266  1
  Sc  Sc1  1  0.990658  0.340885  0.527676  1
  Sc  Sc2  1  0.336255  0.991598  0.466568  1
  Sc  Sc3  1  0.155967  0.487084  0.782560  1
  Sc  Sc4  1  0.842987  0.510445  0.280118  1
  Sc  Sc5  1  0.494312  0.164332  0.221596  1
  Sc  Sc6  1  0.507506  0.843513  0.718516  1
  Sc  Sc7  1  0.662559  0.010985  0.967394  1
  Mn  Mn8  1  0.991244  0.185287  0.132623  1
  Mn  Mn9  1  0.817243  0.019670  0.367562  1
  Re  Re10  1  0.659231  0.661847  0.500273  1
  Re  Re11  1  0.170855  0.834302  0.249986  1
  Re  Re12  1  0.339664  0.341771  0.004720  1
  Re  Re13  1  0.310895  0.482685  0.384168  1
  Re  Re14  1  0.696155  0.515948  0.884574  1
  Re  Re15  1  0.461727  0.301031  0.611761  1
  Re  Re16  1  0.531689  0.687837  0.119437  1
  Re  Re17  1  0.182506  0.994105  0.875392  1
  Re  Re18  1  0.828519  0.160904  0.740736  1
  Si  Si19  1  0.014025  0.733991  0.437682  1
  Si  Si20  1  0.622344  0.294461  0.427014  1
  Si  Si21  1  0.384468  0.699763  0.930218  1
  Si  Si22  1  0.182322  0.097419  0.681301  1
  Si  Si23  1  0.294308  0.624463  0.573006  1
  Si  Si24  1  0.709442  0.374110  0.074901  1
  Si  Si25  1  0.813348  0.895017  0.184425  1
  Si  Si26  1  0.108956  0.194378  0.316271  1
  Si  Si27  1  0.979168  0.284164  0.946269  1
  Si  Si28  1  0.729912  0.018493  0.556419  1
  Si  Si29  1  0.218543  0.471150  0.186633  1
  Si  Si30  1  0.764973  0.517860  0.684603  1
  Si  Si31  1  0.472917  0.229141  0.810133  1
  Si  Si32  1  0.533746  0.783429  0.314219  1
  Si  Si33  1  0.284208  0.979411  0.067949  1
  Si  Si34  1  0.888643  0.805537  0.813262  1
  Ni  Ni35  1  0.007682  0.793320  0.628767  1
