# generated using pymatgen
data_Y4ErLu15(Cd3Ru)2
_symmetry_space_group_name_H-M   'P 1'
_cell_length_a   9.45135603
_cell_length_b   9.45164641
_cell_length_c   9.68332200
_cell_angle_alpha   90.00000000
_cell_angle_beta   90.00000000
_cell_angle_gamma   119.92117223
_symmetry_Int_Tables_number   1
_chemical_formula_structural   Y4ErLu15(Cd3Ru)2
_chemical_formula_sum   'Y4 Er1 Lu15 Cd6 Ru2'
_cell_volume   749.72331382
_cell_formula_units_Z   1
loop_
 _symmetry_equiv_pos_site_id
 _symmetry_equiv_pos_as_xyz
  1  'x, y, z'
loop_
 _atom_site_type_symbol
 _atom_site_label
 _atom_site_symmetry_multiplicity
 _atom_site_fract_x
 _atom_site_fract_y
 _atom_site_fract_z
 _atom_site_occupancy
  Y  Y0  1  0.540162  0.081086  0.250000  1
  Y  Y1  1  0.918925  0.459831  0.250000  1
  Y  Y2  1  0.459925  0.919839  0.750000  1
  Y  Y3  1  0.080095  0.540080  0.750000  1
  Er  Er4  1  0.460002  0.539998  0.750000  1
  Lu  Lu5  1  0.000161  0.999808  0.499947  1
  Lu  Lu6  1  0.000161  0.999808  0.000053  1
  Lu  Lu7  1  0.210055  0.789911  0.440470  1
  Lu  Lu8  1  0.211122  0.419893  0.440415  1
  Lu  Lu9  1  0.580117  0.788868  0.440410  1
  Lu  Lu10  1  0.789961  0.210081  0.559557  1
  Lu  Lu11  1  0.788746  0.579619  0.559042  1
  Lu  Lu12  1  0.420405  0.211236  0.558991  1
  Lu  Lu13  1  0.789961  0.210081  0.940443  1
  Lu  Lu14  1  0.788746  0.579619  0.940958  1
  Lu  Lu15  1  0.420405  0.211236  0.941009  1
  Lu  Lu16  1  0.210055  0.789911  0.059530  1
  Lu  Lu17  1  0.211122  0.419893  0.059585  1
  Lu  Lu18  1  0.580117  0.788868  0.059590  1
  Lu  Lu19  1  0.539642  0.460365  0.250000  1
  Cd  Cd20  1  0.886502  0.113477  0.250000  1
  Cd  Cd21  1  0.884606  0.771720  0.250000  1
  Cd  Cd22  1  0.228271  0.115449  0.250000  1
  Cd  Cd23  1  0.113413  0.886635  0.750000  1
  Cd  Cd24  1  0.114233  0.227243  0.750000  1
  Cd  Cd25  1  0.772778  0.885786  0.750000  1
  Ru  Ru26  1  0.333670  0.666328  0.250000  1
  Ru  Ru27  1  0.666647  0.333332  0.750000  1
