# generated using pymatgen
data_Y2V3Co9As7
_symmetry_space_group_name_H-M   'P 1'
_cell_length_a   3.77296600
_cell_length_b   9.40402428
_cell_length_c   9.40402500
_cell_angle_alpha   119.99999903
_cell_angle_beta   90.00000000
_cell_angle_gamma   90.00000000
_symmetry_Int_Tables_number   1
_chemical_formula_structural   Y2V3Co9As7
_chemical_formula_sum   'Y2 V3 Co9 As7'
_cell_volume   288.96220595
_cell_formula_units_Z   1
loop_
 _symmetry_equiv_pos_site_id
 _symmetry_equiv_pos_as_xyz
  1  'x, y, z'
loop_
 _atom_site_type_symbol
 _atom_site_label
 _atom_site_symmetry_multiplicity
 _atom_site_fract_x
 _atom_site_fract_y
 _atom_site_fract_z
 _atom_site_occupancy
  Y  Y0  1  0.000000  0.666667  0.333333  1
  Y  Y1  1  0.500000  0.333333  0.666667  1
  V  V2  1  0.500000  0.782137  0.898869  1
  V  V3  1  0.500000  0.116732  0.217863  1
  V  V4  1  0.500000  0.101131  0.883268  1
  Co  Co5  1  0.000000  0.569929  0.941554  1
  Co  Co6  1  0.000000  0.371624  0.430071  1
  Co  Co7  1  0.000000  0.058446  0.628376  1
  Co  Co8  1  0.000000  0.878072  0.157399  1
  Co  Co9  1  0.000000  0.279327  0.121928  1
  Co  Co10  1  0.000000  0.842601  0.720673  1
  Co  Co11  1  0.500000  0.950279  0.382822  1
  Co  Co12  1  0.500000  0.432542  0.049721  1
  Co  Co13  1  0.500000  0.617178  0.567458  1
  As  As14  1  0.000000  0.000000  0.000000  1
  As  As15  1  0.500000  0.708067  0.118116  1
  As  As16  1  0.500000  0.410049  0.291933  1
  As  As17  1  0.500000  0.881884  0.589951  1
  As  As18  1  0.000000  0.587316  0.702120  1
  As  As19  1  0.000000  0.114804  0.412684  1
  As  As20  1  0.000000  0.297880  0.885196  1
