# generated using pymatgen
data_Hf2NbSi3Ru2W
_symmetry_space_group_name_H-M   'P 1'
_cell_length_a   7.60707096
_cell_length_b   7.60707003
_cell_length_c   7.60707095
_cell_angle_alpha   126.51391265
_cell_angle_beta   124.08062782
_cell_angle_gamma   81.06134282
_symmetry_Int_Tables_number   1
_chemical_formula_structural   Hf2NbSi3Ru2W
_chemical_formula_sum   'Hf4 Nb2 Si6 Ru4 W2'
_cell_volume   282.35544715
_cell_formula_units_Z   2
loop_
 _symmetry_equiv_pos_site_id
 _symmetry_equiv_pos_as_xyz
  1  'x, y, z'
loop_
 _atom_site_type_symbol
 _atom_site_label
 _atom_site_symmetry_multiplicity
 _atom_site_fract_x
 _atom_site_fract_y
 _atom_site_fract_z
 _atom_site_occupancy
  Hf  Hf0  1  0.556546  0.098691  0.042146  1
  Hf  Hf1  1  0.443454  0.485600  0.542146  1
  Hf  Hf2  1  0.964978  0.484637  0.019659  1
  Hf  Hf3  1  0.035022  0.054680  0.519659  1
  Nb  Nb4  1  0.753757  0.920451  0.666694  1
  Nb  Nb5  1  0.246243  0.912937  0.166694  1
  Si  Si6  1  0.778077  0.549301  0.271224  1
  Si  Si7  1  0.221923  0.493147  0.771224  1
  Si  Si8  1  0.341127  0.822462  0.496994  1
  Si  Si9  1  0.658873  0.155865  0.481334  1
  Si  Si10  1  0.825468  0.822462  0.981334  1
  Si  Si11  1  0.174532  0.155865  0.996994  1
  Ru  Ru12  1  0.158552  0.748828  0.655124  1
  Ru  Ru13  1  0.841448  0.496571  0.590276  1
  Ru  Ru14  1  0.593704  0.748828  0.090276  1
  Ru  Ru15  1  0.406296  0.496571  0.155124  1
  W  W16  1  0.500000  0.247652  0.747652  1
  W  W17  1  0.000000  0.247652  0.247652  1
