# generated using pymatgen
data_Y2Ho6CdInIrPt
_symmetry_space_group_name_H-M   'P 1'
_cell_length_a   9.63105975
_cell_length_b   9.62983104
_cell_length_c   9.61041400
_cell_angle_alpha   60.07512210
_cell_angle_beta   60.06243596
_cell_angle_gamma   60.20475406
_symmetry_Int_Tables_number   1
_chemical_formula_structural   Y2Ho6CdInIrPt
_chemical_formula_sum   'Y4 Ho12 Cd2 In2 Ir2 Pt2'
_cell_volume   631.88708181
_cell_formula_units_Z   2
loop_
 _symmetry_equiv_pos_site_id
 _symmetry_equiv_pos_as_xyz
  1  'x, y, z'
loop_
 _atom_site_type_symbol
 _atom_site_label
 _atom_site_symmetry_multiplicity
 _atom_site_fract_x
 _atom_site_fract_y
 _atom_site_fract_z
 _atom_site_occupancy
  Y  Y0  1  0.565457  0.938825  0.560635  1
  Y  Y1  1  0.938825  0.565457  0.935082  1
  Y  Y2  1  0.563321  0.563321  0.936679  1
  Y  Y3  1  0.937867  0.937867  0.562133  1
  Ho  Ho4  1  0.351076  0.351095  0.345831  1
  Ho  Ho5  1  0.351095  0.351076  0.951998  1
  Ho  Ho6  1  0.357802  0.942505  0.349735  1
  Ho  Ho7  1  0.942505  0.357802  0.349957  1
  Ho  Ho8  1  0.806843  0.190134  0.189772  1
  Ho  Ho9  1  0.190134  0.806843  0.813251  1
  Ho  Ho10  1  0.190167  0.806876  0.189798  1
  Ho  Ho11  1  0.806876  0.190167  0.813160  1
  Ho  Ho12  1  0.190054  0.190054  0.809946  1
  Ho  Ho13  1  0.810499  0.810499  0.189501  1
  Ho  Ho14  1  0.940068  0.564651  0.559292  1
  Ho  Ho15  1  0.564651  0.940068  0.935988  1
  Cd  Cd16  1  0.580238  0.253437  0.583315  1
  Cd  Cd17  1  0.253437  0.580238  0.583010  1
  In  In18  1  0.581612  0.581166  0.584277  1
  In  In19  1  0.581166  0.581612  0.252948  1
  Ir  Ir20  1  0.139576  0.573237  0.144030  1
  Ir  Ir21  1  0.573237  0.139576  0.143157  1
  Pt  Pt22  1  0.141892  0.141606  0.145583  1
  Pt  Pt23  1  0.141606  0.141892  0.570920  1
