# generated using pymatgen
data_Ba2LaThTe8
_symmetry_space_group_name_H-M   'P 1'
_cell_length_a   8.85722609
_cell_length_b   8.85722629
_cell_length_c   10.74256218
_cell_angle_alpha   53.91512717
_cell_angle_beta   53.91512401
_cell_angle_gamma   42.67311426
_symmetry_Int_Tables_number   1
_chemical_formula_structural   Ba2LaThTe8
_chemical_formula_sum   'Ba2 La1 Th1 Te8'
_cell_volume   442.53811291
_cell_formula_units_Z   1
loop_
 _symmetry_equiv_pos_site_id
 _symmetry_equiv_pos_as_xyz
  1  'x, y, z'
loop_
 _atom_site_type_symbol
 _atom_site_label
 _atom_site_symmetry_multiplicity
 _atom_site_fract_x
 _atom_site_fract_y
 _atom_site_fract_z
 _atom_site_occupancy
  Ba  Ba0  1  0.900992  0.900992  0.306433  1
  Ba  Ba1  1  0.100147  0.100147  0.693864  1
  La  La2  1  0.637361  0.637361  0.227031  1
  Th  Th3  1  0.362070  0.362070  0.774504  1
  Te  Te4  1  0.113879  0.605916  0.040704  1
  Te  Te5  1  0.389850  0.899352  0.949268  1
  Te  Te6  1  0.899352  0.389850  0.949268  1
  Te  Te7  1  0.605916  0.113879  0.040704  1
  Te  Te8  1  0.099232  0.099232  0.351335  1
  Te  Te9  1  0.900170  0.900170  0.651255  1
  Te  Te10  1  0.609110  0.609110  0.559658  1
  Te  Te11  1  0.381922  0.381922  0.455977  1
