# generated using pymatgen
data_Li3Dy3Si4Ag
_symmetry_space_group_name_H-M   'P 1'
_cell_length_a   8.12337204
_cell_length_b   8.08962791
_cell_length_c   8.08962726
_cell_angle_alpha   149.30128453
_cell_angle_beta   131.05914580
_cell_angle_gamma   58.84978847
_symmetry_Int_Tables_number   1
_chemical_formula_structural   Li3Dy3Si4Ag
_chemical_formula_sum   'Li3 Dy3 Si4 Ag1'
_cell_volume   203.07960570
_cell_formula_units_Z   1
loop_
 _symmetry_equiv_pos_site_id
 _symmetry_equiv_pos_as_xyz
  1  'x, y, z'
loop_
 _atom_site_type_symbol
 _atom_site_label
 _atom_site_symmetry_multiplicity
 _atom_site_fract_x
 _atom_site_fract_y
 _atom_site_fract_z
 _atom_site_occupancy
  Li  Li0  1  0.517722  0.826854  0.690869  1
  Li  Li1  1  0.863833  0.169883  0.693949  1
  Li  Li2  1  0.140213  0.829231  0.310981  1
  Dy  Dy3  1  0.873761  0.371928  0.501832  1
  Dy  Dy4  1  0.119328  0.628757  0.490572  1
  Dy  Dy5  1  0.500007  0.501445  0.998562  1
  Si  Si6  1  0.818061  0.998827  0.819233  1
  Si  Si7  1  0.177908  0.999583  0.178325  1
  Si  Si8  1  0.280745  0.287279  0.993467  1
  Si  Si9  1  0.726687  0.714538  0.012149  1
  Ag  Ag10  1  0.481734  0.171674  0.310061  1
