# generated using pymatgen
data_DyLu7(InNi)2
_symmetry_space_group_name_H-M   'P 1'
_cell_length_a   9.41184038
_cell_length_b   9.41184032
_cell_length_c   9.41024500
_cell_angle_alpha   60.00561042
_cell_angle_beta   60.00561064
_cell_angle_gamma   59.98877906
_symmetry_Int_Tables_number   1
_chemical_formula_structural   DyLu7(InNi)2
_chemical_formula_sum   'Dy2 Lu14 In4 Ni4'
_cell_volume   589.43376734
_cell_formula_units_Z   2
loop_
 _symmetry_equiv_pos_site_id
 _symmetry_equiv_pos_as_xyz
  1  'x, y, z'
loop_
 _atom_site_type_symbol
 _atom_site_label
 _atom_site_symmetry_multiplicity
 _atom_site_fract_x
 _atom_site_fract_y
 _atom_site_fract_z
 _atom_site_occupancy
  Dy  Dy0  1  0.813976  0.813976  0.186024  1
  Dy  Dy1  1  0.186024  0.186024  0.813976  1
  Lu  Lu2  1  0.597633  0.597633  0.597162  1
  Lu  Lu3  1  0.597633  0.597633  0.207572  1
  Lu  Lu4  1  0.597162  0.207572  0.597633  1
  Lu  Lu5  1  0.207572  0.597162  0.597633  1
  Lu  Lu6  1  0.062788  0.437212  0.437212  1
  Lu  Lu7  1  0.437212  0.062788  0.062788  1
  Lu  Lu8  1  0.437212  0.062788  0.437212  1
  Lu  Lu9  1  0.062788  0.437212  0.062788  1
  Lu  Lu10  1  0.437390  0.437390  0.062610  1
  Lu  Lu11  1  0.062610  0.062610  0.437390  1
  Lu  Lu12  1  0.189693  0.810307  0.810307  1
  Lu  Lu13  1  0.810307  0.189693  0.189693  1
  Lu  Lu14  1  0.810307  0.189693  0.810307  1
  Lu  Lu15  1  0.189693  0.810307  0.189693  1
  In  In16  1  0.833579  0.833579  0.831968  1
  In  In17  1  0.833579  0.833579  0.500875  1
  In  In18  1  0.831968  0.500875  0.833579  1
  In  In19  1  0.500875  0.831968  0.833579  1
  Ni  Ni20  1  0.392841  0.392841  0.390545  1
  Ni  Ni21  1  0.392841  0.392841  0.823773  1
  Ni  Ni22  1  0.390545  0.823773  0.392841  1
  Ni  Ni23  1  0.823773  0.390545  0.392841  1
