# generated using pymatgen
data_Tb4Dy2IrI10
_symmetry_space_group_name_H-M   'P 1'
_cell_length_a   7.78519282
_cell_length_b   9.74966158
_cell_length_c   9.78053943
_cell_angle_alpha   106.99842574
_cell_angle_beta   104.48663914
_cell_angle_gamma   96.60183201
_symmetry_Int_Tables_number   1
_chemical_formula_structural   Tb4Dy2IrI10
_chemical_formula_sum   'Tb4 Dy2 Ir1 I10'
_cell_volume   673.03463594
_cell_formula_units_Z   1
loop_
 _symmetry_equiv_pos_site_id
 _symmetry_equiv_pos_as_xyz
  1  'x, y, z'
loop_
 _atom_site_type_symbol
 _atom_site_label
 _atom_site_symmetry_multiplicity
 _atom_site_fract_x
 _atom_site_fract_y
 _atom_site_fract_z
 _atom_site_occupancy
  Tb  Tb0  1  0.029938  0.913816  0.713724  1
  Tb  Tb1  1  0.970062  0.086184  0.286276  1
  Tb  Tb2  1  0.115463  0.762974  0.043122  1
  Tb  Tb3  1  0.884537  0.237026  0.956878  1
  Dy  Dy4  1  0.653339  0.833758  0.876290  1
  Dy  Dy5  1  0.346661  0.166242  0.123710  1
  Ir  Ir6  1  0.000000  0.000000  0.000000  1
  I  I7  1  0.647676  0.728545  0.550125  1
  I  I8  1  0.352324  0.271455  0.449875  1
  I  I9  1  0.224446  0.655246  0.745726  1
  I  I10  1  0.775554  0.344754  0.254274  1
  I  I11  1  0.455468  0.091547  0.817795  1
  I  I12  1  0.544532  0.908453  0.182205  1
  I  I13  1  0.254157  0.460007  0.086183  1
  I  I14  1  0.745843  0.539993  0.913817  1
  I  I15  1  0.086311  0.820431  0.372496  1
  I  I16  1  0.913689  0.179569  0.627504  1
