# generated using pymatgen
data_Y8Be(Si5Mo4)3
_symmetry_space_group_name_H-M   'P 1'
_cell_length_a   6.77193688
_cell_length_b   6.97053688
_cell_length_c   12.93072600
_cell_angle_alpha   90.00000000
_cell_angle_beta   90.00000000
_cell_angle_gamma   89.93278209
_symmetry_Int_Tables_number   1
_chemical_formula_structural   Y8Be(Si5Mo4)3
_chemical_formula_sum   'Y8 Be1 Si15 Mo12'
_cell_volume   610.38203260
_cell_formula_units_Z   1
loop_
 _symmetry_equiv_pos_site_id
 _symmetry_equiv_pos_as_xyz
  1  'x, y, z'
loop_
 _atom_site_type_symbol
 _atom_site_label
 _atom_site_symmetry_multiplicity
 _atom_site_fract_x
 _atom_site_fract_y
 _atom_site_fract_z
 _atom_site_occupancy
  Y  Y0  1  0.997275  0.166536  0.093434  1
  Y  Y1  1  0.000438  0.834156  0.904394  1
  Y  Y2  1  0.499339  0.669762  0.903847  1
  Y  Y3  1  0.000438  0.834156  0.595606  1
  Y  Y4  1  0.496403  0.333679  0.093342  1
  Y  Y5  1  0.997275  0.166536  0.406566  1
  Y  Y6  1  0.496403  0.333679  0.406658  1
  Y  Y7  1  0.499339  0.669762  0.596153  1
  Be  Be8  1  0.041713  0.136945  0.750000  1
  Si  Si9  1  0.965070  0.864498  0.250000  1
  Si  Si10  1  0.465088  0.635837  0.250000  1
  Si  Si11  1  0.536736  0.364622  0.750000  1
  Si  Si12  1  0.297648  0.883742  0.750000  1
  Si  Si13  1  0.695521  0.128979  0.250000  1
  Si  Si14  1  0.195974  0.370798  0.250000  1
  Si  Si15  1  0.804497  0.624508  0.750000  1
  Si  Si16  1  0.159213  0.456079  0.547204  1
  Si  Si17  1  0.840363  0.541119  0.454238  1
  Si  Si18  1  0.340642  0.957444  0.453223  1
  Si  Si19  1  0.840363  0.541119  0.045762  1
  Si  Si20  1  0.659985  0.043540  0.546396  1
  Si  Si21  1  0.159213  0.456079  0.952796  1
  Si  Si22  1  0.659985  0.043540  0.953604  1
  Si  Si23  1  0.340642  0.957444  0.046777  1
  Mo  Mo24  1  0.166447  0.493095  0.750000  1
  Mo  Mo25  1  0.833382  0.499328  0.250000  1
  Mo  Mo26  1  0.333597  0.000301  0.250000  1
  Mo  Mo27  1  0.667981  0.004258  0.750000  1
  Mo  Mo28  1  0.330737  0.166960  0.625928  1
  Mo  Mo29  1  0.670043  0.835164  0.374825  1
  Mo  Mo30  1  0.168682  0.664132  0.374744  1
  Mo  Mo31  1  0.670043  0.835164  0.125175  1
  Mo  Mo32  1  0.835053  0.327973  0.627757  1
  Mo  Mo33  1  0.330737  0.166960  0.874072  1
  Mo  Mo34  1  0.835053  0.327973  0.872243  1
  Mo  Mo35  1  0.168682  0.664132  0.125256  1
