# generated using pymatgen
data_Tb4Er3Tm(ReC2)4
_symmetry_space_group_name_H-M   'P 1'
_cell_length_a   5.10305600
_cell_length_b   6.58828708
_cell_length_c   9.82943113
_cell_angle_alpha   89.98161534
_cell_angle_beta   90.00000000
_cell_angle_gamma   90.00000000
_symmetry_Int_Tables_number   1
_chemical_formula_structural   Tb4Er3Tm(ReC2)4
_chemical_formula_sum   'Tb4 Er3 Tm1 Re4 C8'
_cell_volume   330.46936896
_cell_formula_units_Z   1
loop_
 _symmetry_equiv_pos_site_id
 _symmetry_equiv_pos_as_xyz
  1  'x, y, z'
loop_
 _atom_site_type_symbol
 _atom_site_label
 _atom_site_symmetry_multiplicity
 _atom_site_fract_x
 _atom_site_fract_y
 _atom_site_fract_z
 _atom_site_occupancy
  Tb  Tb0  1  0.750000  0.467112  0.785165  1
  Tb  Tb1  1  0.250000  0.032894  0.284928  1
  Tb  Tb2  1  0.750000  0.967271  0.715018  1
  Tb  Tb3  1  0.250000  0.532697  0.214850  1
  Er  Er4  1  0.750000  0.822869  0.057080  1
  Er  Er5  1  0.250000  0.677185  0.557193  1
  Er  Er6  1  0.750000  0.322739  0.442859  1
  Tm  Tm7  1  0.250000  0.176541  0.942509  1
  Re  Re8  1  0.750000  0.277808  0.133578  1
  Re  Re9  1  0.250000  0.222217  0.633949  1
  Re  Re10  1  0.750000  0.777837  0.366207  1
  Re  Re11  1  0.250000  0.722311  0.866293  1
  C  C12  1  0.750000  0.173346  0.950540  1
  C  C13  1  0.250000  0.827155  0.049193  1
  C  C14  1  0.750000  0.673436  0.549308  1
  C  C15  1  0.250000  0.326529  0.450774  1
  C  C16  1  0.750000  0.045703  0.259675  1
  C  C17  1  0.250000  0.454092  0.760101  1
  C  C18  1  0.750000  0.545663  0.240259  1
  C  C19  1  0.250000  0.954595  0.740520  1
