# generated using pymatgen
data_Er8Ti11NbSi15Pb
_symmetry_space_group_name_H-M   'P 1'
_cell_length_a   7.09968824
_cell_length_b   7.05344129
_cell_length_c   13.00146611
_cell_angle_alpha   89.94058826
_cell_angle_beta   89.73171409
_cell_angle_gamma   89.93165064
_symmetry_Int_Tables_number   1
_chemical_formula_structural   Er8Ti11NbSi15Pb
_chemical_formula_sum   'Er8 Ti11 Nb1 Si15 Pb1'
_cell_volume   651.06951671
_cell_formula_units_Z   1
loop_
 _symmetry_equiv_pos_site_id
 _symmetry_equiv_pos_as_xyz
  1  'x, y, z'
loop_
 _atom_site_type_symbol
 _atom_site_label
 _atom_site_symmetry_multiplicity
 _atom_site_fract_x
 _atom_site_fract_y
 _atom_site_fract_z
 _atom_site_occupancy
  Er  Er0  1  0.343228  0.997414  0.459872  1
  Er  Er1  1  0.508303  0.833249  0.718756  1
  Er  Er2  1  0.500946  0.160176  0.216752  1
  Er  Er3  1  0.840025  0.497070  0.281619  1
  Er  Er4  1  0.159682  0.510330  0.787154  1
  Er  Er5  1  0.662105  0.997544  0.969433  1
  Er  Er6  1  0.989547  0.349792  0.525991  1
  Er  Er7  1  0.001321  0.658970  0.034239  1
  Ti  Ti8  1  0.173682  0.826298  0.249783  1
  Ti  Ti9  1  0.814608  0.175396  0.752619  1
  Ti  Ti10  1  0.671100  0.672339  0.499273  1
  Ti  Ti11  1  0.155076  0.008963  0.884595  1
  Ti  Ti12  1  0.492294  0.649032  0.125608  1
  Ti  Ti13  1  0.515961  0.355764  0.626090  1
  Ti  Ti14  1  0.654611  0.493497  0.877124  1
  Ti  Ti15  1  0.346735  0.509372  0.373189  1
  Ti  Ti16  1  0.845547  0.993372  0.374851  1
  Ti  Ti17  1  0.010821  0.152444  0.123567  1
  Ti  Ti18  1  0.976809  0.832182  0.618244  1
  Nb  Nb19  1  0.327744  0.327214  0.001489  1
  Si  Si20  1  0.372205  0.704513  0.935461  1
  Si  Si21  1  0.626704  0.297116  0.431880  1
  Si  Si22  1  0.705824  0.369328  0.067700  1
  Si  Si23  1  0.295570  0.630992  0.566117  1
  Si  Si24  1  0.797352  0.869666  0.183577  1
  Si  Si25  1  0.129211  0.203218  0.315617  1
  Si  Si26  1  0.871813  0.800436  0.817195  1
  Si  Si27  1  0.294413  0.951432  0.067611  1
  Si  Si28  1  0.548709  0.789913  0.312992  1
  Si  Si29  1  0.463975  0.208478  0.820155  1
  Si  Si30  1  0.795280  0.543065  0.687342  1
  Si  Si31  1  0.207501  0.454241  0.186792  1
  Si  Si32  1  0.704741  0.047765  0.564020  1
  Si  Si33  1  0.952752  0.292377  0.935456  1
  Si  Si34  1  0.046027  0.710905  0.432183  1
  Pb  Pb35  1  0.197778  0.126137  0.675656  1
