# generated using pymatgen
data_GaSi15Mo(Pt4W)3
_symmetry_space_group_name_H-M   'P 1'
_cell_length_a   3.53145300
_cell_length_b   5.57145224
_cell_length_c   24.67351009
_cell_angle_alpha   89.98794672
_cell_angle_beta   90.00000000
_cell_angle_gamma   90.00000000
_symmetry_Int_Tables_number   1
_chemical_formula_structural   GaSi15Mo(Pt4W)3
_chemical_formula_sum   'Ga1 Si15 Mo1 Pt12 W3'
_cell_volume   485.45923885
_cell_formula_units_Z   1
loop_
 _symmetry_equiv_pos_site_id
 _symmetry_equiv_pos_as_xyz
  1  'x, y, z'
loop_
 _atom_site_type_symbol
 _atom_site_label
 _atom_site_symmetry_multiplicity
 _atom_site_fract_x
 _atom_site_fract_y
 _atom_site_fract_z
 _atom_site_occupancy
  Ga  Ga0  1  0.250000  0.183352  0.520295  1
  Si  Si1  1  0.750000  0.320453  0.019561  1
  Si  Si2  1  0.250000  0.679680  0.980468  1
  Si  Si3  1  0.750000  0.824231  0.480925  1
  Si  Si4  1  0.750000  0.320372  0.644708  1
  Si  Si5  1  0.250000  0.179907  0.145370  1
  Si  Si6  1  0.750000  0.819809  0.854919  1
  Si  Si7  1  0.250000  0.679429  0.353478  1
  Si  Si8  1  0.250000  0.665170  0.609938  1
  Si  Si9  1  0.750000  0.839385  0.109339  1
  Si  Si10  1  0.250000  0.160746  0.890733  1
  Si  Si11  1  0.750000  0.334769  0.389912  1
  Si  Si12  1  0.750000  0.827572  0.726639  1
  Si  Si13  1  0.250000  0.668935  0.225758  1
  Si  Si14  1  0.750000  0.328511  0.774177  1
  Si  Si15  1  0.250000  0.170341  0.273773  1
  Mo  Mo16  1  0.750000  0.495688  0.288874  1
  Pt  Pt17  1  0.750000  0.991971  0.578463  1
  Pt  Pt18  1  0.250000  0.497450  0.074291  1
  Pt  Pt19  1  0.750000  0.502348  0.925499  1
  Pt  Pt20  1  0.250000  0.999240  0.423373  1
  Pt  Pt21  1  0.250000  0.003561  0.672294  1
  Pt  Pt22  1  0.750000  0.496288  0.169442  1
  Pt  Pt23  1  0.250000  0.503136  0.830204  1
  Pt  Pt24  1  0.750000  0.995220  0.328734  1
  Pt  Pt25  1  0.750000  0.507314  0.549551  1
  Pt  Pt26  1  0.250000  0.997089  0.048395  1
  Pt  Pt27  1  0.750000  0.002946  0.951711  1
  Pt  Pt28  1  0.250000  0.505099  0.448499  1
  W  W29  1  0.250000  0.501268  0.710507  1
  W  W30  1  0.750000  0.995775  0.209735  1
  W  W31  1  0.250000  0.002946  0.790435  1
