# generated using pymatgen
data_DyY9(Ga2Ru3)2
_symmetry_space_group_name_H-M   'P 1'
_cell_length_a   8.33505242
_cell_length_b   8.33722397
_cell_length_c   8.33505200
_cell_angle_alpha   109.47649328
_cell_angle_beta   109.46593612
_cell_angle_gamma   109.47650375
_symmetry_Int_Tables_number   1
_chemical_formula_structural   DyY9(Ga2Ru3)2
_chemical_formula_sum   'Dy1 Y9 Ga4 Ru6'
_cell_volume   445.84917478
_cell_formula_units_Z   1
loop_
 _symmetry_equiv_pos_site_id
 _symmetry_equiv_pos_as_xyz
  1  'x, y, z'
loop_
 _atom_site_type_symbol
 _atom_site_label
 _atom_site_symmetry_multiplicity
 _atom_site_fract_x
 _atom_site_fract_y
 _atom_site_fract_z
 _atom_site_occupancy
  Dy  Dy0  1  0.000000  0.215717  0.000000  1
  Y  Y1  1  0.749800  0.432644  0.182834  1
  Y  Y2  1  0.433033  0.682846  0.250200  1
  Y  Y3  1  0.250044  0.066973  0.316984  1
  Y  Y4  1  0.217161  0.499722  0.499365  1
  Y  Y5  1  0.817166  0.249812  0.566967  1
  Y  Y6  1  0.500636  0.000358  0.717797  1
  Y  Y7  1  0.066939  0.816930  0.749956  1
  Y  Y8  1  0.282203  0.282560  0.782840  1
  Y  Y9  1  0.683018  0.749990  0.933061  1
  Ga  Ga10  1  0.000000  0.586495  0.000000  1
  Ga  Ga11  1  0.500323  0.000756  0.087974  1
  Ga  Ga12  1  0.912026  0.912781  0.412349  1
  Ga  Ga13  1  0.587651  0.500433  0.499677  1
  Ru  Ru14  1  0.374522  0.249738  0.125578  1
  Ru  Ru15  1  0.874423  0.124161  0.248944  1
  Ru  Ru16  1  0.123916  0.750304  0.374124  1
  Ru  Ru17  1  0.751055  0.875217  0.625479  1
  Ru  Ru18  1  0.625875  0.376179  0.749791  1
  Ru  Ru19  1  0.250209  0.626388  0.876085  1
