# generated using pymatgen
data_Rb3AgBr16
_symmetry_space_group_name_H-M   'P 1'
_cell_length_a   8.25589266
_cell_length_b   9.80766183
_cell_length_c   10.53355120
_cell_angle_alpha   69.34819815
_cell_angle_beta   91.78217252
_cell_angle_gamma   90.52035105
_symmetry_Int_Tables_number   1
_chemical_formula_structural   Rb3AgBr16
_chemical_formula_sum   'Rb3 Ag1 Br16'
_cell_volume   797.71728657
_cell_formula_units_Z   1
loop_
 _symmetry_equiv_pos_site_id
 _symmetry_equiv_pos_as_xyz
  1  'x, y, z'
loop_
 _atom_site_type_symbol
 _atom_site_label
 _atom_site_symmetry_multiplicity
 _atom_site_fract_x
 _atom_site_fract_y
 _atom_site_fract_z
 _atom_site_occupancy
  Rb  Rb0  1  0.108764  0.268128  0.807656  1
  Rb  Rb1  1  0.384882  0.254682  0.298619  1
  Rb  Rb2  1  0.861951  0.724913  0.200007  1
  Ag  Ag3  1  0.644720  0.933818  0.652209  1
  Br  Br4  1  0.358498  0.532871  0.506864  1
  Br  Br5  1  0.872524  0.451098  0.988777  1
  Br  Br6  1  0.627387  0.451118  0.475558  1
  Br  Br7  1  0.146078  0.537223  0.012251  1
  Br  Br8  1  0.055796  0.639171  0.548654  1
  Br  Br9  1  0.534521  0.318670  0.955261  1
  Br  Br10  1  0.989433  0.340809  0.417983  1
  Br  Br11  1  0.456790  0.661702  0.048745  1
  Br  Br12  1  0.193203  0.847206  0.606341  1
  Br  Br13  1  0.689673  0.122915  0.906178  1
  Br  Br14  1  0.819376  0.130145  0.400886  1
  Br  Br15  1  0.294226  0.859170  0.105834  1
  Br  Br16  1  0.349339  0.048704  0.661000  1
  Br  Br17  1  0.856120  0.927417  0.843043  1
  Br  Br18  1  0.636251  0.904994  0.406785  1
  Br  Br19  1  0.120468  0.045244  0.157350  1
