# generated using pymatgen
data_Hf3Zr(AsRh5)2
_symmetry_space_group_name_H-M   'P 1'
_cell_length_a   4.06001600
_cell_length_b   5.62893546
_cell_length_c   10.93140584
_cell_angle_alpha   89.91736113
_cell_angle_beta   90.00000000
_cell_angle_gamma   90.00000000
_symmetry_Int_Tables_number   1
_chemical_formula_structural   Hf3Zr(AsRh5)2
_chemical_formula_sum   'Hf3 Zr1 As2 Rh10'
_cell_volume   249.82136741
_cell_formula_units_Z   1
loop_
 _symmetry_equiv_pos_site_id
 _symmetry_equiv_pos_as_xyz
  1  'x, y, z'
loop_
 _atom_site_type_symbol
 _atom_site_label
 _atom_site_symmetry_multiplicity
 _atom_site_fract_x
 _atom_site_fract_y
 _atom_site_fract_z
 _atom_site_occupancy
  Hf  Hf0  1  0.500000  0.673310  0.643397  1
  Hf  Hf1  1  0.500000  0.172451  0.857312  1
  Hf  Hf2  1  0.500000  0.826795  0.142470  1
  Zr  Zr3  1  0.500000  0.325155  0.357791  1
  As  As4  1  0.000000  0.000570  0.500347  1
  As  As5  1  0.000000  0.500326  0.999369  1
  Rh  Rh6  1  0.500000  0.314619  0.104245  1
  Rh  Rh7  1  0.500000  0.685374  0.894476  1
  Rh  Rh8  1  0.500000  0.814999  0.394501  1
  Rh  Rh9  1  0.500000  0.185587  0.606883  1
  Rh  Rh10  1  0.000000  0.929281  0.743399  1
  Rh  Rh11  1  0.000000  0.068830  0.254900  1
  Rh  Rh12  1  0.000000  0.429329  0.757377  1
  Rh  Rh13  1  0.000000  0.570198  0.242595  1
  Rh  Rh14  1  0.000000  0.503772  0.501363  1
  Rh  Rh15  1  0.000000  0.999404  0.999576  1
