# generated using pymatgen
data_Ho9MgZn3NiSb2
_symmetry_space_group_name_H-M   'P 1'
_cell_length_a   8.48567163
_cell_length_b   8.48565428
_cell_length_c   8.53738487
_cell_angle_alpha   124.97436536
_cell_angle_beta   125.48935223
_cell_angle_gamma   80.74751330
_symmetry_Int_Tables_number   1
_chemical_formula_structural   Ho9MgZn3NiSb2
_chemical_formula_sum   'Ho9 Mg1 Zn3 Ni1 Sb2'
_cell_volume   396.28535669
_cell_formula_units_Z   1
loop_
 _symmetry_equiv_pos_site_id
 _symmetry_equiv_pos_as_xyz
  1  'x, y, z'
loop_
 _atom_site_type_symbol
 _atom_site_label
 _atom_site_symmetry_multiplicity
 _atom_site_fract_x
 _atom_site_fract_y
 _atom_site_fract_z
 _atom_site_occupancy
  Ho  Ho0  1  0.521988  0.703469  0.509951  1
  Ho  Ho1  1  0.011809  0.513968  0.809899  1
  Ho  Ho2  1  0.718290  0.194219  0.192810  1
  Ho  Ho3  1  0.998590  0.474521  0.192813  1
  Ho  Ho4  1  0.185126  0.024602  0.486296  1
  Ho  Ho5  1  0.461692  0.301167  0.486294  1
  Ho  Ho6  1  0.806481  0.987961  0.509949  1
  Ho  Ho7  1  0.295935  0.798089  0.809898  1
  Ho  Ho8  1  0.493711  0.497083  0.990793  1
  Mg  Mg9  1  0.000422  0.999140  0.999553  1
  Zn  Zn10  1  0.367262  0.866460  0.233724  1
  Zn  Zn11  1  0.866328  0.628395  0.494724  1
  Zn  Zn12  1  0.633785  0.135330  0.769115  1
  Ni  Ni13  1  0.130773  0.384101  0.514880  1
  Sb  Sb14  1  0.751477  0.743321  0.999651  1
  Sb  Sb15  1  0.256330  0.248173  0.999651  1
