# generated using pymatgen
data_Dy6Al23V(CoOs3)2
_symmetry_space_group_name_H-M   'P 1'
_cell_length_a   8.79842700
_cell_length_b   8.79842736
_cell_length_c   9.42077800
_cell_angle_alpha   90.00000000
_cell_angle_beta   90.00000000
_cell_angle_gamma   119.99999489
_symmetry_Int_Tables_number   1
_chemical_formula_structural   Dy6Al23V(CoOs3)2
_chemical_formula_sum   'Dy6 Al23 V1 Co2 Os6'
_cell_volume   631.57875352
_cell_formula_units_Z   1
loop_
 _symmetry_equiv_pos_site_id
 _symmetry_equiv_pos_as_xyz
  1  'x, y, z'
loop_
 _atom_site_type_symbol
 _atom_site_label
 _atom_site_symmetry_multiplicity
 _atom_site_fract_x
 _atom_site_fract_y
 _atom_site_fract_z
 _atom_site_occupancy
  Dy  Dy0  1  0.195787  0.391575  0.247811  1
  Dy  Dy1  1  0.806288  0.612575  0.749514  1
  Dy  Dy2  1  0.608425  0.804213  0.247811  1
  Dy  Dy3  1  0.387425  0.193712  0.749514  1
  Dy  Dy4  1  0.195787  0.804213  0.247811  1
  Dy  Dy5  1  0.806288  0.193712  0.749514  1
  Al  Al6  1  0.666667  0.333333  0.982251  1
  Al  Al7  1  0.666667  0.333333  0.518009  1
  Al  Al8  1  0.333333  0.666667  0.484189  1
  Al  Al9  1  0.158942  0.317886  0.575423  1
  Al  Al10  1  0.840649  0.681295  0.424991  1
  Al  Al11  1  0.682114  0.841058  0.575423  1
  Al  Al12  1  0.839715  0.679428  0.076443  1
  Al  Al13  1  0.318705  0.159351  0.424991  1
  Al  Al14  1  0.157015  0.314033  0.925629  1
  Al  Al15  1  0.158942  0.841058  0.575423  1
  Al  Al16  1  0.320572  0.160285  0.076443  1
  Al  Al17  1  0.840649  0.159351  0.424991  1
  Al  Al18  1  0.685967  0.842985  0.925629  1
  Al  Al19  1  0.839715  0.160285  0.076443  1
  Al  Al20  1  0.157015  0.842985  0.925629  1
  Al  Al21  1  0.561003  0.122007  0.252969  1
  Al  Al22  1  0.441122  0.882245  0.750072  1
  Al  Al23  1  0.877993  0.438997  0.252969  1
  Al  Al24  1  0.117755  0.558878  0.750072  1
  Al  Al25  1  0.561003  0.438997  0.252969  1
  Al  Al26  1  0.441122  0.558878  0.750072  1
  Al  Al27  1  0.000000  0.000000  0.250507  1
  Al  Al28  1  0.000000  0.000000  0.749207  1
  V  V29  1  0.333333  0.666667  0.983238  1
  Co  Co30  1  0.000000  0.000000  0.001035  1
  Co  Co31  1  0.000000  0.000000  0.499018  1
  Os  Os32  1  0.495132  0.990265  0.005406  1
  Os  Os33  1  0.009735  0.504868  0.005406  1
  Os  Os34  1  0.499714  0.999428  0.502590  1
  Os  Os35  1  0.495132  0.504868  0.005406  1
  Os  Os36  1  0.000572  0.500286  0.502590  1
  Os  Os37  1  0.499714  0.500286  0.502590  1
