# generated using pymatgen
data_NaPrP2S7
_symmetry_space_group_name_H-M   'P 1'
_cell_length_a   9.08592500
_cell_length_b   9.84675689
_cell_length_c   12.53161500
_cell_angle_alpha   90.00000000
_cell_angle_beta   90.00000000
_cell_angle_gamma   90.28509065
_symmetry_Int_Tables_number   1
_chemical_formula_structural   NaPrP2S7
_chemical_formula_sum   'Na4 Pr4 P8 S28'
_cell_volume   1121.15079976
_cell_formula_units_Z   4
loop_
 _symmetry_equiv_pos_site_id
 _symmetry_equiv_pos_as_xyz
  1  'x, y, z'
loop_
 _atom_site_type_symbol
 _atom_site_label
 _atom_site_symmetry_multiplicity
 _atom_site_fract_x
 _atom_site_fract_y
 _atom_site_fract_z
 _atom_site_occupancy
  Na  Na0  1  0.877210  0.409308  0.175620  1
  Na  Na1  1  0.377210  0.409308  0.324380  1
  Na  Na2  1  0.622790  0.590692  0.675620  1
  Na  Na3  1  0.122790  0.590692  0.824380  1
  Pr  Pr4  1  0.389666  0.143581  0.641646  1
  Pr  Pr5  1  0.110334  0.856419  0.141646  1
  Pr  Pr6  1  0.610334  0.856419  0.358354  1
  Pr  Pr7  1  0.889666  0.143581  0.858354  1
  P  P8  1  0.020109  0.281077  0.601813  1
  P  P9  1  0.804196  0.809259  0.960277  1
  P  P10  1  0.979891  0.718923  0.398187  1
  P  P11  1  0.695804  0.190741  0.460277  1
  P  P12  1  0.520109  0.281077  0.898187  1
  P  P13  1  0.304196  0.809259  0.539723  1
  P  P14  1  0.479891  0.718923  0.101813  1
  P  P15  1  0.195804  0.190741  0.039723  1
  S  S16  1  0.789970  0.632096  0.447441  1
  S  S17  1  0.321086  0.975361  0.442918  1
  S  S18  1  0.438461  0.660969  0.483158  1
  S  S19  1  0.433415  0.905199  0.166158  1
  S  S20  1  0.650876  0.152393  0.304487  1
  S  S21  1  0.581450  0.742184  0.947959  1
  S  S22  1  0.566585  0.094801  0.833842  1
  S  S23  1  0.066585  0.094801  0.666158  1
  S  S24  1  0.605884  0.617759  0.209826  1
  S  S25  1  0.210030  0.367904  0.552559  1
  S  S26  1  0.894116  0.382241  0.709826  1
  S  S27  1  0.394116  0.382241  0.790174  1
  S  S28  1  0.710030  0.367904  0.947441  1
  S  S29  1  0.561539  0.339031  0.516842  1
  S  S30  1  0.289970  0.632096  0.052559  1
  S  S31  1  0.918550  0.257816  0.447959  1
  S  S32  1  0.678914  0.024639  0.557082  1
  S  S33  1  0.105884  0.617759  0.290174  1
  S  S34  1  0.061539  0.339031  0.983158  1
  S  S35  1  0.081450  0.742184  0.552041  1
  S  S36  1  0.849124  0.847607  0.804487  1
  S  S37  1  0.821086  0.975361  0.057082  1
  S  S38  1  0.150876  0.152393  0.195513  1
  S  S39  1  0.178914  0.024639  0.942918  1
  S  S40  1  0.418550  0.257816  0.052041  1
  S  S41  1  0.933415  0.905199  0.333842  1
  S  S42  1  0.349124  0.847607  0.695513  1
  S  S43  1  0.938461  0.660969  0.016842  1
