# generated using pymatgen
data_Ac19NdSn16
_symmetry_space_group_name_H-M   'P 1'
_cell_length_a   8.80877691
_cell_length_b   8.90370845
_cell_length_c   17.05897900
_cell_angle_alpha   90.00000000
_cell_angle_beta   90.00000000
_cell_angle_gamma   90.28908177
_symmetry_Int_Tables_number   1
_chemical_formula_structural   Ac19NdSn16
_chemical_formula_sum   'Ac19 Nd1 Sn16'
_cell_volume   1337.93202389
_cell_formula_units_Z   1
loop_
 _symmetry_equiv_pos_site_id
 _symmetry_equiv_pos_as_xyz
  1  'x, y, z'
loop_
 _atom_site_type_symbol
 _atom_site_label
 _atom_site_symmetry_multiplicity
 _atom_site_fract_x
 _atom_site_fract_y
 _atom_site_fract_z
 _atom_site_occupancy
  Ac  Ac0  1  0.019519  0.179744  0.401426  1
  Ac  Ac1  1  0.371296  0.842585  0.116430  1
  Ac  Ac2  1  0.128879  0.342485  0.618970  1
  Ac  Ac3  1  0.480936  0.679539  0.899695  1
  Ac  Ac4  1  0.870973  0.657022  0.115840  1
  Ac  Ac5  1  0.128879  0.342485  0.881030  1
  Ac  Ac6  1  0.202208  0.502967  0.250000  1
  Ac  Ac7  1  0.702129  0.996677  0.250000  1
  Ac  Ac8  1  0.480936  0.679539  0.600305  1
  Ac  Ac9  1  0.295880  0.999684  0.750000  1
  Ac  Ac10  1  0.629856  0.157662  0.618745  1
  Ac  Ac11  1  0.870973  0.657022  0.384160  1
  Ac  Ac12  1  0.019519  0.179744  0.098574  1
  Ac  Ac13  1  0.979819  0.818171  0.899849  1
  Ac  Ac14  1  0.629856  0.157662  0.881255  1
  Ac  Ac15  1  0.518078  0.318509  0.097807  1
  Ac  Ac16  1  0.371296  0.842585  0.383570  1
  Ac  Ac17  1  0.979819  0.818171  0.600151  1
  Ac  Ac18  1  0.518078  0.318509  0.402193  1
  Nd  Nd19  1  0.794500  0.500259  0.750000  1
  Sn  Sn20  1  0.786125  0.467041  0.548289  1
  Sn  Sn21  1  0.714697  0.964175  0.456792  1
  Sn  Sn22  1  0.684843  0.852962  0.750000  1
  Sn  Sn23  1  0.214268  0.535143  0.456671  1
  Sn  Sn24  1  0.285755  0.037010  0.955818  1
  Sn  Sn25  1  0.820494  0.359789  0.250000  1
  Sn  Sn26  1  0.786125  0.467041  0.951711  1
  Sn  Sn27  1  0.574537  0.611929  0.250000  1
  Sn  Sn28  1  0.214268  0.535143  0.043329  1
  Sn  Sn29  1  0.434720  0.391509  0.750000  1
  Sn  Sn30  1  0.170586  0.637960  0.750000  1
  Sn  Sn31  1  0.925408  0.119773  0.750000  1
  Sn  Sn32  1  0.285755  0.037010  0.544182  1
  Sn  Sn33  1  0.714697  0.964175  0.043208  1
  Sn  Sn34  1  0.319193  0.140965  0.250000  1
  Sn  Sn35  1  0.075095  0.887355  0.250000  1
