# generated using pymatgen
data_La3Ho2ThIn10
_symmetry_space_group_name_H-M   'P 1'
_cell_length_a   6.63159848
_cell_length_b   6.63159923
_cell_length_c   10.49215750
_cell_angle_alpha   90.23615452
_cell_angle_beta   90.23615633
_cell_angle_gamma   102.48698084
_symmetry_Int_Tables_number   1
_chemical_formula_structural   La3Ho2ThIn10
_chemical_formula_sum   'La3 Ho2 Th1 In10'
_cell_volume   450.50048506
_cell_formula_units_Z   1
loop_
 _symmetry_equiv_pos_site_id
 _symmetry_equiv_pos_as_xyz
  1  'x, y, z'
loop_
 _atom_site_type_symbol
 _atom_site_label
 _atom_site_symmetry_multiplicity
 _atom_site_fract_x
 _atom_site_fract_y
 _atom_site_fract_z
 _atom_site_occupancy
  La  La0  1  0.205527  0.794473  0.500000  1
  La  La1  1  0.206724  0.793276  0.000000  1
  La  La2  1  0.794017  0.205983  0.500000  1
  Ho  Ho3  1  0.632034  0.631107  0.250186  1
  Ho  Ho4  1  0.368893  0.367966  0.749814  1
  Th  Th5  1  0.793000  0.207000  0.000000  1
  In  In6  1  0.007874  0.008689  0.248328  1
  In  In7  1  0.991311  0.992126  0.751672  1
  In  In8  1  0.309756  0.309330  0.046815  1
  In  In9  1  0.690670  0.690244  0.953185  1
  In  In10  1  0.310133  0.309742  0.452499  1
  In  In11  1  0.690258  0.689867  0.547501  1
  In  In12  1  0.493005  0.067151  0.248873  1
  In  In13  1  0.932849  0.506995  0.751127  1
  In  In14  1  0.507998  0.934048  0.751308  1
  In  In15  1  0.065952  0.492002  0.248692  1
