# generated using pymatgen
data_Er2As4O9
_symmetry_space_group_name_H-M   'P 1'
_cell_length_a   6.70438890
_cell_length_b   7.50772255
_cell_length_c   9.76421469
_cell_angle_alpha   94.92922337
_cell_angle_beta   104.13279903
_cell_angle_gamma   104.70258261
_symmetry_Int_Tables_number   1
_chemical_formula_structural   Er2As4O9
_chemical_formula_sum   'Er4 As8 O18'
_cell_volume   455.23054227
_cell_formula_units_Z   2
loop_
 _symmetry_equiv_pos_site_id
 _symmetry_equiv_pos_as_xyz
  1  'x, y, z'
loop_
 _atom_site_type_symbol
 _atom_site_label
 _atom_site_symmetry_multiplicity
 _atom_site_fract_x
 _atom_site_fract_y
 _atom_site_fract_z
 _atom_site_occupancy
  Er  Er0  1  0.243720  0.938626  0.614717  1
  Er  Er1  1  0.756280  0.061374  0.385283  1
  Er  Er2  1  0.721302  0.529570  0.409733  1
  Er  Er3  1  0.278698  0.470430  0.590267  1
  As  As4  1  0.683019  0.773688  0.078229  1
  As  As5  1  0.316981  0.226312  0.921771  1
  As  As6  1  0.170008  0.752355  0.912777  1
  As  As7  1  0.829992  0.247645  0.087223  1
  As  As8  1  0.744019  0.914832  0.709746  1
  As  As9  1  0.255981  0.085168  0.290254  1
  As  As10  1  0.809885  0.351711  0.701941  1
  As  As11  1  0.190115  0.648289  0.298059  1
  O  O12  1  0.724127  0.748838  0.259753  1
  O  O13  1  0.275873  0.251162  0.740247  1
  O  O14  1  0.315514  0.978518  0.868767  1
  O  O15  1  0.684486  0.021482  0.131233  1
  O  O16  1  0.608688  0.326189  0.985111  1
  O  O17  1  0.391312  0.673811  0.014889  1
  O  O18  1  0.126449  0.645282  0.736926  1
  O  O19  1  0.873551  0.354718  0.263074  1
  O  O20  1  0.848284  0.875660  0.558704  1
  O  O21  1  0.151716  0.124340  0.441296  1
  O  O22  1  0.481606  0.767738  0.666103  1
  O  O23  1  0.518394  0.232262  0.333897  1
  O  O24  1  0.373335  0.532527  0.380036  1
  O  O25  1  0.626665  0.467473  0.619964  1
  O  O26  1  0.089152  0.669958  0.454381  1
  O  O27  1  0.910848  0.330042  0.545619  1
  O  O28  1  0.378038  0.899567  0.359098  1
  O  O29  1  0.621962  0.100433  0.640902  1
