# generated using pymatgen
data_Nd8Si(Pd7Pt)3
_symmetry_space_group_name_H-M   'P 1'
_cell_length_a   8.46836500
_cell_length_b   8.47869600
_cell_length_c   8.48772300
_cell_angle_alpha   90.00000000
_cell_angle_beta   90.00000000
_cell_angle_gamma   90.00000000
_symmetry_Int_Tables_number   1
_chemical_formula_structural   Nd8Si(Pd7Pt)3
_chemical_formula_sum   'Nd8 Si1 Pd21 Pt3'
_cell_volume   609.42438874
_cell_formula_units_Z   1
loop_
 _symmetry_equiv_pos_site_id
 _symmetry_equiv_pos_as_xyz
  1  'x, y, z'
loop_
 _atom_site_type_symbol
 _atom_site_label
 _atom_site_symmetry_multiplicity
 _atom_site_fract_x
 _atom_site_fract_y
 _atom_site_fract_z
 _atom_site_occupancy
  Nd  Nd0  1  0.252665  0.252646  0.252924  1
  Nd  Nd1  1  0.746831  0.746579  0.746481  1
  Nd  Nd2  1  0.746831  0.746579  0.253519  1
  Nd  Nd3  1  0.747335  0.252646  0.747076  1
  Nd  Nd4  1  0.252665  0.252646  0.747076  1
  Nd  Nd5  1  0.253169  0.746579  0.253519  1
  Nd  Nd6  1  0.253169  0.746579  0.746481  1
  Nd  Nd7  1  0.747335  0.252646  0.252924  1
  Si  Si8  1  0.000000  0.005799  0.000000  1
  Pd  Pd9  1  0.257825  0.499839  0.000000  1
  Pd  Pd10  1  0.742175  0.499839  0.000000  1
  Pd  Pd11  1  0.000000  0.257687  0.500000  1
  Pd  Pd12  1  0.500000  0.255888  0.000000  1
  Pd  Pd13  1  0.000000  0.740929  0.500000  1
  Pd  Pd14  1  0.500000  0.741993  0.000000  1
  Pd  Pd15  1  0.500000  0.999777  0.257056  1
  Pd  Pd16  1  0.258349  0.999827  0.500000  1
  Pd  Pd17  1  0.500000  0.999777  0.742944  1
  Pd  Pd18  1  0.741651  0.999827  0.500000  1
  Pd  Pd19  1  0.000000  0.500023  0.257939  1
  Pd  Pd20  1  0.000000  0.500023  0.742061  1
  Pd  Pd21  1  0.252719  0.499851  0.500000  1
  Pd  Pd22  1  0.747281  0.499851  0.500000  1
  Pd  Pd23  1  0.500000  0.252923  0.500000  1
  Pd  Pd24  1  0.500000  0.747413  0.500000  1
  Pd  Pd25  1  0.500000  0.499814  0.252826  1
  Pd  Pd26  1  0.500000  0.499814  0.747174  1
  Pd  Pd27  1  0.000000  0.722329  0.000000  1
  Pd  Pd28  1  0.000000  0.998934  0.282773  1
  Pd  Pd29  1  0.000000  0.998934  0.717227  1
  Pt  Pt30  1  0.279361  0.998589  0.000000  1
  Pt  Pt31  1  0.720639  0.998589  0.000000  1
  Pt  Pt32  1  0.000000  0.284833  0.000000  1
