# generated using pymatgen
data_Rb5Al3Se7
_symmetry_space_group_name_H-M   'P 1'
_cell_length_a   11.08065829
_cell_length_b   11.08065841
_cell_length_c   9.45561431
_cell_angle_alpha   75.47658258
_cell_angle_beta   75.47657820
_cell_angle_gamma   71.73255982
_symmetry_Int_Tables_number   1
_chemical_formula_structural   Rb5Al3Se7
_chemical_formula_sum   'Rb10 Al6 Se14'
_cell_volume   1048.34695530
_cell_formula_units_Z   2
loop_
 _symmetry_equiv_pos_site_id
 _symmetry_equiv_pos_as_xyz
  1  'x, y, z'
loop_
 _atom_site_type_symbol
 _atom_site_label
 _atom_site_symmetry_multiplicity
 _atom_site_fract_x
 _atom_site_fract_y
 _atom_site_fract_z
 _atom_site_occupancy
  Rb  Rb0  1  0.023331  0.438299  0.716546  1
  Rb  Rb1  1  0.438299  0.023331  0.716546  1
  Rb  Rb2  1  0.976669  0.561701  0.283454  1
  Rb  Rb3  1  0.561701  0.976669  0.283454  1
  Rb  Rb4  1  0.289460  0.710540  0.000000  1
  Rb  Rb5  1  0.710540  0.289460  0.000000  1
  Rb  Rb6  1  0.844020  0.155980  0.500000  1
  Rb  Rb7  1  0.155980  0.844020  0.500000  1
  Rb  Rb8  1  0.429399  0.429399  0.686481  1
  Rb  Rb9  1  0.570601  0.570601  0.313519  1
  Al  Al10  1  0.213828  0.213828  0.179566  1
  Al  Al11  1  0.786172  0.786172  0.820434  1
  Al  Al12  1  0.071322  0.071322  0.057338  1
  Al  Al13  1  0.928678  0.928678  0.942662  1
  Al  Al14  1  0.346592  0.346592  0.333349  1
  Al  Al15  1  0.653408  0.653408  0.666651  1
  Se  Se16  1  0.000351  0.287331  0.112644  1
  Se  Se17  1  0.287331  0.000351  0.112644  1
  Se  Se18  1  0.999649  0.712669  0.887356  1
  Se  Se19  1  0.712669  0.999649  0.887356  1
  Se  Se20  1  0.202794  0.202794  0.437340  1
  Se  Se21  1  0.797206  0.797206  0.562660  1
  Se  Se22  1  0.066244  0.066244  0.805656  1
  Se  Se23  1  0.933756  0.933756  0.194344  1
  Se  Se24  1  0.353530  0.353530  0.066032  1
  Se  Se25  1  0.646470  0.646470  0.933968  1
  Se  Se26  1  0.249362  0.553938  0.396328  1
  Se  Se27  1  0.553938  0.249362  0.396328  1
  Se  Se28  1  0.750638  0.446062  0.603672  1
  Se  Se29  1  0.446062  0.750638  0.603672  1
