# generated using pymatgen
data_K2VCoSe4
_symmetry_space_group_name_H-M   'P 1'
_cell_length_a   13.72064133
_cell_length_b   12.26838518
_cell_length_c   7.31780655
_cell_angle_alpha   84.94929053
_cell_angle_beta   62.95926697
_cell_angle_gamma   32.09144628
_symmetry_Int_Tables_number   1
_chemical_formula_structural   K2VCoSe4
_chemical_formula_sum   'K4 V2 Co2 Se8'
_cell_volume   453.65509863
_cell_formula_units_Z   2
loop_
 _symmetry_equiv_pos_site_id
 _symmetry_equiv_pos_as_xyz
  1  'x, y, z'
loop_
 _atom_site_type_symbol
 _atom_site_label
 _atom_site_symmetry_multiplicity
 _atom_site_fract_x
 _atom_site_fract_y
 _atom_site_fract_z
 _atom_site_occupancy
  K  K0  1  0.678942  0.678942  0.321058  1
  K  K1  1  0.928942  0.928942  0.571058  1
  K  K2  1  0.321058  0.321058  0.678942  1
  K  K3  1  0.571058  0.571058  0.928942  1
  V  V4  1  0.750000  0.750000  0.750000  1
  V  V5  1  0.500000  0.500000  0.500000  1
  Co  Co6  1  0.000000  0.000000  0.000000  1
  Co  Co7  1  0.250000  0.250000  0.250000  1
  Se  Se8  1  0.037831  0.351349  0.659442  1
  Se  Se9  1  0.212169  0.898651  0.590558  1
  Se  Se10  1  0.898651  0.212169  0.298622  1
  Se  Se11  1  0.590558  0.298622  0.212169  1
  Se  Se12  1  0.951378  0.659442  0.351349  1
  Se  Se13  1  0.659442  0.951378  0.037831  1
  Se  Se14  1  0.351349  0.037831  0.951378  1
  Se  Se15  1  0.298622  0.590558  0.898651  1
