# generated using pymatgen
data_NdYLu2(MoN3)4
_symmetry_space_group_name_H-M   'P 1'
_cell_length_a   7.21301478
_cell_length_b   7.21301571
_cell_length_c   6.15625195
_cell_angle_alpha   75.28048511
_cell_angle_beta   75.28048205
_cell_angle_gamma   82.23619360
_symmetry_Int_Tables_number   1
_chemical_formula_structural   NdYLu2(MoN3)4
_chemical_formula_sum   'Nd1 Y1 Lu2 Mo4 N12'
_cell_volume   298.76374437
_cell_formula_units_Z   1
loop_
 _symmetry_equiv_pos_site_id
 _symmetry_equiv_pos_as_xyz
  1  'x, y, z'
loop_
 _atom_site_type_symbol
 _atom_site_label
 _atom_site_symmetry_multiplicity
 _atom_site_fract_x
 _atom_site_fract_y
 _atom_site_fract_z
 _atom_site_occupancy
  Nd  Nd0  1  0.693626  0.306374  0.250000  1
  Y  Y1  1  0.302814  0.697186  0.750000  1
  Lu  Lu2  1  0.918587  0.081413  0.750000  1
  Lu  Lu3  1  0.086801  0.913199  0.250000  1
  Mo  Mo4  1  0.803447  0.618791  0.748371  1
  Mo  Mo5  1  0.195514  0.382746  0.248144  1
  Mo  Mo6  1  0.617254  0.804486  0.251856  1
  Mo  Mo7  1  0.381209  0.196553  0.751629  1
  N  N8  1  0.217081  0.996675  0.856201  1
  N  N9  1  0.347506  0.367264  0.471914  1
  N  N10  1  0.644127  0.631841  0.533022  1
  N  N11  1  0.624418  0.105734  0.669335  1
  N  N12  1  0.003325  0.782919  0.643799  1
  N  N13  1  0.789264  0.996151  0.143404  1
  N  N14  1  0.100719  0.624703  0.161984  1
  N  N15  1  0.894266  0.375582  0.830665  1
  N  N16  1  0.003849  0.210736  0.356596  1
  N  N17  1  0.368159  0.355873  0.966978  1
  N  N18  1  0.632736  0.652494  0.028086  1
  N  N19  1  0.375297  0.899281  0.338016  1
