# generated using pymatgen
data_K3Ba3GaP4
_symmetry_space_group_name_H-M   'P 1'
_cell_length_a   10.17306500
_cell_length_b   10.17306362
_cell_length_c   7.86336100
_cell_angle_alpha   90.00000000
_cell_angle_beta   90.00000000
_cell_angle_gamma   119.99999472
_symmetry_Int_Tables_number   1
_chemical_formula_structural   K3Ba3GaP4
_chemical_formula_sum   'K6 Ba6 Ga2 P8'
_cell_volume   704.76195073
_cell_formula_units_Z   2
loop_
 _symmetry_equiv_pos_site_id
 _symmetry_equiv_pos_as_xyz
  1  'x, y, z'
loop_
 _atom_site_type_symbol
 _atom_site_label
 _atom_site_symmetry_multiplicity
 _atom_site_fract_x
 _atom_site_fract_y
 _atom_site_fract_z
 _atom_site_occupancy
  K  K0  1  0.134427  0.865573  0.171400  1
  K  K1  1  0.268853  0.134427  0.671400  1
  K  K2  1  0.865573  0.731147  0.671400  1
  K  K3  1  0.134427  0.268853  0.171400  1
  K  K4  1  0.731147  0.865573  0.171400  1
  K  K5  1  0.865573  0.134427  0.671400  1
  Ba  Ba6  1  0.953168  0.476584  0.999307  1
  Ba  Ba7  1  0.523416  0.046832  0.999307  1
  Ba  Ba8  1  0.476584  0.953168  0.499307  1
  Ba  Ba9  1  0.046832  0.523416  0.499307  1
  Ba  Ba10  1  0.523416  0.476584  0.999307  1
  Ba  Ba11  1  0.476584  0.523416  0.499307  1
  Ga  Ga12  1  0.666667  0.333333  0.376951  1
  Ga  Ga13  1  0.333333  0.666667  0.876951  1
  P  P14  1  0.333333  0.666667  0.204707  1
  P  P15  1  0.799978  0.200022  0.281407  1
  P  P16  1  0.599955  0.799978  0.781407  1
  P  P17  1  0.200022  0.400045  0.781407  1
  P  P18  1  0.799978  0.599955  0.281407  1
  P  P19  1  0.666667  0.333333  0.704707  1
  P  P20  1  0.400045  0.200022  0.281407  1
  P  P21  1  0.200022  0.799978  0.781407  1
