# generated using pymatgen
data_Er2PaP4Pd7
_symmetry_space_group_name_H-M   'P 1'
_cell_length_a   7.91934604
_cell_length_b   7.91934648
_cell_length_c   9.42983661
_cell_angle_alpha   55.45349195
_cell_angle_beta   55.45349110
_cell_angle_gamma   29.35127188
_symmetry_Int_Tables_number   1
_chemical_formula_structural   Er2PaP4Pd7
_chemical_formula_sum   'Er2 Pa1 P4 Pd7'
_cell_volume   234.85373507
_cell_formula_units_Z   1
loop_
 _symmetry_equiv_pos_site_id
 _symmetry_equiv_pos_as_xyz
  1  'x, y, z'
loop_
 _atom_site_type_symbol
 _atom_site_label
 _atom_site_symmetry_multiplicity
 _atom_site_fract_x
 _atom_site_fract_y
 _atom_site_fract_z
 _atom_site_occupancy
  Er  Er0  1  0.820281  0.820281  0.177288  1
  Er  Er1  1  0.179719  0.179719  0.822712  1
  Pa  Pa2  1  0.500000  0.500000  0.500000  1
  P  P3  1  0.395527  0.395527  0.322973  1
  P  P4  1  0.604473  0.604473  0.677027  1
  P  P5  1  0.844760  0.844760  0.745137  1
  P  P6  1  0.155240  0.155240  0.254863  1
  Pd  Pd7  1  0.669174  0.669174  0.074093  1
  Pd  Pd8  1  0.010209  0.010209  0.211181  1
  Pd  Pd9  1  0.989791  0.989791  0.788819  1
  Pd  Pd10  1  0.500000  0.500000  0.000000  1
  Pd  Pd11  1  0.193981  0.193981  0.471336  1
  Pd  Pd12  1  0.806019  0.806019  0.528664  1
  Pd  Pd13  1  0.330826  0.330826  0.925907  1
