# generated using pymatgen
data_YTmZn2Ga7Pd3
_symmetry_space_group_name_H-M   'P 1'
_cell_length_a   7.63848200
_cell_length_b   7.67528924
_cell_length_c   9.55224200
_cell_angle_alpha   90.00000000
_cell_angle_beta   90.00000000
_cell_angle_gamma   119.32241385
_symmetry_Int_Tables_number   1
_chemical_formula_structural   YTmZn2Ga7Pd3
_chemical_formula_sum   'Y2 Tm2 Zn4 Ga14 Pd6'
_cell_volume   488.27301948
_cell_formula_units_Z   2
loop_
 _symmetry_equiv_pos_site_id
 _symmetry_equiv_pos_as_xyz
  1  'x, y, z'
loop_
 _atom_site_type_symbol
 _atom_site_label
 _atom_site_symmetry_multiplicity
 _atom_site_fract_x
 _atom_site_fract_y
 _atom_site_fract_z
 _atom_site_occupancy
  Y  Y0  1  0.673074  0.998107  0.250000  1
  Y  Y1  1  0.326926  0.001893  0.750000  1
  Tm  Tm2  1  0.995780  0.670350  0.250000  1
  Tm  Tm3  1  0.004220  0.329650  0.750000  1
  Zn  Zn4  1  0.137876  0.136722  0.250000  1
  Zn  Zn5  1  0.862124  0.863278  0.750000  1
  Zn  Zn6  1  0.341579  0.544673  0.250000  1
  Zn  Zn7  1  0.658421  0.455327  0.750000  1
  Ga  Ga8  1  0.009168  0.337576  0.084761  1
  Ga  Ga9  1  0.990832  0.662424  0.915239  1
  Ga  Ga10  1  0.990832  0.662424  0.584761  1
  Ga  Ga11  1  0.332182  0.000168  0.415746  1
  Ga  Ga12  1  0.009168  0.337576  0.415239  1
  Ga  Ga13  1  0.667818  0.999832  0.584254  1
  Ga  Ga14  1  0.667818  0.999832  0.915746  1
  Ga  Ga15  1  0.332182  0.000168  0.084254  1
  Ga  Ga16  1  0.335442  0.333036  0.564827  1
  Ga  Ga17  1  0.664558  0.666964  0.435173  1
  Ga  Ga18  1  0.664558  0.666964  0.064827  1
  Ga  Ga19  1  0.335442  0.333036  0.935173  1
  Ga  Ga20  1  0.539574  0.342124  0.250000  1
  Ga  Ga21  1  0.460426  0.657876  0.750000  1
  Pd  Pd22  1  0.675630  0.325986  0.003514  1
  Pd  Pd23  1  0.324370  0.674014  0.996486  1
  Pd  Pd24  1  0.324370  0.674014  0.503514  1
  Pd  Pd25  1  0.675630  0.325986  0.496486  1
  Pd  Pd26  1  0.000000  0.000000  0.000000  1
  Pd  Pd27  1  0.000000  0.000000  0.500000  1
