# generated using pymatgen
data_Tb6Dy10MgCd2HgPt4
_symmetry_space_group_name_H-M   'P 1'
_cell_length_a   9.71308560
_cell_length_b   9.71308541
_cell_length_c   9.71308600
_cell_angle_alpha   60.05710856
_cell_angle_beta   60.05711601
_cell_angle_gamma   60.05711482
_symmetry_Int_Tables_number   1
_chemical_formula_structural   Tb6Dy10MgCd2HgPt4
_chemical_formula_sum   'Tb6 Dy10 Mg1 Cd2 Hg1 Pt4'
_cell_volume   648.81138191
_cell_formula_units_Z   1
loop_
 _symmetry_equiv_pos_site_id
 _symmetry_equiv_pos_as_xyz
  1  'x, y, z'
loop_
 _atom_site_type_symbol
 _atom_site_label
 _atom_site_symmetry_multiplicity
 _atom_site_fract_x
 _atom_site_fract_y
 _atom_site_fract_z
 _atom_site_occupancy
  Tb  Tb0  1  0.935610  0.565932  0.566291  1
  Tb  Tb1  1  0.562935  0.935754  0.938780  1
  Tb  Tb2  1  0.565932  0.935610  0.566291  1
  Tb  Tb3  1  0.935754  0.562935  0.938780  1
  Tb  Tb4  1  0.565452  0.565452  0.937842  1
  Tb  Tb5  1  0.936976  0.936976  0.563476  1
  Dy  Dy6  1  0.350057  0.350057  0.349899  1
  Dy  Dy7  1  0.352617  0.352617  0.944693  1
  Dy  Dy8  1  0.353012  0.943824  0.352577  1
  Dy  Dy9  1  0.943824  0.353012  0.352577  1
  Dy  Dy10  1  0.809622  0.191258  0.191772  1
  Dy  Dy11  1  0.188153  0.812089  0.812157  1
  Dy  Dy12  1  0.191258  0.809622  0.191772  1
  Dy  Dy13  1  0.812089  0.188153  0.812157  1
  Dy  Dy14  1  0.190984  0.190984  0.810131  1
  Dy  Dy15  1  0.811851  0.811851  0.188881  1
  Mg  Mg16  1  0.575666  0.575666  0.574166  1
  Cd  Cd17  1  0.580952  0.253527  0.581812  1
  Cd  Cd18  1  0.253527  0.580952  0.581812  1
  Hg  Hg19  1  0.584826  0.584826  0.245320  1
  Pt  Pt20  1  0.143934  0.143934  0.144007  1
  Pt  Pt21  1  0.141796  0.141796  0.571110  1
  Pt  Pt22  1  0.141834  0.571335  0.141847  1
  Pt  Pt23  1  0.571335  0.141834  0.141847  1
