# generated using pymatgen
data_Sc6Sn7Ir5
_symmetry_space_group_name_H-M   'P 1'
_cell_length_a   7.60007500
_cell_length_b   7.60007560
_cell_length_c   7.20870100
_cell_angle_alpha   90.00000000
_cell_angle_beta   90.00000000
_cell_angle_gamma   119.99999304
_symmetry_Int_Tables_number   1
_chemical_formula_structural   Sc6Sn7Ir5
_chemical_formula_sum   'Sc6 Sn7 Ir5'
_cell_volume   360.59812552
_cell_formula_units_Z   1
loop_
 _symmetry_equiv_pos_site_id
 _symmetry_equiv_pos_as_xyz
  1  'x, y, z'
loop_
 _atom_site_type_symbol
 _atom_site_label
 _atom_site_symmetry_multiplicity
 _atom_site_fract_x
 _atom_site_fract_y
 _atom_site_fract_z
 _atom_site_occupancy
  Sc  Sc0  1  0.391481  0.995019  0.235727  1
  Sc  Sc1  1  0.603539  0.608519  0.235727  1
  Sc  Sc2  1  0.004981  0.396461  0.235727  1
  Sc  Sc3  1  0.371630  0.962387  0.768105  1
  Sc  Sc4  1  0.590757  0.628370  0.768105  1
  Sc  Sc5  1  0.037613  0.409243  0.768105  1
  Sn  Sn6  1  0.288380  0.275210  0.999163  1
  Sn  Sn7  1  0.986829  0.711620  0.999163  1
  Sn  Sn8  1  0.018563  0.754698  0.495577  1
  Sn  Sn9  1  0.736135  0.981437  0.495577  1
  Sn  Sn10  1  0.245302  0.263865  0.495577  1
  Sn  Sn11  1  0.724790  0.013171  0.999163  1
  Sn  Sn12  1  0.666667  0.333333  0.549434  1
  Ir  Ir13  1  0.000000  0.000000  0.766867  1
  Ir  Ir14  1  0.000000  0.000000  0.227488  1
  Ir  Ir15  1  0.666667  0.333333  0.958260  1
  Ir  Ir16  1  0.333333  0.666667  0.483076  1
  Ir  Ir17  1  0.333333  0.666667  0.019156  1
