# generated using pymatgen
data_La2GaHgPd2
_symmetry_space_group_name_H-M   'P 1'
_cell_length_a   4.57643500
_cell_length_b   7.33418316
_cell_length_c   8.32465388
_cell_angle_alpha   91.35397007
_cell_angle_beta   90.00000000
_cell_angle_gamma   90.00000000
_symmetry_Int_Tables_number   1
_chemical_formula_structural   La2GaHgPd2
_chemical_formula_sum   'La4 Ga2 Hg2 Pd4'
_cell_volume   279.33410397
_cell_formula_units_Z   2
loop_
 _symmetry_equiv_pos_site_id
 _symmetry_equiv_pos_as_xyz
  1  'x, y, z'
loop_
 _atom_site_type_symbol
 _atom_site_label
 _atom_site_symmetry_multiplicity
 _atom_site_fract_x
 _atom_site_fract_y
 _atom_site_fract_z
 _atom_site_occupancy
  La  La0  1  0.250000  0.470745  0.200917  1
  La  La1  1  0.750000  0.529255  0.799083  1
  La  La2  1  0.250000  0.971267  0.311578  1
  La  La3  1  0.750000  0.028733  0.688422  1
  Ga  Ga4  1  0.250000  0.336921  0.565154  1
  Ga  Ga5  1  0.750000  0.663079  0.434846  1
  Hg  Hg6  1  0.250000  0.838479  0.927027  1
  Hg  Hg7  1  0.750000  0.161521  0.072973  1
  Pd  Pd8  1  0.750000  0.750530  0.131882  1
  Pd  Pd9  1  0.250000  0.249470  0.868118  1
  Pd  Pd10  1  0.750000  0.283609  0.415806  1
  Pd  Pd11  1  0.250000  0.716391  0.584194  1
