# generated using pymatgen
data_TbY4Er2FeI12
_symmetry_space_group_name_H-M   'P 1'
_cell_length_a   9.76468504
_cell_length_b   9.75194117
_cell_length_c   9.69741904
_cell_angle_alpha   106.82513885
_cell_angle_beta   107.05775553
_cell_angle_gamma   106.95781193
_symmetry_Int_Tables_number   1
_chemical_formula_structural   TbY4Er2FeI12
_chemical_formula_sum   'Tb1 Y4 Er2 Fe1 I12'
_cell_volume   770.15272412
_cell_formula_units_Z   1
loop_
 _symmetry_equiv_pos_site_id
 _symmetry_equiv_pos_as_xyz
  1  'x, y, z'
loop_
 _atom_site_type_symbol
 _atom_site_label
 _atom_site_symmetry_multiplicity
 _atom_site_fract_x
 _atom_site_fract_y
 _atom_site_fract_z
 _atom_site_occupancy
  Tb  Tb0  1  0.911062  0.979197  0.719503  1
  Y  Y1  1  0.706842  0.907109  0.978716  1
  Y  Y2  1  0.977753  0.706854  0.907080  1
  Y  Y3  1  0.089996  0.021460  0.280651  1
  Y  Y4  1  0.500294  0.500391  0.500096  1
  Er  Er5  1  0.288644  0.092753  0.021478  1
  Er  Er6  1  0.022029  0.288519  0.091728  1
  Fe  Fe7  1  0.999874  0.999991  0.999261  1
  I  I8  1  0.840085  0.615171  0.536767  1
  I  I9  1  0.538356  0.840833  0.613769  1
  I  I10  1  0.613984  0.536575  0.841320  1
  I  I11  1  0.159933  0.385184  0.461564  1
  I  I12  1  0.461862  0.159772  0.384637  1
  I  I13  1  0.384419  0.461573  0.158488  1
  I  I14  1  0.928911  0.321457  0.775829  1
  I  I15  1  0.777101  0.929675  0.321764  1
  I  I16  1  0.322918  0.777242  0.929260  1
  I  I17  1  0.071855  0.678861  0.226341  1
  I  I18  1  0.224987  0.070960  0.680217  1
  I  I19  1  0.679095  0.226423  0.071531  1
