# generated using pymatgen
data_Ta4Co2RhSe12
_symmetry_space_group_name_H-M   'P 1'
_cell_length_a   7.37546305
_cell_length_b   7.37546287
_cell_length_c   19.45662264
_cell_angle_alpha   69.18472618
_cell_angle_beta   69.18472683
_cell_angle_gamma   26.48689576
_symmetry_Int_Tables_number   1
_chemical_formula_structural   Ta4Co2RhSe12
_chemical_formula_sum   'Ta4 Co2 Rh1 Se12'
_cell_volume   439.45611116
_cell_formula_units_Z   1
loop_
 _symmetry_equiv_pos_site_id
 _symmetry_equiv_pos_as_xyz
  1  'x, y, z'
loop_
 _atom_site_type_symbol
 _atom_site_label
 _atom_site_symmetry_multiplicity
 _atom_site_fract_x
 _atom_site_fract_y
 _atom_site_fract_z
 _atom_site_occupancy
  Ta  Ta0  1  0.621780  0.621780  0.851093  1
  Ta  Ta1  1  0.378220  0.378220  0.148907  1
  Ta  Ta2  1  0.744711  0.744711  0.591374  1
  Ta  Ta3  1  0.255289  0.255289  0.408626  1
  Co  Co4  1  0.229224  0.229224  0.716875  1
  Co  Co5  1  0.770776  0.770776  0.283125  1
  Rh  Rh6  1  0.000000  0.000000  0.000000  1
  Se  Se7  1  0.972165  0.972165  0.882953  1
  Se  Se8  1  0.027835  0.027835  0.117047  1
  Se  Se9  1  0.628963  0.628963  0.394856  1
  Se  Se10  1  0.371037  0.371037  0.605144  1
  Se  Se11  1  0.134347  0.134347  0.550908  1
  Se  Se12  1  0.865653  0.865653  0.449092  1
  Se  Se13  1  0.803643  0.803643  0.765172  1
  Se  Se14  1  0.196357  0.196357  0.234828  1
  Se  Se15  1  0.182134  0.182134  0.928501  1
  Se  Se16  1  0.817866  0.817866  0.071499  1
  Se  Se17  1  0.607892  0.607892  0.719925  1
  Se  Se18  1  0.392108  0.392108  0.280075  1
