# generated using pymatgen
data_NdThReC2
_symmetry_space_group_name_H-M   'P 1'
_cell_length_a   5.38777900
_cell_length_b   6.68998700
_cell_length_c   10.07522600
_cell_angle_alpha   90.00000000
_cell_angle_beta   90.00000000
_cell_angle_gamma   90.00000000
_symmetry_Int_Tables_number   1
_chemical_formula_structural   NdThReC2
_chemical_formula_sum   'Nd4 Th4 Re4 C8'
_cell_volume   363.15317353
_cell_formula_units_Z   4
loop_
 _symmetry_equiv_pos_site_id
 _symmetry_equiv_pos_as_xyz
  1  'x, y, z'
loop_
 _atom_site_type_symbol
 _atom_site_label
 _atom_site_symmetry_multiplicity
 _atom_site_fract_x
 _atom_site_fract_y
 _atom_site_fract_z
 _atom_site_occupancy
  Nd  Nd0  1  0.250000  0.812601  0.047084  1
  Nd  Nd1  1  0.750000  0.687399  0.547084  1
  Nd  Nd2  1  0.250000  0.312601  0.452916  1
  Nd  Nd3  1  0.750000  0.187399  0.952916  1
  Th  Th4  1  0.250000  0.475452  0.781298  1
  Th  Th5  1  0.750000  0.024548  0.281298  1
  Th  Th6  1  0.250000  0.975452  0.718702  1
  Th  Th7  1  0.750000  0.524548  0.218702  1
  Re  Re8  1  0.250000  0.270240  0.139174  1
  Re  Re9  1  0.750000  0.229760  0.639174  1
  Re  Re10  1  0.250000  0.770240  0.360826  1
  Re  Re11  1  0.750000  0.729760  0.860826  1
  C  C12  1  0.250000  0.684582  0.548635  1
  C  C13  1  0.750000  0.815418  0.048635  1
  C  C14  1  0.250000  0.184582  0.951365  1
  C  C15  1  0.750000  0.315418  0.451365  1
  C  C16  1  0.250000  0.034796  0.259279  1
  C  C17  1  0.750000  0.465204  0.759279  1
  C  C18  1  0.250000  0.534796  0.240721  1
  C  C19  1  0.750000  0.965204  0.740721  1
