# generated using pymatgen
data_Lu4ReOs7
_symmetry_space_group_name_H-M   'P 1'
_cell_length_a   5.36936800
_cell_length_b   5.24402052
_cell_length_c   8.80612000
_cell_angle_alpha   90.00000000
_cell_angle_beta   90.00000000
_cell_angle_gamma   120.79390367
_symmetry_Int_Tables_number   1
_chemical_formula_structural   Lu4ReOs7
_chemical_formula_sum   'Lu4 Re1 Os7'
_cell_volume   212.99655658
_cell_formula_units_Z   1
loop_
 _symmetry_equiv_pos_site_id
 _symmetry_equiv_pos_as_xyz
  1  'x, y, z'
loop_
 _atom_site_type_symbol
 _atom_site_label
 _atom_site_symmetry_multiplicity
 _atom_site_fract_x
 _atom_site_fract_y
 _atom_site_fract_z
 _atom_site_occupancy
  Lu  Lu0  1  0.333430  0.666861  0.434229  1
  Lu  Lu1  1  0.669635  0.339269  0.564547  1
  Lu  Lu2  1  0.669635  0.339269  0.935453  1
  Lu  Lu3  1  0.333430  0.666861  0.065771  1
  Re  Re4  1  0.165652  0.331306  0.750000  1
  Os  Os5  1  0.171709  0.820144  0.750000  1
  Os  Os6  1  0.340085  0.166145  0.250000  1
  Os  Os7  1  0.823749  0.647498  0.250000  1
  Os  Os8  1  0.648433  0.820144  0.750000  1
  Os  Os9  1  0.009090  0.018181  0.000564  1
  Os  Os10  1  0.826061  0.166145  0.250000  1
  Os  Os11  1  0.009090  0.018181  0.499436  1
