# generated using pymatgen
data_Dy4Mn17(NbP4)3
_symmetry_space_group_name_H-M   'P 1'
_cell_length_a   3.62563200
_cell_length_b   10.84857885
_cell_length_c   12.41349045
_cell_angle_alpha   90.36879969
_cell_angle_beta   90.00000000
_cell_angle_gamma   90.00000000
_symmetry_Int_Tables_number   1
_chemical_formula_structural   Dy4Mn17(NbP4)3
_chemical_formula_sum   'Dy4 Mn17 Nb3 P12'
_cell_volume   488.24914204
_cell_formula_units_Z   1
loop_
 _symmetry_equiv_pos_site_id
 _symmetry_equiv_pos_as_xyz
  1  'x, y, z'
loop_
 _atom_site_type_symbol
 _atom_site_label
 _atom_site_symmetry_multiplicity
 _atom_site_fract_x
 _atom_site_fract_y
 _atom_site_fract_z
 _atom_site_occupancy
  Dy  Dy0  1  0.250000  0.584846  0.705039  1
  Dy  Dy1  1  0.250000  0.913793  0.209724  1
  Dy  Dy2  1  0.750000  0.411011  0.292887  1
  Dy  Dy3  1  0.750000  0.087353  0.791573  1
  Mn  Mn4  1  0.750000  0.206889  0.514505  1
  Mn  Mn5  1  0.250000  0.405167  0.493542  1
  Mn  Mn6  1  0.250000  0.089313  0.994265  1
  Mn  Mn7  1  0.750000  0.584183  0.506439  1
  Mn  Mn8  1  0.750000  0.912057  0.007971  1
  Mn  Mn9  1  0.250000  0.213023  0.182711  1
  Mn  Mn10  1  0.250000  0.286417  0.674708  1
  Mn  Mn11  1  0.750000  0.787827  0.820115  1
  Mn  Mn12  1  0.750000  0.713099  0.322647  1
  Mn  Mn13  1  0.250000  0.884695  0.695988  1
  Mn  Mn14  1  0.250000  0.616801  0.196898  1
  Mn  Mn15  1  0.750000  0.119913  0.307210  1
  Mn  Mn16  1  0.750000  0.380599  0.799797  1
  Mn  Mn17  1  0.250000  0.462804  0.932634  1
  Mn  Mn18  1  0.250000  0.039973  0.437064  1
  Mn  Mn19  1  0.750000  0.535860  0.065945  1
  Mn  Mn20  1  0.750000  0.969295  0.566828  1
  Nb  Nb21  1  0.250000  0.709795  0.983106  1
  Nb  Nb22  1  0.250000  0.792923  0.481901  1
  Nb  Nb23  1  0.750000  0.289936  0.015449  1
  P  P24  1  0.250000  0.417526  0.118661  1
  P  P25  1  0.250000  0.088079  0.614329  1
  P  P26  1  0.750000  0.580686  0.880004  1
  P  P27  1  0.750000  0.923732  0.383932  1
  P  P28  1  0.250000  0.264995  0.864687  1
  P  P29  1  0.250000  0.234381  0.374979  1
  P  P30  1  0.750000  0.734853  0.133620  1
  P  P31  1  0.750000  0.768128  0.631992  1
  P  P32  1  0.250000  0.583259  0.383815  1
  P  P33  1  0.250000  0.915149  0.882345  1
  P  P34  1  0.750000  0.404089  0.612350  1
  P  P35  1  0.750000  0.087549  0.120338  1
