# generated using pymatgen
data_Tb5Th3(Ta3Si4)4
_symmetry_space_group_name_H-M   'P 1'
_cell_length_a   7.08789965
_cell_length_b   7.09168703
_cell_length_c   13.16077600
_cell_angle_alpha   89.87338130
_cell_angle_beta   90.02453374
_cell_angle_gamma   90.07886769
_symmetry_Int_Tables_number   1
_chemical_formula_structural   Tb5Th3(Ta3Si4)4
_chemical_formula_sum   'Tb5 Th3 Ta12 Si16'
_cell_volume   661.52628833
_cell_formula_units_Z   1
loop_
 _symmetry_equiv_pos_site_id
 _symmetry_equiv_pos_as_xyz
  1  'x, y, z'
loop_
 _atom_site_type_symbol
 _atom_site_label
 _atom_site_symmetry_multiplicity
 _atom_site_fract_x
 _atom_site_fract_y
 _atom_site_fract_z
 _atom_site_occupancy
  Tb  Tb0  1  0.998926  0.339982  0.216709  1
  Tb  Tb1  1  0.999997  0.660837  0.719017  1
  Tb  Tb2  1  0.160611  0.499784  0.467802  1
  Tb  Tb3  1  0.500426  0.838849  0.031684  1
  Tb  Tb4  1  0.838799  0.500496  0.968536  1
  Th  Th5  1  0.497606  0.162923  0.531830  1
  Th  Th6  1  0.337428  0.996517  0.782490  1
  Th  Th7  1  0.662853  0.003578  0.281499  1
  Ta  Ta8  1  0.168293  0.169331  0.999158  1
  Ta  Ta9  1  0.829990  0.832161  0.499416  1
  Ta  Ta10  1  0.331498  0.670279  0.248964  1
  Ta  Ta11  1  0.667576  0.330179  0.750744  1
  Ta  Ta12  1  0.157207  0.990753  0.373867  1
  Ta  Ta13  1  0.844885  0.007544  0.875753  1
  Ta  Ta14  1  0.509130  0.656644  0.625864  1
  Ta  Ta15  1  0.344211  0.493328  0.876046  1
  Ta  Ta16  1  0.491800  0.344250  0.125048  1
  Ta  Ta17  1  0.656548  0.504166  0.374308  1
  Ta  Ta18  1  0.996013  0.157088  0.625609  1
  Ta  Ta19  1  0.005192  0.843680  0.125115  1
  Si  Si20  1  0.289022  0.042885  0.183344  1
  Si  Si21  1  0.713923  0.955287  0.687042  1
  Si  Si22  1  0.455303  0.786031  0.436151  1
  Si  Si23  1  0.204983  0.541708  0.063869  1
  Si  Si24  1  0.544547  0.207963  0.938357  1
  Si  Si25  1  0.797873  0.461822  0.564407  1
  Si  Si26  1  0.037594  0.298495  0.814801  1
  Si  Si27  1  0.960188  0.701587  0.313550  1
  Si  Si28  1  0.364778  0.300445  0.315003  1
  Si  Si29  1  0.634122  0.700229  0.817928  1
  Si  Si30  1  0.199098  0.865493  0.565648  1
  Si  Si31  1  0.126586  0.792381  0.935668  1
  Si  Si32  1  0.797948  0.131832  0.065555  1
  Si  Si33  1  0.878767  0.207179  0.433928  1
  Si  Si34  1  0.292172  0.377881  0.684412  1
  Si  Si35  1  0.704107  0.626412  0.180879  1
