# generated using pymatgen
data_La4Pr6Sn6AuI
_symmetry_space_group_name_H-M   'P 1'
_cell_length_a   9.72620260
_cell_length_b   9.72620306
_cell_length_c   6.89910000
_cell_angle_alpha   90.00125959
_cell_angle_beta   90.00125697
_cell_angle_gamma   119.85670280
_symmetry_Int_Tables_number   1
_chemical_formula_structural   La4Pr6Sn6AuI
_chemical_formula_sum   'La4 Pr6 Sn6 Au1 I1'
_cell_volume   566.02421287
_cell_formula_units_Z   1
loop_
 _symmetry_equiv_pos_site_id
 _symmetry_equiv_pos_as_xyz
  1  'x, y, z'
loop_
 _atom_site_type_symbol
 _atom_site_label
 _atom_site_symmetry_multiplicity
 _atom_site_fract_x
 _atom_site_fract_y
 _atom_site_fract_z
 _atom_site_occupancy
  La  La0  1  0.271342  0.000138  0.758779  1
  La  La1  1  0.728658  0.999862  0.241221  1
  La  La2  1  0.000138  0.271342  0.758779  1
  La  La3  1  0.999862  0.728658  0.241221  1
  Pr  Pr4  1  0.728831  0.728831  0.758730  1
  Pr  Pr5  1  0.271169  0.271169  0.241270  1
  Pr  Pr6  1  0.333566  0.666434  0.500000  1
  Pr  Pr7  1  0.666434  0.333566  0.500000  1
  Pr  Pr8  1  0.666422  0.333578  0.000000  1
  Pr  Pr9  1  0.333578  0.666422  0.000000  1
  Sn  Sn10  1  0.616366  0.998928  0.749753  1
  Sn  Sn11  1  0.383634  0.001072  0.250247  1
  Sn  Sn12  1  0.998928  0.616366  0.749753  1
  Sn  Sn13  1  0.001072  0.383634  0.250247  1
  Sn  Sn14  1  0.385646  0.385646  0.750293  1
  Sn  Sn15  1  0.614354  0.614354  0.249707  1
  Au  Au16  1  0.000000  0.000000  0.000000  1
  I  I17  1  0.000000  0.000000  0.500000  1
