# generated using pymatgen
data_TbPrCo2Cl
_symmetry_space_group_name_H-M   'P 1'
_cell_length_a   3.92734600
_cell_length_b   3.92734651
_cell_length_c   16.35984600
_cell_angle_alpha   90.00000000
_cell_angle_beta   90.00000000
_cell_angle_gamma   119.99999566
_symmetry_Int_Tables_number   1
_chemical_formula_structural   TbPrCo2Cl
_chemical_formula_sum   'Tb2 Pr2 Co4 Cl2'
_cell_volume   218.52858196
_cell_formula_units_Z   2
loop_
 _symmetry_equiv_pos_site_id
 _symmetry_equiv_pos_as_xyz
  1  'x, y, z'
loop_
 _atom_site_type_symbol
 _atom_site_label
 _atom_site_symmetry_multiplicity
 _atom_site_fract_x
 _atom_site_fract_y
 _atom_site_fract_z
 _atom_site_occupancy
  Tb  Tb0  1  0.000000  0.000000  0.608562  1
  Tb  Tb1  1  0.000000  0.000000  0.391438  1
  Pr  Pr2  1  0.000000  0.000000  0.116221  1
  Pr  Pr3  1  0.000000  0.000000  0.883779  1
  Co  Co4  1  0.666667  0.333333  0.502925  1
  Co  Co5  1  0.333333  0.666667  0.000091  1
  Co  Co6  1  0.666667  0.333333  0.999909  1
  Co  Co7  1  0.333333  0.666667  0.497075  1
  Cl  Cl8  1  0.666667  0.333333  0.258906  1
  Cl  Cl9  1  0.333333  0.666667  0.741094  1
