# generated using pymatgen
data_TaBe4Ru4Au
_symmetry_space_group_name_H-M   'P 1'
_cell_length_a   6.34851900
_cell_length_b   6.34851900
_cell_length_c   3.04429800
_cell_angle_alpha   90.00000000
_cell_angle_beta   90.00000000
_cell_angle_gamma   90.00000000
_symmetry_Int_Tables_number   1
_chemical_formula_structural   TaBe4Ru4Au
_chemical_formula_sum   'Ta1 Be4 Ru4 Au1'
_cell_volume   122.69645349
_cell_formula_units_Z   1
loop_
 _symmetry_equiv_pos_site_id
 _symmetry_equiv_pos_as_xyz
  1  'x, y, z'
loop_
 _atom_site_type_symbol
 _atom_site_label
 _atom_site_symmetry_multiplicity
 _atom_site_fract_x
 _atom_site_fract_y
 _atom_site_fract_z
 _atom_site_occupancy
  Ta  Ta0  1  0.000000  0.000000  0.000000  1
  Be  Be1  1  0.135256  0.610921  0.000000  1
  Be  Be2  1  0.864744  0.389079  0.000000  1
  Be  Be3  1  0.610921  0.864744  0.000000  1
  Be  Be4  1  0.389079  0.135256  0.000000  1
  Ru  Ru5  1  0.683857  0.143370  0.500000  1
  Ru  Ru6  1  0.316143  0.856630  0.500000  1
  Ru  Ru7  1  0.143370  0.316143  0.500000  1
  Ru  Ru8  1  0.856630  0.683857  0.500000  1
  Au  Au9  1  0.500000  0.500000  0.000000  1
