# generated using pymatgen
data_Si3Ni4GeRu4
_symmetry_space_group_name_H-M   'P 1'
_cell_length_a   3.76656300
_cell_length_b   5.56183128
_cell_length_c   7.08831895
_cell_angle_alpha   90.01290751
_cell_angle_beta   90.00000000
_cell_angle_gamma   90.00000000
_symmetry_Int_Tables_number   1
_chemical_formula_structural   Si3Ni4GeRu4
_chemical_formula_sum   'Si3 Ni4 Ge1 Ru4'
_cell_volume   148.49310427
_cell_formula_units_Z   1
loop_
 _symmetry_equiv_pos_site_id
 _symmetry_equiv_pos_as_xyz
  1  'x, y, z'
loop_
 _atom_site_type_symbol
 _atom_site_label
 _atom_site_symmetry_multiplicity
 _atom_site_fract_x
 _atom_site_fract_y
 _atom_site_fract_z
 _atom_site_occupancy
  Si  Si0  1  0.000000  0.245296  0.118117  1
  Si  Si1  1  0.000000  0.743205  0.381758  1
  Si  Si2  1  0.500000  0.755500  0.881679  1
  Ni  Ni3  1  0.000000  0.652526  0.062979  1
  Ni  Ni4  1  0.000000  0.149341  0.432582  1
  Ni  Ni5  1  0.500000  0.350805  0.942639  1
  Ni  Ni6  1  0.500000  0.838576  0.560429  1
  Ge  Ge7  1  0.500000  0.253928  0.618059  1
  Ru  Ru8  1  0.000000  0.536123  0.693600  1
  Ru  Ru9  1  0.000000  0.025267  0.815820  1
  Ru  Ru10  1  0.500000  0.475988  0.305286  1
  Ru  Ru11  1  0.500000  0.973442  0.187053  1
