# generated using pymatgen
data_Tb4SmEr15Pt16
_symmetry_space_group_name_H-M   'P 1'
_cell_length_a   7.42546266
_cell_length_b   7.51958525
_cell_length_c   14.74912800
_cell_angle_alpha   89.97508410
_cell_angle_beta   89.86816221
_cell_angle_gamma   90.02154401
_symmetry_Int_Tables_number   1
_chemical_formula_structural   Tb4SmEr15Pt16
_chemical_formula_sum   'Tb4 Sm1 Er15 Pt16'
_cell_volume   823.53588584
_cell_formula_units_Z   1
loop_
 _symmetry_equiv_pos_site_id
 _symmetry_equiv_pos_as_xyz
  1  'x, y, z'
loop_
 _atom_site_type_symbol
 _atom_site_label
 _atom_site_symmetry_multiplicity
 _atom_site_fract_x
 _atom_site_fract_y
 _atom_site_fract_z
 _atom_site_occupancy
  Tb  Tb0  1  0.508716  0.324939  0.406769  1
  Tb  Tb1  1  0.010230  0.175340  0.093106  1
  Tb  Tb2  1  0.489934  0.675986  0.906860  1
  Tb  Tb3  1  0.991007  0.821466  0.594287  1
  Sm  Sm4  1  0.009391  0.176083  0.406539  1
  Er  Er5  1  0.646430  0.168829  0.622781  1
  Er  Er6  1  0.145712  0.331903  0.877632  1
  Er  Er7  1  0.354659  0.832207  0.121836  1
  Er  Er8  1  0.853774  0.668167  0.377426  1
  Er  Er9  1  0.355544  0.830764  0.377430  1
  Er  Er10  1  0.854928  0.668713  0.120800  1
  Er  Er11  1  0.644890  0.168404  0.878168  1
  Er  Er12  1  0.147882  0.332575  0.622539  1
  Er  Er13  1  0.492101  0.678743  0.593948  1
  Er  Er14  1  0.989527  0.823082  0.904872  1
  Er  Er15  1  0.510660  0.323047  0.094176  1
  Er  Er16  1  0.807581  0.511010  0.750300  1
  Er  Er17  1  0.307577  0.989024  0.750363  1
  Er  Er18  1  0.192032  0.488786  0.248667  1
  Er  Er19  1  0.692127  0.011463  0.249038  1
  Pt  Pt20  1  0.685452  0.964162  0.460306  1
  Pt  Pt21  1  0.193315  0.529865  0.041631  1
  Pt  Pt22  1  0.307021  0.029317  0.957658  1
  Pt  Pt23  1  0.808573  0.471039  0.542545  1
  Pt  Pt24  1  0.312890  0.028445  0.543677  1
  Pt  Pt25  1  0.811361  0.468775  0.958259  1
  Pt  Pt26  1  0.689058  0.969374  0.041136  1
  Pt  Pt27  1  0.189953  0.536666  0.460759  1
  Pt  Pt28  1  0.441062  0.385682  0.749906  1
  Pt  Pt29  1  0.940890  0.115181  0.750653  1
  Pt  Pt30  1  0.558227  0.616237  0.249239  1
  Pt  Pt31  1  0.059260  0.882804  0.249144  1
  Pt  Pt32  1  0.668975  0.857174  0.750258  1
  Pt  Pt33  1  0.169001  0.642587  0.751015  1
  Pt  Pt34  1  0.332240  0.142939  0.248499  1
  Pt  Pt35  1  0.828015  0.359221  0.247782  1
