# generated using pymatgen
data_SrAsRhN
_symmetry_space_group_name_H-M   'P 1'
_cell_length_a   4.01579300
_cell_length_b   4.01579300
_cell_length_c   8.43283100
_cell_angle_alpha   90.00000000
_cell_angle_beta   90.00000000
_cell_angle_gamma   90.00000000
_symmetry_Int_Tables_number   1
_chemical_formula_structural   SrAsRhN
_chemical_formula_sum   'Sr2 As2 Rh2 N2'
_cell_volume   135.99283691
_cell_formula_units_Z   2
loop_
 _symmetry_equiv_pos_site_id
 _symmetry_equiv_pos_as_xyz
  1  'x, y, z'
loop_
 _atom_site_type_symbol
 _atom_site_label
 _atom_site_symmetry_multiplicity
 _atom_site_fract_x
 _atom_site_fract_y
 _atom_site_fract_z
 _atom_site_occupancy
  Sr  Sr0  1  0.500000  0.000000  0.153660  1
  Sr  Sr1  1  0.000000  0.500000  0.846341  1
  As  As2  1  0.000000  0.500000  0.340001  1
  As  As3  1  0.500000  0.000000  0.660000  1
  Rh  Rh4  1  0.000000  0.000000  0.500000  1
  Rh  Rh5  1  0.500000  0.500000  0.500000  1
  N  N6  1  0.000000  0.500000  0.129721  1
  N  N7  1  0.500000  0.000000  0.870280  1
