# generated using pymatgen
data_LaAlNiPt3
_symmetry_space_group_name_H-M   'P 1'
_cell_length_a   5.22635688
_cell_length_b   5.22635780
_cell_length_c   4.29786500
_cell_angle_alpha   90.00000000
_cell_angle_beta   90.00000000
_cell_angle_gamma   114.85610853
_symmetry_Int_Tables_number   1
_chemical_formula_structural   LaAlNiPt3
_chemical_formula_sum   'La1 Al1 Ni1 Pt3'
_cell_volume   106.52060078
_cell_formula_units_Z   1
loop_
 _symmetry_equiv_pos_site_id
 _symmetry_equiv_pos_as_xyz
  1  'x, y, z'
loop_
 _atom_site_type_symbol
 _atom_site_label
 _atom_site_symmetry_multiplicity
 _atom_site_fract_x
 _atom_site_fract_y
 _atom_site_fract_z
 _atom_site_occupancy
  La  La0  1  0.500347  0.499653  0.000000  1
  Al  Al1  1  0.998568  0.001432  0.500000  1
  Ni  Ni2  1  0.836525  0.163475  0.000000  1
  Pt  Pt3  1  0.149312  0.850688  0.000000  1
  Pt  Pt4  1  0.003148  0.487899  0.500000  1
  Pt  Pt5  1  0.512101  0.996852  0.500000  1
