# generated using pymatgen
data_Dy8Er2BiPb5
_symmetry_space_group_name_H-M   'P 1'
_cell_length_a   9.09041144
_cell_length_b   9.09041133
_cell_length_c   6.56003900
_cell_angle_alpha   90.00215916
_cell_angle_beta   90.00215266
_cell_angle_gamma   119.98725064
_symmetry_Int_Tables_number   1
_chemical_formula_structural   Dy8Er2BiPb5
_chemical_formula_sum   'Dy8 Er2 Bi1 Pb5'
_cell_volume   469.52628183
_cell_formula_units_Z   1
loop_
 _symmetry_equiv_pos_site_id
 _symmetry_equiv_pos_as_xyz
  1  'x, y, z'
loop_
 _atom_site_type_symbol
 _atom_site_label
 _atom_site_symmetry_multiplicity
 _atom_site_fract_x
 _atom_site_fract_y
 _atom_site_fract_z
 _atom_site_occupancy
  Dy  Dy0  1  0.668156  0.332976  0.000027  1
  Dy  Dy1  1  0.332976  0.668156  0.000027  1
  Dy  Dy2  1  0.762807  0.762807  0.749872  1
  Dy  Dy3  1  0.237532  0.996999  0.749920  1
  Dy  Dy4  1  0.996999  0.237532  0.749920  1
  Dy  Dy5  1  0.238511  0.238511  0.250096  1
  Dy  Dy6  1  0.761517  0.000533  0.250108  1
  Dy  Dy7  1  0.000533  0.761517  0.250108  1
  Er  Er8  1  0.332889  0.668258  0.499877  1
  Er  Er9  1  0.668258  0.332889  0.499877  1
  Bi  Bi10  1  0.393008  0.393008  0.749621  1
  Pb  Pb11  1  0.605913  0.999758  0.749553  1
  Pb  Pb12  1  0.999758  0.605913  0.749553  1
  Pb  Pb13  1  0.606762  0.606762  0.250500  1
  Pb  Pb14  1  0.393563  0.000816  0.250471  1
  Pb  Pb15  1  0.000816  0.393563  0.250471  1
