# generated using pymatgen
data_HoPa7S12
_symmetry_space_group_name_H-M   'P 1'
_cell_length_a   3.81789400
_cell_length_b   10.40839647
_cell_length_c   10.58276738
_cell_angle_alpha   90.19000015
_cell_angle_beta   90.00000000
_cell_angle_gamma   90.00000000
_symmetry_Int_Tables_number   1
_chemical_formula_structural   HoPa7S12
_chemical_formula_sum   'Ho1 Pa7 S12'
_cell_volume   420.53733229
_cell_formula_units_Z   1
loop_
 _symmetry_equiv_pos_site_id
 _symmetry_equiv_pos_as_xyz
  1  'x, y, z'
loop_
 _atom_site_type_symbol
 _atom_site_label
 _atom_site_symmetry_multiplicity
 _atom_site_fract_x
 _atom_site_fract_y
 _atom_site_fract_z
 _atom_site_occupancy
  Ho  Ho0  1  0.250000  0.316707  0.987256  1
  Pa  Pa1  1  0.250000  0.990479  0.807048  1
  Pa  Pa2  1  0.750000  0.004341  0.194475  1
  Pa  Pa3  1  0.750000  0.496966  0.689445  1
  Pa  Pa4  1  0.250000  0.507190  0.309492  1
  Pa  Pa5  1  0.250000  0.182985  0.490101  1
  Pa  Pa6  1  0.750000  0.816399  0.511173  1
  Pa  Pa7  1  0.750000  0.685499  0.010748  1
  S  S8  1  0.250000  0.298722  0.726597  1
  S  S9  1  0.750000  0.706099  0.272137  1
  S  S10  1  0.750000  0.792149  0.771771  1
  S  S11  1  0.250000  0.202643  0.226480  1
  S  S12  1  0.250000  0.942210  0.374778  1
  S  S13  1  0.750000  0.057524  0.627631  1
  S  S14  1  0.750000  0.444280  0.123781  1
  S  S15  1  0.250000  0.555670  0.875044  1
  S  S16  1  0.250000  0.872497  0.051955  1
  S  S17  1  0.750000  0.127466  0.951289  1
  S  S18  1  0.750000  0.370193  0.446856  1
  S  S19  1  0.250000  0.629982  0.551944  1
