# generated using pymatgen
data_Ta12Al8Co3TcN4
_symmetry_space_group_name_H-M   'P 1'
_cell_length_a   8.21164976
_cell_length_b   8.17977733
_cell_length_c   8.17889004
_cell_angle_alpha   60.00635580
_cell_angle_beta   60.13426824
_cell_angle_gamma   60.13501318
_symmetry_Int_Tables_number   1
_chemical_formula_structural   Ta12Al8Co3TcN4
_chemical_formula_sum   'Ta12 Al8 Co3 Tc1 N4'
_cell_volume   389.27189547
_cell_formula_units_Z   1
loop_
 _symmetry_equiv_pos_site_id
 _symmetry_equiv_pos_as_xyz
  1  'x, y, z'
loop_
 _atom_site_type_symbol
 _atom_site_label
 _atom_site_symmetry_multiplicity
 _atom_site_fract_x
 _atom_site_fract_y
 _atom_site_fract_z
 _atom_site_occupancy
  Ta  Ta0  1  0.563386  0.941227  0.554161  1
  Ta  Ta1  1  0.313301  0.688039  0.688051  1
  Ta  Ta2  1  0.686605  0.308779  0.308781  1
  Ta  Ta3  1  0.313301  0.688033  0.310618  1
  Ta  Ta4  1  0.686624  0.695836  0.308772  1
  Ta  Ta5  1  0.313307  0.310611  0.688039  1
  Ta  Ta6  1  0.563376  0.554164  0.941228  1
  Ta  Ta7  1  0.936699  0.561961  0.561949  1
  Ta  Ta8  1  0.563395  0.941221  0.941219  1
  Ta  Ta9  1  0.936693  0.939389  0.561961  1
  Ta  Ta10  1  0.686614  0.308773  0.695839  1
  Ta  Ta11  1  0.936699  0.561967  0.939382  1
  Al  Al12  1  0.927978  0.913058  0.913112  1
  Al  Al13  1  0.998930  0.333753  0.333692  1
  Al  Al14  1  0.322063  0.004130  0.336944  1
  Al  Al15  1  0.322050  0.336975  0.004131  1
  Al  Al16  1  0.927937  0.245870  0.913056  1
  Al  Al17  1  0.927950  0.913025  0.245869  1
  Al  Al18  1  0.251070  0.916247  0.916308  1
  Al  Al19  1  0.322022  0.336942  0.336888  1
  Co  Co20  1  0.125000  0.125000  0.125000  1
  Co  Co21  1  0.125000  0.625000  0.125000  1
  Co  Co22  1  0.125000  0.125000  0.625000  1
  Tc  Tc23  1  0.625000  0.125000  0.125000  1
  N  N24  1  0.625000  0.625000  0.625000  1
  N  N25  1  0.125000  0.625000  0.625000  1
  N  N26  1  0.625000  0.125000  0.625000  1
  N  N27  1  0.625000  0.625000  0.125000  1
