# generated using pymatgen
data_Be8VZnFe2
_symmetry_space_group_name_H-M   'P 1'
_cell_length_a   4.22672200
_cell_length_b   4.22672182
_cell_length_c   6.92590400
_cell_angle_alpha   90.00000000
_cell_angle_beta   90.00000000
_cell_angle_gamma   119.99998573
_symmetry_Int_Tables_number   1
_chemical_formula_structural   Be8VZnFe2
_chemical_formula_sum   'Be8 V1 Zn1 Fe2'
_cell_volume   107.15551112
_cell_formula_units_Z   1
loop_
 _symmetry_equiv_pos_site_id
 _symmetry_equiv_pos_as_xyz
  1  'x, y, z'
loop_
 _atom_site_type_symbol
 _atom_site_label
 _atom_site_symmetry_multiplicity
 _atom_site_fract_x
 _atom_site_fract_y
 _atom_site_fract_z
 _atom_site_occupancy
  Be  Be0  1  0.000000  0.000000  0.997379  1
  Be  Be1  1  0.000000  0.000000  0.493059  1
  Be  Be2  1  0.830328  0.660656  0.248768  1
  Be  Be3  1  0.168653  0.831347  0.751850  1
  Be  Be4  1  0.662694  0.831347  0.751850  1
  Be  Be5  1  0.339344  0.169672  0.248768  1
  Be  Be6  1  0.830328  0.169672  0.248768  1
  Be  Be7  1  0.168653  0.337306  0.751850  1
  V  V8  1  0.666667  0.333333  0.566313  1
  Zn  Zn9  1  0.333333  0.666667  0.064799  1
  Fe  Fe10  1  0.666667  0.333333  0.920192  1
  Fe  Fe11  1  0.333333  0.666667  0.456404  1
