# generated using pymatgen
data_HoMn2SiC
_symmetry_space_group_name_H-M   'P 1'
_cell_length_a   5.60045141
_cell_length_b   5.60045217
_cell_length_c   6.99257400
_cell_angle_alpha   90.00000000
_cell_angle_beta   90.00000000
_cell_angle_gamma   141.48297583
_symmetry_Int_Tables_number   1
_chemical_formula_structural   HoMn2SiC
_chemical_formula_sum   'Ho2 Mn4 Si2 C2'
_cell_volume   136.58246336
_cell_formula_units_Z   2
loop_
 _symmetry_equiv_pos_site_id
 _symmetry_equiv_pos_as_xyz
  1  'x, y, z'
loop_
 _atom_site_type_symbol
 _atom_site_label
 _atom_site_symmetry_multiplicity
 _atom_site_fract_x
 _atom_site_fract_y
 _atom_site_fract_z
 _atom_site_occupancy
  Ho  Ho0  1  0.543702  0.456298  0.250000  1
  Ho  Ho1  1  0.456298  0.543702  0.750000  1
  Mn  Mn2  1  0.831846  0.168154  0.061457  1
  Mn  Mn3  1  0.168154  0.831846  0.938543  1
  Mn  Mn4  1  0.168154  0.831846  0.561457  1
  Mn  Mn5  1  0.831846  0.168154  0.438543  1
  Si  Si6  1  0.264749  0.735251  0.250000  1
  Si  Si7  1  0.735251  0.264749  0.750000  1
  C  C8  1  0.000000  0.000000  0.000000  1
  C  C9  1  0.000000  0.000000  0.500000  1
