# generated using pymatgen
data_Ca3Ga9Ag2
_symmetry_space_group_name_H-M   'P 1'
_cell_length_a   8.39774436
_cell_length_b   8.39774355
_cell_length_c   8.39774442
_cell_angle_alpha   149.22013830
_cell_angle_beta   109.65990722
_cell_angle_gamma   78.72161529
_symmetry_Int_Tables_number   1
_chemical_formula_structural   Ca3Ga9Ag2
_chemical_formula_sum   'Ca3 Ga9 Ag2'
_cell_volume   279.97995887
_cell_formula_units_Z   1
loop_
 _symmetry_equiv_pos_site_id
 _symmetry_equiv_pos_as_xyz
  1  'x, y, z'
loop_
 _atom_site_type_symbol
 _atom_site_label
 _atom_site_symmetry_multiplicity
 _atom_site_fract_x
 _atom_site_fract_y
 _atom_site_fract_z
 _atom_site_occupancy
  Ca  Ca0  1  0.301206  0.301206  0.000000  1
  Ca  Ca1  1  0.698794  0.698794  0.000000  1
  Ca  Ca2  1  0.000000  0.000000  0.000000  1
  Ga  Ga3  1  0.707633  0.339558  0.368075  1
  Ga  Ga4  1  0.292367  0.660442  0.631925  1
  Ga  Ga5  1  0.971483  0.339558  0.631925  1
  Ga  Ga6  1  0.028517  0.660442  0.368075  1
  Ga  Ga7  1  0.426341  0.146431  0.279909  1
  Ga  Ga8  1  0.573659  0.853569  0.720091  1
  Ga  Ga9  1  0.866522  0.146431  0.720091  1
  Ga  Ga10  1  0.133478  0.853569  0.279909  1
  Ga  Ga11  1  0.500000  0.000000  0.500000  1
  Ag  Ag12  1  0.690650  0.500000  0.190650  1
  Ag  Ag13  1  0.309350  0.500000  0.809350  1
