# generated using pymatgen
data_Zr4Ta6GaSi7
_symmetry_space_group_name_H-M   'P 1'
_cell_length_a   6.90818506
_cell_length_b   6.89139706
_cell_length_c   12.77522000
_cell_angle_alpha   90.00000000
_cell_angle_beta   90.00000000
_cell_angle_gamma   89.98518607
_symmetry_Int_Tables_number   1
_chemical_formula_structural   Zr4Ta6GaSi7
_chemical_formula_sum   'Zr8 Ta12 Ga2 Si14'
_cell_volume   608.19046818
_cell_formula_units_Z   2
loop_
 _symmetry_equiv_pos_site_id
 _symmetry_equiv_pos_as_xyz
  1  'x, y, z'
loop_
 _atom_site_type_symbol
 _atom_site_label
 _atom_site_symmetry_multiplicity
 _atom_site_fract_x
 _atom_site_fract_y
 _atom_site_fract_z
 _atom_site_occupancy
  Zr  Zr0  1  0.001497  0.662750  0.031321  1
  Zr  Zr1  1  0.998503  0.337250  0.531321  1
  Zr  Zr2  1  0.656883  0.999911  0.969994  1
  Zr  Zr3  1  0.162081  0.500808  0.779396  1
  Zr  Zr4  1  0.837919  0.499192  0.279396  1
  Zr  Zr5  1  0.499726  0.159371  0.219332  1
  Zr  Zr6  1  0.500274  0.840629  0.719332  1
  Zr  Zr7  1  0.343117  0.000089  0.469994  1
  Ta  Ta8  1  0.351596  0.502616  0.375428  1
  Ta  Ta9  1  0.844049  0.999693  0.372080  1
  Ta  Ta10  1  0.005519  0.152412  0.129046  1
  Ta  Ta11  1  0.994481  0.847588  0.629046  1
  Ta  Ta12  1  0.648404  0.497384  0.875428  1
  Ta  Ta13  1  0.504507  0.347529  0.623851  1
  Ta  Ta14  1  0.495493  0.652471  0.123851  1
  Ta  Ta15  1  0.155951  0.000307  0.872080  1
  Ta  Ta16  1  0.665374  0.669668  0.501194  1
  Ta  Ta17  1  0.829015  0.167627  0.748262  1
  Ta  Ta18  1  0.170985  0.832373  0.248262  1
  Ta  Ta19  1  0.334626  0.330332  0.001194  1
  Ga  Ga20  1  0.041169  0.699763  0.435227  1
  Ga  Ga21  1  0.958831  0.300237  0.935227  1
  Si  Si22  1  0.702392  0.043155  0.562937  1
  Si  Si23  1  0.200713  0.456842  0.186955  1
  Si  Si24  1  0.799287  0.543158  0.686955  1
  Si  Si25  1  0.456355  0.201329  0.813639  1
  Si  Si26  1  0.543645  0.798671  0.313639  1
  Si  Si27  1  0.297608  0.956845  0.062937  1
  Si  Si28  1  0.864139  0.792195  0.823522  1
  Si  Si29  1  0.135861  0.207805  0.323522  1
  Si  Si30  1  0.792231  0.864360  0.177794  1
  Si  Si31  1  0.291823  0.635617  0.572496  1
  Si  Si32  1  0.708177  0.364383  0.072496  1
  Si  Si33  1  0.636613  0.293283  0.427527  1
  Si  Si34  1  0.363387  0.706717  0.927527  1
  Si  Si35  1  0.207769  0.135640  0.677794  1
