# generated using pymatgen
data_LuSc5(Fe3P2)6
_symmetry_space_group_name_H-M   'P 1'
_cell_length_a   3.60874100
_cell_length_b   10.38600100
_cell_length_c   12.00244900
_cell_angle_alpha   90.00000000
_cell_angle_beta   90.00000000
_cell_angle_gamma   90.00000000
_symmetry_Int_Tables_number   1
_chemical_formula_structural   LuSc5(Fe3P2)6
_chemical_formula_sum   'Lu1 Sc5 Fe18 P12'
_cell_volume   449.85644109
_cell_formula_units_Z   1
loop_
 _symmetry_equiv_pos_site_id
 _symmetry_equiv_pos_as_xyz
  1  'x, y, z'
loop_
 _atom_site_type_symbol
 _atom_site_label
 _atom_site_symmetry_multiplicity
 _atom_site_fract_x
 _atom_site_fract_y
 _atom_site_fract_z
 _atom_site_occupancy
  Lu  Lu0  1  0.500000  0.000000  0.473055  1
  Sc  Sc1  1  0.000000  0.500000  0.527505  1
  Sc  Sc2  1  0.500000  0.821389  0.206736  1
  Sc  Sc3  1  0.500000  0.178611  0.206736  1
  Sc  Sc4  1  0.000000  0.678153  0.792920  1
  Sc  Sc5  1  0.000000  0.321847  0.792920  1
  Fe  Fe6  1  0.500000  0.500000  0.154126  1
  Fe  Fe7  1  0.000000  0.000000  0.846307  1
  Fe  Fe8  1  0.500000  0.500000  0.697886  1
  Fe  Fe9  1  0.000000  0.000000  0.299374  1
  Fe  Fe10  1  0.000000  0.500000  0.988575  1
  Fe  Fe11  1  0.500000  0.000000  0.010840  1
  Fe  Fe12  1  0.500000  0.328472  0.995445  1
  Fe  Fe13  1  0.500000  0.671528  0.995445  1
  Fe  Fe14  1  0.000000  0.171996  0.004388  1
  Fe  Fe15  1  0.000000  0.828004  0.004388  1
  Fe  Fe16  1  0.500000  0.300410  0.431321  1
  Fe  Fe17  1  0.500000  0.699590  0.431321  1
  Fe  Fe18  1  0.000000  0.201898  0.569334  1
  Fe  Fe19  1  0.000000  0.798102  0.569334  1
  Fe  Fe20  1  0.500000  0.880177  0.707713  1
  Fe  Fe21  1  0.500000  0.119823  0.707713  1
  Fe  Fe22  1  0.000000  0.618862  0.293053  1
  Fe  Fe23  1  0.000000  0.381138  0.293053  1
  P  P24  1  0.500000  0.500000  0.879596  1
  P  P25  1  0.000000  0.000000  0.119210  1
  P  P26  1  0.500000  0.500000  0.344413  1
  P  P27  1  0.000000  0.000000  0.657819  1
  P  P28  1  0.500000  0.309970  0.616743  1
  P  P29  1  0.500000  0.690030  0.616743  1
  P  P30  1  0.000000  0.191200  0.382701  1
  P  P31  1  0.000000  0.808800  0.382701  1
  P  P32  1  0.500000  0.848339  0.886189  1
  P  P33  1  0.500000  0.151661  0.886189  1
  P  P34  1  0.000000  0.650983  0.114104  1
  P  P35  1  0.000000  0.349017  0.114104  1
