# generated using pymatgen
data_Yb6Pa2Tl3Pt8Pb
_symmetry_space_group_name_H-M   'P 1'
_cell_length_a   7.81607924
_cell_length_b   7.80592016
_cell_length_c   7.47684600
_cell_angle_alpha   90.00000000
_cell_angle_beta   90.00000000
_cell_angle_gamma   93.17583058
_symmetry_Int_Tables_number   1
_chemical_formula_structural   Yb6Pa2Tl3Pt8Pb
_chemical_formula_sum   'Yb6 Pa2 Tl3 Pt8 Pb1'
_cell_volume   455.47443098
_cell_formula_units_Z   1
loop_
 _symmetry_equiv_pos_site_id
 _symmetry_equiv_pos_as_xyz
  1  'x, y, z'
loop_
 _atom_site_type_symbol
 _atom_site_label
 _atom_site_symmetry_multiplicity
 _atom_site_fract_x
 _atom_site_fract_y
 _atom_site_fract_z
 _atom_site_occupancy
  Yb  Yb0  1  0.662816  0.662535  0.999609  1
  Yb  Yb1  1  0.834488  0.165403  0.500073  1
  Yb  Yb2  1  0.337184  0.337465  0.999609  1
  Yb  Yb3  1  0.165512  0.834597  0.500073  1
  Yb  Yb4  1  0.828416  0.170116  0.000199  1
  Yb  Yb5  1  0.171584  0.829884  0.000199  1
  Pa  Pa6  1  0.324577  0.325078  0.499945  1
  Pa  Pa7  1  0.675423  0.674922  0.499945  1
  Tl  Tl8  1  0.500000  0.000000  0.752912  1
  Tl  Tl9  1  0.500000  0.000000  0.248545  1
  Tl  Tl10  1  0.000000  0.500000  0.756569  1
  Pt  Pt11  1  0.867303  0.865941  0.742857  1
  Pt  Pt12  1  0.132697  0.134059  0.742857  1
  Pt  Pt13  1  0.625442  0.372694  0.725886  1
  Pt  Pt14  1  0.622530  0.372812  0.273538  1
  Pt  Pt15  1  0.377470  0.627188  0.273538  1
  Pt  Pt16  1  0.133173  0.132212  0.256403  1
  Pt  Pt17  1  0.866827  0.867788  0.256403  1
  Pt  Pt18  1  0.374558  0.627306  0.725886  1
  Pb  Pb19  1  0.000000  0.500000  0.244952  1
