# generated using pymatgen
data_Dy3Y7(PPb3)2
_symmetry_space_group_name_H-M   'P 1'
_cell_length_a   9.15707000
_cell_length_b   9.15706992
_cell_length_c   6.80764400
_cell_angle_alpha   90.00000000
_cell_angle_beta   90.00000000
_cell_angle_gamma   120.00001473
_symmetry_Int_Tables_number   1
_chemical_formula_structural   Dy3Y7(PPb3)2
_chemical_formula_sum   'Dy3 Y7 P2 Pb6'
_cell_volume   494.35674993
_cell_formula_units_Z   1
loop_
 _symmetry_equiv_pos_site_id
 _symmetry_equiv_pos_as_xyz
  1  'x, y, z'
loop_
 _atom_site_type_symbol
 _atom_site_label
 _atom_site_symmetry_multiplicity
 _atom_site_fract_x
 _atom_site_fract_y
 _atom_site_fract_z
 _atom_site_occupancy
  Dy  Dy0  1  0.237401  0.237401  0.250000  1
  Dy  Dy1  1  0.762599  0.000000  0.250000  1
  Dy  Dy2  1  0.000000  0.762599  0.250000  1
  Y  Y3  1  0.762405  0.762405  0.750000  1
  Y  Y4  1  0.237595  0.000000  0.750000  1
  Y  Y5  1  0.000000  0.237595  0.750000  1
  Y  Y6  1  0.666667  0.333333  0.000087  1
  Y  Y7  1  0.333333  0.666667  0.000087  1
  Y  Y8  1  0.333333  0.666667  0.499913  1
  Y  Y9  1  0.666667  0.333333  0.499913  1
  P  P10  1  0.000000  0.000000  0.000604  1
  P  P11  1  0.000000  0.000000  0.499396  1
  Pb  Pb12  1  0.400001  0.400001  0.750000  1
  Pb  Pb13  1  0.599999  0.000000  0.750000  1
  Pb  Pb14  1  0.000000  0.599999  0.750000  1
  Pb  Pb15  1  0.600012  0.600012  0.250000  1
  Pb  Pb16  1  0.399988  0.000000  0.250000  1
  Pb  Pb17  1  0.000000  0.399988  0.250000  1
