# generated using pymatgen
data_SrCu2SiS4
_symmetry_space_group_name_H-M   'P 1'
_cell_length_a   6.10966600
_cell_length_b   6.10966603
_cell_length_c   15.22435900
_cell_angle_alpha   90.00000000
_cell_angle_beta   90.00000000
_cell_angle_gamma   119.99999983
_symmetry_Int_Tables_number   1
_chemical_formula_structural   SrCu2SiS4
_chemical_formula_sum   'Sr3 Cu6 Si3 S12'
_cell_volume   492.15804558
_cell_formula_units_Z   3
loop_
 _symmetry_equiv_pos_site_id
 _symmetry_equiv_pos_as_xyz
  1  'x, y, z'
loop_
 _atom_site_type_symbol
 _atom_site_label
 _atom_site_symmetry_multiplicity
 _atom_site_fract_x
 _atom_site_fract_y
 _atom_site_fract_z
 _atom_site_occupancy
  Sr  Sr0  1  0.539992  0.000000  0.666667  1
  Sr  Sr1  1  0.000000  0.539992  0.333333  1
  Sr  Sr2  1  0.460008  0.460008  0.000000  1
  Cu  Cu3  1  0.425105  0.337768  0.243420  1
  Cu  Cu4  1  0.337768  0.425105  0.756580  1
  Cu  Cu5  1  0.574895  0.912664  0.423246  1
  Cu  Cu6  1  0.912664  0.574895  0.576754  1
  Cu  Cu7  1  0.662232  0.087336  0.910087  1
  Cu  Cu8  1  0.087336  0.662232  0.089913  1
  Si  Si9  1  0.722198  0.000000  0.166667  1
  Si  Si10  1  0.000000  0.722198  0.833333  1
  Si  Si11  1  0.277802  0.277802  0.500000  1
  S  S12  1  0.494570  0.974790  0.055335  1
  S  S13  1  0.324507  0.097184  0.837623  1
  S  S14  1  0.025210  0.519780  0.722002  1
  S  S15  1  0.519780  0.025210  0.277998  1
  S  S16  1  0.097184  0.324507  0.162377  1
  S  S17  1  0.772676  0.675493  0.170957  1
  S  S18  1  0.675493  0.772676  0.829043  1
  S  S19  1  0.902816  0.227324  0.504290  1
  S  S20  1  0.480220  0.505430  0.388669  1
  S  S21  1  0.227324  0.902816  0.495710  1
  S  S22  1  0.974790  0.494570  0.944665  1
  S  S23  1  0.505430  0.480220  0.611331  1
