# generated using pymatgen
data_Lu4Al5ReTc2
_symmetry_space_group_name_H-M   'P 1'
_cell_length_a   5.45207234
_cell_length_b   5.45696699
_cell_length_c   8.69554800
_cell_angle_alpha   90.00000000
_cell_angle_beta   90.00000000
_cell_angle_gamma   120.02969144
_symmetry_Int_Tables_number   1
_chemical_formula_structural   Lu4Al5ReTc2
_chemical_formula_sum   'Lu4 Al5 Re1 Tc2'
_cell_volume   223.98065484
_cell_formula_units_Z   1
loop_
 _symmetry_equiv_pos_site_id
 _symmetry_equiv_pos_as_xyz
  1  'x, y, z'
loop_
 _atom_site_type_symbol
 _atom_site_label
 _atom_site_symmetry_multiplicity
 _atom_site_fract_x
 _atom_site_fract_y
 _atom_site_fract_z
 _atom_site_occupancy
  Lu  Lu0  1  0.336395  0.668198  0.443617  1
  Lu  Lu1  1  0.665249  0.332624  0.555887  1
  Lu  Lu2  1  0.665249  0.332624  0.944113  1
  Lu  Lu3  1  0.336395  0.668198  0.056383  1
  Al  Al4  1  0.835500  0.163556  0.250000  1
  Al  Al5  1  0.835500  0.671945  0.250000  1
  Al  Al6  1  0.325027  0.162513  0.250000  1
  Al  Al7  1  0.186545  0.842849  0.750000  1
  Al  Al8  1  0.186545  0.343696  0.750000  1
  Re  Re9  1  0.674766  0.837383  0.750000  1
  Tc  Tc10  1  0.976414  0.988207  0.510363  1
  Tc  Tc11  1  0.976414  0.988207  0.989637  1
