# generated using pymatgen
data_Tm6B14OsW
_symmetry_space_group_name_H-M   'P 1'
_cell_length_a   8.00469466
_cell_length_b   8.00469497
_cell_length_c   9.30927300
_cell_angle_alpha   90.00000000
_cell_angle_beta   90.00000000
_cell_angle_gamma   155.01639074
_symmetry_Int_Tables_number   1
_chemical_formula_structural   Tm6B14OsW
_chemical_formula_sum   'Tm6 B14 Os1 W1'
_cell_volume   251.93415575
_cell_formula_units_Z   1
loop_
 _symmetry_equiv_pos_site_id
 _symmetry_equiv_pos_as_xyz
  1  'x, y, z'
loop_
 _atom_site_type_symbol
 _atom_site_label
 _atom_site_symmetry_multiplicity
 _atom_site_fract_x
 _atom_site_fract_y
 _atom_site_fract_z
 _atom_site_occupancy
  Tm  Tm0  1  0.893699  0.106301  0.438211  1
  Tm  Tm1  1  0.107344  0.892656  0.558300  1
  Tm  Tm2  1  0.893699  0.106301  0.061789  1
  Tm  Tm3  1  0.107344  0.892656  0.941700  1
  Tm  Tm4  1  0.243963  0.756037  0.250000  1
  Tm  Tm5  1  0.754638  0.245362  0.750000  1
  B  B6  1  0.726821  0.273179  0.464927  1
  B  B7  1  0.271538  0.728462  0.532243  1
  B  B8  1  0.726821  0.273179  0.035073  1
  B  B9  1  0.271538  0.728462  0.967757  1
  B  B10  1  0.632171  0.367829  0.150391  1
  B  B11  1  0.365002  0.634998  0.853175  1
  B  B12  1  0.632171  0.367829  0.349609  1
  B  B13  1  0.365002  0.634998  0.646825  1
  B  B14  1  0.520358  0.479642  0.095870  1
  B  B15  1  0.481160  0.518840  0.909919  1
  B  B16  1  0.520358  0.479642  0.404130  1
  B  B17  1  0.481160  0.518840  0.590081  1
  B  B18  1  0.455261  0.544739  0.250000  1
  B  B19  1  0.548317  0.451683  0.750000  1
  Os  Os20  1  0.053638  0.946362  0.250000  1
  W  W21  1  0.948001  0.051999  0.750000  1
