# generated using pymatgen
data_Tm5Co16(P4Ru)3
_symmetry_space_group_name_H-M   'P 1'
_cell_length_a   11.98491300
_cell_length_b   11.98491451
_cell_length_c   3.68914000
_cell_angle_alpha   90.00000000
_cell_angle_beta   90.00000000
_cell_angle_gamma   120.00000411
_symmetry_Int_Tables_number   1
_chemical_formula_structural   Tm5Co16(P4Ru)3
_chemical_formula_sum   'Tm5 Co16 P12 Ru3'
_cell_volume   458.90794513
_cell_formula_units_Z   1
loop_
 _symmetry_equiv_pos_site_id
 _symmetry_equiv_pos_as_xyz
  1  'x, y, z'
loop_
 _atom_site_type_symbol
 _atom_site_label
 _atom_site_symmetry_multiplicity
 _atom_site_fract_x
 _atom_site_fract_y
 _atom_site_fract_z
 _atom_site_occupancy
  Tm  Tm0  1  0.666667  0.333333  0.000000  1
  Tm  Tm1  1  0.333333  0.666667  0.000000  1
  Tm  Tm2  1  0.815239  0.815239  0.500000  1
  Tm  Tm3  1  0.184761  0.000000  0.500000  1
  Tm  Tm4  1  0.000000  0.184761  0.500000  1
  Co  Co5  1  0.873678  0.357701  0.500000  1
  Co  Co6  1  0.642299  0.515977  0.500000  1
  Co  Co7  1  0.484023  0.126322  0.500000  1
  Co  Co8  1  0.357701  0.873678  0.500000  1
  Co  Co9  1  0.515977  0.642299  0.500000  1
  Co  Co10  1  0.126322  0.484023  0.500000  1
  Co  Co11  1  0.804415  0.180070  0.000000  1
  Co  Co12  1  0.819930  0.624343  0.000000  1
  Co  Co13  1  0.375657  0.195585  0.000000  1
  Co  Co14  1  0.180070  0.804415  0.000000  1
  Co  Co15  1  0.624343  0.819930  0.000000  1
  Co  Co16  1  0.195585  0.375657  0.000000  1
  Co  Co17  1  0.282329  0.282329  0.500000  1
  Co  Co18  1  0.717671  0.000000  0.500000  1
  Co  Co19  1  0.000000  0.717671  0.500000  1
  Co  Co20  1  0.000000  0.000000  0.000000  1
  P  P21  1  0.686990  0.166604  0.500000  1
  P  P22  1  0.833396  0.520386  0.500000  1
  P  P23  1  0.479614  0.313010  0.500000  1
  P  P24  1  0.166604  0.686990  0.500000  1
  P  P25  1  0.520386  0.833396  0.500000  1
  P  P26  1  0.313010  0.479614  0.500000  1
  P  P27  1  0.179292  0.179292  0.000000  1
  P  P28  1  0.820708  0.000000  0.000000  1
  P  P29  1  0.000000  0.820708  0.000000  1
  P  P30  1  0.637190  0.637190  0.000000  1
  P  P31  1  0.362810  0.000000  0.000000  1
  P  P32  1  0.000000  0.362810  0.000000  1
  Ru  Ru33  1  0.446079  0.446079  0.000000  1
  Ru  Ru34  1  0.553921  0.000000  0.000000  1
  Ru  Ru35  1  0.000000  0.553921  0.000000  1
