# generated using pymatgen
data_Tb16Cd4Fe2NiPd
_symmetry_space_group_name_H-M   'P 1'
_cell_length_a   9.62027463
_cell_length_b   9.59321040
_cell_length_c   9.59321034
_cell_angle_alpha   60.17589433
_cell_angle_beta   60.10102033
_cell_angle_gamma   60.10101803
_symmetry_Int_Tables_number   1
_chemical_formula_structural   Tb16Cd4Fe2NiPd
_chemical_formula_sum   'Tb16 Cd4 Fe2 Ni1 Pd1'
_cell_volume   627.82355421
_cell_formula_units_Z   1
loop_
 _symmetry_equiv_pos_site_id
 _symmetry_equiv_pos_as_xyz
  1  'x, y, z'
loop_
 _atom_site_type_symbol
 _atom_site_label
 _atom_site_symmetry_multiplicity
 _atom_site_fract_x
 _atom_site_fract_y
 _atom_site_fract_z
 _atom_site_occupancy
  Tb  Tb0  1  0.336501  0.351624  0.351624  1
  Tb  Tb1  1  0.339043  0.357793  0.953439  1
  Tb  Tb2  1  0.339043  0.953439  0.357793  1
  Tb  Tb3  1  0.963151  0.347176  0.347176  1
  Tb  Tb4  1  0.817337  0.190053  0.190053  1
  Tb  Tb5  1  0.187051  0.811189  0.811189  1
  Tb  Tb6  1  0.189648  0.805335  0.189135  1
  Tb  Tb7  1  0.823320  0.187008  0.799889  1
  Tb  Tb8  1  0.189648  0.189135  0.805335  1
  Tb  Tb9  1  0.823320  0.799889  0.187008  1
  Tb  Tb10  1  0.936479  0.562869  0.562869  1
  Tb  Tb11  1  0.561582  0.938608  0.938608  1
  Tb  Tb12  1  0.558195  0.940186  0.563734  1
  Tb  Tb13  1  0.934667  0.565183  0.938263  1
  Tb  Tb14  1  0.558195  0.563734  0.940186  1
  Tb  Tb15  1  0.934667  0.938263  0.565183  1
  Cd  Cd16  1  0.580736  0.579708  0.579708  1
  Cd  Cd17  1  0.581301  0.579753  0.258676  1
  Cd  Cd18  1  0.581301  0.258676  0.579753  1
  Cd  Cd19  1  0.255589  0.581751  0.581751  1
  Fe  Fe20  1  0.144382  0.139633  0.578024  1
  Fe  Fe21  1  0.144382  0.578024  0.139633  1
  Ni  Ni22  1  0.144764  0.140026  0.140026  1
  Pd  Pd23  1  0.575701  0.140948  0.140948  1
