# generated using pymatgen
data_Pr5Nd3(LuPb3)2
_symmetry_space_group_name_H-M   'P 1'
_cell_length_a   9.33230311
_cell_length_b   9.33230480
_cell_length_c   6.84009602
_cell_angle_alpha   89.99563285
_cell_angle_beta   89.99563237
_cell_angle_gamma   119.94418021
_symmetry_Int_Tables_number   1
_chemical_formula_structural   Pr5Nd3(LuPb3)2
_chemical_formula_sum   'Pr5 Nd3 Lu2 Pb6'
_cell_volume   516.19593692
_cell_formula_units_Z   1
loop_
 _symmetry_equiv_pos_site_id
 _symmetry_equiv_pos_as_xyz
  1  'x, y, z'
loop_
 _atom_site_type_symbol
 _atom_site_label
 _atom_site_symmetry_multiplicity
 _atom_site_fract_x
 _atom_site_fract_y
 _atom_site_fract_z
 _atom_site_occupancy
  Pr  Pr0  1  0.240689  0.999972  0.752354  1
  Pr  Pr1  1  0.999972  0.240689  0.752354  1
  Pr  Pr2  1  0.240913  0.240913  0.247670  1
  Pr  Pr3  1  0.759235  0.999885  0.247648  1
  Pr  Pr4  1  0.999885  0.759235  0.247648  1
  Nd  Nd5  1  0.333414  0.666678  0.500069  1
  Nd  Nd6  1  0.666678  0.333414  0.500069  1
  Nd  Nd7  1  0.758951  0.758951  0.752458  1
  Lu  Lu8  1  0.666690  0.333421  0.999959  1
  Lu  Lu9  1  0.333421  0.666690  0.999959  1
  Pb  Pb10  1  0.397791  0.397791  0.759103  1
  Pb  Pb11  1  0.602976  0.999488  0.759093  1
  Pb  Pb12  1  0.999488  0.602976  0.759093  1
  Pb  Pb13  1  0.602696  0.602696  0.240793  1
  Pb  Pb14  1  0.397257  0.999943  0.240865  1
  Pb  Pb15  1  0.999943  0.397257  0.240865  1
