# generated using pymatgen
data_LuZr3Tc8
_symmetry_space_group_name_H-M   'P 1'
_cell_length_a   5.28043400
_cell_length_b   5.28043438
_cell_length_c   8.69423600
_cell_angle_alpha   90.00000000
_cell_angle_beta   90.00000000
_cell_angle_gamma   119.99998511
_symmetry_Int_Tables_number   1
_chemical_formula_structural   LuZr3Tc8
_chemical_formula_sum   'Lu1 Zr3 Tc8'
_cell_volume   209.94299579
_cell_formula_units_Z   1
loop_
 _symmetry_equiv_pos_site_id
 _symmetry_equiv_pos_as_xyz
  1  'x, y, z'
loop_
 _atom_site_type_symbol
 _atom_site_label
 _atom_site_symmetry_multiplicity
 _atom_site_fract_x
 _atom_site_fract_y
 _atom_site_fract_z
 _atom_site_occupancy
  Lu  Lu0  1  0.333333  0.666667  0.062996  1
  Zr  Zr1  1  0.333333  0.666667  0.434218  1
  Zr  Zr2  1  0.666667  0.333333  0.564271  1
  Zr  Zr3  1  0.666667  0.333333  0.935211  1
  Tc  Tc4  1  0.000000  0.000000  0.501708  1
  Tc  Tc5  1  0.000000  0.000000  0.000264  1
  Tc  Tc6  1  0.828836  0.171164  0.251941  1
  Tc  Tc7  1  0.828836  0.657672  0.251941  1
  Tc  Tc8  1  0.342328  0.171164  0.251941  1
  Tc  Tc9  1  0.171480  0.828520  0.748503  1
  Tc  Tc10  1  0.171480  0.342959  0.748503  1
  Tc  Tc11  1  0.657041  0.828520  0.748503  1
