# generated using pymatgen
data_Er6Sc4Sn5Sb
_symmetry_space_group_name_H-M   'P 1'
_cell_length_a   8.77154600
_cell_length_b   8.77224778
_cell_length_c   6.23022300
_cell_angle_alpha   90.00000000
_cell_angle_beta   90.00000000
_cell_angle_gamma   119.99735366
_symmetry_Int_Tables_number   1
_chemical_formula_structural   Er6Sc4Sn5Sb
_chemical_formula_sum   'Er6 Sc4 Sn5 Sb1'
_cell_volume   415.17657251
_cell_formula_units_Z   1
loop_
 _symmetry_equiv_pos_site_id
 _symmetry_equiv_pos_as_xyz
  1  'x, y, z'
loop_
 _atom_site_type_symbol
 _atom_site_label
 _atom_site_symmetry_multiplicity
 _atom_site_fract_x
 _atom_site_fract_y
 _atom_site_fract_z
 _atom_site_occupancy
  Er  Er0  1  0.997464  0.759219  0.750000  1
  Er  Er1  1  0.000877  0.239778  0.250000  1
  Er  Er2  1  0.761099  0.760222  0.250000  1
  Er  Er3  1  0.760250  0.000000  0.750000  1
  Er  Er4  1  0.238245  0.240781  0.750000  1
  Er  Er5  1  0.240475  0.000000  0.250000  1
  Sc  Sc6  1  0.333286  0.665922  0.499719  1
  Sc  Sc7  1  0.667366  0.334078  0.000281  1
  Sc  Sc8  1  0.667366  0.334078  0.499719  1
  Sc  Sc9  1  0.333286  0.665922  0.000281  1
  Sn  Sn10  1  0.399431  0.398333  0.250000  1
  Sn  Sn11  1  0.001098  0.601667  0.250000  1
  Sn  Sn12  1  0.999909  0.399504  0.750000  1
  Sn  Sn13  1  0.600405  0.600496  0.750000  1
  Sn  Sn14  1  0.602943  0.000000  0.250000  1
  Sb  Sb15  1  0.396503  0.000000  0.750000  1
