# generated using pymatgen
data_ZrSnBr6
_symmetry_space_group_name_H-M   'P 1'
_cell_length_a   7.99780592
_cell_length_b   7.99780559
_cell_length_c   7.99780757
_cell_angle_alpha   54.49927926
_cell_angle_beta   54.49927162
_cell_angle_gamma   54.49927569
_symmetry_Int_Tables_number   1
_chemical_formula_structural   ZrSnBr6
_chemical_formula_sum   'Zr1 Sn1 Br6'
_cell_volume   315.35086662
_cell_formula_units_Z   1
loop_
 _symmetry_equiv_pos_site_id
 _symmetry_equiv_pos_as_xyz
  1  'x, y, z'
loop_
 _atom_site_type_symbol
 _atom_site_label
 _atom_site_symmetry_multiplicity
 _atom_site_fract_x
 _atom_site_fract_y
 _atom_site_fract_z
 _atom_site_occupancy
  Zr  Zr0  1  0.666905  0.666905  0.666905  1
  Sn  Sn1  1  0.333462  0.333462  0.333462  1
  Br  Br2  1  0.042250  0.452512  0.734950  1
  Br  Br3  1  0.301373  0.890647  0.577899  1
  Br  Br4  1  0.452512  0.734950  0.042250  1
  Br  Br5  1  0.577899  0.301373  0.890647  1
  Br  Br6  1  0.734950  0.042250  0.452512  1
  Br  Br7  1  0.890647  0.577899  0.301373  1
