# generated using pymatgen
data_NaCu(Sb4Ru)3
_symmetry_space_group_name_H-M   'P 1'
_cell_length_a   8.12512944
_cell_length_b   8.12512992
_cell_length_c   8.16227800
_cell_angle_alpha   109.56386764
_cell_angle_beta   109.56386885
_cell_angle_gamma   109.37841959
_symmetry_Int_Tables_number   1
_chemical_formula_structural   NaCu(Sb4Ru)3
_chemical_formula_sum   'Na1 Cu1 Sb12 Ru3'
_cell_volume   414.33556933
_cell_formula_units_Z   1
loop_
 _symmetry_equiv_pos_site_id
 _symmetry_equiv_pos_as_xyz
  1  'x, y, z'
loop_
 _atom_site_type_symbol
 _atom_site_label
 _atom_site_symmetry_multiplicity
 _atom_site_fract_x
 _atom_site_fract_y
 _atom_site_fract_z
 _atom_site_occupancy
  Na  Na0  1  0.000000  0.000000  0.000000  1
  Cu  Cu1  1  0.000000  0.000000  0.500000  1
  Sb  Sb2  1  0.158438  0.811489  0.660177  1
  Sb  Sb3  1  0.841562  0.188511  0.339823  1
  Sb  Sb4  1  0.842511  0.503730  0.662950  1
  Sb  Sb5  1  0.157489  0.496270  0.337050  1
  Sb  Sb6  1  0.811489  0.653051  0.151313  1
  Sb  Sb7  1  0.188511  0.346949  0.848687  1
  Sb  Sb8  1  0.503730  0.661219  0.840781  1
  Sb  Sb9  1  0.496270  0.338781  0.159219  1
  Sb  Sb10  1  0.661219  0.157489  0.820438  1
  Sb  Sb11  1  0.338781  0.842511  0.179562  1
  Sb  Sb12  1  0.653051  0.841562  0.501739  1
  Sb  Sb13  1  0.346949  0.158438  0.498261  1
  Ru  Ru14  1  0.500000  0.000000  0.000000  1
  Ru  Ru15  1  0.000000  0.500000  0.000000  1
  Ru  Ru16  1  0.500000  0.500000  0.500000  1
