# generated using pymatgen
data_RbBa2Cd2Bi3
_symmetry_space_group_name_H-M   'P 1'
_cell_length_a   5.17047200
_cell_length_b   13.65085900
_cell_length_c   17.46392000
_cell_angle_alpha   90.00000000
_cell_angle_beta   90.00000000
_cell_angle_gamma   90.00000000
_symmetry_Int_Tables_number   1
_chemical_formula_structural   RbBa2Cd2Bi3
_chemical_formula_sum   'Rb4 Ba8 Cd8 Bi12'
_cell_volume   1232.62764778
_cell_formula_units_Z   4
loop_
 _symmetry_equiv_pos_site_id
 _symmetry_equiv_pos_as_xyz
  1  'x, y, z'
loop_
 _atom_site_type_symbol
 _atom_site_label
 _atom_site_symmetry_multiplicity
 _atom_site_fract_x
 _atom_site_fract_y
 _atom_site_fract_z
 _atom_site_occupancy
  Rb  Rb0  1  0.250000  0.400022  0.446056  1
  Rb  Rb1  1  0.250000  0.900022  0.053944  1
  Rb  Rb2  1  0.750000  0.599978  0.553944  1
  Rb  Rb3  1  0.750000  0.099978  0.946056  1
  Ba  Ba4  1  0.250000  0.100136  0.572149  1
  Ba  Ba5  1  0.250000  0.600136  0.927851  1
  Ba  Ba6  1  0.750000  0.899864  0.427851  1
  Ba  Ba7  1  0.750000  0.399864  0.072149  1
  Ba  Ba8  1  0.250000  0.369361  0.712969  1
  Ba  Ba9  1  0.250000  0.869361  0.787031  1
  Ba  Ba10  1  0.750000  0.630639  0.287031  1
  Ba  Ba11  1  0.750000  0.130639  0.212969  1
  Cd  Cd12  1  0.250000  0.306616  0.916791  1
  Cd  Cd13  1  0.250000  0.806616  0.583209  1
  Cd  Cd14  1  0.750000  0.693384  0.083209  1
  Cd  Cd15  1  0.750000  0.193384  0.416791  1
  Cd  Cd16  1  0.250000  0.364381  0.213066  1
  Cd  Cd17  1  0.250000  0.864381  0.286934  1
  Cd  Cd18  1  0.750000  0.635619  0.786934  1
  Cd  Cd19  1  0.750000  0.135619  0.713066  1
  Bi  Bi20  1  0.250000  0.078759  0.362885  1
  Bi  Bi21  1  0.250000  0.578759  0.137115  1
  Bi  Bi22  1  0.750000  0.921241  0.637115  1
  Bi  Bi23  1  0.750000  0.421241  0.862885  1
  Bi  Bi24  1  0.250000  0.132355  0.802045  1
  Bi  Bi25  1  0.250000  0.632355  0.697955  1
  Bi  Bi26  1  0.750000  0.867645  0.197955  1
  Bi  Bi27  1  0.750000  0.367645  0.302045  1
  Bi  Bi28  1  0.250000  0.713645  0.422724  1
  Bi  Bi29  1  0.250000  0.213645  0.077276  1
  Bi  Bi30  1  0.750000  0.286355  0.577276  1
  Bi  Bi31  1  0.750000  0.786355  0.922724  1
