# generated using pymatgen
data_Th2Mn3Al20Pd
_symmetry_space_group_name_H-M   'P 1'
_cell_length_a   6.86715661
_cell_length_b   6.86704341
_cell_length_c   9.15052655
_cell_angle_alpha   90.20628832
_cell_angle_beta   90.28734184
_cell_angle_gamma   97.33293391
_symmetry_Int_Tables_number   1
_chemical_formula_structural   Th2Mn3Al20Pd
_chemical_formula_sum   'Th2 Mn3 Al20 Pd1'
_cell_volume   427.97342707
_cell_formula_units_Z   1
loop_
 _symmetry_equiv_pos_site_id
 _symmetry_equiv_pos_as_xyz
  1  'x, y, z'
loop_
 _atom_site_type_symbol
 _atom_site_label
 _atom_site_symmetry_multiplicity
 _atom_site_fract_x
 _atom_site_fract_y
 _atom_site_fract_z
 _atom_site_occupancy
  Th  Th0  1  0.869187  0.121543  0.753147  1
  Th  Th1  1  0.130813  0.878457  0.246853  1
  Mn  Mn2  1  0.000000  0.500000  0.000000  1
  Mn  Mn3  1  0.500000  0.000000  0.000000  1
  Mn  Mn4  1  0.500000  0.000000  0.500000  1
  Al  Al5  1  0.516777  0.778634  0.749628  1
  Al  Al6  1  0.483223  0.221366  0.250372  1
  Al  Al7  1  0.590822  0.866444  0.248172  1
  Al  Al8  1  0.771609  0.773899  0.000273  1
  Al  Al9  1  0.165689  0.845761  0.602930  1
  Al  Al10  1  0.228391  0.226101  0.999727  1
  Al  Al11  1  0.138157  0.407414  0.244111  1
  Al  Al12  1  0.623196  0.375270  0.953264  1
  Al  Al13  1  0.839638  0.162039  0.099121  1
  Al  Al14  1  0.385182  0.627971  0.447928  1
  Al  Al15  1  0.160362  0.837961  0.900879  1
  Al  Al16  1  0.224078  0.479987  0.759623  1
  Al  Al17  1  0.376804  0.624730  0.046736  1
  Al  Al18  1  0.834311  0.154239  0.397070  1
  Al  Al19  1  0.614818  0.372029  0.552072  1
  Al  Al20  1  0.409178  0.133556  0.751828  1
  Al  Al21  1  0.775922  0.520013  0.240377  1
  Al  Al22  1  0.766282  0.778162  0.503219  1
  Al  Al23  1  0.233718  0.221838  0.496781  1
  Al  Al24  1  0.861843  0.592586  0.755889  1
  Pd  Pd25  1  0.000000  0.500000  0.500000  1
