# generated using pymatgen
data_TbNd7SbPd24
_symmetry_space_group_name_H-M   'P 1'
_cell_length_a   8.52476704
_cell_length_b   8.52476704
_cell_length_c   8.52476704
_cell_angle_alpha   89.64832615
_cell_angle_beta   89.64832615
_cell_angle_gamma   89.64832615
_symmetry_Int_Tables_number   1
_chemical_formula_structural   TbNd7SbPd24
_chemical_formula_sum   'Tb1 Nd7 Sb1 Pd24'
_cell_volume   619.47404818
_cell_formula_units_Z   1
loop_
 _symmetry_equiv_pos_site_id
 _symmetry_equiv_pos_as_xyz
  1  'x, y, z'
loop_
 _atom_site_type_symbol
 _atom_site_label
 _atom_site_symmetry_multiplicity
 _atom_site_fract_x
 _atom_site_fract_y
 _atom_site_fract_z
 _atom_site_occupancy
  Tb  Tb0  1  0.253209  0.253209  0.253209  1
  Nd  Nd1  1  0.747724  0.747724  0.252496  1
  Nd  Nd2  1  0.747724  0.252496  0.747724  1
  Nd  Nd3  1  0.252496  0.747724  0.747724  1
  Nd  Nd4  1  0.747496  0.747496  0.747496  1
  Nd  Nd5  1  0.747498  0.252396  0.252396  1
  Nd  Nd6  1  0.252396  0.252396  0.747498  1
  Nd  Nd7  1  0.252396  0.747498  0.252396  1
  Sb  Sb8  1  0.999807  0.999807  0.999807  1
  Pd  Pd9  1  0.002420  0.002420  0.308375  1
  Pd  Pd10  1  0.734787  0.999718  0.499501  1
  Pd  Pd11  1  0.734787  0.499501  0.999718  1
  Pd  Pd12  1  0.499501  0.999718  0.734787  1
  Pd  Pd13  1  0.999718  0.734787  0.499501  1
  Pd  Pd14  1  0.498558  0.002748  0.265233  1
  Pd  Pd15  1  0.002748  0.265233  0.498558  1
  Pd  Pd16  1  0.499501  0.734787  0.999718  1
  Pd  Pd17  1  0.254239  0.497796  0.497796  1
  Pd  Pd18  1  0.499876  0.499876  0.745771  1
  Pd  Pd19  1  0.497796  0.497796  0.254239  1
  Pd  Pd20  1  0.497796  0.254239  0.497796  1
  Pd  Pd21  1  0.499876  0.745771  0.499876  1
  Pd  Pd22  1  0.745771  0.499876  0.499876  1
  Pd  Pd23  1  0.308375  0.002420  0.002420  1
  Pd  Pd24  1  0.999551  0.999551  0.690491  1
  Pd  Pd25  1  0.002748  0.498558  0.265233  1
  Pd  Pd26  1  0.002420  0.308375  0.002420  1
  Pd  Pd27  1  0.999551  0.690491  0.999551  1
  Pd  Pd28  1  0.690491  0.999551  0.999551  1
  Pd  Pd29  1  0.265233  0.498558  0.002748  1
  Pd  Pd30  1  0.265233  0.002748  0.498558  1
  Pd  Pd31  1  0.999718  0.499501  0.734787  1
  Pd  Pd32  1  0.498558  0.265233  0.002748  1
