# generated using pymatgen
data_Mg2Zr3PaNi4
_symmetry_space_group_name_H-M   'P 1'
_cell_length_a   7.27867157
_cell_length_b   7.27867110
_cell_length_c   3.37389000
_cell_angle_alpha   90.00000000
_cell_angle_beta   90.00000000
_cell_angle_gamma   91.44632838
_symmetry_Int_Tables_number   1
_chemical_formula_structural   Mg2Zr3PaNi4
_chemical_formula_sum   'Mg2 Zr3 Pa1 Ni4'
_cell_volume   178.68856176
_cell_formula_units_Z   1
loop_
 _symmetry_equiv_pos_site_id
 _symmetry_equiv_pos_as_xyz
  1  'x, y, z'
loop_
 _atom_site_type_symbol
 _atom_site_label
 _atom_site_symmetry_multiplicity
 _atom_site_fract_x
 _atom_site_fract_y
 _atom_site_fract_z
 _atom_site_occupancy
  Mg  Mg0  1  0.010442  0.997881  0.000000  1
  Mg  Mg1  1  0.497881  0.510442  0.000000  1
  Zr  Zr2  1  0.323067  0.823067  0.500000  1
  Zr  Zr3  1  0.171151  0.334654  0.500000  1
  Zr  Zr4  1  0.834654  0.671151  0.500000  1
  Pa  Pa5  1  0.666705  0.166705  0.500000  1
  Ni  Ni6  1  0.121019  0.621019  0.000000  1
  Ni  Ni7  1  0.866451  0.366451  0.000000  1
  Ni  Ni8  1  0.628718  0.879911  0.000000  1
  Ni  Ni9  1  0.379911  0.128718  0.000000  1
