# generated using pymatgen
data_Ca5Tl4Hg
_symmetry_space_group_name_H-M   'P 1'
_cell_length_a   3.89853000
_cell_length_b   3.89853000
_cell_length_c   19.22833300
_cell_angle_alpha   90.00000000
_cell_angle_beta   90.00000000
_cell_angle_gamma   90.00000000
_symmetry_Int_Tables_number   1
_chemical_formula_structural   Ca5Tl4Hg
_chemical_formula_sum   'Ca5 Tl4 Hg1'
_cell_volume   292.24251441
_cell_formula_units_Z   1
loop_
 _symmetry_equiv_pos_site_id
 _symmetry_equiv_pos_as_xyz
  1  'x, y, z'
loop_
 _atom_site_type_symbol
 _atom_site_label
 _atom_site_symmetry_multiplicity
 _atom_site_fract_x
 _atom_site_fract_y
 _atom_site_fract_z
 _atom_site_occupancy
  Ca  Ca0  1  0.500000  0.500000  0.093071  1
  Ca  Ca1  1  0.500000  0.500000  0.297937  1
  Ca  Ca2  1  0.500000  0.500000  0.500000  1
  Ca  Ca3  1  0.500000  0.500000  0.702063  1
  Ca  Ca4  1  0.500000  0.500000  0.906929  1
  Tl  Tl5  1  0.000000  0.000000  0.197264  1
  Tl  Tl6  1  0.000000  0.000000  0.399042  1
  Tl  Tl7  1  0.000000  0.000000  0.600958  1
  Tl  Tl8  1  0.000000  0.000000  0.802736  1
  Hg  Hg9  1  0.000000  0.000000  0.000000  1
