# generated using pymatgen
data_Er6TmP12Rh17
_symmetry_space_group_name_H-M   'P 1'
_cell_length_a   3.93431500
_cell_length_b   11.23463100
_cell_length_c   12.84201200
_cell_angle_alpha   90.00000000
_cell_angle_beta   90.00000000
_cell_angle_gamma   90.00000000
_symmetry_Int_Tables_number   1
_chemical_formula_structural   Er6TmP12Rh17
_chemical_formula_sum   'Er6 Tm1 P12 Rh17'
_cell_volume   567.62434362
_cell_formula_units_Z   1
loop_
 _symmetry_equiv_pos_site_id
 _symmetry_equiv_pos_as_xyz
  1  'x, y, z'
loop_
 _atom_site_type_symbol
 _atom_site_label
 _atom_site_symmetry_multiplicity
 _atom_site_fract_x
 _atom_site_fract_y
 _atom_site_fract_z
 _atom_site_occupancy
  Er  Er0  1  0.750000  0.250000  0.476703  1
  Er  Er1  1  0.250000  0.750000  0.522286  1
  Er  Er2  1  0.250000  0.931808  0.793306  1
  Er  Er3  1  0.250000  0.568192  0.793306  1
  Er  Er4  1  0.750000  0.067344  0.203450  1
  Er  Er5  1  0.750000  0.432656  0.203450  1
  Tm  Tm6  1  0.250000  0.250000  0.843541  1
  P  P7  1  0.250000  0.250000  0.123346  1
  P  P8  1  0.750000  0.750000  0.877739  1
  P  P9  1  0.250000  0.250000  0.634023  1
  P  P10  1  0.750000  0.750000  0.352814  1
  P  P11  1  0.250000  0.435300  0.380045  1
  P  P12  1  0.250000  0.064700  0.380045  1
  P  P13  1  0.750000  0.564873  0.615844  1
  P  P14  1  0.750000  0.935127  0.615844  1
  P  P15  1  0.250000  0.898907  0.112058  1
  P  P16  1  0.250000  0.601093  0.112058  1
  P  P17  1  0.750000  0.084893  0.894570  1
  P  P18  1  0.750000  0.415107  0.894570  1
  Rh  Rh19  1  0.750000  0.750000  0.171452  1
  Rh  Rh20  1  0.250000  0.250000  0.299943  1
  Rh  Rh21  1  0.750000  0.750000  0.700302  1
  Rh  Rh22  1  0.750000  0.250000  0.020163  1
  Rh  Rh23  1  0.250000  0.750000  0.977721  1
  Rh  Rh24  1  0.250000  0.422527  0.014325  1
  Rh  Rh25  1  0.250000  0.077473  0.014325  1
  Rh  Rh26  1  0.750000  0.587817  0.995579  1
  Rh  Rh27  1  0.750000  0.912183  0.995579  1
  Rh  Rh28  1  0.250000  0.461175  0.564531  1
  Rh  Rh29  1  0.250000  0.038825  0.564531  1
  Rh  Rh30  1  0.750000  0.547067  0.428153  1
  Rh  Rh31  1  0.750000  0.952933  0.428153  1
  Rh  Rh32  1  0.250000  0.875573  0.290806  1
  Rh  Rh33  1  0.250000  0.624427  0.290806  1
  Rh  Rh34  1  0.750000  0.120817  0.707316  1
  Rh  Rh35  1  0.750000  0.379183  0.707316  1
