# generated using pymatgen
data_Tb16Al4TcPt3
_symmetry_space_group_name_H-M   'P 1'
_cell_length_a   9.64354441
_cell_length_b   9.64354413
_cell_length_c   9.64354513
_cell_angle_alpha   59.89475654
_cell_angle_beta   59.89475764
_cell_angle_gamma   59.89475404
_symmetry_Int_Tables_number   1
_chemical_formula_structural   Tb16Al4TcPt3
_chemical_formula_sum   'Tb16 Al4 Tc1 Pt3'
_cell_volume   632.64031502
_cell_formula_units_Z   1
loop_
 _symmetry_equiv_pos_site_id
 _symmetry_equiv_pos_as_xyz
  1  'x, y, z'
loop_
 _atom_site_type_symbol
 _atom_site_label
 _atom_site_symmetry_multiplicity
 _atom_site_fract_x
 _atom_site_fract_y
 _atom_site_fract_z
 _atom_site_occupancy
  Tb  Tb0  1  0.353724  0.353724  0.353724  1
  Tb  Tb1  1  0.352435  0.352435  0.941263  1
  Tb  Tb2  1  0.352435  0.941263  0.352435  1
  Tb  Tb3  1  0.941263  0.352435  0.352435  1
  Tb  Tb4  1  0.811651  0.191844  0.191844  1
  Tb  Tb5  1  0.192580  0.805654  0.805654  1
  Tb  Tb6  1  0.191844  0.811651  0.191844  1
  Tb  Tb7  1  0.805654  0.192580  0.805654  1
  Tb  Tb8  1  0.191844  0.191844  0.811651  1
  Tb  Tb9  1  0.805654  0.805654  0.192580  1
  Tb  Tb10  1  0.936176  0.563940  0.563940  1
  Tb  Tb11  1  0.556136  0.938720  0.938720  1
  Tb  Tb12  1  0.563940  0.936176  0.563940  1
  Tb  Tb13  1  0.938720  0.556136  0.938720  1
  Tb  Tb14  1  0.563940  0.563940  0.936176  1
  Tb  Tb15  1  0.938720  0.938720  0.556136  1
  Al  Al16  1  0.577246  0.577246  0.577246  1
  Al  Al17  1  0.577204  0.577204  0.268180  1
  Al  Al18  1  0.577204  0.268180  0.577204  1
  Al  Al19  1  0.268180  0.577204  0.577204  1
  Tc  Tc20  1  0.143641  0.143641  0.143641  1
  Pt  Pt21  1  0.143943  0.143943  0.571921  1
  Pt  Pt22  1  0.143943  0.571921  0.143943  1
  Pt  Pt23  1  0.571921  0.143943  0.143943  1
