# generated using pymatgen
data_Nb12Al9Ni3CN3
_symmetry_space_group_name_H-M   'P 1'
_cell_length_a   8.25208231
_cell_length_b   8.27689999
_cell_length_c   8.25208200
_cell_angle_alpha   60.09913892
_cell_angle_beta   60.00000123
_cell_angle_gamma   60.09914543
_symmetry_Int_Tables_number   1
_chemical_formula_structural   Nb12Al9Ni3CN3
_chemical_formula_sum   'Nb12 Al9 Ni3 C1 N3'
_cell_volume   399.14342673
_cell_formula_units_Z   1
loop_
 _symmetry_equiv_pos_site_id
 _symmetry_equiv_pos_as_xyz
  1  'x, y, z'
loop_
 _atom_site_type_symbol
 _atom_site_label
 _atom_site_symmetry_multiplicity
 _atom_site_fract_x
 _atom_site_fract_y
 _atom_site_fract_z
 _atom_site_occupancy
  Nb  Nb0  1  0.812923  0.816149  0.185464  1
  Nb  Nb1  1  0.196203  0.181744  0.811027  1
  Nb  Nb2  1  0.811027  0.181744  0.811027  1
  Nb  Nb3  1  0.185464  0.816149  0.185464  1
  Nb  Nb4  1  0.185464  0.816149  0.812923  1
  Nb  Nb5  1  0.811027  0.181744  0.196203  1
  Nb  Nb6  1  0.437077  0.433851  0.064536  1
  Nb  Nb7  1  0.053797  0.068256  0.438973  1
  Nb  Nb8  1  0.438973  0.068256  0.438973  1
  Nb  Nb9  1  0.064536  0.433851  0.064536  1
  Nb  Nb10  1  0.064536  0.433851  0.437077  1
  Nb  Nb11  1  0.438973  0.068256  0.053797  1
  Al  Al12  1  0.625000  0.125000  0.625000  1
  Al  Al13  1  0.748782  0.432711  0.409254  1
  Al  Al14  1  0.415034  0.754900  0.415034  1
  Al  Al15  1  0.409254  0.432711  0.748782  1
  Al  Al16  1  0.409254  0.432711  0.409254  1
  Al  Al17  1  0.501218  0.817289  0.840746  1
  Al  Al18  1  0.834966  0.495100  0.834966  1
  Al  Al19  1  0.840746  0.817289  0.501218  1
  Al  Al20  1  0.840746  0.817289  0.840746  1
  Ni  Ni21  1  0.125000  0.625000  0.625000  1
  Ni  Ni22  1  0.625000  0.625000  0.125000  1
  Ni  Ni23  1  0.625000  0.625000  0.625000  1
  C  C24  1  0.125000  0.625000  0.125000  1
  N  N25  1  0.625000  0.125000  0.125000  1
  N  N26  1  0.125000  0.125000  0.625000  1
  N  N27  1  0.125000  0.125000  0.125000  1
