# generated using pymatgen
data_DyHo6Er(OsC2)4
_symmetry_space_group_name_H-M   'P 1'
_cell_length_a   5.11016600
_cell_length_b   6.42927025
_cell_length_c   9.75128295
_cell_angle_alpha   90.00937317
_cell_angle_beta   90.00000000
_cell_angle_gamma   90.00000000
_symmetry_Int_Tables_number   1
_chemical_formula_structural   DyHo6Er(OsC2)4
_chemical_formula_sum   'Dy1 Ho6 Er1 Os4 C8'
_cell_volume   320.37486913
_cell_formula_units_Z   1
loop_
 _symmetry_equiv_pos_site_id
 _symmetry_equiv_pos_as_xyz
  1  'x, y, z'
loop_
 _atom_site_type_symbol
 _atom_site_label
 _atom_site_symmetry_multiplicity
 _atom_site_fract_x
 _atom_site_fract_y
 _atom_site_fract_z
 _atom_site_occupancy
  Dy  Dy0  1  0.250000  0.026198  0.281799  1
  Ho  Ho1  1  0.750000  0.317605  0.447604  1
  Ho  Ho2  1  0.750000  0.816874  0.052515  1
  Ho  Ho3  1  0.250000  0.182777  0.947205  1
  Ho  Ho4  1  0.250000  0.526303  0.219487  1
  Ho  Ho5  1  0.750000  0.473749  0.780880  1
  Ho  Ho6  1  0.750000  0.973657  0.718664  1
  Er  Er7  1  0.250000  0.681771  0.553117  1
  Os  Os8  1  0.250000  0.724447  0.865466  1
  Os  Os9  1  0.750000  0.275611  0.134119  1
  Os  Os10  1  0.750000  0.775509  0.366215  1
  Os  Os11  1  0.250000  0.224435  0.633905  1
  C  C12  1  0.250000  0.460239  0.757830  1
  C  C13  1  0.750000  0.539897  0.241979  1
  C  C14  1  0.750000  0.039675  0.257963  1
  C  C15  1  0.250000  0.959857  0.741247  1
  C  C16  1  0.250000  0.825265  0.053680  1
  C  C17  1  0.750000  0.174279  0.945855  1
  C  C18  1  0.750000  0.673910  0.554413  1
  C  C19  1  0.250000  0.327940  0.446057  1
