# generated using pymatgen
data_YbCe2Y(B4Ru)4
_symmetry_space_group_name_H-M   'P 1'
_cell_length_a   3.59127900
_cell_length_b   5.98737559
_cell_length_c   11.59614523
_cell_angle_alpha   90.15020035
_cell_angle_beta   90.00000000
_cell_angle_gamma   90.00000000
_symmetry_Int_Tables_number   1
_chemical_formula_structural   YbCe2Y(B4Ru)4
_chemical_formula_sum   'Yb1 Ce2 Y1 B16 Ru4'
_cell_volume   249.34335691
_cell_formula_units_Z   1
loop_
 _symmetry_equiv_pos_site_id
 _symmetry_equiv_pos_as_xyz
  1  'x, y, z'
loop_
 _atom_site_type_symbol
 _atom_site_label
 _atom_site_symmetry_multiplicity
 _atom_site_fract_x
 _atom_site_fract_y
 _atom_site_fract_z
 _atom_site_occupancy
  Yb  Yb0  1  0.500000  0.871567  0.648014  1
  Ce  Ce1  1  0.500000  0.628802  0.151287  1
  Ce  Ce2  1  0.500000  0.370689  0.847162  1
  Y  Y3  1  0.500000  0.127362  0.352689  1
  B  B4  1  0.000000  0.976139  0.192127  1
  B  B5  1  0.000000  0.023778  0.807864  1
  B  B6  1  0.000000  0.474807  0.310017  1
  B  B7  1  0.000000  0.524450  0.689825  1
  B  B8  1  0.000000  0.788074  0.316212  1
  B  B9  1  0.000000  0.212505  0.683938  1
  B  B10  1  0.000000  0.286129  0.186674  1
  B  B11  1  0.000000  0.714961  0.813308  1
  B  B12  1  0.000000  0.862885  0.469984  1
  B  B13  1  0.000000  0.136739  0.530731  1
  B  B14  1  0.000000  0.362762  0.031018  1
  B  B15  1  0.000000  0.636929  0.968733  1
  B  B16  1  0.000000  0.889214  0.046545  1
  B  B17  1  0.000000  0.110327  0.953015  1
  B  B18  1  0.000000  0.387543  0.454844  1
  B  B19  1  0.000000  0.614198  0.546344  1
  Ru  Ru20  1  0.500000  0.638433  0.407261  1
  Ru  Ru21  1  0.500000  0.361643  0.591686  1
  Ru  Ru22  1  0.500000  0.140059  0.093286  1
  Ru  Ru23  1  0.500000  0.860007  0.907435  1
