# generated using pymatgen
data_Ca3Dy(Ru2O7)2
_symmetry_space_group_name_H-M   'P 1'
_cell_length_a   7.28975650
_cell_length_b   7.28975535
_cell_length_c   7.28975594
_cell_angle_alpha   59.79823304
_cell_angle_beta   59.79824125
_cell_angle_gamma   59.79823642
_symmetry_Int_Tables_number   1
_chemical_formula_structural   Ca3Dy(Ru2O7)2
_chemical_formula_sum   'Ca3 Dy1 Ru4 O14'
_cell_volume   272.66551914
_cell_formula_units_Z   1
loop_
 _symmetry_equiv_pos_site_id
 _symmetry_equiv_pos_as_xyz
  1  'x, y, z'
loop_
 _atom_site_type_symbol
 _atom_site_label
 _atom_site_symmetry_multiplicity
 _atom_site_fract_x
 _atom_site_fract_y
 _atom_site_fract_z
 _atom_site_occupancy
  Ca  Ca0  1  0.625000  0.125000  0.625000  1
  Ca  Ca1  1  0.625000  0.625000  0.125000  1
  Ca  Ca2  1  0.125000  0.625000  0.625000  1
  Dy  Dy3  1  0.625000  0.625000  0.625000  1
  Ru  Ru4  1  0.625000  0.125000  0.125000  1
  Ru  Ru5  1  0.125000  0.625000  0.125000  1
  Ru  Ru6  1  0.125000  0.125000  0.625000  1
  Ru  Ru7  1  0.125000  0.125000  0.125000  1
  O  O8  1  0.194546  0.194546  0.803984  1
  O  O9  1  0.194546  0.803984  0.194546  1
  O  O10  1  0.446016  0.055454  0.055454  1
  O  O11  1  0.203368  0.800909  0.800909  1
  O  O12  1  0.046632  0.449091  0.449091  1
  O  O13  1  0.800909  0.800909  0.203368  1
  O  O14  1  0.449091  0.449091  0.046632  1
  O  O15  1  0.503255  0.503255  0.503255  1
  O  O16  1  0.055454  0.055454  0.446016  1
  O  O17  1  0.449091  0.046632  0.449091  1
  O  O18  1  0.055454  0.446016  0.055454  1
  O  O19  1  0.746745  0.746745  0.746745  1
  O  O20  1  0.800909  0.203368  0.800909  1
  O  O21  1  0.803984  0.194546  0.194546  1
