# generated using pymatgen
data_Na4Fe5(P3O11)2
_symmetry_space_group_name_H-M   'P 1'
_cell_length_a   6.67362800
_cell_length_b   10.86575860
_cell_length_c   12.81198600
_cell_angle_alpha   76.27201493
_cell_angle_beta   90.00000000
_cell_angle_gamma   90.00000000
_symmetry_Int_Tables_number   1
_chemical_formula_structural   Na4Fe5(P3O11)2
_chemical_formula_sum   'Na8 Fe10 P12 O44'
_cell_volume   902.50891375
_cell_formula_units_Z   2
loop_
 _symmetry_equiv_pos_site_id
 _symmetry_equiv_pos_as_xyz
  1  'x, y, z'
loop_
 _atom_site_type_symbol
 _atom_site_label
 _atom_site_symmetry_multiplicity
 _atom_site_fract_x
 _atom_site_fract_y
 _atom_site_fract_z
 _atom_site_occupancy
  Na  Na0  1  0.902428  0.455532  0.164382  1
  Na  Na1  1  0.597572  0.955532  0.164382  1
  Na  Na2  1  0.480176  0.137260  0.352303  1
  Na  Na3  1  0.019824  0.637260  0.352303  1
  Na  Na4  1  0.980176  0.362740  0.647697  1
  Na  Na5  1  0.519824  0.862740  0.647697  1
  Na  Na6  1  0.402428  0.044468  0.835618  1
  Na  Na7  1  0.097572  0.544468  0.835618  1
  Fe  Fe8  1  0.500000  0.500000  0.000000  1
  Fe  Fe9  1  0.245670  0.215767  0.132934  1
  Fe  Fe10  1  0.000000  0.000000  0.000000  1
  Fe  Fe11  1  0.254330  0.715767  0.132934  1
  Fe  Fe12  1  0.010153  0.197006  0.339344  1
  Fe  Fe13  1  0.489847  0.697006  0.339344  1
  Fe  Fe14  1  0.510153  0.302994  0.660656  1
  Fe  Fe15  1  0.989847  0.802994  0.660656  1
  Fe  Fe16  1  0.745670  0.284233  0.867066  1
  Fe  Fe17  1  0.754330  0.784233  0.867066  1
  P  P18  1  0.739743  0.224979  0.088889  1
  P  P19  1  0.760257  0.724979  0.088889  1
  P  P20  1  0.388254  0.431921  0.259028  1
  P  P21  1  0.111746  0.931921  0.259028  1
  P  P22  1  0.707041  0.412938  0.416570  1
  P  P23  1  0.792959  0.912938  0.416570  1
  P  P24  1  0.207041  0.087062  0.583430  1
  P  P25  1  0.292959  0.587062  0.583430  1
  P  P26  1  0.888254  0.068079  0.740972  1
  P  P27  1  0.611746  0.568079  0.740972  1
  P  P28  1  0.239743  0.275021  0.911111  1
  P  P29  1  0.260257  0.775021  0.911111  1
  O  O30  1  0.772468  0.134872  0.011413  1
  O  O31  1  0.714509  0.357511  0.008269  1
  O  O32  1  0.727532  0.634872  0.011413  1
  O  O33  1  0.785491  0.857511  0.008269  1
  O  O34  1  0.553191  0.178204  0.158790  1
  O  O35  1  0.922460  0.233737  0.162355  1
  O  O36  1  0.546617  0.452563  0.172026  1
  O  O37  1  0.209913  0.055785  0.271597  1
  O  O38  1  0.946809  0.678204  0.158790  1
  O  O39  1  0.577539  0.733737  0.162355  1
  O  O40  1  0.232863  0.331450  0.247207  1
  O  O41  1  0.953383  0.952563  0.172026  1
  O  O42  1  0.290087  0.555785  0.271597  1
  O  O43  1  0.793058  0.057998  0.393194  1
  O  O44  1  0.267137  0.831450  0.247207  1
  O  O45  1  0.875022  0.365905  0.354941  1
  O  O46  1  0.495119  0.367288  0.372766  1
  O  O47  1  0.206941  0.151272  0.464181  1
  O  O48  1  0.706942  0.557998  0.393194  1
  O  O49  1  0.624978  0.865905  0.354941  1
  O  O50  1  0.004881  0.867288  0.372766  1
  O  O51  1  0.293059  0.651272  0.464181  1
  O  O52  1  0.706941  0.348728  0.535819  1
  O  O53  1  0.995119  0.132712  0.627234  1
  O  O54  1  0.375022  0.134095  0.645059  1
  O  O55  1  0.293058  0.442002  0.606806  1
  O  O56  1  0.793059  0.848728  0.535819  1
  O  O57  1  0.504881  0.632712  0.627234  1
  O  O58  1  0.124978  0.634095  0.645059  1
  O  O59  1  0.732863  0.168550  0.752793  1
  O  O60  1  0.206942  0.942002  0.606806  1
  O  O61  1  0.709913  0.444215  0.728403  1
  O  O62  1  0.046617  0.047437  0.827974  1
  O  O63  1  0.767137  0.668550  0.752793  1
  O  O64  1  0.422460  0.266263  0.837645  1
  O  O65  1  0.053191  0.321796  0.841210  1
  O  O66  1  0.790087  0.944215  0.728403  1
  O  O67  1  0.453383  0.547437  0.827974  1
  O  O68  1  0.077540  0.766263  0.837645  1
  O  O69  1  0.446809  0.821796  0.841210  1
  O  O70  1  0.214509  0.142489  0.991731  1
  O  O71  1  0.272468  0.365128  0.988587  1
  O  O72  1  0.285491  0.642489  0.991731  1
  O  O73  1  0.227532  0.865128  0.988587  1
