# generated using pymatgen
data_Tb11HoCo5Sn
_symmetry_space_group_name_H-M   'P 1'
_cell_length_a   8.30493619
_cell_length_b   8.30493577
_cell_length_c   8.30636931
_cell_angle_alpha   107.05982323
_cell_angle_beta   110.64255537
_cell_angle_gamma   110.73105353
_symmetry_Int_Tables_number   1
_chemical_formula_structural   Tb11HoCo5Sn
_chemical_formula_sum   'Tb11 Ho1 Co5 Sn1'
_cell_volume   440.47854533
_cell_formula_units_Z   1
loop_
 _symmetry_equiv_pos_site_id
 _symmetry_equiv_pos_as_xyz
  1  'x, y, z'
loop_
 _atom_site_type_symbol
 _atom_site_label
 _atom_site_symmetry_multiplicity
 _atom_site_fract_x
 _atom_site_fract_y
 _atom_site_fract_z
 _atom_site_occupancy
  Tb  Tb0  1  0.478945  0.292739  0.185784  1
  Tb  Tb1  1  0.106490  0.292272  0.814615  1
  Tb  Tb2  1  0.893046  0.706840  0.185784  1
  Tb  Tb3  1  0.522342  0.708124  0.814615  1
  Tb  Tb4  1  0.305201  0.619232  0.313382  1
  Tb  Tb5  1  0.306401  0.992089  0.686467  1
  Tb  Tb6  1  0.694378  0.380066  0.686467  1
  Tb  Tb7  1  0.694150  0.008181  0.313382  1
  Tb  Tb8  1  0.192046  0.207484  0.399529  1
  Tb  Tb9  1  0.807162  0.792708  0.599870  1
  Tb  Tb10  1  0.192597  0.792458  0.985055  1
  Ho  Ho11  1  0.807027  0.207544  0.014572  1
  Co  Co12  1  0.499870  0.612146  0.112016  1
  Co  Co13  1  0.500688  0.387620  0.888308  1
  Co  Co14  1  0.378370  0.999799  0.378170  1
  Co  Co15  1  0.622563  0.000372  0.622935  1
  Co  Co16  1  0.998977  0.000697  0.999676  1
  Sn  Sn17  1  0.999746  0.499628  0.499374  1
