# generated using pymatgen
data_Sm2Co3Si7Ru9
_symmetry_space_group_name_H-M   'P 1'
_cell_length_a   9.53635600
_cell_length_b   9.53635552
_cell_length_c   3.86085600
_cell_angle_alpha   90.00000000
_cell_angle_beta   90.00000000
_cell_angle_gamma   120.00000167
_symmetry_Int_Tables_number   1
_chemical_formula_structural   Sm2Co3Si7Ru9
_chemical_formula_sum   'Sm2 Co3 Si7 Ru9'
_cell_volume   304.07388077
_cell_formula_units_Z   1
loop_
 _symmetry_equiv_pos_site_id
 _symmetry_equiv_pos_as_xyz
  1  'x, y, z'
loop_
 _atom_site_type_symbol
 _atom_site_label
 _atom_site_symmetry_multiplicity
 _atom_site_fract_x
 _atom_site_fract_y
 _atom_site_fract_z
 _atom_site_occupancy
  Sm  Sm0  1  0.333333  0.666667  0.500000  1
  Sm  Sm1  1  0.000000  0.000000  0.000000  1
  Co  Co2  1  0.812738  0.602474  0.000000  1
  Co  Co3  1  0.397526  0.210264  0.000000  1
  Co  Co4  1  0.789736  0.187262  0.000000  1
  Si  Si5  1  0.772134  0.721849  0.500000  1
  Si  Si6  1  0.278151  0.050285  0.500000  1
  Si  Si7  1  0.949715  0.227866  0.500000  1
  Si  Si8  1  0.666667  0.333333  0.000000  1
  Si  Si9  1  0.062472  0.624231  0.000000  1
  Si  Si10  1  0.375769  0.438241  0.000000  1
  Si  Si11  1  0.561759  0.937528  0.000000  1
  Ru  Ru12  1  0.093199  0.389241  0.000000  1
  Ru  Ru13  1  0.610759  0.703959  0.000000  1
  Ru  Ru14  1  0.296041  0.906801  0.000000  1
  Ru  Ru15  1  0.045911  0.767090  0.500000  1
  Ru  Ru16  1  0.232910  0.278821  0.500000  1
  Ru  Ru17  1  0.721179  0.954089  0.500000  1
  Ru  Ru18  1  0.869613  0.431674  0.500000  1
  Ru  Ru19  1  0.568326  0.437939  0.500000  1
  Ru  Ru20  1  0.562061  0.130387  0.500000  1
