# generated using pymatgen
data_Nb12Al9Zn13Pt2
_symmetry_space_group_name_H-M   'P 1'
_cell_length_a   8.86672800
_cell_length_b   8.86672726
_cell_length_c   8.18056200
_cell_angle_alpha   90.00000000
_cell_angle_beta   90.00000000
_cell_angle_gamma   119.99998783
_symmetry_Int_Tables_number   1
_chemical_formula_structural   Nb12Al9Zn13Pt2
_chemical_formula_sum   'Nb12 Al9 Zn13 Pt2'
_cell_volume   556.98123196
_cell_formula_units_Z   1
loop_
 _symmetry_equiv_pos_site_id
 _symmetry_equiv_pos_as_xyz
  1  'x, y, z'
loop_
 _atom_site_type_symbol
 _atom_site_label
 _atom_site_symmetry_multiplicity
 _atom_site_fract_x
 _atom_site_fract_y
 _atom_site_fract_z
 _atom_site_occupancy
  Nb  Nb0  1  0.335066  0.999969  0.068783  1
  Nb  Nb1  1  0.664903  0.999969  0.931217  1
  Nb  Nb2  1  0.000031  0.335097  0.068783  1
  Nb  Nb3  1  0.666183  0.000888  0.569432  1
  Nb  Nb4  1  0.999112  0.333817  0.430568  1
  Nb  Nb5  1  0.000031  0.664934  0.931217  1
  Nb  Nb6  1  0.334704  0.000888  0.430568  1
  Nb  Nb7  1  0.999112  0.665296  0.569432  1
  Nb  Nb8  1  0.664903  0.664934  0.068783  1
  Nb  Nb9  1  0.335066  0.335097  0.931217  1
  Nb  Nb10  1  0.334704  0.333817  0.569432  1
  Nb  Nb11  1  0.666183  0.665296  0.430568  1
  Al  Al12  1  0.666667  0.333333  0.500000  1
  Al  Al13  1  0.666667  0.333333  0.000000  1
  Al  Al14  1  0.333333  0.666667  0.000000  1
  Al  Al15  1  0.173813  0.999734  0.750264  1
  Al  Al16  1  0.825922  0.999734  0.249736  1
  Al  Al17  1  0.000266  0.174078  0.750264  1
  Al  Al18  1  0.000266  0.826187  0.249736  1
  Al  Al19  1  0.825922  0.826187  0.750264  1
  Al  Al20  1  0.173813  0.174078  0.249736  1
  Zn  Zn21  1  0.161456  0.495783  0.747209  1
  Zn  Zn22  1  0.839412  0.504933  0.249848  1
  Zn  Zn23  1  0.504217  0.665673  0.747209  1
  Zn  Zn24  1  0.495067  0.160588  0.750152  1
  Zn  Zn25  1  0.495067  0.334479  0.249848  1
  Zn  Zn26  1  0.504217  0.838544  0.252791  1
  Zn  Zn27  1  0.334327  0.838544  0.747209  1
  Zn  Zn28  1  0.665521  0.504933  0.750152  1
  Zn  Zn29  1  0.665521  0.160588  0.249848  1
  Zn  Zn30  1  0.334327  0.495783  0.252791  1
  Zn  Zn31  1  0.839412  0.334479  0.750152  1
  Zn  Zn32  1  0.161456  0.665673  0.252791  1
  Zn  Zn33  1  0.333333  0.666667  0.500000  1
  Pt  Pt34  1  0.000000  0.000000  0.500000  1
  Pt  Pt35  1  0.000000  0.000000  0.000000  1
