# generated using pymatgen
data_Zr4HgC3
_symmetry_space_group_name_H-M   'P 1'
_cell_length_a   3.36607100
_cell_length_b   3.36606989
_cell_length_c   25.73215200
_cell_angle_alpha   90.00000000
_cell_angle_beta   90.00000000
_cell_angle_gamma   120.00000111
_symmetry_Int_Tables_number   1
_chemical_formula_structural   Zr4HgC3
_chemical_formula_sum   'Zr8 Hg2 C6'
_cell_volume   252.49520540
_cell_formula_units_Z   2
loop_
 _symmetry_equiv_pos_site_id
 _symmetry_equiv_pos_as_xyz
  1  'x, y, z'
loop_
 _atom_site_type_symbol
 _atom_site_label
 _atom_site_symmetry_multiplicity
 _atom_site_fract_x
 _atom_site_fract_y
 _atom_site_fract_z
 _atom_site_occupancy
  Zr  Zr0  1  0.000000  0.000000  0.346472  1
  Zr  Zr1  1  0.000000  0.000000  0.846472  1
  Zr  Zr2  1  0.000000  0.000000  0.653528  1
  Zr  Zr3  1  0.000000  0.000000  0.153528  1
  Zr  Zr4  1  0.333333  0.666667  0.448963  1
  Zr  Zr5  1  0.666667  0.333333  0.948963  1
  Zr  Zr6  1  0.666667  0.333333  0.551037  1
  Zr  Zr7  1  0.333333  0.666667  0.051037  1
  Hg  Hg8  1  0.666667  0.333333  0.750000  1
  Hg  Hg9  1  0.333333  0.666667  0.250000  1
  C  C10  1  0.666667  0.333333  0.391655  1
  C  C11  1  0.333333  0.666667  0.891655  1
  C  C12  1  0.333333  0.666667  0.608345  1
  C  C13  1  0.000000  0.000000  0.000000  1
  C  C14  1  0.666667  0.333333  0.108345  1
  C  C15  1  0.000000  0.000000  0.500000  1
