# generated using pymatgen
data_Pr5Sn2Rh
_symmetry_space_group_name_H-M   'P 1'
_cell_length_a   8.24202400
_cell_length_b   9.31488700
_cell_length_c   12.84609800
_cell_angle_alpha   90.00000000
_cell_angle_beta   90.00000000
_cell_angle_gamma   90.00000000
_symmetry_Int_Tables_number   1
_chemical_formula_structural   Pr5Sn2Rh
_chemical_formula_sum   'Pr20 Sn8 Rh4'
_cell_volume   986.24019013
_cell_formula_units_Z   4
loop_
 _symmetry_equiv_pos_site_id
 _symmetry_equiv_pos_as_xyz
  1  'x, y, z'
loop_
 _atom_site_type_symbol
 _atom_site_label
 _atom_site_symmetry_multiplicity
 _atom_site_fract_x
 _atom_site_fract_y
 _atom_site_fract_z
 _atom_site_occupancy
  Pr  Pr0  1  0.837479  0.750000  0.786812  1
  Pr  Pr1  1  0.162521  0.250000  0.213188  1
  Pr  Pr2  1  0.337479  0.250000  0.713188  1
  Pr  Pr3  1  0.662521  0.750000  0.286812  1
  Pr  Pr4  1  0.365598  0.750000  0.695908  1
  Pr  Pr5  1  0.634402  0.250000  0.304092  1
  Pr  Pr6  1  0.865598  0.250000  0.804092  1
  Pr  Pr7  1  0.134402  0.750000  0.195908  1
  Pr  Pr8  1  0.950747  0.750000  0.501209  1
  Pr  Pr9  1  0.049253  0.250000  0.498791  1
  Pr  Pr10  1  0.450747  0.250000  0.998791  1
  Pr  Pr11  1  0.549253  0.750000  0.001209  1
  Pr  Pr12  1  0.677927  0.035160  0.574209  1
  Pr  Pr13  1  0.322073  0.964840  0.425791  1
  Pr  Pr14  1  0.177927  0.964840  0.925791  1
  Pr  Pr15  1  0.322073  0.535160  0.425791  1
  Pr  Pr16  1  0.822073  0.035160  0.074209  1
  Pr  Pr17  1  0.677927  0.464840  0.574209  1
  Pr  Pr18  1  0.822073  0.464840  0.074209  1
  Pr  Pr19  1  0.177927  0.535160  0.925791  1
  Sn  Sn20  1  0.563650  0.495787  0.828102  1
  Sn  Sn21  1  0.436350  0.504213  0.171898  1
  Sn  Sn22  1  0.063650  0.504213  0.671898  1
  Sn  Sn23  1  0.436350  0.995787  0.171898  1
  Sn  Sn24  1  0.936350  0.495787  0.328102  1
  Sn  Sn25  1  0.563650  0.004213  0.828102  1
  Sn  Sn26  1  0.936350  0.004213  0.328102  1
  Sn  Sn27  1  0.063650  0.995787  0.671898  1
  Rh  Rh28  1  0.577742  0.750000  0.508839  1
  Rh  Rh29  1  0.422258  0.250000  0.491161  1
  Rh  Rh30  1  0.077742  0.250000  0.991161  1
  Rh  Rh31  1  0.922258  0.750000  0.008839  1
