# generated using pymatgen
data_CaPa3(InRh2)2
_symmetry_space_group_name_H-M   'P 1'
_cell_length_a   7.73954681
_cell_length_b   7.73954722
_cell_length_c   3.63025300
_cell_angle_alpha   90.00000000
_cell_angle_beta   90.00000000
_cell_angle_gamma   92.94266646
_symmetry_Int_Tables_number   1
_chemical_formula_structural   CaPa3(InRh2)2
_chemical_formula_sum   'Ca1 Pa3 In2 Rh4'
_cell_volume   217.16755501
_cell_formula_units_Z   1
loop_
 _symmetry_equiv_pos_site_id
 _symmetry_equiv_pos_as_xyz
  1  'x, y, z'
loop_
 _atom_site_type_symbol
 _atom_site_label
 _atom_site_symmetry_multiplicity
 _atom_site_fract_x
 _atom_site_fract_y
 _atom_site_fract_z
 _atom_site_occupancy
  Ca  Ca0  1  0.170353  0.329647  0.500000  1
  Pa  Pa1  1  0.668479  0.172320  0.500000  1
  Pa  Pa2  1  0.327680  0.831521  0.500000  1
  Pa  Pa3  1  0.830340  0.669660  0.500000  1
  In  In4  1  0.489886  0.499223  0.000000  1
  In  In5  1  0.000777  0.010114  0.000000  1
  Rh  Rh6  1  0.394697  0.105303  0.000000  1
  Rh  Rh7  1  0.126263  0.656054  0.000000  1
  Rh  Rh8  1  0.843946  0.373737  0.000000  1
  Rh  Rh9  1  0.647578  0.852422  0.000000  1
