# generated using pymatgen
data_Nd20Ir2(RuAu)5
_symmetry_space_group_name_H-M   'P 1'
_cell_length_a   11.45256985
_cell_length_b   11.45267170
_cell_length_c   6.64064258
_cell_angle_alpha   89.97489066
_cell_angle_beta   89.97490363
_cell_angle_gamma   91.21814578
_symmetry_Int_Tables_number   1
_chemical_formula_structural   Nd20Ir2(RuAu)5
_chemical_formula_sum   'Nd20 Ir2 Ru5 Au5'
_cell_volume   870.80641608
_cell_formula_units_Z   1
loop_
 _symmetry_equiv_pos_site_id
 _symmetry_equiv_pos_as_xyz
  1  'x, y, z'
loop_
 _atom_site_type_symbol
 _atom_site_label
 _atom_site_symmetry_multiplicity
 _atom_site_fract_x
 _atom_site_fract_y
 _atom_site_fract_z
 _atom_site_occupancy
  Nd  Nd0  1  0.083716  0.305340  0.136329  1
  Nd  Nd1  1  0.794122  0.413351  0.119243  1
  Nd  Nd2  1  0.208222  0.597297  0.118835  1
  Nd  Nd3  1  0.926082  0.703552  0.137912  1
  Nd  Nd4  1  0.402703  0.791778  0.381165  1
  Nd  Nd5  1  0.586652  0.205879  0.380751  1
  Nd  Nd6  1  0.296442  0.073918  0.362091  1
  Nd  Nd7  1  0.694664  0.916287  0.363680  1
  Nd  Nd8  1  0.420777  0.200398  0.862575  1
  Nd  Nd9  1  0.700561  0.092098  0.867107  1
  Nd  Nd10  1  0.294860  0.902943  0.879895  1
  Nd  Nd11  1  0.575087  0.798583  0.865855  1
  Nd  Nd12  1  0.097056  0.705139  0.620098  1
  Nd  Nd13  1  0.907903  0.299440  0.632895  1
  Nd  Nd14  1  0.201418  0.424912  0.634145  1
  Nd  Nd15  1  0.799604  0.579221  0.637424  1
  Nd  Nd16  1  0.009494  0.999116  0.000582  1
  Nd  Nd17  1  0.498117  0.497258  0.997326  1
  Nd  Nd18  1  0.502741  0.501884  0.502663  1
  Nd  Nd19  1  0.000883  0.990506  0.499429  1
  Ir  Ir20  1  0.350788  0.649212  0.749999  1
  Ir  Ir21  1  0.649851  0.350148  0.749998  1
  Ru  Ru22  1  0.147761  0.852232  0.250002  1
  Ru  Ru23  1  0.000185  0.499128  0.384000  1
  Ru  Ru24  1  0.500872  0.999836  0.116008  1
  Ru  Ru25  1  0.499915  0.000189  0.614366  1
  Ru  Ru26  1  0.999805  0.500074  0.885636  1
  Au  Au27  1  0.343884  0.340248  0.255753  1
  Au  Au28  1  0.659752  0.656117  0.244241  1
  Au  Au29  1  0.847333  0.152668  0.249999  1
  Au  Au30  1  0.157675  0.158922  0.742836  1
  Au  Au31  1  0.841078  0.842324  0.757163  1
