# generated using pymatgen
data_Ti6Sn4Sb
_symmetry_space_group_name_H-M   'P 1'
_cell_length_a   9.36641000
_cell_length_b   9.29594416
_cell_length_c   5.69343600
_cell_angle_alpha   90.00000000
_cell_angle_beta   90.00000000
_cell_angle_gamma   120.25107198
_symmetry_Int_Tables_number   1
_chemical_formula_structural   Ti6Sn4Sb
_chemical_formula_sum   'Ti12 Sn8 Sb2'
_cell_volume   428.22047159
_cell_formula_units_Z   2
loop_
 _symmetry_equiv_pos_site_id
 _symmetry_equiv_pos_as_xyz
  1  'x, y, z'
loop_
 _atom_site_type_symbol
 _atom_site_label
 _atom_site_symmetry_multiplicity
 _atom_site_fract_x
 _atom_site_fract_y
 _atom_site_fract_z
 _atom_site_occupancy
  Ti  Ti0  1  0.501982  0.003964  0.001322  1
  Ti  Ti1  1  0.998029  0.498310  0.999877  1
  Ti  Ti2  1  0.500282  0.498310  0.999877  1
  Ti  Ti3  1  0.152815  0.305629  0.250001  1
  Ti  Ti4  1  0.161912  0.848308  0.250001  1
  Ti  Ti5  1  0.686396  0.848308  0.250001  1
  Ti  Ti6  1  0.501982  0.003964  0.498678  1
  Ti  Ti7  1  0.998029  0.498310  0.500123  1
  Ti  Ti8  1  0.500282  0.498310  0.500123  1
  Ti  Ti9  1  0.312321  0.155528  0.750001  1
  Ti  Ti10  1  0.843206  0.155528  0.750001  1
  Ti  Ti11  1  0.843189  0.686378  0.750001  1
  Sn  Sn12  1  0.997690  0.995381  0.999033  1
  Sn  Sn13  1  0.799453  0.598906  0.250001  1
  Sn  Sn14  1  0.332565  0.665131  0.250001  1
  Sn  Sn15  1  0.997690  0.995381  0.500967  1
  Sn  Sn16  1  0.667990  0.335979  0.750001  1
  Sn  Sn17  1  0.203819  0.407637  0.750001  1
  Sn  Sn18  1  0.206368  0.795641  0.750001  1
  Sn  Sn19  1  0.589273  0.795641  0.750001  1
  Sb  Sb20  1  0.406130  0.204727  0.250001  1
  Sb  Sb21  1  0.798598  0.204727  0.250001  1
