# generated using pymatgen
data_Ho4As3S
_symmetry_space_group_name_H-M   'P 1'
_cell_length_a   7.00754303
_cell_length_b   7.00754160
_cell_length_c   7.00754400
_cell_angle_alpha   131.71152807
_cell_angle_beta   131.71151763
_cell_angle_gamma   70.68503485
_symmetry_Int_Tables_number   1
_chemical_formula_structural   Ho4As3S
_chemical_formula_sum   'Ho4 As3 S1'
_cell_volume   187.85101724
_cell_formula_units_Z   1
loop_
 _symmetry_equiv_pos_site_id
 _symmetry_equiv_pos_as_xyz
  1  'x, y, z'
loop_
 _atom_site_type_symbol
 _atom_site_label
 _atom_site_symmetry_multiplicity
 _atom_site_fract_x
 _atom_site_fract_y
 _atom_site_fract_z
 _atom_site_occupancy
  Ho  Ho0  1  0.250214  0.250214  0.000000  1
  Ho  Ho1  1  0.749786  0.749786  0.000000  1
  Ho  Ho2  1  0.499928  0.999927  0.500001  1
  Ho  Ho3  1  0.000073  0.500074  0.500001  1
  As  As4  1  0.500000  0.500000  0.000000  1
  As  As5  1  0.750000  0.250000  0.500001  1
  As  As6  1  0.000000  0.000000  0.000000  1
  S  S7  1  0.250000  0.750000  0.500001  1
