# generated using pymatgen
data_Tb12Y8FeCo3Sb8
_symmetry_space_group_name_H-M   'P 1'
_cell_length_a   7.98739686
_cell_length_b   8.78745900
_cell_length_c   12.26095424
_cell_angle_alpha   90.00000000
_cell_angle_beta   90.08075907
_cell_angle_gamma   90.00000000
_symmetry_Int_Tables_number   1
_chemical_formula_structural   Tb12Y8FeCo3Sb8
_chemical_formula_sum   'Tb12 Y8 Fe1 Co3 Sb8'
_cell_volume   860.58231103
_cell_formula_units_Z   1
loop_
 _symmetry_equiv_pos_site_id
 _symmetry_equiv_pos_as_xyz
  1  'x, y, z'
loop_
 _atom_site_type_symbol
 _atom_site_label
 _atom_site_symmetry_multiplicity
 _atom_site_fract_x
 _atom_site_fract_y
 _atom_site_fract_z
 _atom_site_occupancy
  Tb  Tb0  1  0.621777  0.750000  0.304816  1
  Tb  Tb1  1  0.123389  0.250000  0.194397  1
  Tb  Tb2  1  0.376759  0.250000  0.694818  1
  Tb  Tb3  1  0.877589  0.750000  0.805821  1
  Tb  Tb4  1  0.821340  0.965180  0.065120  1
  Tb  Tb5  1  0.324263  0.031074  0.436920  1
  Tb  Tb6  1  0.177959  0.466172  0.935236  1
  Tb  Tb7  1  0.679060  0.537538  0.564382  1
  Tb  Tb8  1  0.177959  0.033828  0.935236  1
  Tb  Tb9  1  0.679060  0.962462  0.564382  1
  Tb  Tb10  1  0.821340  0.534820  0.065120  1
  Tb  Tb11  1  0.324263  0.468926  0.436920  1
  Y  Y12  1  0.157041  0.750000  0.205428  1
  Y  Y13  1  0.654874  0.250000  0.295871  1
  Y  Y14  1  0.845128  0.250000  0.796704  1
  Y  Y15  1  0.345530  0.750000  0.702638  1
  Y  Y16  1  0.456113  0.750000  0.997630  1
  Y  Y17  1  0.953363  0.250000  0.502683  1
  Y  Y18  1  0.543117  0.250000  0.001866  1
  Y  Y19  1  0.045264  0.750000  0.497394  1
  Fe  Fe20  1  0.429453  0.750000  0.486307  1
  Co  Co21  1  0.937177  0.250000  0.010695  1
  Co  Co22  1  0.565692  0.250000  0.510764  1
  Co  Co23  1  0.063840  0.750000  0.990260  1
  Sb  Sb24  1  0.927640  0.992474  0.327201  1
  Sb  Sb25  1  0.427494  0.008312  0.172152  1
  Sb  Sb26  1  0.071705  0.491790  0.672707  1
  Sb  Sb27  1  0.572484  0.507825  0.827235  1
  Sb  Sb28  1  0.071705  0.008210  0.672707  1
  Sb  Sb29  1  0.572484  0.992175  0.827235  1
  Sb  Sb30  1  0.927640  0.507526  0.327201  1
  Sb  Sb31  1  0.427494  0.491688  0.172152  1
