# generated using pymatgen
data_LaTiF7
_symmetry_space_group_name_H-M   'P 1'
_cell_length_a   5.74710100
_cell_length_b   9.20796179
_cell_length_c   12.34125600
_cell_angle_alpha   62.16607565
_cell_angle_beta   90.00000000
_cell_angle_gamma   90.00000000
_symmetry_Int_Tables_number   1
_chemical_formula_structural   LaTiF7
_chemical_formula_sum   'La4 Ti4 F28'
_cell_volume   577.52876643
_cell_formula_units_Z   4
loop_
 _symmetry_equiv_pos_site_id
 _symmetry_equiv_pos_as_xyz
  1  'x, y, z'
loop_
 _atom_site_type_symbol
 _atom_site_label
 _atom_site_symmetry_multiplicity
 _atom_site_fract_x
 _atom_site_fract_y
 _atom_site_fract_z
 _atom_site_occupancy
  La  La0  1  0.757567  0.807104  0.265630  1
  La  La1  1  0.257567  0.192896  0.234370  1
  La  La2  1  0.242433  0.192896  0.734370  1
  La  La3  1  0.742433  0.807104  0.765630  1
  Ti  Ti4  1  0.244530  0.726314  0.542898  1
  Ti  Ti5  1  0.744530  0.273686  0.957102  1
  Ti  Ti6  1  0.755470  0.273686  0.457102  1
  Ti  Ti7  1  0.255470  0.726314  0.042898  1
  F  F8  1  0.971623  0.714777  0.460321  1
  F  F9  1  0.471623  0.285223  0.039679  1
  F  F10  1  0.028377  0.285223  0.539679  1
  F  F11  1  0.528377  0.714777  0.960321  1
  F  F12  1  0.061852  0.709538  0.926407  1
  F  F13  1  0.561852  0.290462  0.573593  1
  F  F14  1  0.938148  0.290462  0.073593  1
  F  F15  1  0.438148  0.709538  0.426407  1
  F  F16  1  0.734332  0.505749  0.863900  1
  F  F17  1  0.234332  0.494251  0.636100  1
  F  F18  1  0.265668  0.494251  0.136100  1
  F  F19  1  0.765668  0.505749  0.363900  1
  F  F20  1  0.739901  0.043622  0.047596  1
  F  F21  1  0.239901  0.956378  0.452404  1
  F  F22  1  0.260099  0.956378  0.952404  1
  F  F23  1  0.760099  0.043622  0.547596  1
  F  F24  1  0.054496  0.741884  0.664024  1
  F  F25  1  0.554496  0.258116  0.835976  1
  F  F26  1  0.945504  0.258116  0.335976  1
  F  F27  1  0.445504  0.741884  0.164024  1
  F  F28  1  0.008424  0.269449  0.866941  1
  F  F29  1  0.508424  0.730551  0.633059  1
  F  F30  1  0.991576  0.730551  0.133059  1
  F  F31  1  0.491576  0.269449  0.366941  1
  F  F32  1  0.090214  0.967405  0.230719  1
  F  F33  1  0.590214  0.032595  0.269281  1
  F  F34  1  0.909786  0.032595  0.769281  1
  F  F35  1  0.409786  0.967405  0.730719  1
