# generated using pymatgen
data_Tb3Dy3Al24NiOs7
_symmetry_space_group_name_H-M   'P 1'
_cell_length_a   8.82125000
_cell_length_b   8.82124949
_cell_length_c   9.54878600
_cell_angle_alpha   90.00000000
_cell_angle_beta   90.00000000
_cell_angle_gamma   120.00000193
_symmetry_Int_Tables_number   1
_chemical_formula_structural   Tb3Dy3Al24NiOs7
_chemical_formula_sum   'Tb3 Dy3 Al24 Ni1 Os7'
_cell_volume   643.48587646
_cell_formula_units_Z   1
loop_
 _symmetry_equiv_pos_site_id
 _symmetry_equiv_pos_as_xyz
  1  'x, y, z'
loop_
 _atom_site_type_symbol
 _atom_site_label
 _atom_site_symmetry_multiplicity
 _atom_site_fract_x
 _atom_site_fract_y
 _atom_site_fract_z
 _atom_site_occupancy
  Tb  Tb0  1  0.193634  0.806366  0.249112  1
  Tb  Tb1  1  0.193634  0.387268  0.249112  1
  Tb  Tb2  1  0.612732  0.806366  0.249112  1
  Dy  Dy3  1  0.806292  0.193708  0.750813  1
  Dy  Dy4  1  0.806292  0.612585  0.750813  1
  Dy  Dy5  1  0.387415  0.193708  0.750813  1
  Al  Al6  1  0.560835  0.439165  0.249823  1
  Al  Al7  1  0.560835  0.121673  0.249823  1
  Al  Al8  1  0.878327  0.439165  0.249823  1
  Al  Al9  1  0.439494  0.560506  0.750171  1
  Al  Al10  1  0.439494  0.878987  0.750171  1
  Al  Al11  1  0.121013  0.560506  0.750171  1
  Al  Al12  1  0.324297  0.162148  0.423525  1
  Al  Al13  1  0.837852  0.162148  0.423525  1
  Al  Al14  1  0.837852  0.675703  0.423525  1
  Al  Al15  1  0.676007  0.838004  0.576967  1
  Al  Al16  1  0.161996  0.838004  0.576967  1
  Al  Al17  1  0.161996  0.323993  0.576967  1
  Al  Al18  1  0.676063  0.838031  0.923506  1
  Al  Al19  1  0.161969  0.838031  0.923506  1
  Al  Al20  1  0.161969  0.323937  0.923506  1
  Al  Al21  1  0.324267  0.162133  0.075986  1
  Al  Al22  1  0.837867  0.162133  0.075986  1
  Al  Al23  1  0.837867  0.675733  0.075986  1
  Al  Al24  1  0.666667  0.333333  0.516033  1
  Al  Al25  1  0.333333  0.666667  0.484218  1
  Al  Al26  1  0.333333  0.666667  0.016505  1
  Al  Al27  1  0.666667  0.333333  0.983153  1
  Al  Al28  1  0.000000  0.000000  0.242987  1
  Al  Al29  1  0.000000  0.000000  0.757102  1
  Ni  Ni30  1  0.000000  0.000000  0.000052  1
  Os  Os31  1  0.000000  0.000000  0.500119  1
  Os  Os32  1  0.500152  0.499848  0.500420  1
  Os  Os33  1  0.500152  0.000304  0.500420  1
  Os  Os34  1  0.999696  0.499848  0.500420  1
  Os  Os35  1  0.500118  0.499882  0.999621  1
  Os  Os36  1  0.500118  0.000236  0.999621  1
  Os  Os37  1  0.999764  0.499882  0.999621  1
