# generated using pymatgen
data_YLu7Cr2(OsC4)2
_symmetry_space_group_name_H-M   'P 1'
_cell_length_a   4.95128000
_cell_length_b   6.40917559
_cell_length_c   9.61896440
_cell_angle_alpha   90.10705129
_cell_angle_beta   90.00000000
_cell_angle_gamma   90.00000000
_symmetry_Int_Tables_number   1
_chemical_formula_structural   YLu7Cr2(OsC4)2
_chemical_formula_sum   'Y1 Lu7 Cr2 Os2 C8'
_cell_volume   305.24405645
_cell_formula_units_Z   1
loop_
 _symmetry_equiv_pos_site_id
 _symmetry_equiv_pos_as_xyz
  1  'x, y, z'
loop_
 _atom_site_type_symbol
 _atom_site_label
 _atom_site_symmetry_multiplicity
 _atom_site_fract_x
 _atom_site_fract_y
 _atom_site_fract_z
 _atom_site_occupancy
  Y  Y0  1  0.250000  0.027942  0.284091  1
  Lu  Lu1  1  0.250000  0.680391  0.560108  1
  Lu  Lu2  1  0.750000  0.320302  0.440967  1
  Lu  Lu3  1  0.750000  0.823943  0.055087  1
  Lu  Lu4  1  0.250000  0.175614  0.943876  1
  Lu  Lu5  1  0.250000  0.532173  0.216877  1
  Lu  Lu6  1  0.750000  0.467418  0.782514  1
  Lu  Lu7  1  0.750000  0.971826  0.717163  1
  Cr  Cr8  1  0.250000  0.724005  0.863442  1
  Cr  Cr9  1  0.750000  0.275572  0.135542  1
  Os  Os10  1  0.750000  0.775009  0.364223  1
  Os  Os11  1  0.250000  0.224119  0.636305  1
  C  C12  1  0.250000  0.462935  0.765291  1
  C  C13  1  0.750000  0.536591  0.234885  1
  C  C14  1  0.750000  0.047397  0.255891  1
  C  C15  1  0.250000  0.952081  0.743335  1
  C  C16  1  0.250000  0.814500  0.043077  1
  C  C17  1  0.750000  0.183849  0.955368  1
  C  C18  1  0.750000  0.675530  0.553073  1
  C  C19  1  0.250000  0.328804  0.448884  1
