# generated using pymatgen
data_Tm12InGaCo3Ni
_symmetry_space_group_name_H-M   'P 1'
_cell_length_a   8.21515032
_cell_length_b   8.21504425
_cell_length_c   8.21515101
_cell_angle_alpha   112.61232167
_cell_angle_beta   109.69266094
_cell_angle_gamma   106.17307510
_symmetry_Int_Tables_number   1
_chemical_formula_structural   Tm12InGaCo3Ni
_chemical_formula_sum   'Tm12 In1 Ga1 Co3 Ni1'
_cell_volume   425.44499296
_cell_formula_units_Z   1
loop_
 _symmetry_equiv_pos_site_id
 _symmetry_equiv_pos_as_xyz
  1  'x, y, z'
loop_
 _atom_site_type_symbol
 _atom_site_label
 _atom_site_symmetry_multiplicity
 _atom_site_fract_x
 _atom_site_fract_y
 _atom_site_fract_z
 _atom_site_occupancy
  Tm  Tm0  1  0.432276  0.232854  0.199438  1
  Tm  Tm1  1  0.567062  0.767253  0.799789  1
  Tm  Tm2  1  0.033416  0.232854  0.800578  1
  Tm  Tm3  1  0.967464  0.767253  0.200192  1
  Tm  Tm4  1  0.183860  0.283339  0.463853  1
  Tm  Tm5  1  0.819475  0.720000  0.536142  1
  Tm  Tm6  1  0.183858  0.720000  0.900524  1
  Tm  Tm7  1  0.819484  0.283339  0.099479  1
  Tm  Tm8  1  0.324381  0.636670  0.312291  1
  Tm  Tm9  1  0.671477  0.360178  0.688699  1
  Tm  Tm10  1  0.324380  0.012095  0.687713  1
  Tm  Tm11  1  0.671470  0.982768  0.311297  1
  In  In12  1  0.500256  0.500256  0.000000  1
  Ga  Ga13  1  0.999694  0.999698  0.000004  1
  Co  Co14  1  0.343243  0.001314  0.341929  1
  Co  Co15  1  0.659386  0.001314  0.658071  1
  Co  Co16  1  0.116490  0.616489  0.499999  1
  Ni  Ni17  1  0.882324  0.382325  0.500000  1
