# generated using pymatgen
data_Tm2Lu10Tl2Tc3
_symmetry_space_group_name_H-M   'P 1'
_cell_length_a   8.31038983
_cell_length_b   8.31039108
_cell_length_c   8.31140400
_cell_angle_alpha   108.81167540
_cell_angle_beta   108.81168563
_cell_angle_gamma   110.79368845
_symmetry_Int_Tables_number   1
_chemical_formula_structural   Tm2Lu10Tl2Tc3
_chemical_formula_sum   'Tm2 Lu10 Tl2 Tc3'
_cell_volume   441.71947966
_cell_formula_units_Z   1
loop_
 _symmetry_equiv_pos_site_id
 _symmetry_equiv_pos_as_xyz
  1  'x, y, z'
loop_
 _atom_site_type_symbol
 _atom_site_label
 _atom_site_symmetry_multiplicity
 _atom_site_fract_x
 _atom_site_fract_y
 _atom_site_fract_z
 _atom_site_occupancy
  Tm  Tm0  1  0.305219  0.305219  0.610438  1
  Tm  Tm1  1  0.694781  0.694781  0.389562  1
  Lu  Lu2  1  0.694442  0.305558  0.000000  1
  Lu  Lu3  1  0.305558  0.694442  0.000000  1
  Lu  Lu4  1  0.188828  0.427810  0.238316  1
  Lu  Lu5  1  0.811172  0.572190  0.761684  1
  Lu  Lu6  1  0.189494  0.950511  0.761684  1
  Lu  Lu7  1  0.950511  0.189494  0.761684  1
  Lu  Lu8  1  0.810506  0.049489  0.238316  1
  Lu  Lu9  1  0.049489  0.810506  0.238316  1
  Lu  Lu10  1  0.427810  0.188828  0.238316  1
  Lu  Lu11  1  0.572190  0.811172  0.761684  1
  Tl  Tl12  1  0.000000  0.500000  0.500000  1
  Tl  Tl13  1  0.500000  0.000000  0.500000  1
  Tc  Tc14  1  0.370309  0.370309  0.000000  1
  Tc  Tc15  1  0.629691  0.629691  0.000000  1
  Tc  Tc16  1  0.000000  0.000000  0.000000  1
