# generated using pymatgen
data_Hf9Re3RuW
_symmetry_space_group_name_H-M   'P 1'
_cell_length_a   8.67439200
_cell_length_b   8.67439128
_cell_length_c   8.50819100
_cell_angle_alpha   90.00000000
_cell_angle_beta   90.00000000
_cell_angle_gamma   120.00000276
_symmetry_Int_Tables_number   1
_chemical_formula_structural   Hf9Re3RuW
_chemical_formula_sum   'Hf18 Re6 Ru2 W2'
_cell_volume   554.42895442
_cell_formula_units_Z   2
loop_
 _symmetry_equiv_pos_site_id
 _symmetry_equiv_pos_as_xyz
  1  'x, y, z'
loop_
 _atom_site_type_symbol
 _atom_site_label
 _atom_site_symmetry_multiplicity
 _atom_site_fract_x
 _atom_site_fract_y
 _atom_site_fract_z
 _atom_site_occupancy
  Hf  Hf0  1  0.198043  0.801957  0.445551  1
  Hf  Hf1  1  0.198043  0.396085  0.445551  1
  Hf  Hf2  1  0.603915  0.801957  0.445551  1
  Hf  Hf3  1  0.801957  0.198043  0.554449  1
  Hf  Hf4  1  0.801957  0.603915  0.554449  1
  Hf  Hf5  1  0.396085  0.198043  0.554449  1
  Hf  Hf6  1  0.801957  0.198043  0.945551  1
  Hf  Hf7  1  0.801957  0.603915  0.945551  1
  Hf  Hf8  1  0.396085  0.198043  0.945551  1
  Hf  Hf9  1  0.198043  0.801957  0.054449  1
  Hf  Hf10  1  0.198043  0.396085  0.054449  1
  Hf  Hf11  1  0.603915  0.801957  0.054449  1
  Hf  Hf12  1  0.541550  0.458450  0.250000  1
  Hf  Hf13  1  0.541550  0.083100  0.250000  1
  Hf  Hf14  1  0.916900  0.458450  0.250000  1
  Hf  Hf15  1  0.458450  0.541550  0.750000  1
  Hf  Hf16  1  0.458450  0.916900  0.750000  1
  Hf  Hf17  1  0.083100  0.541550  0.750000  1
  Re  Re18  1  0.888430  0.111570  0.250000  1
  Re  Re19  1  0.888430  0.776859  0.250000  1
  Re  Re20  1  0.223141  0.111570  0.250000  1
  Re  Re21  1  0.111570  0.888430  0.750000  1
  Re  Re22  1  0.111570  0.223141  0.750000  1
  Re  Re23  1  0.776859  0.888430  0.750000  1
  Ru  Ru24  1  0.333333  0.666667  0.250000  1
  Ru  Ru25  1  0.666667  0.333333  0.750000  1
  W  W26  1  0.000000  0.000000  0.500000  1
  W  W27  1  0.000000  0.000000  0.000000  1
