# generated using pymatgen
data_Ac2Nd(MgPt)3
_symmetry_space_group_name_H-M   'P 1'
_cell_length_a   7.76483373
_cell_length_b   7.67137607
_cell_length_c   4.26326600
_cell_angle_alpha   90.00000000
_cell_angle_beta   90.00000000
_cell_angle_gamma   119.60265243
_symmetry_Int_Tables_number   1
_chemical_formula_structural   Ac2Nd(MgPt)3
_chemical_formula_sum   'Ac2 Nd1 Mg3 Pt3'
_cell_volume   220.80225093
_cell_formula_units_Z   1
loop_
 _symmetry_equiv_pos_site_id
 _symmetry_equiv_pos_as_xyz
  1  'x, y, z'
loop_
 _atom_site_type_symbol
 _atom_site_label
 _atom_site_symmetry_multiplicity
 _atom_site_fract_x
 _atom_site_fract_y
 _atom_site_fract_z
 _atom_site_occupancy
  Ac  Ac0  1  0.415998  0.414866  0.000000  1
  Ac  Ac1  1  0.584002  0.998868  0.000000  1
  Nd  Nd2  1  0.000000  0.589759  0.000000  1
  Mg  Mg3  1  0.000000  0.243319  0.500000  1
  Mg  Mg4  1  0.773828  0.764104  0.500000  1
  Mg  Mg5  1  0.226172  0.990276  0.500000  1
  Pt  Pt6  1  0.677055  0.340182  0.500000  1
  Pt  Pt7  1  0.000000  0.995498  0.000000  1
  Pt  Pt8  1  0.322945  0.663129  0.500000  1
