# generated using pymatgen
data_Sr4Pu3HgO16
_symmetry_space_group_name_H-M   'P 1'
_cell_length_a   5.36600298
_cell_length_b   7.97233271
_cell_length_c   8.06801600
_cell_angle_alpha   91.90575901
_cell_angle_beta   91.33291371
_cell_angle_gamma   88.66525921
_symmetry_Int_Tables_number   1
_chemical_formula_structural   Sr4Pu3HgO16
_chemical_formula_sum   'Sr4 Pu3 Hg1 O16'
_cell_volume   344.77433136
_cell_formula_units_Z   1
loop_
 _symmetry_equiv_pos_site_id
 _symmetry_equiv_pos_as_xyz
  1  'x, y, z'
loop_
 _atom_site_type_symbol
 _atom_site_label
 _atom_site_symmetry_multiplicity
 _atom_site_fract_x
 _atom_site_fract_y
 _atom_site_fract_z
 _atom_site_occupancy
  Sr  Sr0  1  0.457205  0.195891  0.229064  1
  Sr  Sr1  1  0.482250  0.298021  0.753553  1
  Sr  Sr2  1  0.517750  0.701979  0.246447  1
  Sr  Sr3  1  0.542795  0.804109  0.770936  1
  Pu  Pu4  1  0.000000  0.500000  0.000000  1
  Pu  Pu5  1  0.000000  0.500000  0.500000  1
  Pu  Pu6  1  0.000000  0.000000  0.500000  1
  Hg  Hg7  1  0.000000  0.000000  0.000000  1
  O  O8  1  0.163338  0.975379  0.709631  1
  O  O9  1  0.140510  0.524184  0.261006  1
  O  O10  1  0.859490  0.475816  0.738994  1
  O  O11  1  0.836662  0.024621  0.290369  1
  O  O12  1  0.166867  0.263269  0.501038  1
  O  O13  1  0.824496  0.713691  0.016242  1
  O  O14  1  0.833133  0.736731  0.498962  1
  O  O15  1  0.175504  0.286309  0.983758  1
  O  O16  1  0.365061  0.927503  0.062350  1
  O  O17  1  0.297056  0.596990  0.934192  1
  O  O18  1  0.699852  0.415391  0.413372  1
  O  O19  1  0.702062  0.069318  0.602345  1
  O  O20  1  0.634939  0.072497  0.937650  1
  O  O21  1  0.702944  0.403010  0.065808  1
  O  O22  1  0.300148  0.584609  0.586628  1
  O  O23  1  0.297938  0.930682  0.397655  1
