# generated using pymatgen
data_ZrCoSi3
_symmetry_space_group_name_H-M   'P 1'
_cell_length_a   10.41999543
_cell_length_b   10.41999566
_cell_length_c   3.78752500
_cell_angle_alpha   90.00000000
_cell_angle_beta   90.00000000
_cell_angle_gamma   158.56956149
_symmetry_Int_Tables_number   1
_chemical_formula_structural   ZrCoSi3
_chemical_formula_sum   'Zr2 Co2 Si6'
_cell_volume   150.25366505
_cell_formula_units_Z   2
loop_
 _symmetry_equiv_pos_site_id
 _symmetry_equiv_pos_as_xyz
  1  'x, y, z'
loop_
 _atom_site_type_symbol
 _atom_site_label
 _atom_site_symmetry_multiplicity
 _atom_site_fract_x
 _atom_site_fract_y
 _atom_site_fract_z
 _atom_site_occupancy
  Zr  Zr0  1  0.671834  0.328166  0.500000  1
  Zr  Zr1  1  0.328166  0.671834  0.500000  1
  Co  Co2  1  0.887330  0.112670  0.000000  1
  Co  Co3  1  0.112670  0.887330  0.000000  1
  Si  Si4  1  0.942173  0.057827  0.500000  1
  Si  Si5  1  0.057827  0.942173  0.500000  1
  Si  Si6  1  0.781530  0.218470  0.000000  1
  Si  Si7  1  0.218470  0.781530  0.000000  1
  Si  Si8  1  0.558344  0.441656  0.000000  1
  Si  Si9  1  0.441656  0.558344  0.000000  1
