# generated using pymatgen
data_Ho5Er5(RuPb3)2
_symmetry_space_group_name_H-M   'P 1'
_cell_length_a   9.27330216
_cell_length_b   9.27028448
_cell_length_c   6.54775400
_cell_angle_alpha   90.00000000
_cell_angle_beta   90.00000000
_cell_angle_gamma   119.98923521
_symmetry_Int_Tables_number   1
_chemical_formula_structural   Ho5Er5(RuPb3)2
_chemical_formula_sum   'Ho5 Er5 Ru2 Pb6'
_cell_volume   487.52574904
_cell_formula_units_Z   1
loop_
 _symmetry_equiv_pos_site_id
 _symmetry_equiv_pos_as_xyz
  1  'x, y, z'
loop_
 _atom_site_type_symbol
 _atom_site_label
 _atom_site_symmetry_multiplicity
 _atom_site_fract_x
 _atom_site_fract_y
 _atom_site_fract_z
 _atom_site_occupancy
  Ho  Ho0  1  0.000000  0.763593  0.750000  1
  Ho  Ho1  1  0.333369  0.666672  0.499870  1
  Ho  Ho2  1  0.666631  0.333301  0.499870  1
  Ho  Ho3  1  0.333369  0.666672  0.000130  1
  Ho  Ho4  1  0.666631  0.333301  0.000130  1
  Er  Er5  1  0.236145  0.999969  0.250000  1
  Er  Er6  1  0.763754  0.000050  0.750000  1
  Er  Er7  1  0.000000  0.236197  0.250000  1
  Er  Er8  1  0.763855  0.763824  0.250000  1
  Er  Er9  1  0.236246  0.236296  0.750000  1
  Ru  Ru10  1  0.000000  0.000240  0.000203  1
  Ru  Ru11  1  0.000000  0.000240  0.499797  1
  Pb  Pb12  1  0.402306  0.402393  0.250000  1
  Pb  Pb13  1  0.000000  0.402081  0.750000  1
  Pb  Pb14  1  0.000000  0.597589  0.250000  1
  Pb  Pb15  1  0.597694  0.000086  0.250000  1
  Pb  Pb16  1  0.402445  0.999971  0.750000  1
  Pb  Pb17  1  0.597555  0.597526  0.750000  1
