# generated using pymatgen
data_Yb3Y3(MnC3)4
_symmetry_space_group_name_H-M   'P 1'
_cell_length_a   8.07401501
_cell_length_b   8.07883659
_cell_length_c   4.98018400
_cell_angle_alpha   90.00000000
_cell_angle_beta   90.00000000
_cell_angle_gamma   120.15094381
_symmetry_Int_Tables_number   1
_chemical_formula_structural   Yb3Y3(MnC3)4
_chemical_formula_sum   'Yb3 Y3 Mn4 C12'
_cell_volume   280.90005149
_cell_formula_units_Z   1
loop_
 _symmetry_equiv_pos_site_id
 _symmetry_equiv_pos_as_xyz
  1  'x, y, z'
loop_
 _atom_site_type_symbol
 _atom_site_label
 _atom_site_symmetry_multiplicity
 _atom_site_fract_x
 _atom_site_fract_y
 _atom_site_fract_z
 _atom_site_occupancy
  Yb  Yb0  1  0.613566  0.686167  0.750000  1
  Yb  Yb1  1  0.926368  0.614656  0.250000  1
  Yb  Yb2  1  0.683120  0.071866  0.250000  1
  Y  Y3  1  0.312528  0.931880  0.750000  1
  Y  Y4  1  0.068487  0.384901  0.750000  1
  Y  Y5  1  0.383754  0.315665  0.250000  1
  Mn  Mn6  1  0.996309  0.997604  0.501393  1
  Mn  Mn7  1  0.996309  0.997604  0.998607  1
  Mn  Mn8  1  0.667681  0.330935  0.750000  1
  Mn  Mn9  1  0.332343  0.663333  0.250000  1
  C  C10  1  0.957596  0.772036  0.750000  1
  C  C11  1  0.194961  0.963737  0.250000  1
  C  C12  1  0.774392  0.819660  0.250000  1
  C  C13  1  0.229064  0.192946  0.750000  1
  C  C14  1  0.821142  0.043931  0.750000  1
  C  C15  1  0.040049  0.222881  0.250000  1
  C  C16  1  0.858650  0.578111  0.750000  1
  C  C17  1  0.279297  0.854638  0.250000  1
  C  C18  1  0.581376  0.721033  0.250000  1
  C  C19  1  0.424351  0.281869  0.750000  1
  C  C20  1  0.137942  0.417079  0.250000  1
  C  C21  1  0.720715  0.137469  0.750000  1
