# generated using pymatgen
data_SrYbSi6Pd20Pb
_symmetry_space_group_name_H-M   'P 1'
_cell_length_a   8.75321564
_cell_length_b   8.75321582
_cell_length_c   8.75321600
_cell_angle_alpha   59.99999932
_cell_angle_beta   59.99999862
_cell_angle_gamma   60.00000414
_symmetry_Int_Tables_number   1
_chemical_formula_structural   SrYbSi6Pd20Pb
_chemical_formula_sum   'Sr1 Yb1 Si6 Pd20 Pb1'
_cell_volume   474.22879269
_cell_formula_units_Z   1
loop_
 _symmetry_equiv_pos_site_id
 _symmetry_equiv_pos_as_xyz
  1  'x, y, z'
loop_
 _atom_site_type_symbol
 _atom_site_label
 _atom_site_symmetry_multiplicity
 _atom_site_fract_x
 _atom_site_fract_y
 _atom_site_fract_z
 _atom_site_occupancy
  Sr  Sr0  1  0.250000  0.250000  0.250000  1
  Yb  Yb1  1  0.000000  0.000000  0.000000  1
  Si  Si2  1  0.730897  0.269103  0.269103  1
  Si  Si3  1  0.269103  0.730897  0.730897  1
  Si  Si4  1  0.269103  0.730897  0.269103  1
  Si  Si5  1  0.730897  0.269103  0.730897  1
  Si  Si6  1  0.269103  0.269103  0.730897  1
  Si  Si7  1  0.730897  0.730897  0.269103  1
  Pd  Pd8  1  0.388201  0.388201  0.388201  1
  Pd  Pd9  1  0.618613  0.618613  0.618613  1
  Pd  Pd10  1  0.388201  0.388201  0.835398  1
  Pd  Pd11  1  0.388201  0.835398  0.388201  1
  Pd  Pd12  1  0.618613  0.618613  0.144159  1
  Pd  Pd13  1  0.618613  0.144159  0.618613  1
  Pd  Pd14  1  0.835398  0.388201  0.388201  1
  Pd  Pd15  1  0.144159  0.618613  0.618613  1
  Pd  Pd16  1  0.341817  0.000342  0.000342  1
  Pd  Pd17  1  0.657498  0.000342  0.000342  1
  Pd  Pd18  1  0.000342  0.341817  0.657498  1
  Pd  Pd19  1  0.000342  0.657498  0.341817  1
  Pd  Pd20  1  0.000342  0.341817  0.000342  1
  Pd  Pd21  1  0.657498  0.000342  0.341817  1
  Pd  Pd22  1  0.000342  0.657498  0.000342  1
  Pd  Pd23  1  0.341817  0.000342  0.657498  1
  Pd  Pd24  1  0.000342  0.000342  0.341817  1
  Pd  Pd25  1  0.000342  0.000342  0.657498  1
  Pd  Pd26  1  0.657498  0.341817  0.000342  1
  Pd  Pd27  1  0.341817  0.657498  0.000342  1
  Pb  Pb28  1  0.750000  0.750000  0.750000  1
