# generated using pymatgen
data_Ti6Fe3Co7B4
_symmetry_space_group_name_H-M   'P 1'
_cell_length_a   8.55965705
_cell_length_b   8.54264106
_cell_length_c   2.96864700
_cell_angle_alpha   90.00000000
_cell_angle_beta   90.00000000
_cell_angle_gamma   89.93739357
_symmetry_Int_Tables_number   1
_chemical_formula_structural   Ti6Fe3Co7B4
_chemical_formula_sum   'Ti6 Fe3 Co7 B4'
_cell_volume   217.07350732
_cell_formula_units_Z   1
loop_
 _symmetry_equiv_pos_site_id
 _symmetry_equiv_pos_as_xyz
  1  'x, y, z'
loop_
 _atom_site_type_symbol
 _atom_site_label
 _atom_site_symmetry_multiplicity
 _atom_site_fract_x
 _atom_site_fract_y
 _atom_site_fract_z
 _atom_site_occupancy
  Ti  Ti0  1  0.000535  0.000500  0.000000  1
  Ti  Ti1  1  0.499737  0.500117  0.000000  1
  Ti  Ti2  1  0.820656  0.327793  0.000000  1
  Ti  Ti3  1  0.327922  0.179518  0.000000  1
  Ti  Ti4  1  0.674903  0.822687  0.000000  1
  Ti  Ti5  1  0.176010  0.672265  0.000000  1
  Fe  Fe6  1  0.571865  0.278009  0.500000  1
  Fe  Fe7  1  0.720234  0.573678  0.500000  1
  Fe  Fe8  1  0.278651  0.429347  0.500000  1
  Co  Co9  1  0.500196  0.998193  0.500000  1
  Co  Co10  1  0.999429  0.499966  0.500000  1
  Co  Co11  1  0.067850  0.220177  0.500000  1
  Co  Co12  1  0.221026  0.931077  0.500000  1
  Co  Co13  1  0.779712  0.066794  0.500000  1
  Co  Co14  1  0.933326  0.780024  0.500000  1
  Co  Co15  1  0.427660  0.721757  0.500000  1
  B  B16  1  0.622044  0.119571  0.000000  1
  B  B17  1  0.120422  0.378601  0.000000  1
  B  B18  1  0.879302  0.621473  0.000000  1
  B  B19  1  0.378521  0.878452  0.000000  1
