# generated using pymatgen
data_MnAl8Cd3(Si5O18)2
_symmetry_space_group_name_H-M   'P 1'
_cell_length_a   10.26076225
_cell_length_b   10.26076253
_cell_length_c   9.36974825
_cell_angle_alpha   89.96118044
_cell_angle_beta   89.96117990
_cell_angle_gamma   120.89855838
_symmetry_Int_Tables_number   1
_chemical_formula_structural   MnAl8Cd3(Si5O18)2
_chemical_formula_sum   'Mn1 Al8 Cd3 Si10 O36'
_cell_volume   846.47366895
_cell_formula_units_Z   1
loop_
 _symmetry_equiv_pos_site_id
 _symmetry_equiv_pos_as_xyz
  1  'x, y, z'
loop_
 _atom_site_type_symbol
 _atom_site_label
 _atom_site_symmetry_multiplicity
 _atom_site_fract_x
 _atom_site_fract_y
 _atom_site_fract_z
 _atom_site_occupancy
  Mn  Mn0  1  0.163463  0.836537  0.250000  1
  Al  Al1  1  0.758184  0.848038  0.499050  1
  Al  Al2  1  0.240846  0.149845  0.498257  1
  Al  Al3  1  0.850155  0.759154  0.001743  1
  Al  Al4  1  0.151962  0.241816  0.000950  1
  Al  Al5  1  0.999480  0.499570  0.749964  1
  Al  Al6  1  0.500430  0.000520  0.750036  1
  Al  Al7  1  0.001852  0.504318  0.250190  1
  Al  Al8  1  0.495682  0.998148  0.249810  1
  Cd  Cd9  1  0.163443  0.836557  0.750000  1
  Cd  Cd10  1  0.836489  0.163511  0.750000  1
  Cd  Cd11  1  0.837199  0.162801  0.250000  1
  Si  Si12  1  0.590442  0.859343  0.001058  1
  Si  Si13  1  0.600439  0.231986  0.498607  1
  Si  Si14  1  0.768014  0.399561  0.001393  1
  Si  Si15  1  0.407831  0.138390  0.001765  1
  Si  Si16  1  0.999775  0.000225  0.750000  1
  Si  Si17  1  0.002916  0.997084  0.250000  1
  Si  Si18  1  0.861610  0.592169  0.498235  1
  Si  Si19  1  0.140657  0.409558  0.498942  1
  Si  Si20  1  0.399041  0.770061  0.498046  1
  Si  Si21  1  0.229939  0.600959  0.001954  1
  O  O22  1  0.273664  0.589111  0.500023  1
  O  O23  1  0.732330  0.411078  0.494528  1
  O  O24  1  0.588922  0.267670  0.005472  1
  O  O25  1  0.410889  0.726336  0.999977  1
  O  O26  1  0.571315  0.806629  0.494423  1
  O  O27  1  0.430315  0.200787  0.500051  1
  O  O28  1  0.799213  0.569685  0.999949  1
  O  O29  1  0.193371  0.428685  0.005577  1
  O  O30  1  0.206096  0.298118  0.496068  1
  O  O31  1  0.788706  0.697076  0.500272  1
  O  O32  1  0.302924  0.211294  0.999728  1
  O  O33  1  0.701882  0.793904  0.003932  1
  O  O34  1  0.620515  0.967201  0.858632  1
  O  O35  1  0.379563  0.032279  0.858793  1
  O  O36  1  0.967721  0.620437  0.641207  1
  O  O37  1  0.032799  0.379485  0.641368  1
  O  O38  1  0.370244  0.025029  0.141793  1
  O  O39  1  0.618244  0.967605  0.142129  1
  O  O40  1  0.032395  0.381756  0.357871  1
  O  O41  1  0.974971  0.629756  0.358207  1
  O  O42  1  0.967815  0.855284  0.850207  1
  O  O43  1  0.032597  0.145678  0.850019  1
  O  O44  1  0.363210  0.846633  0.358517  1
  O  O45  1  0.625941  0.150312  0.357707  1
  O  O46  1  0.849688  0.374059  0.142293  1
  O  O47  1  0.153367  0.636790  0.141483  1
  O  O48  1  0.628501  0.153585  0.641069  1
  O  O49  1  0.372347  0.848165  0.641172  1
  O  O50  1  0.151835  0.627653  0.858828  1
  O  O51  1  0.854322  0.967403  0.649981  1
  O  O52  1  0.857411  0.966217  0.348894  1
  O  O53  1  0.147003  0.024880  0.349740  1
  O  O54  1  0.975120  0.852997  0.150260  1
  O  O55  1  0.033783  0.142589  0.151106  1
  O  O56  1  0.144716  0.032185  0.649793  1
  O  O57  1  0.846415  0.371499  0.858931  1
