# generated using pymatgen
data_Zr6Al14V2Co7
_symmetry_space_group_name_H-M   'P 1'
_cell_length_a   8.50897562
_cell_length_b   8.50897515
_cell_length_c   8.53221900
_cell_angle_alpha   59.90959146
_cell_angle_beta   59.90959328
_cell_angle_gamma   59.85897170
_symmetry_Int_Tables_number   1
_chemical_formula_structural   Zr6Al14V2Co7
_chemical_formula_sum   'Zr6 Al14 V2 Co7'
_cell_volume   435.75557952
_cell_formula_units_Z   1
loop_
 _symmetry_equiv_pos_site_id
 _symmetry_equiv_pos_as_xyz
  1  'x, y, z'
loop_
 _atom_site_type_symbol
 _atom_site_label
 _atom_site_symmetry_multiplicity
 _atom_site_fract_x
 _atom_site_fract_y
 _atom_site_fract_z
 _atom_site_occupancy
  Zr  Zr0  1  0.696070  0.305351  0.304387  1
  Zr  Zr1  1  0.696070  0.305351  0.694191  1
  Zr  Zr2  1  0.696939  0.696939  0.303061  1
  Zr  Zr3  1  0.305351  0.696070  0.694191  1
  Zr  Zr4  1  0.305351  0.696070  0.304387  1
  Zr  Zr5  1  0.304991  0.304991  0.695009  1
  Al  Al6  1  0.117626  0.117626  0.646236  1
  Al  Al7  1  0.117626  0.117626  0.118513  1
  Al  Al8  1  0.352813  0.879388  0.883899  1
  Al  Al9  1  0.879388  0.352813  0.883899  1
  Al  Al10  1  0.880910  0.880910  0.356155  1
  Al  Al11  1  0.880910  0.880910  0.882024  1
  Al  Al12  1  0.999146  0.334758  0.333049  1
  Al  Al13  1  0.334758  0.999146  0.333049  1
  Al  Al14  1  0.334348  0.334348  0.997282  1
  Al  Al15  1  0.334348  0.334348  0.334023  1
  Al  Al16  1  0.001837  0.665451  0.666355  1
  Al  Al17  1  0.665451  0.001837  0.666355  1
  Al  Al18  1  0.665822  0.665822  0.002622  1
  Al  Al19  1  0.665822  0.665822  0.665733  1
  V  V20  1  0.640450  0.120232  0.119659  1
  V  V21  1  0.120232  0.640450  0.119659  1
  Co  Co22  1  0.990050  0.990050  0.009950  1
  Co  Co23  1  0.505392  0.002128  0.002194  1
  Co  Co24  1  0.505392  0.002128  0.490285  1
  Co  Co25  1  0.496756  0.496756  0.003244  1
  Co  Co26  1  0.002128  0.505392  0.490285  1
  Co  Co27  1  0.002128  0.505392  0.002194  1
  Co  Co28  1  0.001891  0.001891  0.498109  1
