# generated using pymatgen
data_Zr10Sn5GeSb
_symmetry_space_group_name_H-M   'P 1'
_cell_length_a   5.90221559
_cell_length_b   8.62663297
_cell_length_c   8.62278657
_cell_angle_alpha   120.01477013
_cell_angle_beta   89.91306491
_cell_angle_gamma   90.17378875
_symmetry_Int_Tables_number   1
_chemical_formula_structural   Zr10Sn5GeSb
_chemical_formula_sum   'Zr10 Sn5 Ge1 Sb1'
_cell_volume   380.16138729
_cell_formula_units_Z   1
loop_
 _symmetry_equiv_pos_site_id
 _symmetry_equiv_pos_as_xyz
  1  'x, y, z'
loop_
 _atom_site_type_symbol
 _atom_site_label
 _atom_site_symmetry_multiplicity
 _atom_site_fract_x
 _atom_site_fract_y
 _atom_site_fract_z
 _atom_site_occupancy
  Zr  Zr0  1  0.499991  0.334374  0.667813  1
  Zr  Zr1  1  0.499991  0.666562  0.332187  1
  Zr  Zr2  1  0.000539  0.666506  0.332838  1
  Zr  Zr3  1  0.000539  0.333667  0.667162  1
  Zr  Zr4  1  0.759609  0.257696  0.000000  1
  Zr  Zr5  1  0.759828  0.743348  0.743721  1
  Zr  Zr6  1  0.759828  0.999626  0.256279  1
  Zr  Zr7  1  0.241001  0.741768  0.000000  1
  Zr  Zr8  1  0.239954  0.256889  0.256717  1
  Zr  Zr9  1  0.239954  0.000173  0.743283  1
  Sn  Sn10  1  0.746633  0.390923  0.391070  1
  Sn  Sn11  1  0.746633  0.999852  0.608930  1
  Sn  Sn12  1  0.252970  0.389630  0.000000  1
  Sn  Sn13  1  0.252806  0.609183  0.608537  1
  Sn  Sn14  1  0.252806  0.000646  0.391463  1
  Ge  Ge15  1  0.499415  0.000322  0.000000  1
  Sb  Sb16  1  0.747500  0.608835  0.000000  1
