# generated using pymatgen
data_Nd5Sm3Si13Ge
_symmetry_space_group_name_H-M   'P 1'
_cell_length_a   7.47380687
_cell_length_b   7.47380629
_cell_length_c   11.68291567
_cell_angle_alpha   89.99282882
_cell_angle_beta   89.99283128
_cell_angle_gamma   134.11529996
_symmetry_Int_Tables_number   1
_chemical_formula_structural   Nd5Sm3Si13Ge
_chemical_formula_sum   'Nd5 Sm3 Si13 Ge1'
_cell_volume   468.51483228
_cell_formula_units_Z   1
loop_
 _symmetry_equiv_pos_site_id
 _symmetry_equiv_pos_as_xyz
  1  'x, y, z'
loop_
 _atom_site_type_symbol
 _atom_site_label
 _atom_site_symmetry_multiplicity
 _atom_site_fract_x
 _atom_site_fract_y
 _atom_site_fract_z
 _atom_site_occupancy
  Nd  Nd0  1  0.497340  0.991683  0.377427  1
  Nd  Nd1  1  0.991894  0.495378  0.623075  1
  Nd  Nd2  1  0.504622  0.008106  0.876925  1
  Nd  Nd3  1  0.008317  0.502660  0.122573  1
  Nd  Nd4  1  0.998218  0.001782  0.250000  1
  Sm  Sm5  1  0.001771  0.998229  0.750000  1
  Sm  Sm6  1  0.500949  0.499541  0.497446  1
  Sm  Sm7  1  0.500459  0.499051  0.002554  1
  Si  Si8  1  0.916286  0.087190  0.993701  1
  Si  Si9  1  0.083810  0.912363  0.003871  1
  Si  Si10  1  0.087637  0.916190  0.496129  1
  Si  Si11  1  0.912810  0.083714  0.506299  1
  Si  Si12  1  0.577068  0.911332  0.126984  1
  Si  Si13  1  0.914253  0.576178  0.871753  1
  Si  Si14  1  0.423822  0.085747  0.628247  1
  Si  Si15  1  0.088668  0.422932  0.373016  1
  Si  Si16  1  0.437104  0.115871  0.136003  1
  Si  Si17  1  0.126072  0.440382  0.860575  1
  Si  Si18  1  0.559618  0.873928  0.639425  1
  Si  Si19  1  0.884129  0.562896  0.363997  1
  Si  Si20  1  0.429459  0.570541  0.250000  1
  Ge  Ge21  1  0.555694  0.444306  0.750000  1
