# generated using pymatgen
data_YbInCu3Pt
_symmetry_space_group_name_H-M   'P 1'
_cell_length_a   5.20689926
_cell_length_b   5.20689921
_cell_length_c   5.20689952
_cell_angle_alpha   58.75774860
_cell_angle_beta   58.75774759
_cell_angle_gamma   58.75775086
_symmetry_Int_Tables_number   1
_chemical_formula_structural   YbInCu3Pt
_chemical_formula_sum   'Yb1 In1 Cu3 Pt1'
_cell_volume   96.98861428
_cell_formula_units_Z   1
loop_
 _symmetry_equiv_pos_site_id
 _symmetry_equiv_pos_as_xyz
  1  'x, y, z'
loop_
 _atom_site_type_symbol
 _atom_site_label
 _atom_site_symmetry_multiplicity
 _atom_site_fract_x
 _atom_site_fract_y
 _atom_site_fract_z
 _atom_site_occupancy
  Yb  Yb0  1  0.750112  0.750112  0.750112  1
  In  In1  1  0.000096  0.000096  0.000096  1
  Cu  Cu2  1  0.375288  0.874476  0.375288  1
  Cu  Cu3  1  0.375288  0.375288  0.874476  1
  Cu  Cu4  1  0.874476  0.375288  0.375288  1
  Pt  Pt5  1  0.374739  0.374739  0.374739  1
