# generated using pymatgen
data_La3CdAg3Sn4
_symmetry_space_group_name_H-M   'P 1'
_cell_length_a   9.06176735
_cell_length_b   9.09292655
_cell_length_c   9.09292808
_cell_angle_alpha   149.24926471
_cell_angle_beta   131.03213257
_cell_angle_gamma   58.97589963
_symmetry_Int_Tables_number   1
_chemical_formula_structural   La3CdAg3Sn4
_chemical_formula_sum   'La3 Cd1 Ag3 Sn4'
_cell_volume   286.65925171
_cell_formula_units_Z   1
loop_
 _symmetry_equiv_pos_site_id
 _symmetry_equiv_pos_as_xyz
  1  'x, y, z'
loop_
 _atom_site_type_symbol
 _atom_site_label
 _atom_site_symmetry_multiplicity
 _atom_site_fract_x
 _atom_site_fract_y
 _atom_site_fract_z
 _atom_site_occupancy
  La  La0  1  0.366198  0.870704  0.495494  1
  La  La1  1  0.627747  0.128189  0.499557  1
  La  La2  1  0.001762  0.000455  0.001307  1
  Cd  Cd3  1  0.639644  0.331683  0.307961  1
  Ag  Ag4  1  0.360410  0.668385  0.692025  1
  Ag  Ag5  1  0.025500  0.331155  0.694346  1
  Ag  Ag6  1  0.978720  0.669320  0.309399  1
  Sn  Sn7  1  0.212411  0.215578  0.996833  1
  Sn  Sn8  1  0.787107  0.781816  0.005291  1
  Sn  Sn9  1  0.693857  0.502819  0.191038  1
  Sn  Sn10  1  0.306645  0.499897  0.806747  1
