# generated using pymatgen
data_Dy9U5O28
_symmetry_space_group_name_H-M   'P 1'
_cell_length_a   6.53110089
_cell_length_b   7.59571696
_cell_length_c   11.88079400
_cell_angle_alpha   73.00405996
_cell_angle_beta   80.17593888
_cell_angle_gamma   73.80645359
_symmetry_Int_Tables_number   1
_chemical_formula_structural   Dy9U5O28
_chemical_formula_sum   'Dy9 U5 O28'
_cell_volume   538.72958797
_cell_formula_units_Z   1
loop_
 _symmetry_equiv_pos_site_id
 _symmetry_equiv_pos_as_xyz
  1  'x, y, z'
loop_
 _atom_site_type_symbol
 _atom_site_label
 _atom_site_symmetry_multiplicity
 _atom_site_fract_x
 _atom_site_fract_y
 _atom_site_fract_z
 _atom_site_occupancy
  Dy  Dy0  1  0.782699  0.215104  0.930314  1
  Dy  Dy1  1  0.217301  0.784896  0.069686  1
  Dy  Dy2  1  0.642706  0.856954  0.213879  1
  Dy  Dy3  1  0.068580  0.430613  0.356812  1
  Dy  Dy4  1  0.642313  0.356567  0.215568  1
  Dy  Dy5  1  0.500000  0.000000  0.500000  1
  Dy  Dy6  1  0.931420  0.569387  0.643188  1
  Dy  Dy7  1  0.357687  0.643433  0.784432  1
  Dy  Dy8  1  0.357294  0.143046  0.786121  1
  U  U9  1  0.781503  0.715530  0.929796  1
  U  U10  1  0.218497  0.284470  0.070204  1
  U  U11  1  0.070507  0.927239  0.355055  1
  U  U12  1  0.500000  0.500000  0.500000  1
  U  U13  1  0.929493  0.072761  0.644945  1
  O  O14  1  0.146681  0.115915  0.973108  1
  O  O15  1  0.870317  0.396971  0.038380  1
  O  O16  1  0.853319  0.884085  0.026892  1
  O  O17  1  0.129683  0.603029  0.961620  1
  O  O18  1  0.276766  0.455793  0.170354  1
  O  O19  1  0.580474  0.673488  0.101153  1
  O  O20  1  0.008463  0.240203  0.245499  1
  O  O21  1  0.557654  0.178007  0.107382  1
  O  O22  1  0.278517  0.971998  0.181750  1
  O  O23  1  0.007625  0.758172  0.252422  1
  O  O24  1  0.732840  0.030337  0.327295  1
  O  O25  1  0.139362  0.623962  0.460334  1
  O  O26  1  0.423960  0.328547  0.403488  1
  O  O27  1  0.702553  0.538930  0.333546  1
  O  O28  1  0.130721  0.102387  0.459647  1
  O  O29  1  0.860638  0.376038  0.539666  1
  O  O30  1  0.407973  0.825691  0.390232  1
  O  O31  1  0.869279  0.897613  0.540353  1
  O  O32  1  0.267160  0.969663  0.672705  1
  O  O33  1  0.576040  0.671453  0.596512  1
  O  O34  1  0.992375  0.241828  0.747578  1
  O  O35  1  0.592027  0.174309  0.609768  1
  O  O36  1  0.297447  0.461070  0.666454  1
  O  O37  1  0.991537  0.759797  0.754501  1
  O  O38  1  0.442346  0.821993  0.892618  1
  O  O39  1  0.721483  0.028002  0.818250  1
  O  O40  1  0.419526  0.326512  0.898847  1
  O  O41  1  0.723234  0.544207  0.829646  1
