# generated using pymatgen
data_Er6ZnNi2
_symmetry_space_group_name_H-M   'P 1'
_cell_length_a   8.23065097
_cell_length_b   8.23065147
_cell_length_c   8.23065121
_cell_angle_alpha   112.49407044
_cell_angle_beta   109.80843966
_cell_angle_gamma   106.17282468
_symmetry_Int_Tables_number   1
_chemical_formula_structural   Er6ZnNi2
_chemical_formula_sum   'Er12 Zn2 Ni4'
_cell_volume   427.91147749
_cell_formula_units_Z   2
loop_
 _symmetry_equiv_pos_site_id
 _symmetry_equiv_pos_as_xyz
  1  'x, y, z'
loop_
 _atom_site_type_symbol
 _atom_site_label
 _atom_site_symmetry_multiplicity
 _atom_site_fract_x
 _atom_site_fract_y
 _atom_site_fract_z
 _atom_site_occupancy
  Er  Er0  1  0.046702  0.738611  0.308091  1
  Er  Er1  1  0.953298  0.261389  0.691909  1
  Er  Er2  1  0.569480  0.261389  0.308091  1
  Er  Er3  1  0.430520  0.738611  0.691909  1
  Er  Er4  1  0.673649  0.865704  0.192053  1
  Er  Er5  1  0.326351  0.518404  0.192053  1
  Er  Er6  1  0.326351  0.134296  0.807947  1
  Er  Er7  1  0.673649  0.481596  0.807947  1
  Er  Er8  1  0.179154  0.216135  0.395290  1
  Er  Er9  1  0.820846  0.216135  0.036981  1
  Er  Er10  1  0.179154  0.783865  0.963019  1
  Er  Er11  1  0.820846  0.783865  0.604710  1
  Zn  Zn12  1  0.000000  0.500000  0.500000  1
  Zn  Zn13  1  0.500000  0.000000  0.500000  1
  Ni  Ni14  1  0.658108  0.500000  0.158108  1
  Ni  Ni15  1  0.341892  0.500000  0.841892  1
  Ni  Ni16  1  0.878264  0.878264  0.000000  1
  Ni  Ni17  1  0.121736  0.121736  0.000000  1
