# generated using pymatgen
data_ErPa(ReN3)2
_symmetry_space_group_name_H-M   'P 1'
_cell_length_a   5.32320000
_cell_length_b   5.75272400
_cell_length_c   7.73164700
_cell_angle_alpha   90.00000000
_cell_angle_beta   90.00000000
_cell_angle_gamma   90.00000000
_symmetry_Int_Tables_number   1
_chemical_formula_structural   ErPa(ReN3)2
_chemical_formula_sum   'Er2 Pa2 Re4 N12'
_cell_volume   236.76545598
_cell_formula_units_Z   2
loop_
 _symmetry_equiv_pos_site_id
 _symmetry_equiv_pos_as_xyz
  1  'x, y, z'
loop_
 _atom_site_type_symbol
 _atom_site_label
 _atom_site_symmetry_multiplicity
 _atom_site_fract_x
 _atom_site_fract_y
 _atom_site_fract_z
 _atom_site_occupancy
  Er  Er0  1  0.519648  0.570028  0.750000  1
  Er  Er1  1  0.980352  0.070028  0.750000  1
  Pa  Pa2  1  0.476603  0.424488  0.250000  1
  Pa  Pa3  1  0.023397  0.924488  0.250000  1
  Re  Re4  1  0.507894  0.999590  0.509677  1
  Re  Re5  1  0.992106  0.499590  0.990323  1
  Re  Re6  1  0.992106  0.499590  0.509677  1
  Re  Re7  1  0.507894  0.999590  0.990323  1
  N  N8  1  0.696782  0.293454  0.550425  1
  N  N9  1  0.313006  0.697017  0.062110  1
  N  N10  1  0.186994  0.197017  0.062110  1
  N  N11  1  0.405103  0.981668  0.750000  1
  N  N12  1  0.882635  0.543694  0.250000  1
  N  N13  1  0.313006  0.697017  0.437890  1
  N  N14  1  0.803218  0.793454  0.949575  1
  N  N15  1  0.696782  0.293454  0.949575  1
  N  N16  1  0.803218  0.793454  0.550425  1
  N  N17  1  0.094897  0.481668  0.750000  1
  N  N18  1  0.186994  0.197017  0.437890  1
  N  N19  1  0.617365  0.043694  0.250000  1
