# generated using pymatgen
data_ZrTi3Fe2(P2Pd)2
_symmetry_space_group_name_H-M   'P 1'
_cell_length_a   3.66161600
_cell_length_b   6.31043204
_cell_length_c   7.17684565
_cell_angle_alpha   88.00654529
_cell_angle_beta   90.00000000
_cell_angle_gamma   90.00000000
_symmetry_Int_Tables_number   1
_chemical_formula_structural   ZrTi3Fe2(P2Pd)2
_chemical_formula_sum   'Zr1 Ti3 Fe2 P4 Pd2'
_cell_volume   165.73055539
_cell_formula_units_Z   1
loop_
 _symmetry_equiv_pos_site_id
 _symmetry_equiv_pos_as_xyz
  1  'x, y, z'
loop_
 _atom_site_type_symbol
 _atom_site_label
 _atom_site_symmetry_multiplicity
 _atom_site_fract_x
 _atom_site_fract_y
 _atom_site_fract_z
 _atom_site_occupancy
  Zr  Zr0  1  0.750000  0.974838  0.169762  1
  Ti  Ti1  1  0.250000  0.521696  0.690687  1
  Ti  Ti2  1  0.750000  0.473438  0.310326  1
  Ti  Ti3  1  0.250000  0.029387  0.830497  1
  Fe  Fe4  1  0.750000  0.366302  0.940958  1
  Fe  Fe5  1  0.250000  0.636335  0.054112  1
  P  P6  1  0.250000  0.282868  0.100050  1
  P  P7  1  0.750000  0.722319  0.890385  1
  P  P8  1  0.250000  0.732384  0.360411  1
  P  P9  1  0.750000  0.256390  0.645742  1
  Pd  Pd10  1  0.750000  0.847594  0.568041  1
  Pd  Pd11  1  0.250000  0.156449  0.439030  1
