# generated using pymatgen
data_Ho3ErTi3GaIr4
_symmetry_space_group_name_H-M   'P 1'
_cell_length_a   4.31853600
_cell_length_b   6.92243991
_cell_length_c   7.96497671
_cell_angle_alpha   92.62173382
_cell_angle_beta   90.00000000
_cell_angle_gamma   90.00000000
_symmetry_Int_Tables_number   1
_chemical_formula_structural   Ho3ErTi3GaIr4
_chemical_formula_sum   'Ho3 Er1 Ti3 Ga1 Ir4'
_cell_volume   237.86219986
_cell_formula_units_Z   1
loop_
 _symmetry_equiv_pos_site_id
 _symmetry_equiv_pos_as_xyz
  1  'x, y, z'
loop_
 _atom_site_type_symbol
 _atom_site_label
 _atom_site_symmetry_multiplicity
 _atom_site_fract_x
 _atom_site_fract_y
 _atom_site_fract_z
 _atom_site_occupancy
  Ho  Ho0  1  0.250000  0.981087  0.314336  1
  Ho  Ho1  1  0.250000  0.471383  0.172240  1
  Ho  Ho2  1  0.750000  0.027841  0.688581  1
  Er  Er3  1  0.750000  0.511798  0.824733  1
  Ti  Ti4  1  0.250000  0.365027  0.570331  1
  Ti  Ti5  1  0.250000  0.863665  0.939258  1
  Ti  Ti6  1  0.750000  0.635522  0.431082  1
  Ga  Ga7  1  0.750000  0.147629  0.071758  1
  Ir  Ir8  1  0.250000  0.224377  0.875425  1
  Ir  Ir9  1  0.250000  0.726180  0.600463  1
  Ir  Ir10  1  0.750000  0.768734  0.110755  1
  Ir  Ir11  1  0.750000  0.276759  0.401038  1
