# generated using pymatgen
data_DyY2(B3Ir4)2
_symmetry_space_group_name_H-M   'P 1'
_cell_length_a   10.01105694
_cell_length_b   9.18673558
_cell_length_c   5.57392000
_cell_angle_alpha   81.44008598
_cell_angle_beta   65.15350996
_cell_angle_gamma   33.40641063
_symmetry_Int_Tables_number   1
_chemical_formula_structural   DyY2(B3Ir4)2
_chemical_formula_sum   'Dy1 Y2 B6 Ir8'
_cell_volume   234.26463296
_cell_formula_units_Z   1
loop_
 _symmetry_equiv_pos_site_id
 _symmetry_equiv_pos_as_xyz
  1  'x, y, z'
loop_
 _atom_site_type_symbol
 _atom_site_label
 _atom_site_symmetry_multiplicity
 _atom_site_fract_x
 _atom_site_fract_y
 _atom_site_fract_z
 _atom_site_occupancy
  Dy  Dy0  1  0.000000  0.000000  0.000000  1
  Y  Y1  1  0.178543  0.178543  0.821457  1
  Y  Y2  1  0.821457  0.821457  0.178543  1
  B  B3  1  0.824984  0.524420  0.475580  1
  B  B4  1  0.175016  0.475580  0.524420  1
  B  B5  1  0.475580  0.175016  0.824984  1
  B  B6  1  0.671546  0.328454  0.671546  1
  B  B7  1  0.524420  0.824984  0.175016  1
  B  B8  1  0.328454  0.671546  0.328454  1
  Ir  Ir9  1  0.414291  0.414291  0.585709  1
  Ir  Ir10  1  0.587125  0.587125  0.912875  1
  Ir  Ir11  1  0.087125  0.087125  0.412875  1
  Ir  Ir12  1  0.912875  0.912875  0.587125  1
  Ir  Ir13  1  0.585709  0.585709  0.414291  1
  Ir  Ir14  1  0.250000  0.250000  0.250000  1
  Ir  Ir15  1  0.412875  0.412875  0.087125  1
  Ir  Ir16  1  0.750000  0.750000  0.750000  1
