# generated using pymatgen
data_Pr2Pd2O7
_symmetry_space_group_name_H-M   'P 1'
_cell_length_a   7.46047846
_cell_length_b   7.46047833
_cell_length_c   7.46047800
_cell_angle_alpha   60.00000145
_cell_angle_beta   60.00000203
_cell_angle_gamma   59.99999822
_symmetry_Int_Tables_number   1
_chemical_formula_structural   Pr2Pd2O7
_chemical_formula_sum   'Pr4 Pd4 O14'
_cell_volume   293.61958160
_cell_formula_units_Z   2
loop_
 _symmetry_equiv_pos_site_id
 _symmetry_equiv_pos_as_xyz
  1  'x, y, z'
loop_
 _atom_site_type_symbol
 _atom_site_label
 _atom_site_symmetry_multiplicity
 _atom_site_fract_x
 _atom_site_fract_y
 _atom_site_fract_z
 _atom_site_occupancy
  Pr  Pr0  1  0.125000  0.125000  0.125000  1
  Pr  Pr1  1  0.625000  0.125000  0.125000  1
  Pr  Pr2  1  0.125000  0.125000  0.625000  1
  Pr  Pr3  1  0.125000  0.625000  0.125000  1
  Pd  Pd4  1  0.625000  0.625000  0.625000  1
  Pd  Pd5  1  0.125000  0.625000  0.625000  1
  Pd  Pd6  1  0.625000  0.625000  0.125000  1
  Pd  Pd7  1  0.625000  0.125000  0.625000  1
  O  O8  1  0.000000  0.000000  0.000000  1
  O  O9  1  0.250000  0.250000  0.250000  1
  O  O10  1  0.291690  0.291690  0.708310  1
  O  O11  1  0.541690  0.541690  0.958310  1
  O  O12  1  0.708310  0.291690  0.708310  1
  O  O13  1  0.708310  0.291690  0.291690  1
  O  O14  1  0.291690  0.708310  0.708310  1
  O  O15  1  0.291690  0.708310  0.291690  1
  O  O16  1  0.708310  0.708310  0.291690  1
  O  O17  1  0.958310  0.541690  0.541690  1
  O  O18  1  0.541690  0.958310  0.958310  1
  O  O19  1  0.958310  0.958310  0.541690  1
  O  O20  1  0.958310  0.541690  0.958310  1
  O  O21  1  0.541690  0.958310  0.541690  1
