# generated using pymatgen
data_La7CeZn8IrRh7
_symmetry_space_group_name_H-M   'P 1'
_cell_length_a   4.02009300
_cell_length_b   7.50277536
_cell_length_c   16.62398125
_cell_angle_alpha   90.07164206
_cell_angle_beta   90.00000000
_cell_angle_gamma   90.00000000
_symmetry_Int_Tables_number   1
_chemical_formula_structural   La7CeZn8IrRh7
_chemical_formula_sum   'La7 Ce1 Zn8 Ir1 Rh7'
_cell_volume   501.40971493
_cell_formula_units_Z   1
loop_
 _symmetry_equiv_pos_site_id
 _symmetry_equiv_pos_as_xyz
  1  'x, y, z'
loop_
 _atom_site_type_symbol
 _atom_site_label
 _atom_site_symmetry_multiplicity
 _atom_site_fract_x
 _atom_site_fract_y
 _atom_site_fract_z
 _atom_site_occupancy
  La  La0  1  0.250000  0.050219  0.716236  1
  La  La1  1  0.250000  0.549563  0.782071  1
  La  La2  1  0.250000  0.671724  0.558745  1
  La  La3  1  0.750000  0.828107  0.060224  1
  La  La4  1  0.250000  0.173548  0.940354  1
  La  La5  1  0.750000  0.450479  0.218553  1
  La  La6  1  0.750000  0.950958  0.284662  1
  Ce  Ce7  1  0.750000  0.322584  0.440507  1
  Zn  Zn8  1  0.250000  0.123727  0.150349  1
  Zn  Zn9  1  0.250000  0.994740  0.440138  1
  Zn  Zn10  1  0.750000  0.874353  0.849944  1
  Zn  Zn11  1  0.750000  0.001662  0.557906  1
  Zn  Zn12  1  0.250000  0.498666  0.059655  1
  Zn  Zn13  1  0.750000  0.372841  0.647608  1
  Zn  Zn14  1  0.750000  0.502229  0.940512  1
  Zn  Zn15  1  0.250000  0.616348  0.351856  1
  Ir  Ir16  1  0.250000  0.250803  0.324041  1
  Rh  Rh17  1  0.750000  0.257676  0.812904  1
  Rh  Rh18  1  0.250000  0.743090  0.934313  1
  Rh  Rh19  1  0.250000  0.249095  0.558076  1
  Rh  Rh20  1  0.250000  0.747105  0.185479  1
  Rh  Rh21  1  0.750000  0.752456  0.434342  1
  Rh  Rh22  1  0.750000  0.258048  0.066584  1
  Rh  Rh23  1  0.750000  0.759980  0.684945  1
