# generated using pymatgen
data_Hf3Sc(Si3Ni5)4
_symmetry_space_group_name_H-M   'P 1'
_cell_length_a   3.69462400
_cell_length_b   6.62548364
_cell_length_c   18.30467813
_cell_angle_alpha   90.10064990
_cell_angle_beta   90.00000000
_cell_angle_gamma   90.00000000
_symmetry_Int_Tables_number   1
_chemical_formula_structural   Hf3Sc(Si3Ni5)4
_chemical_formula_sum   'Hf3 Sc1 Si12 Ni20'
_cell_volume   448.07349954
_cell_formula_units_Z   1
loop_
 _symmetry_equiv_pos_site_id
 _symmetry_equiv_pos_as_xyz
  1  'x, y, z'
loop_
 _atom_site_type_symbol
 _atom_site_label
 _atom_site_symmetry_multiplicity
 _atom_site_fract_x
 _atom_site_fract_y
 _atom_site_fract_z
 _atom_site_occupancy
  Hf  Hf0  1  0.250000  0.621037  0.642968  1
  Hf  Hf1  1  0.750000  0.379208  0.357569  1
  Hf  Hf2  1  0.750000  0.120683  0.856711  1
  Sc  Sc3  1  0.250000  0.879046  0.143319  1
  Si  Si4  1  0.250000  0.854146  0.922604  1
  Si  Si5  1  0.750000  0.149714  0.077008  1
  Si  Si6  1  0.750000  0.352802  0.577318  1
  Si  Si7  1  0.250000  0.648071  0.423189  1
  Si  Si8  1  0.750000  0.623249  0.759912  1
  Si  Si9  1  0.250000  0.374668  0.240701  1
  Si  Si10  1  0.250000  0.405140  0.913124  1
  Si  Si11  1  0.750000  0.594500  0.085447  1
  Si  Si12  1  0.750000  0.905220  0.586385  1
  Si  Si13  1  0.250000  0.094331  0.414625  1
  Si  Si14  1  0.250000  0.123030  0.739708  1
  Si  Si15  1  0.750000  0.874436  0.259589  1
  Ni  Ni16  1  0.250000  0.131663  0.993941  1
  Ni  Ni17  1  0.750000  0.379977  0.985978  1
  Ni  Ni18  1  0.750000  0.121004  0.487024  1
  Ni  Ni19  1  0.250000  0.620600  0.012169  1
  Ni  Ni20  1  0.250000  0.358570  0.115265  1
  Ni  Ni21  1  0.750000  0.644489  0.885015  1
  Ni  Ni22  1  0.750000  0.856433  0.385032  1
  Ni  Ni23  1  0.250000  0.144098  0.614674  1
  Ni  Ni24  1  0.250000  0.068791  0.294442  1
  Ni  Ni25  1  0.750000  0.929263  0.706836  1
  Ni  Ni26  1  0.750000  0.567026  0.206175  1
  Ni  Ni27  1  0.250000  0.429542  0.792878  1
  Ni  Ni28  1  0.750000  0.629457  0.505812  1
  Ni  Ni29  1  0.250000  0.371117  0.494783  1
  Ni  Ni30  1  0.250000  0.819934  0.799198  1
  Ni  Ni31  1  0.750000  0.180175  0.201166  1
  Ni  Ni32  1  0.750000  0.319902  0.700445  1
  Ni  Ni33  1  0.250000  0.678279  0.300061  1
  Ni  Ni34  1  0.250000  0.878982  0.513823  1
  Ni  Ni35  1  0.750000  0.871417  0.005109  1
