# generated using pymatgen
data_ErTm5Fe3Si6Ru
_symmetry_space_group_name_H-M   'P 1'
_cell_length_a   5.60137521
_cell_length_b   5.60137586
_cell_length_c   13.50452030
_cell_angle_alpha   89.91644762
_cell_angle_beta   90.08355355
_cell_angle_gamma   137.24720528
_symmetry_Int_Tables_number   1
_chemical_formula_structural   ErTm5Fe3Si6Ru
_chemical_formula_sum   'Er1 Tm5 Fe3 Si6 Ru1'
_cell_volume   287.62937356
_cell_formula_units_Z   1
loop_
 _symmetry_equiv_pos_site_id
 _symmetry_equiv_pos_as_xyz
  1  'x, y, z'
loop_
 _atom_site_type_symbol
 _atom_site_label
 _atom_site_symmetry_multiplicity
 _atom_site_fract_x
 _atom_site_fract_y
 _atom_site_fract_z
 _atom_site_occupancy
  Er  Er0  1  0.923428  0.076572  0.384049  1
  Tm  Tm1  1  0.637799  0.362201  0.248699  1
  Tm  Tm2  1  0.362909  0.637091  0.750522  1
  Tm  Tm3  1  0.918636  0.081364  0.111812  1
  Tm  Tm4  1  0.078501  0.921499  0.889778  1
  Tm  Tm5  1  0.080939  0.919061  0.613290  1
  Fe  Fe6  1  0.214330  0.785670  0.418422  1
  Fe  Fe7  1  0.212424  0.787576  0.081259  1
  Fe  Fe8  1  0.783964  0.216036  0.920815  1
  Si  Si9  1  0.325690  0.674310  0.249143  1
  Si  Si10  1  0.672111  0.327889  0.754858  1
  Si  Si11  1  0.621615  0.378385  0.039791  1
  Si  Si12  1  0.374385  0.625615  0.961211  1
  Si  Si13  1  0.384098  0.615902  0.535041  1
  Si  Si14  1  0.621315  0.378685  0.457733  1
  Ru  Ru15  1  0.787857  0.212143  0.583578  1
