# generated using pymatgen
data_Na10Sr2TaNbAs8
_symmetry_space_group_name_H-M   'P 1'
_cell_length_a   9.58000111
_cell_length_b   9.57811814
_cell_length_c   7.55302637
_cell_angle_alpha   90.08750890
_cell_angle_beta   90.07940768
_cell_angle_gamma   120.03155378
_symmetry_Int_Tables_number   1
_chemical_formula_structural   Na10Sr2TaNbAs8
_chemical_formula_sum   'Na10 Sr2 Ta1 Nb1 As8'
_cell_volume   600.00844170
_cell_formula_units_Z   1
loop_
 _symmetry_equiv_pos_site_id
 _symmetry_equiv_pos_as_xyz
  1  'x, y, z'
loop_
 _atom_site_type_symbol
 _atom_site_label
 _atom_site_symmetry_multiplicity
 _atom_site_fract_x
 _atom_site_fract_y
 _atom_site_fract_z
 _atom_site_occupancy
  Na  Na0  1  0.534614  0.473201  0.615704  1
  Na  Na1  1  0.938651  0.471952  0.614886  1
  Na  Na2  1  0.473157  0.534678  0.115750  1
  Na  Na3  1  0.471839  0.938505  0.114975  1
  Na  Na4  1  0.136733  0.853819  0.782389  1
  Na  Na5  1  0.712148  0.848919  0.791750  1
  Na  Na6  1  0.146669  0.289194  0.776649  1
  Na  Na7  1  0.853805  0.136725  0.282379  1
  Na  Na8  1  0.289192  0.146628  0.276587  1
  Na  Na9  1  0.848964  0.712186  0.291719  1
  Sr  Sr10  1  0.531686  0.060305  0.610272  1
  Sr  Sr11  1  0.060712  0.531966  0.110399  1
  Ta  Ta12  1  0.662250  0.332379  0.000886  1
  Nb  Nb13  1  0.332462  0.662160  0.500907  1
  As  As14  1  0.334838  0.670565  0.831811  1
  As  As15  1  0.670504  0.334760  0.331062  1
  As  As16  1  0.810729  0.192302  0.896322  1
  As  As17  1  0.379384  0.189031  0.892494  1
  As  As18  1  0.811481  0.618875  0.901294  1
  As  As19  1  0.191932  0.811050  0.396155  1
  As  As20  1  0.619496  0.811831  0.401218  1
  As  As21  1  0.188755  0.378970  0.392390  1
