# generated using pymatgen
data_YbY6CoCl12
_symmetry_space_group_name_H-M   'P 1'
_cell_length_a   8.83533310
_cell_length_b   8.83533440
_cell_length_c   8.83533477
_cell_angle_alpha   106.68245394
_cell_angle_beta   106.68244845
_cell_angle_gamma   106.68245453
_symmetry_Int_Tables_number   1
_chemical_formula_structural   YbY6CoCl12
_chemical_formula_sum   'Yb1 Y6 Co1 Cl12'
_cell_volume   579.30390935
_cell_formula_units_Z   1
loop_
 _symmetry_equiv_pos_site_id
 _symmetry_equiv_pos_as_xyz
  1  'x, y, z'
loop_
 _atom_site_type_symbol
 _atom_site_label
 _atom_site_symmetry_multiplicity
 _atom_site_fract_x
 _atom_site_fract_y
 _atom_site_fract_z
 _atom_site_occupancy
  Yb  Yb0  1  0.500000  0.500000  0.500000  1
  Y  Y1  1  0.314963  0.108078  0.022839  1
  Y  Y2  1  0.108078  0.022839  0.314963  1
  Y  Y3  1  0.022839  0.314963  0.108078  1
  Y  Y4  1  0.685037  0.891922  0.977161  1
  Y  Y5  1  0.891922  0.977161  0.685037  1
  Y  Y6  1  0.977161  0.685037  0.891922  1
  Co  Co7  1  0.000000  0.000000  0.000000  1
  Cl  Cl8  1  0.213150  0.069825  0.677356  1
  Cl  Cl9  1  0.069825  0.677356  0.213150  1
  Cl  Cl10  1  0.677356  0.213150  0.069825  1
  Cl  Cl11  1  0.786850  0.930175  0.322644  1
  Cl  Cl12  1  0.930175  0.322644  0.786850  1
  Cl  Cl13  1  0.322644  0.786850  0.930175  1
  Cl  Cl14  1  0.372962  0.454178  0.161995  1
  Cl  Cl15  1  0.454178  0.161995  0.372962  1
  Cl  Cl16  1  0.161995  0.372962  0.454178  1
  Cl  Cl17  1  0.627038  0.545822  0.838005  1
  Cl  Cl18  1  0.545822  0.838005  0.627038  1
  Cl  Cl19  1  0.838005  0.627038  0.545822  1
