# generated using pymatgen
data_YbTm2ThPt4
_symmetry_space_group_name_H-M   'P 1'
_cell_length_a   4.49939800
_cell_length_b   5.60307189
_cell_length_c   7.13328323
_cell_angle_alpha   89.29590890
_cell_angle_beta   90.00000000
_cell_angle_gamma   90.00000000
_symmetry_Int_Tables_number   1
_chemical_formula_structural   YbTm2ThPt4
_chemical_formula_sum   'Yb1 Tm2 Th1 Pt4'
_cell_volume   179.81970492
_cell_formula_units_Z   1
loop_
 _symmetry_equiv_pos_site_id
 _symmetry_equiv_pos_as_xyz
  1  'x, y, z'
loop_
 _atom_site_type_symbol
 _atom_site_label
 _atom_site_symmetry_multiplicity
 _atom_site_fract_x
 _atom_site_fract_y
 _atom_site_fract_z
 _atom_site_occupancy
  Yb  Yb0  1  0.250000  0.354385  0.679891  1
  Tm  Tm1  1  0.250000  0.144893  0.186494  1
  Tm  Tm2  1  0.750000  0.640993  0.316222  1
  Th  Th3  1  0.750000  0.856447  0.816766  1
  Pt  Pt4  1  0.750000  0.155200  0.445529  1
  Pt  Pt5  1  0.250000  0.844608  0.537192  1
  Pt  Pt6  1  0.250000  0.665321  0.051296  1
  Pt  Pt7  1  0.750000  0.338154  0.966609  1
