# generated using pymatgen
data_ErTmV2(Fe4P3)2
_symmetry_space_group_name_H-M   'P 1'
_cell_length_a   3.64251100
_cell_length_b   10.43890700
_cell_length_c   11.89285100
_cell_angle_alpha   90.00000000
_cell_angle_beta   90.00000000
_cell_angle_gamma   90.00000000
_symmetry_Int_Tables_number   1
_chemical_formula_structural   ErTmV2(Fe4P3)2
_chemical_formula_sum   'Er2 Tm2 V4 Fe16 P12'
_cell_volume   452.21178716
_cell_formula_units_Z   2
loop_
 _symmetry_equiv_pos_site_id
 _symmetry_equiv_pos_as_xyz
  1  'x, y, z'
loop_
 _atom_site_type_symbol
 _atom_site_label
 _atom_site_symmetry_multiplicity
 _atom_site_fract_x
 _atom_site_fract_y
 _atom_site_fract_z
 _atom_site_occupancy
  Er  Er0  1  0.250000  0.579997  0.704771  1
  Er  Er1  1  0.250000  0.920003  0.204771  1
  Tm  Tm2  1  0.750000  0.419870  0.295242  1
  Tm  Tm3  1  0.750000  0.080130  0.795242  1
  V  V4  1  0.250000  0.700004  0.988117  1
  V  V5  1  0.250000  0.799996  0.488117  1
  V  V6  1  0.750000  0.300082  0.011794  1
  V  V7  1  0.750000  0.199918  0.511794  1
  Fe  Fe8  1  0.250000  0.405633  0.491644  1
  Fe  Fe9  1  0.250000  0.094367  0.991644  1
  Fe  Fe10  1  0.750000  0.594217  0.507859  1
  Fe  Fe11  1  0.750000  0.905783  0.007859  1
  Fe  Fe12  1  0.250000  0.218553  0.179023  1
  Fe  Fe13  1  0.250000  0.281447  0.679023  1
  Fe  Fe14  1  0.750000  0.781785  0.820951  1
  Fe  Fe15  1  0.750000  0.718215  0.320951  1
  Fe  Fe16  1  0.250000  0.874357  0.701886  1
  Fe  Fe17  1  0.250000  0.625643  0.201886  1
  Fe  Fe18  1  0.750000  0.126191  0.298312  1
  Fe  Fe19  1  0.750000  0.373809  0.798312  1
  Fe  Fe20  1  0.250000  0.462027  0.932728  1
  Fe  Fe21  1  0.250000  0.037973  0.432728  1
  Fe  Fe22  1  0.750000  0.537619  0.067709  1
  Fe  Fe23  1  0.750000  0.962381  0.567709  1
  P  P24  1  0.250000  0.425480  0.114816  1
  P  P25  1  0.250000  0.074520  0.614816  1
  P  P26  1  0.750000  0.574338  0.885666  1
  P  P27  1  0.750000  0.925662  0.385666  1
  P  P28  1  0.250000  0.261685  0.872666  1
  P  P29  1  0.250000  0.238315  0.372666  1
  P  P30  1  0.750000  0.737988  0.127047  1
  P  P31  1  0.750000  0.762012  0.627047  1
  P  P32  1  0.250000  0.592907  0.395072  1
  P  P33  1  0.250000  0.907093  0.895072  1
  P  P34  1  0.750000  0.406627  0.604697  1
  P  P35  1  0.750000  0.093373  0.104697  1
