# generated using pymatgen
data_Sm2TmAl9Si3Os4
_symmetry_space_group_name_H-M   'P 1'
_cell_length_a   8.73659031
_cell_length_b   8.70216829
_cell_length_c   9.57333900
_cell_angle_alpha   90.00000000
_cell_angle_beta   90.00000000
_cell_angle_gamma   120.27916924
_symmetry_Int_Tables_number   1
_chemical_formula_structural   Sm2TmAl9Si3Os4
_chemical_formula_sum   'Sm4 Tm2 Al18 Si6 Os8'
_cell_volume   628.54289328
_cell_formula_units_Z   2
loop_
 _symmetry_equiv_pos_site_id
 _symmetry_equiv_pos_as_xyz
  1  'x, y, z'
loop_
 _atom_site_type_symbol
 _atom_site_label
 _atom_site_symmetry_multiplicity
 _atom_site_fract_x
 _atom_site_fract_y
 _atom_site_fract_z
 _atom_site_occupancy
  Sm  Sm0  1  0.191034  0.382137  0.250000  1
  Sm  Sm1  1  0.808966  0.617863  0.750000  1
  Sm  Sm2  1  0.615163  0.810117  0.250000  1
  Sm  Sm3  1  0.384837  0.189883  0.750000  1
  Tm  Tm4  1  0.200308  0.805350  0.250000  1
  Tm  Tm5  1  0.799692  0.194650  0.750000  1
  Al  Al6  1  0.164128  0.330322  0.578056  1
  Al  Al7  1  0.835872  0.669678  0.421944  1
  Al  Al8  1  0.670374  0.835816  0.576352  1
  Al  Al9  1  0.835872  0.669678  0.078056  1
  Al  Al10  1  0.329626  0.164184  0.423648  1
  Al  Al11  1  0.164128  0.330322  0.921944  1
  Al  Al12  1  0.164513  0.834385  0.573972  1
  Al  Al13  1  0.329626  0.164184  0.076352  1
  Al  Al14  1  0.835487  0.165615  0.426028  1
  Al  Al15  1  0.670374  0.835816  0.923648  1
  Al  Al16  1  0.835487  0.165615  0.073972  1
  Al  Al17  1  0.164513  0.834385  0.926028  1
  Al  Al18  1  0.872557  0.433083  0.250000  1
  Al  Al19  1  0.127443  0.566917  0.750000  1
  Al  Al20  1  0.561316  0.432055  0.250000  1
  Al  Al21  1  0.438684  0.567945  0.750000  1
  Al  Al22  1  0.003233  0.994295  0.250000  1
  Al  Al23  1  0.996767  0.005705  0.750000  1
  Si  Si24  1  0.331661  0.664054  0.037612  1
  Si  Si25  1  0.668339  0.335946  0.962388  1
  Si  Si26  1  0.668339  0.335946  0.537612  1
  Si  Si27  1  0.331661  0.664054  0.462388  1
  Si  Si28  1  0.562481  0.126335  0.250000  1
  Si  Si29  1  0.437519  0.873665  0.750000  1
  Os  Os30  1  0.500000  0.000000  0.000000  1
  Os  Os31  1  0.000000  0.500000  0.000000  1
  Os  Os32  1  0.500000  0.000000  0.500000  1
  Os  Os33  1  0.500000  0.500000  0.000000  1
  Os  Os34  1  0.000000  0.500000  0.500000  1
  Os  Os35  1  0.500000  0.500000  0.500000  1
  Os  Os36  1  0.000000  0.000000  0.000000  1
  Os  Os37  1  0.000000  0.000000  0.500000  1
