# generated using pymatgen
data_Hf18Re8OsPt
_symmetry_space_group_name_H-M   'P 1'
_cell_length_a   8.66009700
_cell_length_b   8.66009725
_cell_length_c   8.57542200
_cell_angle_alpha   90.00000000
_cell_angle_beta   90.00000000
_cell_angle_gamma   120.00000287
_symmetry_Int_Tables_number   1
_chemical_formula_structural   Hf18Re8OsPt
_chemical_formula_sum   'Hf18 Re8 Os1 Pt1'
_cell_volume   556.96979762
_cell_formula_units_Z   1
loop_
 _symmetry_equiv_pos_site_id
 _symmetry_equiv_pos_as_xyz
  1  'x, y, z'
loop_
 _atom_site_type_symbol
 _atom_site_label
 _atom_site_symmetry_multiplicity
 _atom_site_fract_x
 _atom_site_fract_y
 _atom_site_fract_z
 _atom_site_occupancy
  Hf  Hf0  1  0.196649  0.803351  0.445392  1
  Hf  Hf1  1  0.196649  0.393298  0.445392  1
  Hf  Hf2  1  0.606702  0.803351  0.445392  1
  Hf  Hf3  1  0.806441  0.193559  0.553494  1
  Hf  Hf4  1  0.806441  0.612882  0.553494  1
  Hf  Hf5  1  0.387118  0.193559  0.553494  1
  Hf  Hf6  1  0.806441  0.193559  0.946506  1
  Hf  Hf7  1  0.806441  0.612882  0.946506  1
  Hf  Hf8  1  0.387118  0.193559  0.946506  1
  Hf  Hf9  1  0.196649  0.803351  0.054608  1
  Hf  Hf10  1  0.196649  0.393298  0.054608  1
  Hf  Hf11  1  0.606702  0.803351  0.054608  1
  Hf  Hf12  1  0.541535  0.458465  0.250000  1
  Hf  Hf13  1  0.541535  0.083070  0.250000  1
  Hf  Hf14  1  0.916930  0.458465  0.250000  1
  Hf  Hf15  1  0.457996  0.542004  0.750000  1
  Hf  Hf16  1  0.457996  0.915990  0.750000  1
  Hf  Hf17  1  0.084010  0.542004  0.750000  1
  Re  Re18  1  0.890137  0.109863  0.250000  1
  Re  Re19  1  0.890137  0.780274  0.250000  1
  Re  Re20  1  0.219726  0.109863  0.250000  1
  Re  Re21  1  0.110446  0.889554  0.750000  1
  Re  Re22  1  0.110446  0.220894  0.750000  1
  Re  Re23  1  0.779106  0.889554  0.750000  1
  Re  Re24  1  0.000000  0.000000  0.500373  1
  Re  Re25  1  0.000000  0.000000  0.999627  1
  Os  Os26  1  0.333333  0.666667  0.250000  1
  Pt  Pt27  1  0.666667  0.333333  0.750000  1
