# generated using pymatgen
data_Hf2Zr4Si6Tc5Os
_symmetry_space_group_name_H-M   'P 1'
_cell_length_a   7.79136080
_cell_length_b   7.79144534
_cell_length_c   7.79144466
_cell_angle_alpha   126.86497708
_cell_angle_beta   127.97524933
_cell_angle_gamma   77.56992657
_symmetry_Int_Tables_number   1
_chemical_formula_structural   Hf2Zr4Si6Tc5Os
_chemical_formula_sum   'Hf2 Zr4 Si6 Tc5 Os1'
_cell_volume   289.27659781
_cell_formula_units_Z   1
loop_
 _symmetry_equiv_pos_site_id
 _symmetry_equiv_pos_as_xyz
  1  'x, y, z'
loop_
 _atom_site_type_symbol
 _atom_site_label
 _atom_site_symmetry_multiplicity
 _atom_site_fract_x
 _atom_site_fract_y
 _atom_site_fract_z
 _atom_site_occupancy
  Hf  Hf0  1  0.749430  0.899432  0.648407  1
  Hf  Hf1  1  0.250570  0.898977  0.150001  1
  Zr  Zr2  1  0.546460  0.093068  0.045561  1
  Zr  Zr3  1  0.453540  0.499102  0.546607  1
  Zr  Zr4  1  0.952910  0.499026  0.045144  1
  Zr  Zr5  1  0.047090  0.092234  0.546117  1
  Si  Si6  1  0.334769  0.831055  0.497028  1
  Si  Si7  1  0.665231  0.162258  0.496285  1
  Si  Si8  1  0.834338  0.831840  0.996732  1
  Si  Si9  1  0.165662  0.162394  0.997500  1
  Si  Si10  1  0.748904  0.497434  0.245886  1
  Si  Si11  1  0.251096  0.496983  0.748530  1
  Tc  Tc12  1  0.125458  0.748849  0.623902  1
  Tc  Tc13  1  0.874542  0.498444  0.623391  1
  Tc  Tc14  1  0.625982  0.750724  0.124311  1
  Tc  Tc15  1  0.374018  0.498328  0.124742  1
  Tc  Tc16  1  0.500000  0.241429  0.741429  1
  Os  Os17  1  0.000000  0.242425  0.242425  1
