# generated using pymatgen
data_Dy15TmIn4(RuRh)2
_symmetry_space_group_name_H-M   'P 1'
_cell_length_a   9.66771490
_cell_length_b   9.65321360
_cell_length_c   9.65321305
_cell_angle_alpha   59.83517926
_cell_angle_beta   59.95028520
_cell_angle_gamma   59.95029205
_symmetry_Int_Tables_number   1
_chemical_formula_structural   Dy15TmIn4(RuRh)2
_chemical_formula_sum   'Dy15 Tm1 In4 Ru2 Rh2'
_cell_volume   635.74482141
_cell_formula_units_Z   1
loop_
 _symmetry_equiv_pos_site_id
 _symmetry_equiv_pos_as_xyz
  1  'x, y, z'
loop_
 _atom_site_type_symbol
 _atom_site_label
 _atom_site_symmetry_multiplicity
 _atom_site_fract_x
 _atom_site_fract_y
 _atom_site_fract_z
 _atom_site_occupancy
  Dy  Dy0  1  0.692852  0.689133  0.310402  1
  Dy  Dy1  1  0.307614  0.689133  0.310402  1
  Dy  Dy2  1  0.936451  0.942149  0.561252  1
  Dy  Dy3  1  0.152159  0.152101  0.543579  1
  Dy  Dy4  1  0.560148  0.942149  0.561252  1
  Dy  Dy5  1  0.150644  0.151491  0.151491  1
  Dy  Dy6  1  0.307614  0.310402  0.689133  1
  Dy  Dy7  1  0.941482  0.558518  0.558518  1
  Dy  Dy8  1  0.560148  0.561252  0.942149  1
  Dy  Dy9  1  0.562907  0.937093  0.937093  1
  Dy  Dy10  1  0.936451  0.561252  0.942149  1
  Dy  Dy11  1  0.152159  0.543579  0.152101  1
  Dy  Dy12  1  0.307406  0.692594  0.692594  1
  Dy  Dy13  1  0.692852  0.310402  0.689133  1
  Dy  Dy14  1  0.546374  0.151491  0.151491  1
  Tm  Tm15  1  0.690750  0.309250  0.309250  1
  In  In16  1  0.916910  0.917737  0.248443  1
  In  In17  1  0.245910  0.918384  0.918384  1
  In  In18  1  0.916910  0.248443  0.917737  1
  In  In19  1  0.917324  0.918384  0.918384  1
  Ru  Ru20  1  0.362608  0.358001  0.358001  1
  Ru  Ru21  1  0.921391  0.358001  0.358001  1
  Rh  Rh22  1  0.360470  0.357846  0.921215  1
  Rh  Rh23  1  0.360470  0.921215  0.357846  1
