# generated using pymatgen
data_Tb2Sm7Tm11Pb16
_symmetry_space_group_name_H-M   'P 1'
_cell_length_a   8.21382340
_cell_length_b   8.31973211
_cell_length_c   15.67558600
_cell_angle_alpha   90.02260915
_cell_angle_beta   90.17745779
_cell_angle_gamma   90.08633744
_symmetry_Int_Tables_number   1
_chemical_formula_structural   Tb2Sm7Tm11Pb16
_chemical_formula_sum   'Tb2 Sm7 Tm11 Pb16'
_cell_volume   1071.21310648
_cell_formula_units_Z   1
loop_
 _symmetry_equiv_pos_site_id
 _symmetry_equiv_pos_as_xyz
  1  'x, y, z'
loop_
 _atom_site_type_symbol
 _atom_site_label
 _atom_site_symmetry_multiplicity
 _atom_site_fract_x
 _atom_site_fract_y
 _atom_site_fract_z
 _atom_site_occupancy
  Tb  Tb0  1  0.129780  0.341332  0.620880  1
  Tb  Tb1  1  0.471113  0.679049  0.598034  1
  Sm  Sm2  1  0.973493  0.821797  0.903378  1
  Sm  Sm3  1  0.527260  0.322290  0.097339  1
  Sm  Sm4  1  0.029132  0.175894  0.400719  1
  Sm  Sm5  1  0.526876  0.322510  0.402064  1
  Sm  Sm6  1  0.026904  0.177805  0.097629  1
  Sm  Sm7  1  0.473684  0.678140  0.903335  1
  Sm  Sm8  1  0.971814  0.822726  0.598021  1
  Tm  Tm9  1  0.631298  0.158556  0.623025  1
  Tm  Tm10  1  0.131854  0.342325  0.877899  1
  Tm  Tm11  1  0.368193  0.842151  0.122488  1
  Tm  Tm12  1  0.869196  0.657511  0.377718  1
  Tm  Tm13  1  0.370300  0.841875  0.376372  1
  Tm  Tm14  1  0.868276  0.657940  0.122416  1
  Tm  Tm15  1  0.631468  0.157771  0.878184  1
  Tm  Tm16  1  0.797575  0.494771  0.750252  1
  Tm  Tm17  1  0.298941  0.005331  0.750402  1
  Tm  Tm18  1  0.201950  0.505859  0.249366  1
  Tm  Tm19  1  0.702065  0.994498  0.250120  1
  Pb  Pb20  1  0.709742  0.960862  0.457198  1
  Pb  Pb21  1  0.208676  0.539783  0.042929  1
  Pb  Pb22  1  0.291233  0.040081  0.957367  1
  Pb  Pb23  1  0.784707  0.463694  0.543229  1
  Pb  Pb24  1  0.293022  0.035477  0.542679  1
  Pb  Pb25  1  0.791914  0.460118  0.957162  1
  Pb  Pb26  1  0.708743  0.959893  0.043160  1
  Pb  Pb27  1  0.210642  0.541411  0.455896  1
  Pb  Pb28  1  0.436033  0.372949  0.751004  1
  Pb  Pb29  1  0.935283  0.126166  0.751024  1
  Pb  Pb30  1  0.564611  0.626957  0.249491  1
  Pb  Pb31  1  0.063994  0.872238  0.249646  1
  Pb  Pb32  1  0.660137  0.846633  0.750075  1
  Pb  Pb33  1  0.161329  0.653427  0.750464  1
  Pb  Pb34  1  0.339333  0.153078  0.249334  1
  Pb  Pb35  1  0.839427  0.347099  0.249700  1
