# generated using pymatgen
data_Er16In6PdRu
_symmetry_space_group_name_H-M   'P 1'
_cell_length_a   10.37049500
_cell_length_b   10.37049328
_cell_length_c   6.96359400
_cell_angle_alpha   90.00000000
_cell_angle_beta   90.00000000
_cell_angle_gamma   119.99999592
_symmetry_Int_Tables_number   1
_chemical_formula_structural   Er16In6PdRu
_chemical_formula_sum   'Er16 In6 Pd1 Ru1'
_cell_volume   648.57916438
_cell_formula_units_Z   1
loop_
 _symmetry_equiv_pos_site_id
 _symmetry_equiv_pos_as_xyz
  1  'x, y, z'
loop_
 _atom_site_type_symbol
 _atom_site_label
 _atom_site_symmetry_multiplicity
 _atom_site_fract_x
 _atom_site_fract_y
 _atom_site_fract_z
 _atom_site_occupancy
  Er  Er0  1  0.529675  0.059349  0.796577  1
  Er  Er1  1  0.940651  0.470325  0.796577  1
  Er  Er2  1  0.529675  0.470325  0.796577  1
  Er  Er3  1  0.466434  0.932868  0.293640  1
  Er  Er4  1  0.067132  0.533566  0.293640  1
  Er  Er5  1  0.466434  0.533566  0.293640  1
  Er  Er6  1  0.824748  0.649495  0.499360  1
  Er  Er7  1  0.350505  0.175252  0.499360  1
  Er  Er8  1  0.824748  0.175252  0.499360  1
  Er  Er9  1  0.176825  0.353650  0.000557  1
  Er  Er10  1  0.646350  0.823175  0.000557  1
  Er  Er11  1  0.176825  0.823175  0.000557  1
  Er  Er12  1  0.666667  0.333333  0.169170  1
  Er  Er13  1  0.333333  0.666667  0.671558  1
  Er  Er14  1  0.000000  0.000000  0.777064  1
  Er  Er15  1  0.000000  0.000000  0.280137  1
  In  In16  1  0.836955  0.673910  0.038776  1
  In  In17  1  0.326090  0.163045  0.038776  1
  In  In18  1  0.836955  0.163045  0.038776  1
  In  In19  1  0.162512  0.325023  0.538919  1
  In  In20  1  0.674977  0.837488  0.538919  1
  In  In21  1  0.162512  0.837488  0.538919  1
  Pd  Pd22  1  0.666667  0.333333  0.567530  1
  Ru  Ru23  1  0.333333  0.666667  0.066958  1
