# generated using pymatgen
data_Np3TiSb4Au
_symmetry_space_group_name_H-M   'P 1'
_cell_length_a   9.11777900
_cell_length_b   9.11777904
_cell_length_c   6.07021400
_cell_angle_alpha   90.00000000
_cell_angle_beta   90.00000000
_cell_angle_gamma   120.00000348
_symmetry_Int_Tables_number   1
_chemical_formula_structural   Np3TiSb4Au
_chemical_formula_sum   'Np6 Ti2 Sb8 Au2'
_cell_volume   437.03150251
_cell_formula_units_Z   2
loop_
 _symmetry_equiv_pos_site_id
 _symmetry_equiv_pos_as_xyz
  1  'x, y, z'
loop_
 _atom_site_type_symbol
 _atom_site_label
 _atom_site_symmetry_multiplicity
 _atom_site_fract_x
 _atom_site_fract_y
 _atom_site_fract_z
 _atom_site_occupancy
  Np  Np0  1  0.387683  0.000000  0.750000  1
  Np  Np1  1  0.387683  0.387683  0.250000  1
  Np  Np2  1  0.000000  0.612317  0.250000  1
  Np  Np3  1  0.000000  0.387683  0.750000  1
  Np  Np4  1  0.612317  0.612317  0.750000  1
  Np  Np5  1  0.612317  0.000000  0.250000  1
  Ti  Ti6  1  0.000000  0.000000  0.000000  1
  Ti  Ti7  1  0.000000  0.000000  0.500000  1
  Sb  Sb8  1  0.736281  0.000000  0.750000  1
  Sb  Sb9  1  0.736281  0.736281  0.250000  1
  Sb  Sb10  1  0.333333  0.666667  0.500000  1
  Sb  Sb11  1  0.666667  0.333333  0.000000  1
  Sb  Sb12  1  0.263719  0.000000  0.250000  1
  Sb  Sb13  1  0.263719  0.263719  0.750000  1
  Sb  Sb14  1  0.000000  0.736281  0.750000  1
  Sb  Sb15  1  0.000000  0.263719  0.250000  1
  Au  Au16  1  0.666667  0.333333  0.500000  1
  Au  Au17  1  0.333333  0.666667  0.000000  1
