# generated using pymatgen
data_Hf16CoCu3Re4
_symmetry_space_group_name_H-M   'P 1'
_cell_length_a   8.70155117
_cell_length_b   8.70155123
_cell_length_c   8.70155305
_cell_angle_alpha   59.95399590
_cell_angle_beta   59.95399174
_cell_angle_gamma   59.95399569
_symmetry_Int_Tables_number   1
_chemical_formula_structural   Hf16CoCu3Re4
_chemical_formula_sum   'Hf16 Co1 Cu3 Re4'
_cell_volume   465.39506220
_cell_formula_units_Z   1
loop_
 _symmetry_equiv_pos_site_id
 _symmetry_equiv_pos_as_xyz
  1  'x, y, z'
loop_
 _atom_site_type_symbol
 _atom_site_label
 _atom_site_symmetry_multiplicity
 _atom_site_fract_x
 _atom_site_fract_y
 _atom_site_fract_z
 _atom_site_occupancy
  Hf  Hf0  1  0.679251  0.103616  0.103616  1
  Hf  Hf1  1  0.103616  0.679251  0.103616  1
  Hf  Hf2  1  0.103616  0.103616  0.679251  1
  Hf  Hf3  1  0.114401  0.114401  0.114401  1
  Hf  Hf4  1  0.314696  0.314696  0.684204  1
  Hf  Hf5  1  0.683249  0.683249  0.314824  1
  Hf  Hf6  1  0.314696  0.684204  0.314696  1
  Hf  Hf7  1  0.683249  0.314824  0.683249  1
  Hf  Hf8  1  0.684204  0.314696  0.314696  1
  Hf  Hf9  1  0.314824  0.683249  0.683249  1
  Hf  Hf10  1  0.950562  0.950562  0.557743  1
  Hf  Hf11  1  0.541863  0.541863  0.956415  1
  Hf  Hf12  1  0.950562  0.557743  0.950562  1
  Hf  Hf13  1  0.541863  0.956415  0.541863  1
  Hf  Hf14  1  0.557743  0.950562  0.950562  1
  Hf  Hf15  1  0.956415  0.541863  0.541863  1
  Co  Co16  1  0.892770  0.892770  0.892770  1
  Cu  Cu17  1  0.316789  0.897096  0.897096  1
  Cu  Cu18  1  0.897096  0.316789  0.897096  1
  Cu  Cu19  1  0.897096  0.897096  0.316789  1
  Re  Re20  1  0.998121  0.334806  0.334806  1
  Re  Re21  1  0.334806  0.998121  0.334806  1
  Re  Re22  1  0.334806  0.334806  0.998121  1
  Re  Re23  1  0.333702  0.333702  0.333702  1
