# generated using pymatgen
data_Zr2ScGaFe8
_symmetry_space_group_name_H-M   'P 1'
_cell_length_a   8.48908736
_cell_length_b   8.48908810
_cell_length_c   8.48908715
_cell_angle_alpha   33.62373830
_cell_angle_beta   33.62374479
_cell_angle_gamma   33.62375097
_symmetry_Int_Tables_number   1
_chemical_formula_structural   Zr2ScGaFe8
_chemical_formula_sum   'Zr2 Sc1 Ga1 Fe8'
_cell_volume   167.10138414
_cell_formula_units_Z   1
loop_
 _symmetry_equiv_pos_site_id
 _symmetry_equiv_pos_as_xyz
  1  'x, y, z'
loop_
 _atom_site_type_symbol
 _atom_site_label
 _atom_site_symmetry_multiplicity
 _atom_site_fract_x
 _atom_site_fract_y
 _atom_site_fract_z
 _atom_site_occupancy
  Zr  Zr0  1  0.997316  0.997316  0.997316  1
  Zr  Zr1  1  0.502416  0.502416  0.502416  1
  Sc  Sc2  1  0.375446  0.375446  0.375446  1
  Ga  Ga3  1  0.873944  0.873944  0.873944  1
  Fe  Fe4  1  0.436329  0.937826  0.436329  1
  Fe  Fe5  1  0.937463  0.440083  0.937463  1
  Fe  Fe6  1  0.436329  0.436329  0.937826  1
  Fe  Fe7  1  0.937463  0.937463  0.440083  1
  Fe  Fe8  1  0.187594  0.187594  0.187594  1
  Fe  Fe9  1  0.687793  0.687793  0.687793  1
  Fe  Fe10  1  0.937826  0.436329  0.436329  1
  Fe  Fe11  1  0.440083  0.937463  0.937463  1
