# generated using pymatgen
data_Tb5AlRuO12
_symmetry_space_group_name_H-M   'P 1'
_cell_length_a   6.83422774
_cell_length_b   6.83422831
_cell_length_c   7.30168370
_cell_angle_alpha   74.50820657
_cell_angle_beta   74.50820201
_cell_angle_gamma   50.56579016
_symmetry_Int_Tables_number   1
_chemical_formula_structural   Tb5AlRuO12
_chemical_formula_sum   'Tb5 Al1 Ru1 O12'
_cell_volume   251.64735843
_cell_formula_units_Z   1
loop_
 _symmetry_equiv_pos_site_id
 _symmetry_equiv_pos_as_xyz
  1  'x, y, z'
loop_
 _atom_site_type_symbol
 _atom_site_label
 _atom_site_symmetry_multiplicity
 _atom_site_fract_x
 _atom_site_fract_y
 _atom_site_fract_z
 _atom_site_occupancy
  Tb  Tb0  1  0.693301  0.691306  0.667503  1
  Tb  Tb1  1  0.686183  0.705467  0.141545  1
  Tb  Tb2  1  0.998320  0.001680  0.000000  1
  Tb  Tb3  1  0.294533  0.313817  0.858455  1
  Tb  Tb4  1  0.308694  0.306699  0.332497  1
  Al  Al5  1  0.252336  0.747664  0.500000  1
  Ru  Ru6  1  0.763421  0.236579  0.500000  1
  O  O7  1  0.400785  0.907489  0.922849  1
  O  O8  1  0.576787  0.099368  0.581691  1
  O  O9  1  0.900632  0.423213  0.418309  1
  O  O10  1  0.092511  0.599215  0.077151  1
  O  O11  1  0.005253  0.994920  0.322723  1
  O  O12  1  0.503605  0.497449  0.678870  1
  O  O13  1  0.899701  0.403978  0.926047  1
  O  O14  1  0.100954  0.580669  0.580123  1
  O  O15  1  0.419331  0.899046  0.419877  1
  O  O16  1  0.596022  0.100299  0.073953  1
  O  O17  1  0.502551  0.496395  0.321130  1
  O  O18  1  0.005080  0.994747  0.677277  1
