# generated using pymatgen
data_Er3Al3SiNiPd
_symmetry_space_group_name_H-M   'P 1'
_cell_length_a   6.95741500
_cell_length_b   6.95741550
_cell_length_c   4.05120400
_cell_angle_alpha   90.00000000
_cell_angle_beta   90.00000000
_cell_angle_gamma   119.99999287
_symmetry_Int_Tables_number   1
_chemical_formula_structural   Er3Al3SiNiPd
_chemical_formula_sum   'Er3 Al3 Si1 Ni1 Pd1'
_cell_volume   169.82852014
_cell_formula_units_Z   1
loop_
 _symmetry_equiv_pos_site_id
 _symmetry_equiv_pos_as_xyz
  1  'x, y, z'
loop_
 _atom_site_type_symbol
 _atom_site_label
 _atom_site_symmetry_multiplicity
 _atom_site_fract_x
 _atom_site_fract_y
 _atom_site_fract_z
 _atom_site_occupancy
  Er  Er0  1  0.411646  0.002279  0.500000  1
  Er  Er1  1  0.997721  0.409367  0.500000  1
  Er  Er2  1  0.590633  0.588354  0.500000  1
  Al  Al3  1  0.769261  0.005129  0.000000  1
  Al  Al4  1  0.994871  0.764132  0.000000  1
  Al  Al5  1  0.235868  0.230739  0.000000  1
  Si  Si6  1  0.333333  0.666667  0.000000  1
  Ni  Ni7  1  0.000000  0.000000  0.500000  1
  Pd  Pd8  1  0.666667  0.333333  0.000000  1
