# generated using pymatgen
data_Ho2Er3Co16(P4W)3
_symmetry_space_group_name_H-M   'P 1'
_cell_length_a   12.01794100
_cell_length_b   12.01794194
_cell_length_c   3.68493100
_cell_angle_alpha   90.00000000
_cell_angle_beta   90.00000000
_cell_angle_gamma   120.00000017
_symmetry_Int_Tables_number   1
_chemical_formula_structural   Ho2Er3Co16(P4W)3
_chemical_formula_sum   'Ho2 Er3 Co16 P12 W3'
_cell_volume   460.91427629
_cell_formula_units_Z   1
loop_
 _symmetry_equiv_pos_site_id
 _symmetry_equiv_pos_as_xyz
  1  'x, y, z'
loop_
 _atom_site_type_symbol
 _atom_site_label
 _atom_site_symmetry_multiplicity
 _atom_site_fract_x
 _atom_site_fract_y
 _atom_site_fract_z
 _atom_site_occupancy
  Ho  Ho0  1  0.666667  0.333333  0.000000  1
  Ho  Ho1  1  0.333333  0.666667  0.000000  1
  Er  Er2  1  0.815625  0.815625  0.500000  1
  Er  Er3  1  0.184375  0.000000  0.500000  1
  Er  Er4  1  0.000000  0.184375  0.500000  1
  Co  Co5  1  0.872838  0.355120  0.500000  1
  Co  Co6  1  0.644880  0.517719  0.500000  1
  Co  Co7  1  0.482281  0.127162  0.500000  1
  Co  Co8  1  0.355120  0.872838  0.500000  1
  Co  Co9  1  0.517719  0.644880  0.500000  1
  Co  Co10  1  0.127162  0.482281  0.500000  1
  Co  Co11  1  0.801595  0.176447  0.000000  1
  Co  Co12  1  0.823553  0.625146  0.000000  1
  Co  Co13  1  0.374854  0.198405  0.000000  1
  Co  Co14  1  0.176447  0.801595  0.000000  1
  Co  Co15  1  0.625146  0.823553  0.000000  1
  Co  Co16  1  0.198405  0.374854  0.000000  1
  Co  Co17  1  0.281186  0.281186  0.500000  1
  Co  Co18  1  0.718814  0.000000  0.500000  1
  Co  Co19  1  0.000000  0.718814  0.500000  1
  Co  Co20  1  0.000000  0.000000  0.000000  1
  P  P21  1  0.685740  0.165799  0.500000  1
  P  P22  1  0.834201  0.519941  0.500000  1
  P  P23  1  0.480059  0.314260  0.500000  1
  P  P24  1  0.165799  0.685740  0.500000  1
  P  P25  1  0.519941  0.834201  0.500000  1
  P  P26  1  0.314260  0.480059  0.500000  1
  P  P27  1  0.177378  0.177378  0.000000  1
  P  P28  1  0.822622  0.000000  0.000000  1
  P  P29  1  0.000000  0.822622  0.000000  1
  P  P30  1  0.641806  0.641806  0.000000  1
  P  P31  1  0.358194  0.000000  0.000000  1
  P  P32  1  0.000000  0.358194  0.000000  1
  W  W33  1  0.446732  0.446732  0.000000  1
  W  W34  1  0.553268  0.000000  0.000000  1
  W  W35  1  0.000000  0.553268  0.000000  1
