# generated using pymatgen
data_Ac20Si15Os
_symmetry_space_group_name_H-M   'P 1'
_cell_length_a   8.29994304
_cell_length_b   8.28593280
_cell_length_c   16.35147749
_cell_angle_alpha   90.16473506
_cell_angle_beta   89.94790134
_cell_angle_gamma   89.93875489
_symmetry_Int_Tables_number   1
_chemical_formula_structural   Ac20Si15Os
_chemical_formula_sum   'Ac20 Si15 Os1'
_cell_volume   1124.53064739
_cell_formula_units_Z   1
loop_
 _symmetry_equiv_pos_site_id
 _symmetry_equiv_pos_as_xyz
  1  'x, y, z'
loop_
 _atom_site_type_symbol
 _atom_site_label
 _atom_site_symmetry_multiplicity
 _atom_site_fract_x
 _atom_site_fract_y
 _atom_site_fract_z
 _atom_site_occupancy
  Ac  Ac0  1  0.307007  0.306300  0.998640  1
  Ac  Ac1  1  0.192280  0.808121  0.250054  1
  Ac  Ac2  1  0.828160  0.189142  0.750755  1
  Ac  Ac3  1  0.696824  0.687635  0.502193  1
  Ac  Ac4  1  0.376079  0.015152  0.447586  1
  Ac  Ac5  1  0.479813  0.885600  0.694994  1
  Ac  Ac6  1  0.514034  0.120425  0.195993  1
  Ac  Ac7  1  0.880630  0.485201  0.302654  1
  Ac  Ac8  1  0.126068  0.504851  0.799539  1
  Ac  Ac9  1  0.621294  0.984608  0.944753  1
  Ac  Ac10  1  0.012170  0.379691  0.557271  1
  Ac  Ac11  1  0.984618  0.623723  0.052721  1
  Ac  Ac12  1  0.130661  0.975076  0.873319  1
  Ac  Ac13  1  0.525830  0.625389  0.127625  1
  Ac  Ac14  1  0.465430  0.364813  0.630825  1
  Ac  Ac15  1  0.623999  0.524261  0.872735  1
  Ac  Ac16  1  0.377688  0.475713  0.371712  1
  Ac  Ac17  1  0.874603  0.027173  0.377646  1
  Ac  Ac18  1  0.974391  0.123939  0.122725  1
  Ac  Ac19  1  0.031505  0.884659  0.624299  1
  Si  Si20  1  0.330476  0.694796  0.960126  1
  Si  Si21  1  0.667106  0.302159  0.461008  1
  Si  Si22  1  0.696077  0.330110  0.040711  1
  Si  Si23  1  0.304781  0.671153  0.538617  1
  Si  Si24  1  0.805388  0.828413  0.211888  1
  Si  Si25  1  0.170903  0.195473  0.289378  1
  Si  Si26  1  0.827442  0.801531  0.790268  1
  Si  Si27  1  0.289911  0.917767  0.059064  1
  Si  Si28  1  0.582181  0.790207  0.311378  1
  Si  Si29  1  0.414389  0.210006  0.811636  1
  Si  Si30  1  0.781353  0.586906  0.690580  1
  Si  Si31  1  0.209123  0.417740  0.189567  1
  Si  Si32  1  0.704181  0.079527  0.559059  1
  Si  Si33  1  0.916755  0.289910  0.941468  1
  Si  Si34  1  0.083721  0.714502  0.440783  1
  Os  Os35  1  0.193131  0.178327  0.706432  1
