# generated using pymatgen
data_Pr3Sm(Er3Sn4)2
_symmetry_space_group_name_H-M   'P 1'
_cell_length_a   8.01475100
_cell_length_b   8.22347603
_cell_length_c   15.42744000
_cell_angle_alpha   89.99497655
_cell_angle_beta   90.00000000
_cell_angle_gamma   90.00000000
_symmetry_Int_Tables_number   1
_chemical_formula_structural   Pr3Sm(Er3Sn4)2
_chemical_formula_sum   'Pr6 Sm2 Er12 Sn16'
_cell_volume   1016.80887846
_cell_formula_units_Z   2
loop_
 _symmetry_equiv_pos_site_id
 _symmetry_equiv_pos_as_xyz
  1  'x, y, z'
loop_
 _atom_site_type_symbol
 _atom_site_label
 _atom_site_symmetry_multiplicity
 _atom_site_fract_x
 _atom_site_fract_y
 _atom_site_fract_z
 _atom_site_occupancy
  Pr  Pr0  1  0.493039  0.676359  0.404764  1
  Pr  Pr1  1  0.993039  0.823641  0.095236  1
  Pr  Pr2  1  0.492085  0.675365  0.095548  1
  Pr  Pr3  1  0.992085  0.824635  0.404452  1
  Pr  Pr4  1  0.506896  0.323551  0.595509  1
  Pr  Pr5  1  0.006896  0.176449  0.904491  1
  Sm  Sm6  1  0.508872  0.323305  0.902845  1
  Sm  Sm7  1  0.008872  0.176695  0.597155  1
  Er  Er8  1  0.347978  0.834309  0.874755  1
  Er  Er9  1  0.847978  0.665691  0.625245  1
  Er  Er10  1  0.651520  0.164777  0.375884  1
  Er  Er11  1  0.151520  0.335223  0.124116  1
  Er  Er12  1  0.651243  0.165908  0.124660  1
  Er  Er13  1  0.151243  0.334092  0.375340  1
  Er  Er14  1  0.348521  0.835476  0.624884  1
  Er  Er15  1  0.848521  0.664524  0.875116  1
  Er  Er16  1  0.180614  0.501015  0.750174  1
  Er  Er17  1  0.680614  0.998985  0.749826  1
  Er  Er18  1  0.818960  0.498659  0.249899  1
  Er  Er19  1  0.318960  0.001341  0.250101  1
  Sn  Sn20  1  0.317109  0.042595  0.040831  1
  Sn  Sn21  1  0.817109  0.457405  0.459169  1
  Sn  Sn22  1  0.687991  0.960543  0.542425  1
  Sn  Sn23  1  0.187991  0.539457  0.957575  1
  Sn  Sn24  1  0.682698  0.959322  0.957961  1
  Sn  Sn25  1  0.182698  0.540678  0.542039  1
  Sn  Sn26  1  0.312774  0.042651  0.459427  1
  Sn  Sn27  1  0.812774  0.457349  0.040573  1
  Sn  Sn28  1  0.545691  0.622178  0.750123  1
  Sn  Sn29  1  0.045691  0.877822  0.749877  1
  Sn  Sn30  1  0.453870  0.376477  0.250503  1
  Sn  Sn31  1  0.953870  0.123523  0.249497  1
  Sn  Sn32  1  0.314789  0.145076  0.750466  1
  Sn  Sn33  1  0.814789  0.354924  0.749534  1
  Sn  Sn34  1  0.685351  0.856466  0.250055  1
  Sn  Sn35  1  0.185351  0.643534  0.249945  1
