# generated using pymatgen
data_Dy18Ho2Si13As3
_symmetry_space_group_name_H-M   'P 1'
_cell_length_a   7.56833319
_cell_length_b   7.63653641
_cell_length_c   14.56733234
_cell_angle_alpha   89.87795349
_cell_angle_beta   89.13748331
_cell_angle_gamma   90.01427275
_symmetry_Int_Tables_number   1
_chemical_formula_structural   Dy18Ho2Si13As3
_chemical_formula_sum   'Dy18 Ho2 Si13 As3'
_cell_volume   841.83404460
_cell_formula_units_Z   1
loop_
 _symmetry_equiv_pos_site_id
 _symmetry_equiv_pos_as_xyz
  1  'x, y, z'
loop_
 _atom_site_type_symbol
 _atom_site_label
 _atom_site_symmetry_multiplicity
 _atom_site_fract_x
 _atom_site_fract_y
 _atom_site_fract_z
 _atom_site_occupancy
  Dy  Dy0  1  0.787360  0.498272  0.746445  1
  Dy  Dy1  1  0.289128  0.001866  0.751894  1
  Dy  Dy2  1  0.037764  0.824934  0.106406  1
  Dy  Dy3  1  0.524133  0.673846  0.397543  1
  Dy  Dy4  1  0.461429  0.325656  0.893605  1
  Dy  Dy5  1  0.975575  0.180222  0.601871  1
  Dy  Dy6  1  0.970506  0.177595  0.894118  1
  Dy  Dy7  1  0.479492  0.322858  0.600813  1
  Dy  Dy8  1  0.528898  0.677899  0.105530  1
  Dy  Dy9  1  0.018895  0.816491  0.398167  1
  Dy  Dy10  1  0.614182  0.837293  0.882499  1
  Dy  Dy11  1  0.121873  0.664050  0.618930  1
  Dy  Dy12  1  0.886858  0.336790  0.116917  1
  Dy  Dy13  1  0.377604  0.164175  0.382179  1
  Dy  Dy14  1  0.382898  0.164784  0.116908  1
  Dy  Dy15  1  0.877458  0.334676  0.380726  1
  Dy  Dy16  1  0.116870  0.665076  0.882817  1
  Dy  Dy17  1  0.624284  0.835191  0.618286  1
  Ho  Ho18  1  0.711307  0.998290  0.254175  1
  Ho  Ho19  1  0.212498  0.500529  0.250799  1
  Si  Si20  1  0.823256  0.628128  0.249554  1
  Si  Si21  1  0.323965  0.871417  0.250704  1
  Si  Si22  1  0.675807  0.129157  0.749671  1
  Si  Si23  1  0.174716  0.371844  0.749205  1
  Si  Si24  1  0.087998  0.110455  0.249339  1
  Si  Si25  1  0.588011  0.388035  0.248022  1
  Si  Si26  1  0.412640  0.612244  0.750345  1
  Si  Si27  1  0.912145  0.889830  0.750715  1
  Si  Si28  1  0.214732  0.465898  0.457391  1
  Si  Si29  1  0.224911  0.474863  0.045640  1
  Si  Si30  1  0.718416  0.032188  0.456410  1
  Si  Si31  1  0.275378  0.974652  0.954387  1
  Si  Si32  1  0.787128  0.533486  0.543236  1
  As  As33  1  0.772369  0.524211  0.954002  1
  As  As34  1  0.282135  0.968952  0.544896  1
  As  As35  1  0.727383  0.024146  0.045857  1
