# generated using pymatgen
data_Lu3ScMnAl7
_symmetry_space_group_name_H-M   'P 1'
_cell_length_a   5.45863200
_cell_length_b   5.45863252
_cell_length_c   8.72525700
_cell_angle_alpha   90.00000000
_cell_angle_beta   90.00000000
_cell_angle_gamma   120.00000900
_symmetry_Int_Tables_number   1
_chemical_formula_structural   Lu3ScMnAl7
_chemical_formula_sum   'Lu3 Sc1 Mn1 Al7'
_cell_volume   225.15235551
_cell_formula_units_Z   1
loop_
 _symmetry_equiv_pos_site_id
 _symmetry_equiv_pos_as_xyz
  1  'x, y, z'
loop_
 _atom_site_type_symbol
 _atom_site_label
 _atom_site_symmetry_multiplicity
 _atom_site_fract_x
 _atom_site_fract_y
 _atom_site_fract_z
 _atom_site_occupancy
  Lu  Lu0  1  0.333333  0.666667  0.062020  1
  Lu  Lu1  1  0.666667  0.333333  0.559663  1
  Lu  Lu2  1  0.666667  0.333333  0.939664  1
  Sc  Sc3  1  0.333333  0.666667  0.439937  1
  Mn  Mn4  1  0.000000  0.000000  0.499451  1
  Al  Al5  1  0.000000  0.000000  0.000640  1
  Al  Al6  1  0.832273  0.664547  0.259936  1
  Al  Al7  1  0.168385  0.831615  0.739606  1
  Al  Al8  1  0.663230  0.831615  0.739606  1
  Al  Al9  1  0.335453  0.167727  0.259936  1
  Al  Al10  1  0.832273  0.167727  0.259936  1
  Al  Al11  1  0.168385  0.336770  0.739606  1
