# generated using pymatgen
data_Dy7ErGa12CoNi3
_symmetry_space_group_name_H-M   'P 1'
_cell_length_a   7.03170900
_cell_length_b   8.73810843
_cell_length_c   8.73397433
_cell_angle_alpha   120.01565736
_cell_angle_beta   90.00073398
_cell_angle_gamma   90.00000014
_symmetry_Int_Tables_number   1
_chemical_formula_structural   Dy7ErGa12CoNi3
_chemical_formula_sum   'Dy7 Er1 Ga12 Co1 Ni3'
_cell_volume   464.67822264
_cell_formula_units_Z   1
loop_
 _symmetry_equiv_pos_site_id
 _symmetry_equiv_pos_as_xyz
  1  'x, y, z'
loop_
 _atom_site_type_symbol
 _atom_site_label
 _atom_site_symmetry_multiplicity
 _atom_site_fract_x
 _atom_site_fract_y
 _atom_site_fract_z
 _atom_site_occupancy
  Dy  Dy0  1  0.748303  0.000004  0.000009  1
  Dy  Dy1  1  0.249781  0.999977  0.999953  1
  Dy  Dy2  1  0.750299  0.478508  0.521444  1
  Dy  Dy3  1  0.252916  0.524524  0.475188  1
  Dy  Dy4  1  0.750299  0.042936  0.521444  1
  Dy  Dy5  1  0.252916  0.950665  0.475188  1
  Dy  Dy6  1  0.750265  0.478607  0.957214  1
  Er  Er7  1  0.253091  0.524726  0.049451  1
  Ga  Ga8  1  0.954955  0.828489  0.171060  1
  Ga  Ga9  1  0.047507  0.172511  0.828384  1
  Ga  Ga10  1  0.954955  0.342572  0.171060  1
  Ga  Ga11  1  0.454093  0.172089  0.828717  1
  Ga  Ga12  1  0.047507  0.655872  0.828384  1
  Ga  Ga13  1  0.545160  0.826935  0.172545  1
  Ga  Ga14  1  0.954474  0.828733  0.657465  1
  Ga  Ga15  1  0.454093  0.656627  0.828717  1
  Ga  Ga16  1  0.047117  0.171989  0.343979  1
  Ga  Ga17  1  0.545160  0.345611  0.172545  1
  Ga  Ga18  1  0.454447  0.171606  0.343214  1
  Ga  Ga19  1  0.545724  0.827213  0.654425  1
  Co  Co20  1  0.516438  0.666439  0.332877  1
  Ni  Ni21  1  0.969815  0.666427  0.332853  1
  Ni  Ni22  1  0.028485  0.333468  0.666936  1
  Ni  Ni23  1  0.472200  0.333474  0.666948  1
