# generated using pymatgen
data_Tb4Er4Si8Pd7Pt
_symmetry_space_group_name_H-M   'P 1'
_cell_length_a   4.33223500
_cell_length_b   7.48806227
_cell_length_c   13.90643901
_cell_angle_alpha   90.01336503
_cell_angle_beta   90.00000000
_cell_angle_gamma   90.00000000
_symmetry_Int_Tables_number   1
_chemical_formula_structural   Tb4Er4Si8Pd7Pt
_chemical_formula_sum   'Tb4 Er4 Si8 Pd7 Pt1'
_cell_volume   451.12550143
_cell_formula_units_Z   1
loop_
 _symmetry_equiv_pos_site_id
 _symmetry_equiv_pos_as_xyz
  1  'x, y, z'
loop_
 _atom_site_type_symbol
 _atom_site_label
 _atom_site_symmetry_multiplicity
 _atom_site_fract_x
 _atom_site_fract_y
 _atom_site_fract_z
 _atom_site_occupancy
  Tb  Tb0  1  0.000000  0.298708  0.999783  1
  Tb  Tb1  1  0.500000  0.702201  0.499814  1
  Tb  Tb2  1  0.000000  0.288841  0.500161  1
  Tb  Tb3  1  0.500000  0.710990  0.000010  1
  Er  Er4  1  0.000000  0.210811  0.249285  1
  Er  Er5  1  0.500000  0.789462  0.250835  1
  Er  Er6  1  0.000000  0.209323  0.750101  1
  Er  Er7  1  0.500000  0.790037  0.749197  1
  Si  Si8  1  0.000000  0.910632  0.593897  1
  Si  Si9  1  0.500000  0.090842  0.905623  1
  Si  Si10  1  0.000000  0.908313  0.404129  1
  Si  Si11  1  0.500000  0.090847  0.094775  1
  Si  Si12  1  0.000000  0.591604  0.144551  1
  Si  Si13  1  0.500000  0.408788  0.355483  1
  Si  Si14  1  0.000000  0.591602  0.855559  1
  Si  Si15  1  0.500000  0.407206  0.643811  1
  Pd  Pd16  1  0.000000  0.924521  0.890199  1
  Pd  Pd17  1  0.500000  0.075757  0.390361  1
  Pd  Pd18  1  0.000000  0.924437  0.110263  1
  Pd  Pd19  1  0.500000  0.420180  0.158265  1
  Pd  Pd20  1  0.000000  0.579572  0.341575  1
  Pd  Pd21  1  0.500000  0.420691  0.841714  1
  Pd  Pd22  1  0.000000  0.580223  0.658500  1
  Pt  Pt23  1  0.500000  0.074414  0.612110  1
