# generated using pymatgen
data_Ba16Ca8Mo3W5N32
_symmetry_space_group_name_H-M   'P 1'
_cell_length_a   10.05315046
_cell_length_b   10.48187928
_cell_length_c   12.08243404
_cell_angle_alpha   89.97385339
_cell_angle_beta   89.93850290
_cell_angle_gamma   90.00172309
_symmetry_Int_Tables_number   1
_chemical_formula_structural   Ba16Ca8Mo3W5N32
_chemical_formula_sum   'Ba16 Ca8 Mo3 W5 N32'
_cell_volume   1273.19660885
_cell_formula_units_Z   1
loop_
 _symmetry_equiv_pos_site_id
 _symmetry_equiv_pos_as_xyz
  1  'x, y, z'
loop_
 _atom_site_type_symbol
 _atom_site_label
 _atom_site_symmetry_multiplicity
 _atom_site_fract_x
 _atom_site_fract_y
 _atom_site_fract_z
 _atom_site_occupancy
  Ba  Ba0  1  0.618442  0.962268  0.855709  1
  Ba  Ba1  1  0.381768  0.038046  0.143762  1
  Ba  Ba2  1  0.881602  0.462178  0.144064  1
  Ba  Ba3  1  0.382617  0.538005  0.356483  1
  Ba  Ba4  1  0.118375  0.537306  0.855907  1
  Ba  Ba5  1  0.617397  0.462605  0.643536  1
  Ba  Ba6  1  0.117254  0.038047  0.644019  1
  Ba  Ba7  1  0.881574  0.963046  0.356479  1
  Ba  Ba8  1  0.802609  0.764180  0.616306  1
  Ba  Ba9  1  0.197647  0.237458  0.383350  1
  Ba  Ba10  1  0.698148  0.264328  0.383662  1
  Ba  Ba11  1  0.196593  0.737028  0.117377  1
  Ba  Ba12  1  0.301563  0.735698  0.617013  1
  Ba  Ba13  1  0.803916  0.262166  0.881807  1
  Ba  Ba14  1  0.304190  0.237643  0.881870  1
  Ba  Ba15  1  0.696105  0.762396  0.117990  1
  Ca  Ca16  1  0.965559  0.883698  0.896340  1
  Ca  Ca17  1  0.034657  0.116110  0.104052  1
  Ca  Ca18  1  0.534581  0.383792  0.103853  1
  Ca  Ca19  1  0.033713  0.615693  0.396082  1
  Ca  Ca20  1  0.465625  0.616245  0.896094  1
  Ca  Ca21  1  0.966037  0.384139  0.604219  1
  Ca  Ca22  1  0.465904  0.115566  0.603672  1
  Ca  Ca23  1  0.534476  0.883736  0.395840  1
  Mo  Mo24  1  0.782042  0.094244  0.621861  1
  Mo  Mo25  1  0.282096  0.405634  0.621973  1
  Mo  Mo26  1  0.717847  0.594198  0.378229  1
  W  W27  1  0.782374  0.593868  0.877714  1
  W  W28  1  0.217758  0.405938  0.122173  1
  W  W29  1  0.717758  0.093948  0.122157  1
  W  W30  1  0.217587  0.905971  0.378054  1
  W  W31  1  0.282423  0.906098  0.877812  1
  N  N32  1  0.912318  0.673409  0.968342  1
  N  N33  1  0.087840  0.326313  0.031609  1
  N  N34  1  0.587963  0.173767  0.031527  1
  N  N35  1  0.087404  0.826024  0.468610  1
  N  N36  1  0.412490  0.826464  0.968302  1
  N  N37  1  0.912194  0.173419  0.531838  1
  N  N38  1  0.412035  0.326556  0.531782  1
  N  N39  1  0.587799  0.672955  0.468574  1
  N  N40  1  0.668117  0.707683  0.803220  1
  N  N41  1  0.332340  0.292240  0.196400  1
  N  N42  1  0.832122  0.207517  0.196747  1
  N  N43  1  0.332433  0.792432  0.303779  1
  N  N44  1  0.167914  0.792177  0.803770  1
  N  N45  1  0.667499  0.207467  0.695465  1
  N  N46  1  0.167563  0.292499  0.695957  1
  N  N47  1  0.831880  0.707896  0.304570  1
  N  N48  1  0.671934  0.992944  0.530891  1
  N  N49  1  0.328327  0.006927  0.469240  1
  N  N50  1  0.828502  0.492898  0.468792  1
  N  N51  1  0.328636  0.507065  0.030889  1
  N  N52  1  0.171641  0.506613  0.531080  1
  N  N53  1  0.671182  0.493174  0.969060  1
  N  N54  1  0.171414  0.006934  0.969079  1
  N  N55  1  0.828839  0.993196  0.030891  1
  N  N56  1  0.867812  0.988177  0.726555  1
  N  N57  1  0.131693  0.012980  0.273580  1
  N  N58  1  0.632015  0.488092  0.273679  1
  N  N59  1  0.131476  0.512652  0.226744  1
  N  N60  1  0.367901  0.511786  0.726511  1
  N  N61  1  0.868532  0.486662  0.773407  1
  N  N62  1  0.368499  0.013156  0.773274  1
  N  N63  1  0.631447  0.986647  0.226379  1
