# generated using pymatgen
data_Hf6Nb4Si6B
_symmetry_space_group_name_H-M   'P 1'
_cell_length_a   7.81613600
_cell_length_b   7.81613658
_cell_length_c   5.41312600
_cell_angle_alpha   90.00000000
_cell_angle_beta   90.00000000
_cell_angle_gamma   119.99999756
_symmetry_Int_Tables_number   1
_chemical_formula_structural   Hf6Nb4Si6B
_chemical_formula_sum   'Hf6 Nb4 Si6 B1'
_cell_volume   286.39341325
_cell_formula_units_Z   1
loop_
 _symmetry_equiv_pos_site_id
 _symmetry_equiv_pos_as_xyz
  1  'x, y, z'
loop_
 _atom_site_type_symbol
 _atom_site_label
 _atom_site_symmetry_multiplicity
 _atom_site_fract_x
 _atom_site_fract_y
 _atom_site_fract_z
 _atom_site_occupancy
  Hf  Hf0  1  0.000000  0.751960  0.250575  1
  Hf  Hf1  1  0.248040  0.248040  0.250575  1
  Hf  Hf2  1  0.751960  0.000000  0.250575  1
  Hf  Hf3  1  0.000000  0.248040  0.749425  1
  Hf  Hf4  1  0.751960  0.751960  0.749425  1
  Hf  Hf5  1  0.248040  0.000000  0.749425  1
  Nb  Nb6  1  0.333333  0.666667  0.000000  1
  Nb  Nb7  1  0.666667  0.333333  0.000000  1
  Nb  Nb8  1  0.666667  0.333333  0.500000  1
  Nb  Nb9  1  0.333333  0.666667  0.500000  1
  Si  Si10  1  0.000000  0.398914  0.248833  1
  Si  Si11  1  0.601086  0.601086  0.248833  1
  Si  Si12  1  0.398914  0.000000  0.248833  1
  Si  Si13  1  0.000000  0.601086  0.751167  1
  Si  Si14  1  0.398914  0.398914  0.751167  1
  Si  Si15  1  0.601086  0.000000  0.751167  1
  B  B16  1  0.000000  0.000000  0.500000  1
