# generated using pymatgen
data_NdTh3(HgPd2)2
_symmetry_space_group_name_H-M   'P 1'
_cell_length_a   7.93988794
_cell_length_b   7.93988764
_cell_length_c   3.81882700
_cell_angle_alpha   90.00000000
_cell_angle_beta   90.00000000
_cell_angle_gamma   88.90008548
_symmetry_Int_Tables_number   1
_chemical_formula_structural   NdTh3(HgPd2)2
_chemical_formula_sum   'Nd1 Th3 Hg2 Pd4'
_cell_volume   240.70143751
_cell_formula_units_Z   1
loop_
 _symmetry_equiv_pos_site_id
 _symmetry_equiv_pos_as_xyz
  1  'x, y, z'
loop_
 _atom_site_type_symbol
 _atom_site_label
 _atom_site_symmetry_multiplicity
 _atom_site_fract_x
 _atom_site_fract_y
 _atom_site_fract_z
 _atom_site_occupancy
  Nd  Nd0  1  0.675696  0.175696  0.500000  1
  Th  Th1  1  0.326522  0.826522  0.500000  1
  Th  Th2  1  0.824402  0.673729  0.500000  1
  Th  Th3  1  0.173729  0.324402  0.500000  1
  Hg  Hg4  1  0.996497  0.000543  0.000000  1
  Hg  Hg5  1  0.500543  0.496497  0.000000  1
  Pd  Pd6  1  0.367515  0.124125  0.000000  1
  Pd  Pd7  1  0.881137  0.381137  0.000000  1
  Pd  Pd8  1  0.129834  0.629834  0.000000  1
  Pd  Pd9  1  0.624125  0.867515  0.000000  1
