# generated using pymatgen
data_MnNi(PO3)4
_symmetry_space_group_name_H-M   'P 1'
_cell_length_a   7.35652373
_cell_length_b   7.35652319
_cell_length_c   10.05067201
_cell_angle_alpha   67.23599012
_cell_angle_beta   67.23599002
_cell_angle_gamma   70.56806231
_symmetry_Int_Tables_number   1
_chemical_formula_structural   MnNi(PO3)4
_chemical_formula_sum   'Mn2 Ni2 P8 O24'
_cell_volume   451.65551190
_cell_formula_units_Z   2
loop_
 _symmetry_equiv_pos_site_id
 _symmetry_equiv_pos_as_xyz
  1  'x, y, z'
loop_
 _atom_site_type_symbol
 _atom_site_label
 _atom_site_symmetry_multiplicity
 _atom_site_fract_x
 _atom_site_fract_y
 _atom_site_fract_z
 _atom_site_occupancy
  Mn  Mn0  1  0.050422  0.949578  0.750000  1
  Mn  Mn1  1  0.949578  0.050422  0.250000  1
  Ni  Ni2  1  0.000000  0.500000  0.000000  1
  Ni  Ni3  1  0.500000  0.000000  0.500000  1
  P  P4  1  0.686622  0.700383  0.803093  1
  P  P5  1  0.738812  0.275565  0.524309  1
  P  P6  1  0.700383  0.686622  0.303093  1
  P  P7  1  0.724435  0.261188  0.975691  1
  P  P8  1  0.313378  0.299617  0.196907  1
  P  P9  1  0.275565  0.738812  0.024309  1
  P  P10  1  0.261188  0.724435  0.475691  1
  P  P11  1  0.299617  0.313378  0.696907  1
  O  O12  1  0.906621  0.160942  0.590506  1
  O  O13  1  0.533059  0.315901  0.657504  1
  O  O14  1  0.125086  0.290297  0.172874  1
  O  O15  1  0.315901  0.533059  0.157504  1
  O  O16  1  0.190925  0.344992  0.847320  1
  O  O17  1  0.093379  0.839058  0.409494  1
  O  O18  1  0.344992  0.190925  0.347320  1
  O  O19  1  0.655008  0.809075  0.652680  1
  O  O20  1  0.466941  0.684099  0.342496  1
  O  O21  1  0.222870  0.500129  0.565631  1
  O  O22  1  0.874914  0.709703  0.827126  1
  O  O23  1  0.809075  0.655008  0.152680  1
  O  O24  1  0.194316  0.697415  0.922785  1
  O  O25  1  0.500129  0.222870  0.065631  1
  O  O26  1  0.160942  0.906621  0.090506  1
  O  O27  1  0.302585  0.805684  0.577215  1
  O  O28  1  0.805684  0.302585  0.077215  1
  O  O29  1  0.290297  0.125086  0.672874  1
  O  O30  1  0.709703  0.874914  0.327126  1
  O  O31  1  0.697415  0.194316  0.422785  1
  O  O32  1  0.684099  0.466941  0.842496  1
  O  O33  1  0.777130  0.499871  0.434369  1
  O  O34  1  0.839058  0.093379  0.909494  1
  O  O35  1  0.499871  0.777130  0.934369  1
