# generated using pymatgen
data_Ca4YbSi3
_symmetry_space_group_name_H-M   'P 1'
_cell_length_a   9.14657675
_cell_length_b   9.14657686
_cell_length_c   9.14657736
_cell_angle_alpha   130.72332103
_cell_angle_beta   130.72332253
_cell_angle_gamma   72.25303108
_symmetry_Int_Tables_number   1
_chemical_formula_structural   Ca4YbSi3
_chemical_formula_sum   'Ca8 Yb2 Si6'
_cell_volume   429.67112070
_cell_formula_units_Z   2
loop_
 _symmetry_equiv_pos_site_id
 _symmetry_equiv_pos_as_xyz
  1  'x, y, z'
loop_
 _atom_site_type_symbol
 _atom_site_label
 _atom_site_symmetry_multiplicity
 _atom_site_fract_x
 _atom_site_fract_y
 _atom_site_fract_z
 _atom_site_occupancy
  Ca  Ca0  1  0.539213  0.679562  0.500000  1
  Ca  Ca1  1  0.039213  0.539213  0.859650  1
  Ca  Ca2  1  0.679562  0.179562  0.140350  1
  Ca  Ca3  1  0.960787  0.460787  0.140350  1
  Ca  Ca4  1  0.179562  0.039213  0.500000  1
  Ca  Ca5  1  0.460787  0.320438  0.500000  1
  Ca  Ca6  1  0.820438  0.960787  0.500000  1
  Ca  Ca7  1  0.320438  0.820438  0.859650  1
  Yb  Yb8  1  0.000000  0.000000  0.000000  1
  Yb  Yb9  1  0.500000  0.500000  0.000000  1
  Si  Si10  1  0.612511  0.112511  0.725022  1
  Si  Si11  1  0.112511  0.387489  0.500000  1
  Si  Si12  1  0.887489  0.612511  0.500000  1
  Si  Si13  1  0.387489  0.887489  0.274978  1
  Si  Si14  1  0.250000  0.250000  0.000000  1
  Si  Si15  1  0.750000  0.750000  0.000000  1
