# generated using pymatgen
data_La8Nd2Ir2I15
_symmetry_space_group_name_H-M   'P 1'
_cell_length_a   10.19765574
_cell_length_b   11.15295880
_cell_length_c   11.98168187
_cell_angle_alpha   92.26387893
_cell_angle_beta   114.06838845
_cell_angle_gamma   110.40458987
_symmetry_Int_Tables_number   1
_chemical_formula_structural   La8Nd2Ir2I15
_chemical_formula_sum   'La8 Nd2 Ir2 I15'
_cell_volume   1139.59077050
_cell_formula_units_Z   1
loop_
 _symmetry_equiv_pos_site_id
 _symmetry_equiv_pos_as_xyz
  1  'x, y, z'
loop_
 _atom_site_type_symbol
 _atom_site_label
 _atom_site_symmetry_multiplicity
 _atom_site_fract_x
 _atom_site_fract_y
 _atom_site_fract_z
 _atom_site_occupancy
  La  La0  1  0.299798  0.903573  0.273666  1
  La  La1  1  0.700202  0.096427  0.726334  1
  La  La2  1  0.088485  0.543925  0.331112  1
  La  La3  1  0.911515  0.456075  0.668888  1
  La  La4  1  0.831042  0.749276  0.176305  1
  La  La5  1  0.168958  0.250724  0.823695  1
  La  La6  1  0.973908  0.792536  0.901898  1
  La  La7  1  0.026092  0.207464  0.098102  1
  Nd  Nd8  1  0.221645  0.577017  0.049839  1
  Nd  Nd9  1  0.778355  0.422983  0.950161  1
  Ir  Ir10  1  0.031893  0.673080  0.119694  1
  Ir  Ir11  1  0.968107  0.326920  0.880306  1
  I  I12  1  0.342067  0.446005  0.300069  1
  I  I13  1  0.657933  0.553995  0.699931  1
  I  I14  1  0.215263  0.736740  0.819211  1
  I  I15  1  0.784737  0.263260  0.180789  1
  I  I16  1  0.144363  0.386608  0.582327  1
  I  I17  1  0.855637  0.613392  0.417673  1
  I  I18  1  0.390035  0.802427  0.533297  1
  I  I19  1  0.609965  0.197573  0.466703  1
  I  I20  1  0.265055  0.087779  0.055237  1
  I  I21  1  0.734945  0.912221  0.944763  1
  I  I22  1  0.562603  0.840618  0.224942  1
  I  I23  1  0.437397  0.159382  0.775058  1
  I  I24  1  0.092204  0.039587  0.337021  1
  I  I25  1  0.907796  0.960413  0.662979  1
  I  I26  1  0.500000  0.500000  0.000000  1
