# generated using pymatgen
data_Sc8Ti7Si16Tc5
_symmetry_space_group_name_H-M   'P 1'
_cell_length_a   6.53517838
_cell_length_b   6.75484648
_cell_length_c   12.86318172
_cell_angle_alpha   89.95903880
_cell_angle_beta   90.09817016
_cell_angle_gamma   90.12133966
_symmetry_Int_Tables_number   1
_chemical_formula_structural   Sc8Ti7Si16Tc5
_chemical_formula_sum   'Sc8 Ti7 Si16 Tc5'
_cell_volume   567.83167225
_cell_formula_units_Z   1
loop_
 _symmetry_equiv_pos_site_id
 _symmetry_equiv_pos_as_xyz
  1  'x, y, z'
loop_
 _atom_site_type_symbol
 _atom_site_label
 _atom_site_symmetry_multiplicity
 _atom_site_fract_x
 _atom_site_fract_y
 _atom_site_fract_z
 _atom_site_occupancy
  Sc  Sc0  1  0.497914  0.671719  0.592116  1
  Sc  Sc1  1  0.997109  0.828883  0.907984  1
  Sc  Sc2  1  0.502118  0.327128  0.093141  1
  Sc  Sc3  1  0.002403  0.171871  0.406467  1
  Sc  Sc4  1  0.504745  0.326139  0.406607  1
  Sc  Sc5  1  0.002462  0.172271  0.092689  1
  Sc  Sc6  1  0.495903  0.671043  0.907204  1
  Sc  Sc7  1  0.997348  0.825179  0.591515  1
  Ti  Ti8  1  0.661772  0.168422  0.626321  1
  Ti  Ti9  1  0.166250  0.330014  0.873006  1
  Ti  Ti10  1  0.333243  0.831204  0.126297  1
  Ti  Ti11  1  0.835669  0.665718  0.375552  1
  Ti  Ti12  1  0.331017  0.834074  0.377079  1
  Ti  Ti13  1  0.832079  0.668489  0.125740  1
  Ti  Ti14  1  0.668545  0.168651  0.872567  1
  Si  Si15  1  0.670201  0.961913  0.459072  1
  Si  Si16  1  0.168962  0.538030  0.041139  1
  Si  Si17  1  0.331248  0.037590  0.958256  1
  Si  Si18  1  0.838704  0.461022  0.544364  1
  Si  Si19  1  0.326589  0.042783  0.543226  1
  Si  Si20  1  0.831212  0.462755  0.958487  1
  Si  Si21  1  0.668679  0.963219  0.041072  1
  Si  Si22  1  0.170637  0.539412  0.459791  1
  Si  Si23  1  0.462067  0.382786  0.749918  1
  Si  Si24  1  0.972143  0.120838  0.746376  1
  Si  Si25  1  0.532975  0.616551  0.251322  1
  Si  Si26  1  0.033628  0.883580  0.250520  1
  Si  Si27  1  0.702189  0.859282  0.749114  1
  Si  Si28  1  0.195375  0.639192  0.750778  1
  Si  Si29  1  0.299185  0.140780  0.249723  1
  Si  Si30  1  0.799219  0.358961  0.249384  1
  Tc  Tc31  1  0.172123  0.335885  0.622704  1
  Tc  Tc32  1  0.831782  0.495705  0.749543  1
  Tc  Tc33  1  0.340447  0.000447  0.749202  1
  Tc  Tc34  1  0.162405  0.504986  0.251107  1
  Tc  Tc35  1  0.661657  0.993481  0.250619  1
