# generated using pymatgen
data_LiTmTa(NiSb)3
_symmetry_space_group_name_H-M   'P 1'
_cell_length_a   7.45913641
_cell_length_b   7.46123359
_cell_length_c   7.48098199
_cell_angle_alpha   119.97132186
_cell_angle_beta   99.61810586
_cell_angle_gamma   99.50125290
_symmetry_Int_Tables_number   1
_chemical_formula_structural   LiTmTa(NiSb)3
_chemical_formula_sum   'Li2 Tm2 Ta2 Ni6 Sb6'
_cell_volume   340.21461459
_cell_formula_units_Z   2
loop_
 _symmetry_equiv_pos_site_id
 _symmetry_equiv_pos_as_xyz
  1  'x, y, z'
loop_
 _atom_site_type_symbol
 _atom_site_label
 _atom_site_symmetry_multiplicity
 _atom_site_fract_x
 _atom_site_fract_y
 _atom_site_fract_z
 _atom_site_occupancy
  Li  Li0  1  0.999049  0.502547  0.998494  1
  Li  Li1  1  0.498350  0.329193  0.165619  1
  Tm  Tm2  1  0.998889  0.161125  0.332271  1
  Tm  Tm3  1  0.499220  0.002315  0.500618  1
  Ta  Ta4  1  0.001759  0.836320  0.668613  1
  Ta  Ta5  1  0.501984  0.669469  0.834067  1
  Ni  Ni6  1  0.116684  0.187100  0.022136  1
  Ni  Ni7  1  0.619141  0.020215  0.188473  1
  Ni  Ni8  1  0.119036  0.872345  0.393532  1
  Ni  Ni9  1  0.638127  0.715316  0.563455  1
  Ni  Ni10  1  0.137873  0.560242  0.708390  1
  Ni  Ni11  1  0.616649  0.391475  0.870455  1
  Sb  Sb12  1  0.248333  0.912528  0.078793  1
  Sb  Sb13  1  0.748725  0.731970  0.246706  1
  Sb  Sb14  1  0.253971  0.571959  0.402489  1
  Sb  Sb15  1  0.754537  0.422168  0.586289  1
  Sb  Sb16  1  0.249300  0.263625  0.767127  1
  Sb  Sb17  1  0.748373  0.100093  0.922477  1
