# generated using pymatgen
data_Yb2TlSbO6
_symmetry_space_group_name_H-M   'P 1'
_cell_length_a   6.57110265
_cell_length_b   6.58260613
_cell_length_c   6.56618700
_cell_angle_alpha   91.74797096
_cell_angle_beta   91.68418548
_cell_angle_gamma   91.54742634
_symmetry_Int_Tables_number   1
_chemical_formula_structural   Yb2TlSbO6
_chemical_formula_sum   'Yb4 Tl2 Sb2 O12'
_cell_volume   283.65482165
_cell_formula_units_Z   2
loop_
 _symmetry_equiv_pos_site_id
 _symmetry_equiv_pos_as_xyz
  1  'x, y, z'
loop_
 _atom_site_type_symbol
 _atom_site_label
 _atom_site_symmetry_multiplicity
 _atom_site_fract_x
 _atom_site_fract_y
 _atom_site_fract_z
 _atom_site_occupancy
  Yb  Yb0  1  0.561813  0.060798  0.753912  1
  Yb  Yb1  1  0.933479  0.246500  0.435663  1
  Yb  Yb2  1  0.247707  0.430219  0.938888  1
  Yb  Yb3  1  0.438160  0.944588  0.249150  1
  Tl  Tl4  1  0.064971  0.753162  0.561961  1
  Tl  Tl5  1  0.747805  0.564313  0.056774  1
  Sb  Sb6  1  0.498553  0.500449  0.498686  1
  Sb  Sb7  1  0.001289  0.998983  0.000198  1
  O  O8  1  0.043849  0.703334  0.920096  1
  O  O9  1  0.710189  0.914454  0.045025  1
  O  O10  1  0.918407  0.036515  0.706026  1
  O  O11  1  0.954144  0.292152  0.085171  1
  O  O12  1  0.289127  0.082419  0.958337  1
  O  O13  1  0.087579  0.961545  0.294392  1
  O  O14  1  0.793714  0.574582  0.424991  1
  O  O15  1  0.569671  0.426127  0.790487  1
  O  O16  1  0.427810  0.791671  0.569602  1
  O  O17  1  0.206653  0.433977  0.569320  1
  O  O18  1  0.434427  0.570337  0.206688  1
  O  O19  1  0.570653  0.213875  0.434630  1
