# generated using pymatgen
data_Hf4ZrCuSb9
_symmetry_space_group_name_H-M   'P 1'
_cell_length_a   8.95500800
_cell_length_b   8.95500800
_cell_length_c   8.69018000
_cell_angle_alpha   90.00000000
_cell_angle_beta   90.00000000
_cell_angle_gamma   90.00000000
_symmetry_Int_Tables_number   1
_chemical_formula_structural   Hf4ZrCuSb9
_chemical_formula_sum   'Hf8 Zr2 Cu2 Sb18'
_cell_volume   696.88437694
_cell_formula_units_Z   2
loop_
 _symmetry_equiv_pos_site_id
 _symmetry_equiv_pos_as_xyz
  1  'x, y, z'
loop_
 _atom_site_type_symbol
 _atom_site_label
 _atom_site_symmetry_multiplicity
 _atom_site_fract_x
 _atom_site_fract_y
 _atom_site_fract_z
 _atom_site_occupancy
  Hf  Hf0  1  0.296813  0.604677  0.265870  1
  Hf  Hf1  1  0.703187  0.395323  0.265870  1
  Hf  Hf2  1  0.796813  0.104677  0.734130  1
  Hf  Hf3  1  0.203187  0.895323  0.734130  1
  Hf  Hf4  1  0.395323  0.296813  0.734130  1
  Hf  Hf5  1  0.604677  0.703187  0.734130  1
  Hf  Hf6  1  0.895323  0.796813  0.265870  1
  Hf  Hf7  1  0.104677  0.203187  0.265870  1
  Zr  Zr8  1  0.500000  0.000000  0.256914  1
  Zr  Zr9  1  0.000000  0.500000  0.743086  1
  Cu  Cu10  1  0.500000  0.500000  0.000000  1
  Cu  Cu11  1  0.000000  0.000000  0.000000  1
  Sb  Sb12  1  0.778082  0.587851  0.000216  1
  Sb  Sb13  1  0.221918  0.412149  0.000216  1
  Sb  Sb14  1  0.278082  0.087851  0.999784  1
  Sb  Sb15  1  0.721918  0.912149  0.999784  1
  Sb  Sb16  1  0.412149  0.778082  0.999784  1
  Sb  Sb17  1  0.587851  0.221918  0.999784  1
  Sb  Sb18  1  0.912149  0.278082  0.000216  1
  Sb  Sb19  1  0.087851  0.721918  0.000216  1
  Sb  Sb20  1  0.000000  0.500000  0.387229  1
  Sb  Sb21  1  0.500000  0.000000  0.612771  1
  Sb  Sb22  1  0.197298  0.900613  0.379825  1
  Sb  Sb23  1  0.802702  0.099387  0.379825  1
  Sb  Sb24  1  0.697298  0.400613  0.620175  1
  Sb  Sb25  1  0.302702  0.599387  0.620175  1
  Sb  Sb26  1  0.099387  0.197298  0.620175  1
  Sb  Sb27  1  0.900613  0.802702  0.620175  1
  Sb  Sb28  1  0.599387  0.697298  0.379825  1
  Sb  Sb29  1  0.400613  0.302702  0.379825  1
