# generated using pymatgen
data_TbHo7(Nb3Si4)4
_symmetry_space_group_name_H-M   'P 1'
_cell_length_a   7.06204428
_cell_length_b   7.06250991
_cell_length_c   13.02658810
_cell_angle_alpha   89.98730899
_cell_angle_beta   89.98070646
_cell_angle_gamma   90.06042159
_symmetry_Int_Tables_number   1
_chemical_formula_structural   TbHo7(Nb3Si4)4
_chemical_formula_sum   'Tb1 Ho7 Nb12 Si16'
_cell_volume   649.71053753
_cell_formula_units_Z   1
loop_
 _symmetry_equiv_pos_site_id
 _symmetry_equiv_pos_as_xyz
  1  'x, y, z'
loop_
 _atom_site_type_symbol
 _atom_site_label
 _atom_site_symmetry_multiplicity
 _atom_site_fract_x
 _atom_site_fract_y
 _atom_site_fract_z
 _atom_site_occupancy
  Tb  Tb0  1  0.658664  0.001676  0.282324  1
  Ho  Ho1  1  0.998620  0.341278  0.217697  1
  Ho  Ho2  1  0.001475  0.658555  0.717746  1
  Ho  Ho3  1  0.158716  0.498877  0.467889  1
  Ho  Ho4  1  0.501443  0.841377  0.032002  1
  Ho  Ho5  1  0.841997  0.501378  0.967786  1
  Ho  Ho6  1  0.498712  0.158549  0.532380  1
  Ho  Ho7  1  0.341598  0.998438  0.782197  1
  Nb  Nb8  1  0.171090  0.171323  0.999874  1
  Nb  Nb9  1  0.828920  0.829093  0.499977  1
  Nb  Nb10  1  0.328854  0.670795  0.250152  1
  Nb  Nb11  1  0.671244  0.328949  0.749911  1
  Nb  Nb12  1  0.153115  0.992575  0.376035  1
  Nb  Nb13  1  0.846768  0.007210  0.875931  1
  Nb  Nb14  1  0.506850  0.653465  0.626383  1
  Nb  Nb15  1  0.346516  0.493006  0.873835  1
  Nb  Nb16  1  0.492781  0.346298  0.126186  1
  Nb  Nb17  1  0.653063  0.506786  0.373703  1
  Nb  Nb18  1  0.992797  0.153874  0.624022  1
  Nb  Nb19  1  0.006812  0.846500  0.123877  1
  Si  Si20  1  0.292864  0.045422  0.186161  1
  Si  Si21  1  0.706288  0.954418  0.686316  1
  Si  Si22  1  0.453983  0.793491  0.436885  1
  Si  Si23  1  0.206281  0.545601  0.063787  1
  Si  Si24  1  0.545531  0.206193  0.936288  1
  Si  Si25  1  0.793919  0.455137  0.563473  1
  Si  Si26  1  0.045723  0.293923  0.813597  1
  Si  Si27  1  0.954785  0.705456  0.313596  1
  Si  Si28  1  0.366093  0.295356  0.318186  1
  Si  Si29  1  0.633394  0.704495  0.818196  1
  Si  Si30  1  0.204492  0.867295  0.568198  1
  Si  Si31  1  0.133198  0.795400  0.931933  1
  Si  Si32  1  0.795394  0.133112  0.067815  1
  Si  Si33  1  0.867705  0.205661  0.432201  1
  Si  Si34  1  0.295404  0.366813  0.681877  1
  Si  Si35  1  0.704910  0.632224  0.181585  1
