# generated using pymatgen
data_Tm12Co3BiOs2
_symmetry_space_group_name_H-M   'P 1'
_cell_length_a   8.25160761
_cell_length_b   8.25160791
_cell_length_c   8.25160720
_cell_angle_alpha   110.87468082
_cell_angle_beta   112.25573176
_cell_angle_gamma   105.36300674
_symmetry_Int_Tables_number   1
_chemical_formula_structural   Tm12Co3BiOs2
_chemical_formula_sum   'Tm12 Co3 Bi1 Os2'
_cell_volume   430.78793710
_cell_formula_units_Z   1
loop_
 _symmetry_equiv_pos_site_id
 _symmetry_equiv_pos_as_xyz
  1  'x, y, z'
loop_
 _atom_site_type_symbol
 _atom_site_label
 _atom_site_symmetry_multiplicity
 _atom_site_fract_x
 _atom_site_fract_y
 _atom_site_fract_z
 _atom_site_occupancy
  Tm  Tm0  1  0.274249  0.181976  0.456224  1
  Tm  Tm1  1  0.723606  0.818975  0.542581  1
  Tm  Tm2  1  0.276394  0.818975  0.095368  1
  Tm  Tm3  1  0.725751  0.181976  0.907728  1
  Tm  Tm4  1  0.618838  0.306619  0.307809  1
  Tm  Tm5  1  0.381162  0.688971  0.687781  1
  Tm  Tm6  1  0.998810  0.306619  0.687781  1
  Tm  Tm7  1  0.001190  0.688971  0.307809  1
  Tm  Tm8  1  0.221860  0.415427  0.193568  1
  Tm  Tm9  1  0.782612  0.585513  0.802900  1
  Tm  Tm10  1  0.217388  0.020288  0.802900  1
  Tm  Tm11  1  0.778140  0.971708  0.193568  1
  Co  Co12  1  0.000000  0.639291  0.639291  1
  Co  Co13  1  0.390302  0.890196  0.499893  1
  Co  Co14  1  0.609698  0.109591  0.499893  1
  Bi  Bi15  1  0.500000  0.497046  0.997046  1
  Os  Os16  1  0.000000  0.377894  0.377894  1
  Os  Os17  1  0.000000  0.999965  0.999965  1
