# generated using pymatgen
data_Zr2GaTc3
_symmetry_space_group_name_H-M   'P 1'
_cell_length_a   5.25506200
_cell_length_b   5.25506320
_cell_length_c   8.63558100
_cell_angle_alpha   90.00000000
_cell_angle_beta   90.00000000
_cell_angle_gamma   120.00000503
_symmetry_Int_Tables_number   1
_chemical_formula_structural   Zr2GaTc3
_chemical_formula_sum   'Zr4 Ga2 Tc6'
_cell_volume   206.52753407
_cell_formula_units_Z   2
loop_
 _symmetry_equiv_pos_site_id
 _symmetry_equiv_pos_as_xyz
  1  'x, y, z'
loop_
 _atom_site_type_symbol
 _atom_site_label
 _atom_site_symmetry_multiplicity
 _atom_site_fract_x
 _atom_site_fract_y
 _atom_site_fract_z
 _atom_site_occupancy
  Zr  Zr0  1  0.333333  0.666667  0.434838  1
  Zr  Zr1  1  0.666667  0.333333  0.565162  1
  Zr  Zr2  1  0.666667  0.333333  0.934838  1
  Zr  Zr3  1  0.333333  0.666667  0.065162  1
  Ga  Ga4  1  0.000000  0.000000  0.500000  1
  Ga  Ga5  1  0.000000  0.000000  0.000000  1
  Tc  Tc6  1  0.828078  0.171922  0.250000  1
  Tc  Tc7  1  0.828078  0.656157  0.250000  1
  Tc  Tc8  1  0.343843  0.171922  0.250000  1
  Tc  Tc9  1  0.171922  0.828078  0.750000  1
  Tc  Tc10  1  0.171922  0.343843  0.750000  1
  Tc  Tc11  1  0.656157  0.828078  0.750000  1
