# generated using pymatgen
data_NiAg2SnO4
_symmetry_space_group_name_H-M   'P 1'
_cell_length_a   5.48459974
_cell_length_b   6.32412805
_cell_length_c   7.32853495
_cell_angle_alpha   64.31019323
_cell_angle_beta   104.50780101
_cell_angle_gamma   90.00623348
_symmetry_Int_Tables_number   1
_chemical_formula_structural   NiAg2SnO4
_chemical_formula_sum   'Ni2 Ag4 Sn2 O8'
_cell_volume   220.04121291
_cell_formula_units_Z   2
loop_
 _symmetry_equiv_pos_site_id
 _symmetry_equiv_pos_as_xyz
  1  'x, y, z'
loop_
 _atom_site_type_symbol
 _atom_site_label
 _atom_site_symmetry_multiplicity
 _atom_site_fract_x
 _atom_site_fract_y
 _atom_site_fract_z
 _atom_site_occupancy
  Ni  Ni0  1  0.500312  0.254012  0.500102  1
  Ni  Ni1  1  0.999690  0.495980  0.499893  1
  Ag  Ag2  1  0.998556  0.001728  0.996839  1
  Ag  Ag3  1  0.498691  0.251495  0.996846  1
  Ag  Ag4  1  0.001309  0.498515  0.003158  1
  Ag  Ag5  1  0.501426  0.748292  0.003156  1
  Sn  Sn6  1  0.499660  0.740092  0.499964  1
  Sn  Sn7  1  0.000346  0.009898  0.500039  1
  O  O8  1  0.890356  0.671018  0.666709  1
  O  O9  1  0.390833  0.911283  0.666689  1
  O  O10  1  0.887897  0.166601  0.665378  1
  O  O11  1  0.387248  0.416907  0.665236  1
  O  O12  1  0.109169  0.838714  0.333311  1
  O  O13  1  0.609651  0.078975  0.333294  1
  O  O14  1  0.112755  0.333090  0.334767  1
  O  O15  1  0.612105  0.583400  0.334619  1
