# generated using pymatgen
data_TbHo2Er5CdInNi2
_symmetry_space_group_name_H-M   'P 1'
_cell_length_a   9.50200353
_cell_length_b   9.49850674
_cell_length_c   9.49439764
_cell_angle_alpha   60.03867297
_cell_angle_beta   60.00214198
_cell_angle_gamma   60.02751555
_symmetry_Int_Tables_number   1
_chemical_formula_structural   TbHo2Er5CdInNi2
_chemical_formula_sum   'Tb2 Ho4 Er10 Cd2 In2 Ni4'
_cell_volume   606.24341096
_cell_formula_units_Z   2
loop_
 _symmetry_equiv_pos_site_id
 _symmetry_equiv_pos_as_xyz
  1  'x, y, z'
loop_
 _atom_site_type_symbol
 _atom_site_label
 _atom_site_symmetry_multiplicity
 _atom_site_fract_x
 _atom_site_fract_y
 _atom_site_fract_z
 _atom_site_occupancy
  Tb  Tb0  1  0.347169  0.347735  0.348224  1
  Tb  Tb1  1  0.347735  0.347169  0.956871  1
  Ho  Ho2  1  0.564833  0.937631  0.564104  1
  Ho  Ho3  1  0.937631  0.564833  0.933432  1
  Ho  Ho4  1  0.565255  0.565255  0.934745  1
  Ho  Ho5  1  0.938567  0.938567  0.561433  1
  Er  Er6  1  0.350567  0.951681  0.348498  1
  Er  Er7  1  0.951681  0.350567  0.349255  1
  Er  Er8  1  0.812372  0.189057  0.187684  1
  Er  Er9  1  0.189057  0.812372  0.810886  1
  Er  Er10  1  0.189211  0.812378  0.187259  1
  Er  Er11  1  0.812378  0.189211  0.811152  1
  Er  Er12  1  0.186806  0.186806  0.813194  1
  Er  Er13  1  0.810724  0.810724  0.189276  1
  Er  Er14  1  0.938220  0.564125  0.563329  1
  Er  Er15  1  0.564125  0.938220  0.934325  1
  Cd  Cd16  1  0.580633  0.254084  0.582775  1
  Cd  Cd17  1  0.254084  0.580633  0.582511  1
  In  In18  1  0.582053  0.581885  0.582660  1
  In  In19  1  0.581885  0.582053  0.253401  1
  Ni  Ni20  1  0.140880  0.140206  0.146093  1
  Ni  Ni21  1  0.140206  0.140880  0.572822  1
  Ni  Ni22  1  0.138960  0.574966  0.143282  1
  Ni  Ni23  1  0.574966  0.138960  0.142793  1
