# generated using pymatgen
data_La2Dy13Tm5Bi12
_symmetry_space_group_name_H-M   'P 1'
_cell_length_a   8.29858266
_cell_length_b   9.55810905
_cell_length_c   12.16015700
_cell_angle_alpha   90.00447787
_cell_angle_beta   90.04587898
_cell_angle_gamma   90.00395276
_symmetry_Int_Tables_number   1
_chemical_formula_structural   La2Dy13Tm5Bi12
_chemical_formula_sum   'La2 Dy13 Tm5 Bi12'
_cell_volume   964.52823641
_cell_formula_units_Z   1
loop_
 _symmetry_equiv_pos_site_id
 _symmetry_equiv_pos_as_xyz
  1  'x, y, z'
loop_
 _atom_site_type_symbol
 _atom_site_label
 _atom_site_symmetry_multiplicity
 _atom_site_fract_x
 _atom_site_fract_y
 _atom_site_fract_z
 _atom_site_occupancy
  La  La0  1  0.183621  0.750069  0.721726  1
  La  La1  1  0.683859  0.750045  0.778407  1
  Dy  Dy2  1  0.813938  0.250124  0.281229  1
  Dy  Dy3  1  0.313813  0.250409  0.218309  1
  Dy  Dy4  1  0.807246  0.064088  0.559294  1
  Dy  Dy5  1  0.692711  0.936606  0.061249  1
  Dy  Dy6  1  0.193600  0.562961  0.438260  1
  Dy  Dy7  1  0.693736  0.562767  0.061698  1
  Dy  Dy8  1  0.193469  0.937116  0.438187  1
  Dy  Dy9  1  0.307318  0.063680  0.941161  1
  Dy  Dy10  1  0.807152  0.436166  0.559235  1
  Dy  Dy11  1  0.355073  0.750600  0.218031  1
  Dy  Dy12  1  0.854696  0.750243  0.281786  1
  Dy  Dy13  1  0.646192  0.250647  0.784826  1
  Dy  Dy14  1  0.147595  0.250736  0.715853  1
  Tm  Tm15  1  0.024331  0.750088  0.990604  1
  Tm  Tm16  1  0.524249  0.750233  0.509573  1
  Tm  Tm17  1  0.975952  0.250320  0.012846  1
  Tm  Tm18  1  0.475235  0.250124  0.487083  1
  Tm  Tm19  1  0.306865  0.433390  0.940936  1
  Bi  Bi20  1  0.434717  0.010367  0.669641  1
  Bi  Bi21  1  0.935213  0.490045  0.830651  1
  Bi  Bi22  1  0.566421  0.503471  0.327293  1
  Bi  Bi23  1  0.066617  0.996884  0.172493  1
  Bi  Bi24  1  0.566585  0.997008  0.327412  1
  Bi  Bi25  1  0.066532  0.503659  0.172382  1
  Bi  Bi26  1  0.434511  0.490081  0.669617  1
  Bi  Bi27  1  0.934792  0.010563  0.830590  1
  Bi  Bi28  1  0.404629  0.747040  0.963961  1
  Bi  Bi29  1  0.905757  0.750130  0.535526  1
  Bi  Bi30  1  0.591828  0.250364  0.041954  1
  Bi  Bi31  1  0.091751  0.249974  0.458188  1
