# generated using pymatgen
data_Y5C2Br9
_symmetry_space_group_name_H-M   'P 1'
_cell_length_a   10.39592300
_cell_length_b   12.03428422
_cell_length_c   16.61011300
_cell_angle_alpha   90.00000000
_cell_angle_beta   90.00000000
_cell_angle_gamma   105.77898262
_symmetry_Int_Tables_number   1
_chemical_formula_structural   Y5C2Br9
_chemical_formula_sum   'Y20 C8 Br36'
_cell_volume   1999.74411584
_cell_formula_units_Z   4
loop_
 _symmetry_equiv_pos_site_id
 _symmetry_equiv_pos_as_xyz
  1  'x, y, z'
loop_
 _atom_site_type_symbol
 _atom_site_label
 _atom_site_symmetry_multiplicity
 _atom_site_fract_x
 _atom_site_fract_y
 _atom_site_fract_z
 _atom_site_occupancy
  Y  Y0  1  0.749968  0.764825  0.556408  1
  Y  Y1  1  0.458555  0.811500  0.440296  1
  Y  Y2  1  0.958555  0.311500  0.059704  1
  Y  Y3  1  0.541445  0.188500  0.559704  1
  Y  Y4  1  0.250032  0.235175  0.443592  1
  Y  Y5  1  0.373796  0.532836  0.537806  1
  Y  Y6  1  0.041445  0.688500  0.940296  1
  Y  Y7  1  0.750032  0.735175  0.056408  1
  Y  Y8  1  0.349369  0.555538  0.312754  1
  Y  Y9  1  0.150631  0.944462  0.812754  1
  Y  Y10  1  0.650631  0.444462  0.687246  1
  Y  Y11  1  0.849369  0.055538  0.187246  1
  Y  Y12  1  0.126204  0.967164  0.037806  1
  Y  Y13  1  0.626204  0.467164  0.462194  1
  Y  Y14  1  0.873796  0.032836  0.962194  1
  Y  Y15  1  0.289267  0.278564  0.661050  1
  Y  Y16  1  0.210733  0.221436  0.161050  1
  Y  Y17  1  0.710733  0.721436  0.338950  1
  Y  Y18  1  0.249968  0.264825  0.943592  1
  Y  Y19  1  0.789267  0.778564  0.838950  1
  C  C20  1  0.404417  0.330410  0.530220  1
  C  C21  1  0.495179  0.619975  0.411375  1
  C  C22  1  0.995179  0.119975  0.088625  1
  C  C23  1  0.504821  0.380025  0.588625  1
  C  C24  1  0.904417  0.830410  0.969780  1
  C  C25  1  0.595583  0.669590  0.469780  1
  C  C26  1  0.095583  0.169590  0.030220  1
  C  C27  1  0.004821  0.880025  0.911375  1
  Br  Br28  1  0.136706  0.459394  0.942250  1
  Br  Br29  1  0.757890  0.250755  0.181791  1
  Br  Br30  1  0.257890  0.750755  0.318209  1
  Br  Br31  1  0.242110  0.749245  0.818209  1
  Br  Br32  1  0.592335  0.671185  0.701742  1
  Br  Br33  1  0.907665  0.828815  0.201742  1
  Br  Br34  1  0.407665  0.328815  0.298258  1
  Br  Br35  1  0.092335  0.171185  0.798258  1
  Br  Br36  1  0.449844  0.358585  0.807316  1
  Br  Br37  1  0.050156  0.141415  0.307316  1
  Br  Br38  1  0.550156  0.641415  0.192684  1
  Br  Br39  1  0.949844  0.858585  0.692684  1
  Br  Br40  1  0.691967  0.967892  0.829387  1
  Br  Br41  1  0.808033  0.532108  0.329387  1
  Br  Br42  1  0.308033  0.032108  0.170613  1
  Br  Br43  1  0.191967  0.467892  0.670613  1
  Br  Br44  1  0.223131  0.767753  0.060431  1
  Br  Br45  1  0.276869  0.732247  0.560431  1
  Br  Br46  1  0.776869  0.232247  0.939569  1
  Br  Br47  1  0.723131  0.267753  0.439569  1
  Br  Br48  1  0.742110  0.249245  0.681791  1
  Br  Br49  1  0.932916  0.845973  0.434658  1
  Br  Br50  1  0.432916  0.345973  0.065342  1
  Br  Br51  1  0.067084  0.154027  0.565342  1
  Br  Br52  1  0.858963  0.563542  0.817486  1
  Br  Br53  1  0.641037  0.936458  0.317486  1
  Br  Br54  1  0.141037  0.436458  0.182514  1
  Br  Br55  1  0.358963  0.063542  0.682514  1
  Br  Br56  1  0.363294  0.040606  0.442250  1
  Br  Br57  1  0.863294  0.540606  0.057750  1
  Br  Br58  1  0.636706  0.959394  0.557750  1
  Br  Br59  1  0.348039  0.061484  0.928400  1
  Br  Br60  1  0.151961  0.438516  0.428400  1
  Br  Br61  1  0.651961  0.938516  0.071600  1
  Br  Br62  1  0.848039  0.561484  0.571600  1
  Br  Br63  1  0.567084  0.654027  0.934658  1
