# generated using pymatgen
data_Co3AsS7
_symmetry_space_group_name_H-M   'P 1'
_cell_length_a   5.52193944
_cell_length_b   5.52193897
_cell_length_c   5.52194047
_cell_angle_alpha   90.55432435
_cell_angle_beta   90.55431229
_cell_angle_gamma   90.55431699
_symmetry_Int_Tables_number   1
_chemical_formula_structural   Co3AsS7
_chemical_formula_sum   'Co3 As1 S7'
_cell_volume   168.35018114
_cell_formula_units_Z   1
loop_
 _symmetry_equiv_pos_site_id
 _symmetry_equiv_pos_as_xyz
  1  'x, y, z'
loop_
 _atom_site_type_symbol
 _atom_site_label
 _atom_site_symmetry_multiplicity
 _atom_site_fract_x
 _atom_site_fract_y
 _atom_site_fract_z
 _atom_site_occupancy
  Co  Co0  1  0.006447  0.497937  0.496789  1
  Co  Co1  1  0.496789  0.006447  0.497937  1
  Co  Co2  1  0.497937  0.496789  0.006447  1
  As  As3  1  0.620963  0.620963  0.620963  1
  S  S4  1  0.399681  0.882451  0.113860  1
  S  S5  1  0.113860  0.399681  0.882451  1
  S  S6  1  0.882451  0.113860  0.399681  1
  S  S7  1  0.598142  0.117105  0.886766  1
  S  S8  1  0.886766  0.598142  0.117105  1
  S  S9  1  0.117105  0.886766  0.598142  1
  S  S10  1  0.379859  0.379859  0.379859  1
