# generated using pymatgen
data_Y3HoMg2Ir3
_symmetry_space_group_name_H-M   'P 1'
_cell_length_a   7.43662000
_cell_length_b   7.44072165
_cell_length_c   4.11507800
_cell_angle_alpha   90.00000000
_cell_angle_beta   90.00000000
_cell_angle_gamma   119.98177559
_symmetry_Int_Tables_number   1
_chemical_formula_structural   Y3HoMg2Ir3
_chemical_formula_sum   'Y3 Ho1 Mg2 Ir3'
_cell_volume   197.23277118
_cell_formula_units_Z   1
loop_
 _symmetry_equiv_pos_site_id
 _symmetry_equiv_pos_as_xyz
  1  'x, y, z'
loop_
 _atom_site_type_symbol
 _atom_site_label
 _atom_site_symmetry_multiplicity
 _atom_site_fract_x
 _atom_site_fract_y
 _atom_site_fract_z
 _atom_site_occupancy
  Y  Y0  1  0.391096  0.000000  0.499999  1
  Y  Y1  1  0.015104  0.429619  0.499999  1
  Y  Y2  1  0.585484  0.570381  0.499999  1
  Ho  Ho3  1  0.751044  0.000000  0.000000  1
  Mg  Mg4  1  0.248615  0.249448  0.000000  1
  Mg  Mg5  1  0.999168  0.750553  0.000000  1
  Ir  Ir6  1  0.670136  0.332346  0.000000  1
  Ir  Ir7  1  0.337789  0.667653  0.000000  1
  Ir  Ir8  1  0.001564  0.000000  0.499999  1
