# generated using pymatgen
data_Pr5LuU4O19
_symmetry_space_group_name_H-M   'P 1'
_cell_length_a   6.75994532
_cell_length_b   7.73801838
_cell_length_c   8.68279972
_cell_angle_alpha   100.88164281
_cell_angle_beta   97.16946054
_cell_angle_gamma   107.28375961
_symmetry_Int_Tables_number   1
_chemical_formula_structural   Pr5LuU4O19
_chemical_formula_sum   'Pr5 Lu1 U4 O19'
_cell_volume   417.87847010
_cell_formula_units_Z   1
loop_
 _symmetry_equiv_pos_site_id
 _symmetry_equiv_pos_as_xyz
  1  'x, y, z'
loop_
 _atom_site_type_symbol
 _atom_site_label
 _atom_site_symmetry_multiplicity
 _atom_site_fract_x
 _atom_site_fract_y
 _atom_site_fract_z
 _atom_site_occupancy
  Pr  Pr0  1  0.801891  0.099608  0.603160  1
  Pr  Pr1  1  0.398565  0.298647  0.797570  1
  Pr  Pr2  1  0.606876  0.702723  0.211517  1
  Pr  Pr3  1  0.994887  0.498371  0.985230  1
  Pr  Pr4  1  0.194829  0.907573  0.389791  1
  Lu  Lu5  1  0.768521  0.598279  0.600898  1
  U  U6  1  0.605982  0.205481  0.198110  1
  U  U7  1  0.999474  0.004338  0.997086  1
  U  U8  1  0.408359  0.805754  0.813885  1
  U  U9  1  0.198898  0.390523  0.392153  1
  O  O10  1  0.344679  0.060057  0.956456  1
  O  O11  1  0.426126  0.981644  0.650953  1
  O  O12  1  0.043883  0.209249  0.860479  1
  O  O13  1  0.734900  0.380359  0.739909  1
  O  O14  1  0.158165  0.189044  0.536245  1
  O  O15  1  0.363943  0.594659  0.949711  1
  O  O16  1  0.949239  0.265587  0.158499  1
  O  O17  1  0.910156  0.394523  0.457449  1
  O  O18  1  0.750252  0.861567  0.772563  1
  O  O19  1  0.539299  0.443920  0.360802  1
  O  O20  1  0.409266  0.559833  0.630067  1
  O  O21  1  0.244403  0.128486  0.230174  1
  O  O22  1  0.075119  0.721514  0.796220  1
  O  O23  1  0.645166  0.409093  0.064969  1
  O  O24  1  0.858213  0.808522  0.458909  1
  O  O25  1  0.249095  0.618222  0.278564  1
  O  O26  1  0.954048  0.786603  0.119767  1
  O  O27  1  0.571520  0.013459  0.344997  1
  O  O28  1  0.658162  0.950001  0.052104  1
