# generated using pymatgen
data_CeSm2TeAs2
_symmetry_space_group_name_H-M   'P 1'
_cell_length_a   4.29523200
_cell_length_b   10.71679442
_cell_length_c   7.40757100
_cell_angle_alpha   89.90932045
_cell_angle_beta   90.00000000
_cell_angle_gamma   90.00000000
_symmetry_Int_Tables_number   1
_chemical_formula_structural   CeSm2TeAs2
_chemical_formula_sum   'Ce2 Sm4 Te2 As4'
_cell_volume   340.97835025
_cell_formula_units_Z   2
loop_
 _symmetry_equiv_pos_site_id
 _symmetry_equiv_pos_as_xyz
  1  'x, y, z'
loop_
 _atom_site_type_symbol
 _atom_site_label
 _atom_site_symmetry_multiplicity
 _atom_site_fract_x
 _atom_site_fract_y
 _atom_site_fract_z
 _atom_site_occupancy
  Ce  Ce0  1  0.250000  0.500381  0.249188  1
  Ce  Ce1  1  0.750000  0.499619  0.750812  1
  Sm  Sm2  1  0.250000  0.810680  0.917078  1
  Sm  Sm3  1  0.750000  0.189320  0.082922  1
  Sm  Sm4  1  0.750000  0.808117  0.418038  1
  Sm  Sm5  1  0.250000  0.191883  0.581962  1
  Te  Te6  1  0.750000  0.000744  0.748110  1
  Te  Te7  1  0.250000  0.999256  0.251890  1
  As  As8  1  0.250000  0.661222  0.585188  1
  As  As9  1  0.750000  0.338778  0.414812  1
  As  As10  1  0.750000  0.662871  0.083226  1
  As  As11  1  0.250000  0.337129  0.916774  1
