# generated using pymatgen
data_Tb3YbGa18(Ir2Pd)2
_symmetry_space_group_name_H-M   'P 1'
_cell_length_a   7.63158203
_cell_length_b   7.62524602
_cell_length_c   9.52366800
_cell_angle_alpha   90.00000000
_cell_angle_beta   90.00000000
_cell_angle_gamma   119.77719832
_symmetry_Int_Tables_number   1
_chemical_formula_structural   Tb3YbGa18(Ir2Pd)2
_chemical_formula_sum   'Tb3 Yb1 Ga18 Ir4 Pd2'
_cell_volume   481.03201059
_cell_formula_units_Z   1
loop_
 _symmetry_equiv_pos_site_id
 _symmetry_equiv_pos_as_xyz
  1  'x, y, z'
loop_
 _atom_site_type_symbol
 _atom_site_label
 _atom_site_symmetry_multiplicity
 _atom_site_fract_x
 _atom_site_fract_y
 _atom_site_fract_z
 _atom_site_occupancy
  Tb  Tb0  1  0.003058  0.330887  0.750000  1
  Tb  Tb1  1  0.669073  0.996723  0.250000  1
  Tb  Tb2  1  0.329864  0.002463  0.750000  1
  Yb  Yb3  1  0.996991  0.669288  0.250000  1
  Ga  Ga4  1  0.128726  0.128146  0.250000  1
  Ga  Ga5  1  0.871314  0.871173  0.750000  1
  Ga  Ga6  1  0.999435  0.339049  0.081357  1
  Ga  Ga7  1  0.000476  0.662612  0.920355  1
  Ga  Ga8  1  0.000476  0.662612  0.579645  1
  Ga  Ga9  1  0.335978  0.998211  0.418617  1
  Ga  Ga10  1  0.999435  0.339049  0.418643  1
  Ga  Ga11  1  0.662683  0.000626  0.581039  1
  Ga  Ga12  1  0.662683  0.000626  0.918961  1
  Ga  Ga13  1  0.335978  0.998211  0.081383  1
  Ga  Ga14  1  0.335527  0.335454  0.566565  1
  Ga  Ga15  1  0.665522  0.664086  0.433141  1
  Ga  Ga16  1  0.665522  0.664086  0.066859  1
  Ga  Ga17  1  0.335527  0.335454  0.933435  1
  Ga  Ga18  1  0.337037  0.547008  0.250000  1
  Ga  Ga19  1  0.663221  0.453848  0.750000  1
  Ga  Ga20  1  0.547594  0.338000  0.250000  1
  Ga  Ga21  1  0.453766  0.662976  0.750000  1
  Ir  Ir22  1  0.670806  0.327720  0.999369  1
  Ir  Ir23  1  0.329232  0.671544  0.999246  1
  Ir  Ir24  1  0.329232  0.671544  0.500754  1
  Ir  Ir25  1  0.670806  0.327720  0.500631  1
  Pd  Pd26  1  0.000018  0.000443  0.999638  1
  Pd  Pd27  1  0.000018  0.000443  0.500362  1
