# generated using pymatgen
data_NdMn2P2Rh
_symmetry_space_group_name_H-M   'P 1'
_cell_length_a   3.79064100
_cell_length_b   11.17879500
_cell_length_c   12.98781400
_cell_angle_alpha   90.00000000
_cell_angle_beta   90.00000000
_cell_angle_gamma   90.00000000
_symmetry_Int_Tables_number   1
_chemical_formula_structural   NdMn2P2Rh
_chemical_formula_sum   'Nd6 Mn12 P12 Rh6'
_cell_volume   550.35600325
_cell_formula_units_Z   6
loop_
 _symmetry_equiv_pos_site_id
 _symmetry_equiv_pos_as_xyz
  1  'x, y, z'
loop_
 _atom_site_type_symbol
 _atom_site_label
 _atom_site_symmetry_multiplicity
 _atom_site_fract_x
 _atom_site_fract_y
 _atom_site_fract_z
 _atom_site_occupancy
  Nd  Nd0  1  0.000000  0.500000  0.522659  1
  Nd  Nd1  1  0.500000  0.000000  0.477341  1
  Nd  Nd2  1  0.500000  0.820452  0.206781  1
  Nd  Nd3  1  0.500000  0.179548  0.206781  1
  Nd  Nd4  1  0.000000  0.679548  0.793219  1
  Nd  Nd5  1  0.000000  0.320452  0.793219  1
  Mn  Mn6  1  0.500000  0.500000  0.160129  1
  Mn  Mn7  1  0.000000  0.000000  0.839871  1
  Mn  Mn8  1  0.000000  0.500000  0.992517  1
  Mn  Mn9  1  0.500000  0.000000  0.007483  1
  Mn  Mn10  1  0.500000  0.333980  0.998733  1
  Mn  Mn11  1  0.500000  0.666020  0.998733  1
  Mn  Mn12  1  0.000000  0.166020  0.001267  1
  Mn  Mn13  1  0.000000  0.833980  0.001267  1
  Mn  Mn14  1  0.500000  0.293814  0.435264  1
  Mn  Mn15  1  0.500000  0.706186  0.435264  1
  Mn  Mn16  1  0.000000  0.206186  0.564736  1
  Mn  Mn17  1  0.000000  0.793814  0.564736  1
  P  P18  1  0.500000  0.500000  0.889402  1
  P  P19  1  0.000000  0.000000  0.110598  1
  P  P20  1  0.500000  0.500000  0.350172  1
  P  P21  1  0.000000  0.000000  0.649828  1
  P  P22  1  0.500000  0.311715  0.613568  1
  P  P23  1  0.500000  0.688285  0.613568  1
  P  P24  1  0.000000  0.188285  0.386432  1
  P  P25  1  0.000000  0.811715  0.386432  1
  P  P26  1  0.500000  0.843839  0.893941  1
  P  P27  1  0.500000  0.156161  0.893941  1
  P  P28  1  0.000000  0.656161  0.106059  1
  P  P29  1  0.000000  0.343839  0.106059  1
  Rh  Rh30  1  0.500000  0.500000  0.705016  1
  Rh  Rh31  1  0.000000  0.000000  0.294984  1
  Rh  Rh32  1  0.500000  0.876717  0.705741  1
  Rh  Rh33  1  0.500000  0.123283  0.705741  1
  Rh  Rh34  1  0.000000  0.623283  0.294259  1
  Rh  Rh35  1  0.000000  0.376717  0.294259  1
