# generated using pymatgen
data_K3Rb5Ba4(ZrBi4)2
_symmetry_space_group_name_H-M   'P 1'
_cell_length_a   11.57078381
_cell_length_b   11.57078334
_cell_length_c   8.84204108
_cell_angle_alpha   88.35320745
_cell_angle_beta   88.35320329
_cell_angle_gamma   60.40018795
_symmetry_Int_Tables_number   1
_chemical_formula_structural   K3Rb5Ba4(ZrBi4)2
_chemical_formula_sum   'K3 Rb5 Ba4 Zr2 Bi8'
_cell_volume   1028.74020741
_cell_formula_units_Z   1
loop_
 _symmetry_equiv_pos_site_id
 _symmetry_equiv_pos_as_xyz
  1  'x, y, z'
loop_
 _atom_site_type_symbol
 _atom_site_label
 _atom_site_symmetry_multiplicity
 _atom_site_fract_x
 _atom_site_fract_y
 _atom_site_fract_z
 _atom_site_occupancy
  K  K0  1  0.279438  0.863912  0.695970  1
  K  K1  1  0.863912  0.279438  0.695970  1
  K  K2  1  0.854838  0.854838  0.657155  1
  Rb  Rb3  1  0.944300  0.527229  0.372193  1
  Rb  Rb4  1  0.527229  0.944300  0.372193  1
  Rb  Rb5  1  0.724853  0.130519  0.187404  1
  Rb  Rb6  1  0.130519  0.724853  0.187404  1
  Rb  Rb7  1  0.140093  0.140093  0.210655  1
  Ba  Ba8  1  0.527661  0.527661  0.369524  1
  Ba  Ba9  1  0.053287  0.477308  0.881082  1
  Ba  Ba10  1  0.477308  0.053287  0.881082  1
  Ba  Ba11  1  0.477310  0.477310  0.871328  1
  Zr  Zr12  1  0.334935  0.334935  0.492183  1
  Zr  Zr13  1  0.664918  0.664918  0.974944  1
  Bi  Bi14  1  0.391709  0.800777  0.086509  1
  Bi  Bi15  1  0.800777  0.391709  0.086509  1
  Bi  Bi16  1  0.804807  0.804807  0.050019  1
  Bi  Bi17  1  0.607302  0.204575  0.600652  1
  Bi  Bi18  1  0.204575  0.607302  0.600652  1
  Bi  Bi19  1  0.200146  0.200146  0.622393  1
  Bi  Bi20  1  0.337158  0.337158  0.156738  1
  Bi  Bi21  1  0.653538  0.653538  0.650260  1
