# generated using pymatgen
data_Er11TmTlCo5
_symmetry_space_group_name_H-M   'P 1'
_cell_length_a   8.18626199
_cell_length_b   8.18493059
_cell_length_c   8.18319700
_cell_angle_alpha   110.78180600
_cell_angle_beta   110.94166311
_cell_angle_gamma   106.73386114
_symmetry_Int_Tables_number   1
_chemical_formula_structural   Er11TmTlCo5
_chemical_formula_sum   'Er11 Tm1 Tl1 Co5'
_cell_volume   421.31736706
_cell_formula_units_Z   1
loop_
 _symmetry_equiv_pos_site_id
 _symmetry_equiv_pos_as_xyz
  1  'x, y, z'
loop_
 _atom_site_type_symbol
 _atom_site_label
 _atom_site_symmetry_multiplicity
 _atom_site_fract_x
 _atom_site_fract_y
 _atom_site_fract_z
 _atom_site_occupancy
  Er  Er0  1  0.710489  0.814769  0.525310  1
  Er  Er1  1  0.289308  0.815108  0.104391  1
  Er  Er2  1  0.710322  0.185255  0.895611  1
  Er  Er3  1  0.620322  0.314502  0.305910  1
  Er  Er4  1  0.379575  0.684863  0.694100  1
  Er  Er5  1  0.008937  0.314361  0.693926  1
  Er  Er6  1  0.991174  0.685538  0.305783  1
  Er  Er7  1  0.210910  0.402810  0.192123  1
  Er  Er8  1  0.788486  0.596218  0.807545  1
  Er  Er9  1  0.211251  0.019057  0.807557  1
  Er  Er10  1  0.789389  0.981258  0.192217  1
  Tm  Tm11  1  0.289158  0.184982  0.473971  1
  Tl  Tl12  1  0.500097  0.500114  0.000351  1
  Co  Co13  1  0.000409  0.376379  0.376755  1
  Co  Co14  1  0.999963  0.623692  0.623670  1
  Co  Co15  1  0.387216  0.887977  0.500283  1
  Co  Co16  1  0.612560  0.113397  0.500313  1
  Co  Co17  1  0.000433  0.999722  0.000185  1
