# generated using pymatgen
data_Tb3In3GeIrPt
_symmetry_space_group_name_H-M   'P 1'
_cell_length_a   7.50095000
_cell_length_b   7.50095028
_cell_length_c   4.12427900
_cell_angle_alpha   90.00000000
_cell_angle_beta   90.00000000
_cell_angle_gamma   120.00000758
_symmetry_Int_Tables_number   1
_chemical_formula_structural   Tb3In3GeIrPt
_chemical_formula_sum   'Tb3 In3 Ge1 Ir1 Pt1'
_cell_volume   200.96072680
_cell_formula_units_Z   1
loop_
 _symmetry_equiv_pos_site_id
 _symmetry_equiv_pos_as_xyz
  1  'x, y, z'
loop_
 _atom_site_type_symbol
 _atom_site_label
 _atom_site_symmetry_multiplicity
 _atom_site_fract_x
 _atom_site_fract_y
 _atom_site_fract_z
 _atom_site_occupancy
  Tb  Tb0  1  0.415685  0.403045  0.000000  1
  Tb  Tb1  1  0.596955  0.012639  0.000000  1
  Tb  Tb2  1  0.987361  0.584315  0.000000  1
  In  In3  1  0.989809  0.249231  0.500000  1
  In  In4  1  0.750769  0.740578  0.500000  1
  In  In5  1  0.259422  0.010191  0.500000  1
  Ge  Ge6  1  0.333333  0.666667  0.500000  1
  Ir  Ir7  1  0.666667  0.333333  0.500000  1
  Pt  Pt8  1  0.000000  0.000000  0.000000  1
