# generated using pymatgen
data_Lu2Ga2CoPd
_symmetry_space_group_name_H-M   'P 1'
_cell_length_a   4.33365500
_cell_length_b   6.88632171
_cell_length_c   7.25655279
_cell_angle_alpha   88.49995188
_cell_angle_beta   90.00000000
_cell_angle_gamma   90.00000000
_symmetry_Int_Tables_number   1
_chemical_formula_structural   Lu2Ga2CoPd
_chemical_formula_sum   'Lu4 Ga4 Co2 Pd2'
_cell_volume   216.48267438
_cell_formula_units_Z   2
loop_
 _symmetry_equiv_pos_site_id
 _symmetry_equiv_pos_as_xyz
  1  'x, y, z'
loop_
 _atom_site_type_symbol
 _atom_site_label
 _atom_site_symmetry_multiplicity
 _atom_site_fract_x
 _atom_site_fract_y
 _atom_site_fract_z
 _atom_site_occupancy
  Lu  Lu0  1  0.250000  0.500978  0.203042  1
  Lu  Lu1  1  0.750000  0.499022  0.796958  1
  Lu  Lu2  1  0.750000  0.017634  0.687507  1
  Lu  Lu3  1  0.250000  0.982366  0.312493  1
  Ga  Ga4  1  0.250000  0.787025  0.871413  1
  Ga  Ga5  1  0.750000  0.212975  0.128587  1
  Ga  Ga6  1  0.750000  0.698883  0.411806  1
  Ga  Ga7  1  0.250000  0.301117  0.588194  1
  Co  Co8  1  0.250000  0.658351  0.560402  1
  Co  Co9  1  0.750000  0.341649  0.439598  1
  Pd  Pd10  1  0.750000  0.833174  0.065594  1
  Pd  Pd11  1  0.250000  0.166826  0.934406  1
