# generated using pymatgen
data_Hf12ZnSi3(Pt2N)4
_symmetry_space_group_name_H-M   'P 1'
_cell_length_a   8.50702813
_cell_length_b   8.50703578
_cell_length_c   8.52622276
_cell_angle_alpha   60.06698275
_cell_angle_beta   60.06693460
_cell_angle_gamma   59.99947655
_symmetry_Int_Tables_number   1
_chemical_formula_structural   Hf12ZnSi3(Pt2N)4
_chemical_formula_sum   'Hf12 Zn1 Si3 Pt8 N4'
_cell_volume   436.75198189
_cell_formula_units_Z   1
loop_
 _symmetry_equiv_pos_site_id
 _symmetry_equiv_pos_as_xyz
  1  'x, y, z'
loop_
 _atom_site_type_symbol
 _atom_site_label
 _atom_site_symmetry_multiplicity
 _atom_site_fract_x
 _atom_site_fract_y
 _atom_site_fract_z
 _atom_site_occupancy
  Hf  Hf0  1  0.809863  0.191380  0.188900  1
  Hf  Hf1  1  0.191382  0.809860  0.188901  1
  Hf  Hf2  1  0.809861  0.809860  0.188918  1
  Hf  Hf3  1  0.190599  0.809142  0.809663  1
  Hf  Hf4  1  0.809142  0.190600  0.809660  1
  Hf  Hf5  1  0.190592  0.190591  0.809684  1
  Hf  Hf6  1  0.440137  0.058620  0.061100  1
  Hf  Hf7  1  0.058618  0.440140  0.061099  1
  Hf  Hf8  1  0.440139  0.440140  0.061082  1
  Hf  Hf9  1  0.059401  0.440858  0.440337  1
  Hf  Hf10  1  0.440858  0.059400  0.440340  1
  Hf  Hf11  1  0.059408  0.059409  0.440316  1
  Zn  Zn12  1  0.625000  0.625000  0.125000  1
  Si  Si13  1  0.625000  0.625000  0.625000  1
  Si  Si14  1  0.125000  0.625000  0.625000  1
  Si  Si15  1  0.625000  0.125000  0.625000  1
  Pt  Pt16  1  0.410393  0.410390  0.768852  1
  Pt  Pt17  1  0.407939  0.407936  0.415173  1
  Pt  Pt18  1  0.768965  0.407927  0.415167  1
  Pt  Pt19  1  0.407930  0.768966  0.415165  1
  Pt  Pt20  1  0.839607  0.839610  0.481148  1
  Pt  Pt21  1  0.842061  0.842064  0.834827  1
  Pt  Pt22  1  0.481035  0.842073  0.834833  1
  Pt  Pt23  1  0.842070  0.481034  0.834835  1
  N  N24  1  0.125000  0.125000  0.625000  1
  N  N25  1  0.125000  0.125000  0.125000  1
  N  N26  1  0.625000  0.125000  0.125000  1
  N  N27  1  0.125000  0.625000  0.125000  1
