# generated using pymatgen
data_Ac3Yb3Ho4(Ni2Sn5)4
_symmetry_space_group_name_H-M   'P 1'
_cell_length_a   14.03190540
_cell_length_b   14.03190540
_cell_length_c   4.53052600
_cell_angle_alpha   90.00000000
_cell_angle_beta   90.00000000
_cell_angle_gamma   90.05112229
_symmetry_Int_Tables_number   1
_chemical_formula_structural   Ac3Yb3Ho4(Ni2Sn5)4
_chemical_formula_sum   'Ac3 Yb3 Ho4 Ni8 Sn20'
_cell_volume   892.03470317
_cell_formula_units_Z   1
loop_
 _symmetry_equiv_pos_site_id
 _symmetry_equiv_pos_as_xyz
  1  'x, y, z'
loop_
 _atom_site_type_symbol
 _atom_site_label
 _atom_site_symmetry_multiplicity
 _atom_site_fract_x
 _atom_site_fract_y
 _atom_site_fract_z
 _atom_site_occupancy
  Ac  Ac0  1  0.889986  0.609450  0.500000  1
  Ac  Ac1  1  0.109450  0.389986  0.500000  1
  Ac  Ac2  1  0.392922  0.892922  0.500000  1
  Yb  Yb3  1  0.998961  0.000117  0.000000  1
  Yb  Yb4  1  0.500117  0.498961  0.000000  1
  Yb  Yb5  1  0.608070  0.108070  0.500000  1
  Ho  Ho6  1  0.180858  0.680858  0.500000  1
  Ho  Ho7  1  0.817569  0.317569  0.500000  1
  Ho  Ho8  1  0.680381  0.821322  0.500000  1
  Ho  Ho9  1  0.321322  0.180381  0.500000  1
  Ni  Ni10  1  0.256672  0.535693  0.000000  1
  Ni  Ni11  1  0.742204  0.463135  0.000000  1
  Ni  Ni12  1  0.757723  0.963882  0.000000  1
  Ni  Ni13  1  0.245621  0.035947  0.000000  1
  Ni  Ni14  1  0.463882  0.257723  0.000000  1
  Ni  Ni15  1  0.535947  0.745621  0.000000  1
  Ni  Ni16  1  0.035693  0.756672  0.000000  1
  Ni  Ni17  1  0.963135  0.242204  0.000000  1
  Sn  Sn18  1  0.352181  0.698428  0.000000  1
  Sn  Sn19  1  0.646399  0.298270  0.000000  1
  Sn  Sn20  1  0.852039  0.802460  0.000000  1
  Sn  Sn21  1  0.147897  0.197156  0.000000  1
  Sn  Sn22  1  0.302460  0.352039  0.000000  1
  Sn  Sn23  1  0.697156  0.647897  0.000000  1
  Sn  Sn24  1  0.198428  0.852181  0.000000  1
  Sn  Sn25  1  0.798270  0.146399  0.000000  1
  Sn  Sn26  1  0.340100  0.514893  0.500000  1
  Sn  Sn27  1  0.659528  0.483462  0.500000  1
  Sn  Sn28  1  0.838129  0.986585  0.500000  1
  Sn  Sn29  1  0.160684  0.015958  0.500000  1
  Sn  Sn30  1  0.486585  0.338129  0.500000  1
  Sn  Sn31  1  0.515958  0.660684  0.500000  1
  Sn  Sn32  1  0.014893  0.840100  0.500000  1
  Sn  Sn33  1  0.983462  0.159528  0.500000  1
  Sn  Sn34  1  0.074090  0.574090  0.000000  1
  Sn  Sn35  1  0.925037  0.425037  0.000000  1
  Sn  Sn36  1  0.576197  0.929995  0.000000  1
  Sn  Sn37  1  0.429995  0.076197  0.000000  1
