# generated using pymatgen
data_PrNd4(In2Pd)2
_symmetry_space_group_name_H-M   'P 1'
_cell_length_a   3.79981900
_cell_length_b   8.30789300
_cell_length_c   18.83037400
_cell_angle_alpha   90.00000000
_cell_angle_beta   90.00000000
_cell_angle_gamma   90.00000000
_symmetry_Int_Tables_number   1
_chemical_formula_structural   PrNd4(In2Pd)2
_chemical_formula_sum   'Pr2 Nd8 In8 Pd4'
_cell_volume   594.44646713
_cell_formula_units_Z   2
loop_
 _symmetry_equiv_pos_site_id
 _symmetry_equiv_pos_as_xyz
  1  'x, y, z'
loop_
 _atom_site_type_symbol
 _atom_site_label
 _atom_site_symmetry_multiplicity
 _atom_site_fract_x
 _atom_site_fract_y
 _atom_site_fract_z
 _atom_site_occupancy
  Pr  Pr0  1  0.000000  0.500000  0.500000  1
  Pr  Pr1  1  0.000000  0.000000  0.000000  1
  Nd  Nd2  1  0.000000  0.739749  0.281728  1
  Nd  Nd3  1  0.000000  0.260251  0.718272  1
  Nd  Nd4  1  0.000000  0.760251  0.781728  1
  Nd  Nd5  1  0.000000  0.239749  0.218272  1
  Nd  Nd6  1  0.000000  0.621590  0.083872  1
  Nd  Nd7  1  0.000000  0.378410  0.916128  1
  Nd  Nd8  1  0.000000  0.878410  0.583872  1
  Nd  Nd9  1  0.000000  0.121590  0.416128  1
  In  In10  1  0.500000  0.705050  0.931122  1
  In  In11  1  0.500000  0.294950  0.068878  1
  In  In12  1  0.500000  0.794950  0.431122  1
  In  In13  1  0.500000  0.205050  0.568878  1
  In  In14  1  0.500000  0.578856  0.652721  1
  In  In15  1  0.500000  0.421144  0.347279  1
  In  In16  1  0.500000  0.921144  0.152721  1
  In  In17  1  0.500000  0.078856  0.847279  1
  Pd  Pd18  1  0.500000  0.522660  0.195940  1
  Pd  Pd19  1  0.500000  0.477340  0.804060  1
  Pd  Pd20  1  0.500000  0.977340  0.695940  1
  Pd  Pd21  1  0.500000  0.022660  0.304060  1
