# generated using pymatgen
data_TbY3ReB12Ru
_symmetry_space_group_name_H-M   'P 1'
_cell_length_a   3.67903700
_cell_length_b   9.17923121
_cell_length_c   11.57617101
_cell_angle_alpha   89.79898883
_cell_angle_beta   90.00000000
_cell_angle_gamma   90.00000000
_symmetry_Int_Tables_number   1
_chemical_formula_structural   TbY3ReB12Ru
_chemical_formula_sum   'Tb2 Y6 Re2 B24 Ru2'
_cell_volume   390.93335392
_cell_formula_units_Z   2
loop_
 _symmetry_equiv_pos_site_id
 _symmetry_equiv_pos_as_xyz
  1  'x, y, z'
loop_
 _atom_site_type_symbol
 _atom_site_label
 _atom_site_symmetry_multiplicity
 _atom_site_fract_x
 _atom_site_fract_y
 _atom_site_fract_z
 _atom_site_occupancy
  Tb  Tb0  1  0.000000  0.325195  0.415274  1
  Tb  Tb1  1  0.000000  0.674805  0.584726  1
  Y  Y2  1  0.000000  0.821417  0.087831  1
  Y  Y3  1  0.000000  0.178583  0.912169  1
  Y  Y4  1  0.000000  0.943092  0.370857  1
  Y  Y5  1  0.000000  0.056908  0.629143  1
  Y  Y6  1  0.000000  0.442860  0.129012  1
  Y  Y7  1  0.000000  0.557140  0.870988  1
  Re  Re8  1  0.000000  0.638467  0.320385  1
  Re  Re9  1  0.000000  0.361533  0.679615  1
  B  B10  1  0.500000  0.553234  0.432653  1
  B  B11  1  0.500000  0.446766  0.567347  1
  B  B12  1  0.500000  0.053614  0.067047  1
  B  B13  1  0.500000  0.946386  0.932953  1
  B  B14  1  0.500000  0.748318  0.418827  1
  B  B15  1  0.500000  0.251682  0.581173  1
  B  B16  1  0.500000  0.247829  0.081060  1
  B  B17  1  0.500000  0.752171  0.918940  1
  B  B18  1  0.500000  0.791602  0.265573  1
  B  B19  1  0.500000  0.208398  0.734427  1
  B  B20  1  0.500000  0.290334  0.233656  1
  B  B21  1  0.500000  0.709666  0.766344  1
  B  B22  1  0.500000  0.631500  0.185341  1
  B  B23  1  0.500000  0.368500  0.814659  1
  B  B24  1  0.500000  0.131082  0.313488  1
  B  B25  1  0.500000  0.868918  0.686512  1
  B  B26  1  0.500000  0.983428  0.211777  1
  B  B27  1  0.500000  0.016572  0.788223  1
  B  B28  1  0.500000  0.483062  0.287422  1
  B  B29  1  0.500000  0.516938  0.712578  1
  B  B30  1  0.500000  0.604811  0.028903  1
  B  B31  1  0.500000  0.395189  0.971097  1
  B  B32  1  0.500000  0.103480  0.470977  1
  B  B33  1  0.500000  0.896520  0.529023  1
  Ru  Ru34  1  0.000000  0.137731  0.178265  1
  Ru  Ru35  1  0.000000  0.862269  0.821735  1
