# generated using pymatgen
data_CsTb(NbBr3)6
_symmetry_space_group_name_H-M   'P 1'
_cell_length_a   10.83955742
_cell_length_b   10.83955680
_cell_length_c   10.83955709
_cell_angle_alpha   55.50689381
_cell_angle_beta   55.50688999
_cell_angle_gamma   55.50689606
_symmetry_Int_Tables_number   1
_chemical_formula_structural   CsTb(NbBr3)6
_chemical_formula_sum   'Cs1 Tb1 Nb6 Br18'
_cell_volume   806.62761834
_cell_formula_units_Z   1
loop_
 _symmetry_equiv_pos_site_id
 _symmetry_equiv_pos_as_xyz
  1  'x, y, z'
loop_
 _atom_site_type_symbol
 _atom_site_label
 _atom_site_symmetry_multiplicity
 _atom_site_fract_x
 _atom_site_fract_y
 _atom_site_fract_z
 _atom_site_occupancy
  Cs  Cs0  1  0.222755  0.222755  0.222755  1
  Tb  Tb1  1  0.498098  0.498098  0.498098  1
  Nb  Nb2  1  0.810551  0.142147  0.915469  1
  Nb  Nb3  1  0.915469  0.810551  0.142147  1
  Nb  Nb4  1  0.142147  0.915469  0.810551  1
  Nb  Nb5  1  0.190698  0.858349  0.083555  1
  Nb  Nb6  1  0.083555  0.190698  0.858349  1
  Nb  Nb7  1  0.858349  0.083555  0.190698  1
  Br  Br8  1  0.867206  0.408750  0.726034  1
  Br  Br9  1  0.726034  0.867206  0.408750  1
  Br  Br10  1  0.408750  0.726034  0.867206  1
  Br  Br11  1  0.131372  0.592176  0.277275  1
  Br  Br12  1  0.277275  0.131372  0.592176  1
  Br  Br13  1  0.592176  0.277275  0.131372  1
  Br  Br14  1  0.539756  0.340186  0.799331  1
  Br  Br15  1  0.799331  0.539756  0.340186  1
  Br  Br16  1  0.340186  0.799331  0.539756  1
  Br  Br17  1  0.460515  0.662628  0.199017  1
  Br  Br18  1  0.199017  0.460515  0.662628  1
  Br  Br19  1  0.662628  0.199017  0.460515  1
  Br  Br20  1  0.665835  0.939284  0.068249  1
  Br  Br21  1  0.068249  0.665835  0.939284  1
  Br  Br22  1  0.939284  0.068249  0.665835  1
  Br  Br23  1  0.340487  0.057912  0.923506  1
  Br  Br24  1  0.923506  0.340487  0.057912  1
  Br  Br25  1  0.057912  0.923506  0.340487  1
