# generated using pymatgen
data_Na2Ti(CuSe2)2
_symmetry_space_group_name_H-M   'P 1'
_cell_length_a   5.64503200
_cell_length_b   5.64503200
_cell_length_c   12.93660400
_cell_angle_alpha   90.00000000
_cell_angle_beta   90.00000000
_cell_angle_gamma   90.00000000
_symmetry_Int_Tables_number   1
_chemical_formula_structural   Na2Ti(CuSe2)2
_chemical_formula_sum   'Na4 Ti2 Cu4 Se8'
_cell_volume   412.24282023
_cell_formula_units_Z   2
loop_
 _symmetry_equiv_pos_site_id
 _symmetry_equiv_pos_as_xyz
  1  'x, y, z'
loop_
 _atom_site_type_symbol
 _atom_site_label
 _atom_site_symmetry_multiplicity
 _atom_site_fract_x
 _atom_site_fract_y
 _atom_site_fract_z
 _atom_site_occupancy
  Na  Na0  1  0.243792  0.243792  0.000000  1
  Na  Na1  1  0.756208  0.756208  0.000000  1
  Na  Na2  1  0.756208  0.243792  0.500000  1
  Na  Na3  1  0.243792  0.756208  0.500000  1
  Ti  Ti4  1  0.000000  0.000000  0.250000  1
  Ti  Ti5  1  0.000000  0.000000  0.750000  1
  Cu  Cu6  1  0.000000  0.500000  0.250000  1
  Cu  Cu7  1  0.000000  0.500000  0.750000  1
  Cu  Cu8  1  0.500000  0.000000  0.750000  1
  Cu  Cu9  1  0.500000  0.000000  0.250000  1
  Se  Se10  1  0.245461  0.245461  0.360143  1
  Se  Se11  1  0.754539  0.754539  0.639857  1
  Se  Se12  1  0.754539  0.754539  0.360143  1
  Se  Se13  1  0.754539  0.245461  0.860143  1
  Se  Se14  1  0.754539  0.245461  0.139857  1
  Se  Se15  1  0.245461  0.245461  0.639857  1
  Se  Se16  1  0.245461  0.754539  0.139857  1
  Se  Se17  1  0.245461  0.754539  0.860143  1
