# generated using pymatgen
data_K2MnCrF7
_symmetry_space_group_name_H-M   'P 1'
_cell_length_a   7.83542018
_cell_length_b   7.83542033
_cell_length_c   7.83542017
_cell_angle_alpha   121.04836531
_cell_angle_beta   117.04208722
_cell_angle_gamma   91.69583729
_symmetry_Int_Tables_number   1
_chemical_formula_structural   K2MnCrF7
_chemical_formula_sum   'K4 Mn2 Cr2 F14'
_cell_volume   344.38805188
_cell_formula_units_Z   2
loop_
 _symmetry_equiv_pos_site_id
 _symmetry_equiv_pos_as_xyz
  1  'x, y, z'
loop_
 _atom_site_type_symbol
 _atom_site_label
 _atom_site_symmetry_multiplicity
 _atom_site_fract_x
 _atom_site_fract_y
 _atom_site_fract_z
 _atom_site_occupancy
  K  K0  1  0.500000  0.500000  0.000000  1
  K  K1  1  0.000000  0.000000  0.000000  1
  K  K2  1  0.000000  0.500000  0.000000  1
  K  K3  1  0.000000  0.000000  0.500000  1
  Mn  Mn4  1  0.500000  0.500000  0.500000  1
  Mn  Mn5  1  0.500000  0.000000  0.000000  1
  Cr  Cr6  1  0.000000  0.500000  0.500000  1
  Cr  Cr7  1  0.500000  0.000000  0.500000  1
  F  F8  1  0.875142  0.584477  0.290665  1
  F  F9  1  0.206188  0.915523  0.290665  1
  F  F10  1  0.184525  0.796470  0.753663  1
  F  F11  1  0.457192  0.703530  0.388055  1
  F  F12  1  0.457192  0.069137  0.753663  1
  F  F13  1  0.184525  0.430863  0.388055  1
  F  F14  1  0.815475  0.569137  0.611945  1
  F  F15  1  0.542808  0.930863  0.246337  1
  F  F16  1  0.542808  0.296470  0.611945  1
  F  F17  1  0.815475  0.203530  0.246337  1
  F  F18  1  0.390073  0.250000  0.140073  1
  F  F19  1  0.124858  0.415523  0.709335  1
  F  F20  1  0.793812  0.084477  0.709335  1
  F  F21  1  0.609927  0.750000  0.859927  1
