# generated using pymatgen
data_CaGd4ErSi4
_symmetry_space_group_name_H-M   'P 1'
_cell_length_a   7.52838600
_cell_length_b   7.52838600
_cell_length_c   4.29119100
_cell_angle_alpha   90.00000000
_cell_angle_beta   90.00000000
_cell_angle_gamma   90.00000000
_symmetry_Int_Tables_number   1
_chemical_formula_structural   CaGd4ErSi4
_chemical_formula_sum   'Ca1 Gd4 Er1 Si4'
_cell_volume   243.21009766
_cell_formula_units_Z   1
loop_
 _symmetry_equiv_pos_site_id
 _symmetry_equiv_pos_as_xyz
  1  'x, y, z'
loop_
 _atom_site_type_symbol
 _atom_site_label
 _atom_site_symmetry_multiplicity
 _atom_site_fract_x
 _atom_site_fract_y
 _atom_site_fract_z
 _atom_site_occupancy
  Ca  Ca0  1  0.500000  0.500000  0.000000  1
  Gd  Gd1  1  0.676128  0.176403  0.500000  1
  Gd  Gd2  1  0.323872  0.823597  0.500000  1
  Gd  Gd3  1  0.176403  0.323872  0.500000  1
  Gd  Gd4  1  0.823597  0.676128  0.500000  1
  Er  Er5  1  0.000000  0.000000  0.000000  1
  Si  Si6  1  0.108602  0.619984  0.000000  1
  Si  Si7  1  0.891398  0.380016  0.000000  1
  Si  Si8  1  0.619984  0.891398  0.000000  1
  Si  Si9  1  0.380016  0.108602  0.000000  1
