# generated using pymatgen
data_Y16In4Ni3Pt
_symmetry_space_group_name_H-M   'P 1'
_cell_length_a   9.66206976
_cell_length_b   9.66207008
_cell_length_c   9.68539931
_cell_angle_alpha   60.07965139
_cell_angle_beta   60.07964733
_cell_angle_gamma   60.00000523
_symmetry_Int_Tables_number   1
_chemical_formula_structural   Y16In4Ni3Pt
_chemical_formula_sum   'Y16 In4 Ni3 Pt1'
_cell_volume   640.12487075
_cell_formula_units_Z   1
loop_
 _symmetry_equiv_pos_site_id
 _symmetry_equiv_pos_as_xyz
  1  'x, y, z'
loop_
 _atom_site_type_symbol
 _atom_site_label
 _atom_site_symmetry_multiplicity
 _atom_site_fract_x
 _atom_site_fract_y
 _atom_site_fract_z
 _atom_site_occupancy
  Y  Y0  1  0.806489  0.189063  0.815385  1
  Y  Y1  1  0.939001  0.560462  0.561535  1
  Y  Y2  1  0.560462  0.939001  0.561535  1
  Y  Y3  1  0.811701  0.187990  0.188608  1
  Y  Y4  1  0.187990  0.811701  0.188608  1
  Y  Y5  1  0.351639  0.952180  0.344544  1
  Y  Y6  1  0.939001  0.939001  0.561535  1
  Y  Y7  1  0.562198  0.938074  0.937531  1
  Y  Y8  1  0.189063  0.806489  0.815385  1
  Y  Y9  1  0.347756  0.347756  0.956732  1
  Y  Y10  1  0.562198  0.562198  0.937531  1
  Y  Y11  1  0.351639  0.351639  0.344544  1
  Y  Y12  1  0.189063  0.189063  0.815385  1
  Y  Y13  1  0.811701  0.811701  0.188608  1
  Y  Y14  1  0.938074  0.562198  0.937531  1
  Y  Y15  1  0.952180  0.351639  0.344544  1
  In  In16  1  0.582341  0.582341  0.583391  1
  In  In17  1  0.582341  0.251929  0.583391  1
  In  In18  1  0.583182  0.583182  0.250457  1
  In  In19  1  0.251929  0.582341  0.583391  1
  Ni  Ni20  1  0.572637  0.142356  0.142653  1
  Ni  Ni21  1  0.142356  0.572637  0.142653  1
  Ni  Ni22  1  0.142356  0.142356  0.142653  1
  Pt  Pt23  1  0.142708  0.142708  0.571878  1
