# generated using pymatgen
data_TbLu7Ta9Ti2Si16Pd
_symmetry_space_group_name_H-M   'P 1'
_cell_length_a   7.00346001
_cell_length_b   6.99786422
_cell_length_c   12.86574700
_cell_angle_alpha   89.95433770
_cell_angle_beta   89.99696482
_cell_angle_gamma   89.96936773
_symmetry_Int_Tables_number   1
_chemical_formula_structural   TbLu7Ta9Ti2Si16Pd
_chemical_formula_sum   'Tb1 Lu7 Ta9 Ti2 Si16 Pd1'
_cell_volume   630.54047734
_cell_formula_units_Z   1
loop_
 _symmetry_equiv_pos_site_id
 _symmetry_equiv_pos_as_xyz
  1  'x, y, z'
loop_
 _atom_site_type_symbol
 _atom_site_label
 _atom_site_symmetry_multiplicity
 _atom_site_fract_x
 _atom_site_fract_y
 _atom_site_fract_z
 _atom_site_occupancy
  Tb  Tb0  1  0.001306  0.658421  0.031806  1
  Lu  Lu1  1  0.342242  0.001123  0.467457  1
  Lu  Lu2  1  0.496709  0.843407  0.718104  1
  Lu  Lu3  1  0.501612  0.157877  0.217904  1
  Lu  Lu4  1  0.842695  0.497305  0.281883  1
  Lu  Lu5  1  0.158892  0.500183  0.783709  1
  Lu  Lu6  1  0.655728  0.002418  0.967532  1
  Lu  Lu7  1  0.001465  0.341025  0.531956  1
  Ta  Ta8  1  0.173926  0.826564  0.249559  1
  Ta  Ta9  1  0.825491  0.174447  0.750868  1
  Ta  Ta10  1  0.670994  0.670413  0.499744  1
  Ta  Ta11  1  0.148172  0.007367  0.874368  1
  Ta  Ta12  1  0.498409  0.652102  0.121531  1
  Ta  Ta13  1  0.502099  0.349186  0.622475  1
  Ta  Ta14  1  0.650496  0.496943  0.877969  1
  Ta  Ta15  1  0.349393  0.504313  0.377667  1
  Ta  Ta16  1  0.849916  0.991977  0.374587  1
  Ti  Ti17  1  0.008029  0.149933  0.124306  1
  Ti  Ti18  1  0.990245  0.849159  0.625441  1
  Si  Si19  1  0.201667  0.135053  0.680911  1
  Si  Si20  1  0.371188  0.718351  0.927633  1
  Si  Si21  1  0.636650  0.292185  0.429717  1
  Si  Si22  1  0.714424  0.365201  0.071859  1
  Si  Si23  1  0.291696  0.638214  0.570994  1
  Si  Si24  1  0.796481  0.868151  0.181257  1
  Si  Si25  1  0.137815  0.201729  0.317616  1
  Si  Si26  1  0.862697  0.797740  0.817685  1
  Si  Si27  1  0.291759  0.949817  0.063717  1
  Si  Si28  1  0.545136  0.794455  0.312658  1
  Si  Si29  1  0.451000  0.207383  0.812781  1
  Si  Si30  1  0.795268  0.546197  0.686313  1
  Si  Si31  1  0.207554  0.450731  0.186892  1
  Si  Si32  1  0.704831  0.045320  0.564933  1
  Si  Si33  1  0.945809  0.289710  0.937349  1
  Si  Si34  1  0.045897  0.703061  0.436656  1
  Pd  Pd35  1  0.332309  0.322534  0.002158  1
