# generated using pymatgen
data_Li2Co2Ni10AsP6
_symmetry_space_group_name_H-M   'P 1'
_cell_length_a   9.12951919
_cell_length_b   9.06464833
_cell_length_c   3.51460600
_cell_angle_alpha   90.00000000
_cell_angle_beta   90.00000000
_cell_angle_gamma   120.15975396
_symmetry_Int_Tables_number   1
_chemical_formula_structural   Li2Co2Ni10AsP6
_chemical_formula_sum   'Li2 Co2 Ni10 As1 P6'
_cell_volume   251.48076282
_cell_formula_units_Z   1
loop_
 _symmetry_equiv_pos_site_id
 _symmetry_equiv_pos_as_xyz
  1  'x, y, z'
loop_
 _atom_site_type_symbol
 _atom_site_label
 _atom_site_symmetry_multiplicity
 _atom_site_fract_x
 _atom_site_fract_y
 _atom_site_fract_z
 _atom_site_occupancy
  Li  Li0  1  0.002286  0.000565  0.000000  1
  Li  Li1  1  0.318591  0.651288  0.500000  1
  Co  Co2  1  0.390661  0.217995  0.000000  1
  Co  Co3  1  0.826158  0.606726  0.000000  1
  Ni  Ni4  1  0.278337  0.896053  0.000000  1
  Ni  Ni5  1  0.608479  0.701512  0.000000  1
  Ni  Ni6  1  0.104812  0.394455  0.000000  1
  Ni  Ni7  1  0.787924  0.180662  0.000000  1
  Ni  Ni8  1  0.731401  0.951835  0.500000  1
  Ni  Ni9  1  0.231129  0.282729  0.500000  1
  Ni  Ni10  1  0.048942  0.769818  0.500000  1
  Ni  Ni11  1  0.545478  0.129549  0.500000  1
  Ni  Ni12  1  0.572236  0.461698  0.500000  1
  Ni  Ni13  1  0.893562  0.428692  0.500000  1
  As  As14  1  0.535641  0.910787  0.000000  1
  P  P15  1  0.374253  0.455080  0.000000  1
  P  P16  1  0.077655  0.623508  0.000000  1
  P  P17  1  0.961114  0.214617  0.500000  1
  P  P18  1  0.258316  0.046389  0.500000  1
  P  P19  1  0.789420  0.740757  0.500000  1
  P  P20  1  0.663607  0.335283  0.000000  1
