# generated using pymatgen
data_Li2Nd3LuAu3
_symmetry_space_group_name_H-M   'P 1'
_cell_length_a   7.78755700
_cell_length_b   7.78063770
_cell_length_c   4.24979700
_cell_angle_alpha   90.00000000
_cell_angle_beta   90.00000000
_cell_angle_gamma   120.02942634
_symmetry_Int_Tables_number   1
_chemical_formula_structural   Li2Nd3LuAu3
_chemical_formula_sum   'Li2 Nd3 Lu1 Au3'
_cell_volume   222.93917810
_cell_formula_units_Z   1
loop_
 _symmetry_equiv_pos_site_id
 _symmetry_equiv_pos_as_xyz
  1  'x, y, z'
loop_
 _atom_site_type_symbol
 _atom_site_label
 _atom_site_symmetry_multiplicity
 _atom_site_fract_x
 _atom_site_fract_y
 _atom_site_fract_z
 _atom_site_occupancy
  Li  Li0  1  0.002221  0.243230  0.500000  1
  Li  Li1  1  0.758991  0.756770  0.500000  1
  Nd  Nd2  1  0.414517  0.437158  0.000000  1
  Nd  Nd3  1  0.614081  0.000000  0.000000  1
  Nd  Nd4  1  0.977359  0.562842  0.000000  1
  Lu  Lu5  1  0.242542  0.000000  0.500000  1
  Au  Au6  1  0.656947  0.324980  0.500000  1
  Au  Au7  1  0.001378  0.000000  0.000000  1
  Au  Au8  1  0.331967  0.675020  0.500000  1
