# generated using pymatgen
data_Y7Er9Cd4(NiOs)2
_symmetry_space_group_name_H-M   'P 1'
_cell_length_a   9.53446902
_cell_length_b   9.53446967
_cell_length_c   9.65003700
_cell_angle_alpha   59.59822039
_cell_angle_beta   59.59821810
_cell_angle_gamma   59.60589679
_symmetry_Int_Tables_number   1
_chemical_formula_structural   Y7Er9Cd4(NiOs)2
_chemical_formula_sum   'Y7 Er9 Cd4 Ni2 Os2'
_cell_volume   614.67895012
_cell_formula_units_Z   1
loop_
 _symmetry_equiv_pos_site_id
 _symmetry_equiv_pos_as_xyz
  1  'x, y, z'
loop_
 _atom_site_type_symbol
 _atom_site_label
 _atom_site_symmetry_multiplicity
 _atom_site_fract_x
 _atom_site_fract_y
 _atom_site_fract_z
 _atom_site_occupancy
  Y  Y0  1  0.059909  0.059909  0.440091  1
  Y  Y1  1  0.190329  0.804132  0.816221  1
  Y  Y2  1  0.804132  0.190329  0.189319  1
  Y  Y3  1  0.804132  0.190329  0.816221  1
  Y  Y4  1  0.190329  0.804132  0.189319  1
  Y  Y5  1  0.813917  0.813917  0.186083  1
  Y  Y6  1  0.191852  0.191852  0.808148  1
  Er  Er7  1  0.600427  0.600427  0.591846  1
  Er  Er8  1  0.600427  0.600427  0.207298  1
  Er  Er9  1  0.600646  0.208542  0.595405  1
  Er  Er10  1  0.208542  0.600646  0.595405  1
  Er  Er11  1  0.061673  0.435671  0.439908  1
  Er  Er12  1  0.435671  0.061673  0.062748  1
  Er  Er13  1  0.435671  0.061673  0.439908  1
  Er  Er14  1  0.061673  0.435671  0.062748  1
  Er  Er15  1  0.437369  0.437369  0.062631  1
  Cd  Cd16  1  0.828546  0.828546  0.832511  1
  Cd  Cd17  1  0.828546  0.828546  0.510397  1
  Cd  Cd18  1  0.829660  0.506608  0.831865  1
  Cd  Cd19  1  0.506608  0.829660  0.831865  1
  Ni  Ni20  1  0.394858  0.826938  0.389103  1
  Ni  Ni21  1  0.826938  0.394858  0.389103  1
  Os  Os22  1  0.394072  0.394072  0.387833  1
  Os  Os23  1  0.394072  0.394072  0.824024  1
