# generated using pymatgen
data_Th2Si6AsRh12
_symmetry_space_group_name_H-M   'P 1'
_cell_length_a   9.86911100
_cell_length_b   9.86911176
_cell_length_c   3.89553500
_cell_angle_alpha   90.00000000
_cell_angle_beta   90.00000000
_cell_angle_gamma   119.99999412
_symmetry_Int_Tables_number   1
_chemical_formula_structural   Th2Si6AsRh12
_chemical_formula_sum   'Th2 Si6 As1 Rh12'
_cell_volume   328.58964152
_cell_formula_units_Z   1
loop_
 _symmetry_equiv_pos_site_id
 _symmetry_equiv_pos_as_xyz
  1  'x, y, z'
loop_
 _atom_site_type_symbol
 _atom_site_label
 _atom_site_symmetry_multiplicity
 _atom_site_fract_x
 _atom_site_fract_y
 _atom_site_fract_z
 _atom_site_occupancy
  Th  Th0  1  0.333333  0.666667  0.251552  1
  Th  Th1  1  0.666667  0.333333  0.748448  1
  Si  Si2  1  0.396179  0.104549  0.249622  1
  Si  Si3  1  0.708371  0.603821  0.249622  1
  Si  Si4  1  0.895451  0.291629  0.249622  1
  Si  Si5  1  0.603821  0.895451  0.750378  1
  Si  Si6  1  0.291629  0.396179  0.750378  1
  Si  Si7  1  0.104549  0.708371  0.750378  1
  As  As8  1  0.000000  0.000000  0.500000  1
  Rh  Rh9  1  0.446371  0.379524  0.248366  1
  Rh  Rh10  1  0.933153  0.553629  0.248366  1
  Rh  Rh11  1  0.620476  0.066847  0.248366  1
  Rh  Rh12  1  0.553629  0.620476  0.751634  1
  Rh  Rh13  1  0.066847  0.446371  0.751634  1
  Rh  Rh14  1  0.379524  0.933153  0.751634  1
  Rh  Rh15  1  0.142581  0.876277  0.250097  1
  Rh  Rh16  1  0.733696  0.857419  0.250097  1
  Rh  Rh17  1  0.123723  0.266304  0.250097  1
  Rh  Rh18  1  0.857419  0.123723  0.749903  1
  Rh  Rh19  1  0.266304  0.142581  0.749903  1
  Rh  Rh20  1  0.876277  0.733696  0.749903  1
