# generated using pymatgen
data_Pr2Nd10Fe2I17
_symmetry_space_group_name_H-M   'P 1'
_cell_length_a   10.00668460
_cell_length_b   12.02693433
_cell_length_c   12.07244419
_cell_angle_alpha   93.62408803
_cell_angle_beta   104.71694878
_cell_angle_gamma   114.29218507
_symmetry_Int_Tables_number   1
_chemical_formula_structural   Pr2Nd10Fe2I17
_chemical_formula_sum   'Pr2 Nd10 Fe2 I17'
_cell_volume   1257.43268789
_cell_formula_units_Z   1
loop_
 _symmetry_equiv_pos_site_id
 _symmetry_equiv_pos_as_xyz
  1  'x, y, z'
loop_
 _atom_site_type_symbol
 _atom_site_label
 _atom_site_symmetry_multiplicity
 _atom_site_fract_x
 _atom_site_fract_y
 _atom_site_fract_z
 _atom_site_occupancy
  Pr  Pr0  1  0.777533  0.328732  0.013496  1
  Pr  Pr1  1  0.858640  0.713896  0.847196  1
  Nd  Nd2  1  0.053602  0.504594  0.321052  1
  Nd  Nd3  1  0.988455  0.810384  0.582094  1
  Nd  Nd4  1  0.648551  0.240776  0.283208  1
  Nd  Nd5  1  0.009586  0.191450  0.413149  1
  Nd  Nd6  1  0.224203  0.670660  0.989219  1
  Nd  Nd7  1  0.258907  0.985549  0.891265  1
  Nd  Nd8  1  0.343122  0.757882  0.719307  1
  Nd  Nd9  1  0.943179  0.489825  0.677822  1
  Nd  Nd10  1  0.744778  0.019226  0.110745  1
  Nd  Nd11  1  0.148301  0.287068  0.152106  1
  Fe  Fe12  1  0.103707  0.738245  0.785799  1
  Fe  Fe13  1  0.895917  0.261635  0.214217  1
  I  I14  1  0.785194  0.528192  0.419128  1
  I  I15  1  0.643117  0.418616  0.757537  1
  I  I16  1  0.843723  0.895923  0.325107  1
  I  I17  1  0.325948  0.213038  0.369038  1
  I  I18  1  0.156391  0.103555  0.674918  1
  I  I19  1  0.585213  0.049342  0.843560  1
  I  I20  1  0.757024  0.185717  0.537126  1
  I  I21  1  0.547872  0.709837  0.952996  1
  I  I22  1  0.356274  0.580653  0.239450  1
  I  I23  1  0.213977  0.472076  0.582323  1
  I  I24  1  0.058495  0.369066  0.897012  1
  I  I25  1  0.448593  0.289864  0.047806  1
  I  I26  1  0.000809  0.000738  0.999829  1
  I  I27  1  0.242851  0.813867  0.464218  1
  I  I28  1  0.412272  0.947769  0.155227  1
  I  I29  1  0.675048  0.787666  0.629615  1
  I  I30  1  0.948716  0.634160  0.104435  1
