# generated using pymatgen
data_LuPa(NCl)2
_symmetry_space_group_name_H-M   'P 1'
_cell_length_a   10.04376665
_cell_length_b   10.04376562
_cell_length_c   10.04376509
_cell_angle_alpha   22.13146127
_cell_angle_beta   22.13146153
_cell_angle_gamma   22.13146753
_symmetry_Int_Tables_number   1
_chemical_formula_structural   LuPa(NCl)2
_chemical_formula_sum   'Lu1 Pa1 N2 Cl2'
_cell_volume   126.08167553
_cell_formula_units_Z   1
loop_
 _symmetry_equiv_pos_site_id
 _symmetry_equiv_pos_as_xyz
  1  'x, y, z'
loop_
 _atom_site_type_symbol
 _atom_site_label
 _atom_site_symmetry_multiplicity
 _atom_site_fract_x
 _atom_site_fract_y
 _atom_site_fract_z
 _atom_site_occupancy
  Lu  Lu0  1  0.783749  0.783749  0.783749  1
  Pa  Pa1  1  0.210554  0.210554  0.210554  1
  N  N2  1  0.864602  0.864602  0.864602  1
  N  N3  1  0.140096  0.140096  0.140096  1
  Cl  Cl4  1  0.393070  0.393070  0.393070  1
  Cl  Cl5  1  0.607929  0.607929  0.607929  1
