# generated using pymatgen
data_Tb15Dy5(Ir3Pt)3
_symmetry_space_group_name_H-M   'P 1'
_cell_length_a   11.00809687
_cell_length_b   11.00786178
_cell_length_c   6.36104004
_cell_angle_alpha   89.98664464
_cell_angle_beta   89.98073922
_cell_angle_gamma   90.19191108
_symmetry_Int_Tables_number   1
_chemical_formula_structural   Tb15Dy5(Ir3Pt)3
_chemical_formula_sum   'Tb15 Dy5 Ir9 Pt3'
_cell_volume   770.79851145
_cell_formula_units_Z   1
loop_
 _symmetry_equiv_pos_site_id
 _symmetry_equiv_pos_as_xyz
  1  'x, y, z'
loop_
 _atom_site_type_symbol
 _atom_site_label
 _atom_site_symmetry_multiplicity
 _atom_site_fract_x
 _atom_site_fract_y
 _atom_site_fract_z
 _atom_site_occupancy
  Tb  Tb0  1  0.293568  0.087333  0.372772  1
  Tb  Tb1  1  0.292878  0.908332  0.877839  1
  Tb  Tb2  1  0.705407  0.090271  0.874636  1
  Tb  Tb3  1  0.704589  0.909564  0.374224  1
  Tb  Tb4  1  0.585539  0.790955  0.879171  1
  Tb  Tb5  1  0.585894  0.209028  0.379178  1
  Tb  Tb6  1  0.410520  0.791205  0.378934  1
  Tb  Tb7  1  0.413837  0.209125  0.879114  1
  Tb  Tb8  1  0.208997  0.414384  0.620794  1
  Tb  Tb9  1  0.208759  0.589365  0.121092  1
  Tb  Tb10  1  0.791054  0.414075  0.120831  1
  Tb  Tb11  1  0.790890  0.586143  0.620908  1
  Tb  Tb12  1  0.912739  0.706378  0.127175  1
  Tb  Tb13  1  0.909810  0.294596  0.625339  1
  Tb  Tb14  1  0.091680  0.707143  0.622136  1
  Dy  Dy15  1  0.090417  0.295618  0.125640  1
  Dy  Dy16  1  0.001230  0.998125  0.499504  1
  Dy  Dy17  1  0.001929  0.998871  0.000521  1
  Dy  Dy18  1  0.499746  0.499894  0.000408  1
  Dy  Dy19  1  0.500091  0.500245  0.499604  1
  Ir  Ir20  1  0.152013  0.847979  0.250003  1
  Ir  Ir21  1  0.654240  0.345764  0.750012  1
  Ir  Ir22  1  0.654651  0.654213  0.249595  1
  Ir  Ir23  1  0.345589  0.345307  0.250313  1
  Ir  Ir24  1  0.346619  0.653362  0.750010  1
  Ir  Ir25  1  0.500502  0.000081  0.123677  1
  Ir  Ir26  1  0.500277  0.000310  0.624839  1
  Ir  Ir27  1  0.999762  0.499564  0.875302  1
  Ir  Ir28  1  0.999987  0.499341  0.376169  1
  Pt  Pt29  1  0.847300  0.152863  0.249927  1
  Pt  Pt30  1  0.845979  0.846401  0.749929  1
  Pt  Pt31  1  0.153504  0.154165  0.750403  1
