# generated using pymatgen
data_SrLa(PPd3)4
_symmetry_space_group_name_H-M   'P 1'
_cell_length_a   8.56782545
_cell_length_b   8.56889900
_cell_length_c   8.57261245
_cell_angle_alpha   90.00000000
_cell_angle_beta   90.18729300
_cell_angle_gamma   90.00000000
_symmetry_Int_Tables_number   1
_chemical_formula_structural   SrLa(PPd3)4
_chemical_formula_sum   'Sr2 La2 P8 Pd24'
_cell_volume   629.37067586
_cell_formula_units_Z   2
loop_
 _symmetry_equiv_pos_site_id
 _symmetry_equiv_pos_as_xyz
  1  'x, y, z'
loop_
 _atom_site_type_symbol
 _atom_site_label
 _atom_site_symmetry_multiplicity
 _atom_site_fract_x
 _atom_site_fract_y
 _atom_site_fract_z
 _atom_site_occupancy
  Sr  Sr0  1  0.000000  0.500000  0.500000  1
  Sr  Sr1  1  0.000000  0.000000  0.000000  1
  La  La2  1  0.500000  0.500000  0.000000  1
  La  La3  1  0.500000  0.000000  0.500000  1
  P  P4  1  0.807925  0.307503  0.191745  1
  P  P5  1  0.192075  0.807503  0.308255  1
  P  P6  1  0.692432  0.691944  0.692922  1
  P  P7  1  0.307568  0.191944  0.807078  1
  P  P8  1  0.192075  0.692497  0.808255  1
  P  P9  1  0.807925  0.192497  0.691745  1
  P  P10  1  0.307568  0.308056  0.307078  1
  P  P11  1  0.692432  0.808056  0.192922  1
  Pd  Pd12  1  0.420871  0.847129  0.162766  1
  Pd  Pd13  1  0.579129  0.347129  0.337234  1
  Pd  Pd14  1  0.078713  0.152829  0.661875  1
  Pd  Pd15  1  0.921287  0.652829  0.838125  1
  Pd  Pd16  1  0.164140  0.421574  0.848893  1
  Pd  Pd17  1  0.339153  0.579342  0.345513  1
  Pd  Pd18  1  0.660847  0.079342  0.154487  1
  Pd  Pd19  1  0.835860  0.921574  0.651107  1
  Pd  Pd20  1  0.845963  0.160930  0.420847  1
  Pd  Pd21  1  0.348436  0.336068  0.578463  1
  Pd  Pd22  1  0.154037  0.660930  0.079153  1
  Pd  Pd23  1  0.651564  0.836068  0.921537  1
  Pd  Pd24  1  0.579129  0.152871  0.837234  1
  Pd  Pd25  1  0.420871  0.652871  0.662766  1
  Pd  Pd26  1  0.921287  0.847171  0.338125  1
  Pd  Pd27  1  0.078713  0.347171  0.161875  1
  Pd  Pd28  1  0.835860  0.578426  0.151107  1
  Pd  Pd29  1  0.660847  0.420658  0.654487  1
  Pd  Pd30  1  0.339153  0.920658  0.845513  1
  Pd  Pd31  1  0.164140  0.078426  0.348893  1
  Pd  Pd32  1  0.154037  0.839070  0.579153  1
  Pd  Pd33  1  0.651564  0.663932  0.421537  1
  Pd  Pd34  1  0.845963  0.339070  0.920847  1
  Pd  Pd35  1  0.348436  0.163932  0.078463  1
