# generated using pymatgen
data_Lu14Th2Mg3InNi4
_symmetry_space_group_name_H-M   'P 1'
_cell_length_a   9.41576587
_cell_length_b   9.41576633
_cell_length_c   9.46832008
_cell_angle_alpha   59.82721829
_cell_angle_beta   59.82722018
_cell_angle_gamma   60.07989933
_symmetry_Int_Tables_number   1
_chemical_formula_structural   Lu14Th2Mg3InNi4
_chemical_formula_sum   'Lu14 Th2 Mg3 In1 Ni4'
_cell_volume   592.36622341
_cell_formula_units_Z   1
loop_
 _symmetry_equiv_pos_site_id
 _symmetry_equiv_pos_as_xyz
  1  'x, y, z'
loop_
 _atom_site_type_symbol
 _atom_site_label
 _atom_site_symmetry_multiplicity
 _atom_site_fract_x
 _atom_site_fract_y
 _atom_site_fract_z
 _atom_site_occupancy
  Lu  Lu0  1  0.599486  0.203237  0.600931  1
  Lu  Lu1  1  0.203237  0.599486  0.600931  1
  Lu  Lu2  1  0.064099  0.439030  0.434478  1
  Lu  Lu3  1  0.437851  0.062631  0.061612  1
  Lu  Lu4  1  0.439030  0.064099  0.434478  1
  Lu  Lu5  1  0.062631  0.437851  0.061612  1
  Lu  Lu6  1  0.434981  0.434981  0.063516  1
  Lu  Lu7  1  0.062163  0.062163  0.436685  1
  Lu  Lu8  1  0.184365  0.817960  0.817429  1
  Lu  Lu9  1  0.815155  0.185495  0.182504  1
  Lu  Lu10  1  0.817960  0.184365  0.817429  1
  Lu  Lu11  1  0.185495  0.815155  0.182504  1
  Lu  Lu12  1  0.814954  0.814954  0.185681  1
  Lu  Lu13  1  0.187660  0.187660  0.814121  1
  Th  Th14  1  0.592421  0.592421  0.600230  1
  Th  Th15  1  0.591220  0.591220  0.210083  1
  Mg  Mg16  1  0.831980  0.831980  0.510603  1
  Mg  Mg17  1  0.832910  0.511349  0.828623  1
  Mg  Mg18  1  0.511349  0.832910  0.828623  1
  In  In19  1  0.833955  0.833955  0.832411  1
  Ni  Ni20  1  0.390919  0.390919  0.392565  1
  Ni  Ni21  1  0.388547  0.388547  0.824478  1
  Ni  Ni22  1  0.394154  0.823478  0.389237  1
  Ni  Ni23  1  0.823478  0.394154  0.389237  1
