# generated using pymatgen
data_Ti8FeRe4Ir3
_symmetry_space_group_name_H-M   'P 1'
_cell_length_a   6.18437201
_cell_length_b   4.37856500
_cell_length_c   8.75285400
_cell_angle_alpha   89.99895292
_cell_angle_beta   89.99916418
_cell_angle_gamma   90.00534691
_symmetry_Int_Tables_number   1
_chemical_formula_structural   Ti8FeRe4Ir3
_chemical_formula_sum   'Ti8 Fe1 Re4 Ir3'
_cell_volume   237.01568637
_cell_formula_units_Z   1
loop_
 _symmetry_equiv_pos_site_id
 _symmetry_equiv_pos_as_xyz
  1  'x, y, z'
loop_
 _atom_site_type_symbol
 _atom_site_label
 _atom_site_symmetry_multiplicity
 _atom_site_fract_x
 _atom_site_fract_y
 _atom_site_fract_z
 _atom_site_occupancy
  Ti  Ti0  1  0.006303  0.749977  0.124999  1
  Ti  Ti1  1  0.493728  0.750028  0.125005  1
  Ti  Ti2  1  0.002906  0.250017  0.370717  1
  Ti  Ti3  1  0.497147  0.249996  0.370715  1
  Ti  Ti4  1  0.500565  0.750015  0.625001  1
  Ti  Ti5  1  0.999376  0.749993  0.625000  1
  Ti  Ti6  1  0.497109  0.249994  0.879281  1
  Ti  Ti7  1  0.002864  0.250004  0.879275  1
  Fe  Fe8  1  0.250027  0.250002  0.124987  1
  Re  Re9  1  0.749995  0.249987  0.125028  1
  Re  Re10  1  0.250018  0.750004  0.374152  1
  Re  Re11  1  0.749984  0.249986  0.624988  1
  Re  Re12  1  0.249992  0.749994  0.875853  1
  Ir  Ir13  1  0.750017  0.750001  0.374655  1
  Ir  Ir14  1  0.249984  0.250009  0.624996  1
  Ir  Ir15  1  0.749987  0.749993  0.875347  1
