# generated using pymatgen
data_Sm2Si5AsPd21
_symmetry_space_group_name_H-M   'P 1'
_cell_length_a   8.74777751
_cell_length_b   8.74777716
_cell_length_c   8.70716200
_cell_angle_alpha   60.15346781
_cell_angle_beta   60.15346912
_cell_angle_gamma   59.69304327
_symmetry_Int_Tables_number   1
_chemical_formula_structural   Sm2Si5AsPd21
_chemical_formula_sum   'Sm2 Si5 As1 Pd21'
_cell_volume   471.12739937
_cell_formula_units_Z   1
loop_
 _symmetry_equiv_pos_site_id
 _symmetry_equiv_pos_as_xyz
  1  'x, y, z'
loop_
 _atom_site_type_symbol
 _atom_site_label
 _atom_site_symmetry_multiplicity
 _atom_site_fract_x
 _atom_site_fract_y
 _atom_site_fract_z
 _atom_site_occupancy
  Sm  Sm0  1  0.750375  0.750375  0.749625  1
  Sm  Sm1  1  0.250375  0.250375  0.249625  1
  Si  Si2  1  0.264178  0.736105  0.263895  1
  Si  Si3  1  0.736105  0.264178  0.263895  1
  Si  Si4  1  0.264260  0.264260  0.735740  1
  Si  Si5  1  0.736105  0.264178  0.735822  1
  Si  Si6  1  0.264178  0.736105  0.735822  1
  As  As7  1  0.736879  0.736879  0.263121  1
  Pd  Pd8  1  0.000961  0.000961  0.999039  1
  Pd  Pd9  1  0.612500  0.612500  0.154379  1
  Pd  Pd10  1  0.614268  0.154931  0.615401  1
  Pd  Pd11  1  0.154931  0.614268  0.615401  1
  Pd  Pd12  1  0.612500  0.612500  0.620623  1
  Pd  Pd13  1  0.384599  0.384599  0.845069  1
  Pd  Pd14  1  0.379377  0.845621  0.387500  1
  Pd  Pd15  1  0.845621  0.379377  0.387500  1
  Pd  Pd16  1  0.384599  0.384599  0.385732  1
  Pd  Pd17  1  0.000627  0.000627  0.344112  1
  Pd  Pd18  1  0.653508  0.006312  0.346492  1
  Pd  Pd19  1  0.006312  0.653508  0.346492  1
  Pd  Pd20  1  0.655888  0.345367  0.999373  1
  Pd  Pd21  1  0.999398  0.343624  0.000602  1
  Pd  Pd22  1  0.999398  0.343624  0.656376  1
  Pd  Pd23  1  0.345367  0.655888  0.999373  1
  Pd  Pd24  1  0.343624  0.999398  0.656376  1
  Pd  Pd25  1  0.343624  0.999398  0.000602  1
  Pd  Pd26  1  0.000627  0.000627  0.654633  1
  Pd  Pd27  1  0.006312  0.653508  0.993688  1
  Pd  Pd28  1  0.653508  0.006312  0.993688  1
