# generated using pymatgen
data_DyHo3Al13Ga5Ir6
_symmetry_space_group_name_H-M   'P 1'
_cell_length_a   7.52298802
_cell_length_b   7.52420545
_cell_length_c   9.55315300
_cell_angle_alpha   90.00000000
_cell_angle_beta   90.00000000
_cell_angle_gamma   119.59000334
_symmetry_Int_Tables_number   1
_chemical_formula_structural   DyHo3Al13Ga5Ir6
_chemical_formula_sum   'Dy1 Ho3 Al13 Ga5 Ir6'
_cell_volume   470.22730012
_cell_formula_units_Z   1
loop_
 _symmetry_equiv_pos_site_id
 _symmetry_equiv_pos_as_xyz
  1  'x, y, z'
loop_
 _atom_site_type_symbol
 _atom_site_label
 _atom_site_symmetry_multiplicity
 _atom_site_fract_x
 _atom_site_fract_y
 _atom_site_fract_z
 _atom_site_occupancy
  Dy  Dy0  1  0.995000  0.669867  0.250000  1
  Ho  Ho1  1  0.000639  0.326522  0.750000  1
  Ho  Ho2  1  0.670109  0.996381  0.250000  1
  Ho  Ho3  1  0.330396  0.006571  0.750000  1
  Al  Al4  1  0.002405  0.334825  0.072236  1
  Al  Al5  1  0.999452  0.665486  0.927161  1
  Al  Al6  1  0.999452  0.665486  0.572839  1
  Al  Al7  1  0.334847  0.001803  0.427947  1
  Al  Al8  1  0.002405  0.334825  0.427764  1
  Al  Al9  1  0.664843  0.998036  0.573001  1
  Al  Al10  1  0.664843  0.998036  0.926999  1
  Al  Al11  1  0.334847  0.001803  0.072053  1
  Al  Al12  1  0.333736  0.334160  0.557347  1
  Al  Al13  1  0.665903  0.665989  0.446294  1
  Al  Al14  1  0.665903  0.665989  0.053706  1
  Al  Al15  1  0.333736  0.334160  0.942653  1
  Al  Al16  1  0.450901  0.661803  0.750000  1
  Ga  Ga17  1  0.128446  0.128549  0.250000  1
  Ga  Ga18  1  0.870029  0.869285  0.750000  1
  Ga  Ga19  1  0.338624  0.547167  0.250000  1
  Ga  Ga20  1  0.662042  0.454402  0.750000  1
  Ga  Ga21  1  0.547003  0.339002  0.250000  1
  Ir  Ir22  1  0.672471  0.327898  0.000200  1
  Ir  Ir23  1  0.329347  0.671834  0.997673  1
  Ir  Ir24  1  0.329347  0.671834  0.502327  1
  Ir  Ir25  1  0.672471  0.327898  0.499800  1
  Ir  Ir26  1  0.000403  0.000194  0.999944  1
  Ir  Ir27  1  0.000403  0.000194  0.500056  1
