# generated using pymatgen
data_TaTi2Tc4W
_symmetry_space_group_name_H-M   'P 1'
_cell_length_a   6.26689300
_cell_length_b   4.44016600
_cell_length_c   8.87321900
_cell_angle_alpha   90.00000000
_cell_angle_beta   90.00000000
_cell_angle_gamma   90.00000000
_symmetry_Int_Tables_number   1
_chemical_formula_structural   TaTi2Tc4W
_chemical_formula_sum   'Ta2 Ti4 Tc8 W2'
_cell_volume   246.90659318
_cell_formula_units_Z   2
loop_
 _symmetry_equiv_pos_site_id
 _symmetry_equiv_pos_as_xyz
  1  'x, y, z'
loop_
 _atom_site_type_symbol
 _atom_site_label
 _atom_site_symmetry_multiplicity
 _atom_site_fract_x
 _atom_site_fract_y
 _atom_site_fract_z
 _atom_site_occupancy
  Ta  Ta0  1  0.750103  0.250001  0.124586  1
  Ta  Ta1  1  0.250103  0.750000  0.375413  1
  Ti  Ti2  1  0.250113  0.250001  0.124492  1
  Ti  Ti3  1  0.750115  0.750000  0.375509  1
  Ti  Ti4  1  0.249892  0.250001  0.625511  1
  Ti  Ti5  1  0.749891  0.750000  0.874489  1
  Tc  Tc6  1  0.001114  0.750000  0.121914  1
  Tc  Tc7  1  0.499061  0.750000  0.121918  1
  Tc  Tc8  1  0.999061  0.250001  0.378081  1
  Tc  Tc9  1  0.501114  0.250001  0.378086  1
  Tc  Tc10  1  0.501912  0.750000  0.627929  1
  Tc  Tc11  1  0.997906  0.750000  0.627904  1
  Tc  Tc12  1  0.497907  0.250001  0.872096  1
  Tc  Tc13  1  0.001912  0.250001  0.872071  1
  W  W14  1  0.749898  0.250001  0.625389  1
  W  W15  1  0.249898  0.750000  0.874612  1
