# generated using pymatgen
data_Dy3Mn(Ni4P3)2
_symmetry_space_group_name_H-M   'P 1'
_cell_length_a   3.77317300
_cell_length_b   10.55646700
_cell_length_c   12.32330800
_cell_angle_alpha   90.00000000
_cell_angle_beta   90.00000000
_cell_angle_gamma   90.00000000
_symmetry_Int_Tables_number   1
_chemical_formula_structural   Dy3Mn(Ni4P3)2
_chemical_formula_sum   'Dy6 Mn2 Ni16 P12'
_cell_volume   490.85431771
_cell_formula_units_Z   2
loop_
 _symmetry_equiv_pos_site_id
 _symmetry_equiv_pos_as_xyz
  1  'x, y, z'
loop_
 _atom_site_type_symbol
 _atom_site_label
 _atom_site_symmetry_multiplicity
 _atom_site_fract_x
 _atom_site_fract_y
 _atom_site_fract_z
 _atom_site_occupancy
  Dy  Dy0  1  0.752012  0.000000  0.478391  1
  Dy  Dy1  1  0.252012  0.500000  0.521609  1
  Dy  Dy2  1  0.251792  0.682987  0.794569  1
  Dy  Dy3  1  0.251792  0.317013  0.794569  1
  Dy  Dy4  1  0.751792  0.817013  0.205431  1
  Dy  Dy5  1  0.751792  0.182987  0.205431  1
  Mn  Mn6  1  0.251272  0.000000  0.845245  1
  Mn  Mn7  1  0.751272  0.500000  0.154755  1
  Ni  Ni8  1  0.752139  0.000000  0.015965  1
  Ni  Ni9  1  0.252139  0.500000  0.984035  1
  Ni  Ni10  1  0.252001  0.199348  0.571597  1
  Ni  Ni11  1  0.252001  0.800652  0.571597  1
  Ni  Ni12  1  0.752001  0.300652  0.428403  1
  Ni  Ni13  1  0.752001  0.699348  0.428403  1
  Ni  Ni14  1  0.251624  0.620626  0.289369  1
  Ni  Ni15  1  0.251624  0.379374  0.289369  1
  Ni  Ni16  1  0.751624  0.879374  0.710631  1
  Ni  Ni17  1  0.751624  0.120626  0.710631  1
  Ni  Ni18  1  0.251825  0.167152  0.007354  1
  Ni  Ni19  1  0.251825  0.832848  0.007354  1
  Ni  Ni20  1  0.751825  0.332848  0.992646  1
  Ni  Ni21  1  0.751825  0.667152  0.992646  1
  Ni  Ni22  1  0.252242  0.000000  0.299947  1
  Ni  Ni23  1  0.752242  0.500000  0.700053  1
  P  P24  1  0.252031  0.186543  0.385730  1
  P  P25  1  0.252031  0.813457  0.385730  1
  P  P26  1  0.752031  0.313457  0.614270  1
  P  P27  1  0.752031  0.686543  0.614270  1
  P  P28  1  0.251657  0.000000  0.122589  1
  P  P29  1  0.751657  0.500000  0.877411  1
  P  P30  1  0.251550  0.653129  0.106947  1
  P  P31  1  0.251550  0.346871  0.106947  1
  P  P32  1  0.751550  0.846871  0.893053  1
  P  P33  1  0.751550  0.153129  0.893053  1
  P  P34  1  0.251837  0.000000  0.654477  1
  P  P35  1  0.751837  0.500000  0.345523  1
