# generated using pymatgen
data_Hf2Ta(NbSi2)2
_symmetry_space_group_name_H-M   'P 1'
_cell_length_a   6.85355100
_cell_length_b   6.85355100
_cell_length_c   12.70722800
_cell_angle_alpha   90.00000000
_cell_angle_beta   90.00000000
_cell_angle_gamma   90.00000000
_symmetry_Int_Tables_number   1
_chemical_formula_structural   Hf2Ta(NbSi2)2
_chemical_formula_sum   'Hf8 Ta4 Nb8 Si16'
_cell_volume   596.87325619
_cell_formula_units_Z   4
loop_
 _symmetry_equiv_pos_site_id
 _symmetry_equiv_pos_as_xyz
  1  'x, y, z'
loop_
 _atom_site_type_symbol
 _atom_site_label
 _atom_site_symmetry_multiplicity
 _atom_site_fract_x
 _atom_site_fract_y
 _atom_site_fract_z
 _atom_site_occupancy
  Hf  Hf0  1  0.000609  0.338932  0.219043  1
  Hf  Hf1  1  0.999391  0.661068  0.719043  1
  Hf  Hf2  1  0.161068  0.500609  0.469043  1
  Hf  Hf3  1  0.499391  0.838932  0.030957  1
  Hf  Hf4  1  0.838932  0.499391  0.969043  1
  Hf  Hf5  1  0.500609  0.161068  0.530957  1
  Hf  Hf6  1  0.338932  0.000609  0.780957  1
  Hf  Hf7  1  0.661068  0.999391  0.280957  1
  Ta  Ta8  1  0.169251  0.169251  0.000000  1
  Ta  Ta9  1  0.830749  0.830749  0.500000  1
  Ta  Ta10  1  0.330749  0.669251  0.250000  1
  Ta  Ta11  1  0.669251  0.330749  0.750000  1
  Nb  Nb12  1  0.152832  0.996154  0.375654  1
  Nb  Nb13  1  0.847168  0.003846  0.875654  1
  Nb  Nb14  1  0.503846  0.652832  0.625654  1
  Nb  Nb15  1  0.347168  0.496154  0.874346  1
  Nb  Nb16  1  0.496154  0.347168  0.125654  1
  Nb  Nb17  1  0.652832  0.503846  0.374346  1
  Nb  Nb18  1  0.996154  0.152832  0.624346  1
  Nb  Nb19  1  0.003846  0.847168  0.124346  1
  Si  Si20  1  0.300924  0.042326  0.186053  1
  Si  Si21  1  0.699076  0.957674  0.686053  1
  Si  Si22  1  0.457674  0.800924  0.436053  1
  Si  Si23  1  0.199076  0.542326  0.063947  1
  Si  Si24  1  0.542326  0.199076  0.936053  1
  Si  Si25  1  0.800924  0.457674  0.563947  1
  Si  Si26  1  0.042326  0.300924  0.813947  1
  Si  Si27  1  0.957674  0.699076  0.313947  1
  Si  Si28  1  0.365090  0.292108  0.322445  1
  Si  Si29  1  0.634910  0.707892  0.822445  1
  Si  Si30  1  0.207892  0.865090  0.572445  1
  Si  Si31  1  0.134910  0.792108  0.927555  1
  Si  Si32  1  0.792108  0.134910  0.072445  1
  Si  Si33  1  0.865090  0.207892  0.427555  1
  Si  Si34  1  0.292108  0.365090  0.677555  1
  Si  Si35  1  0.707892  0.634910  0.177555  1
