# generated using pymatgen
data_DyTh2In3PtRh2
_symmetry_space_group_name_H-M   'P 1'
_cell_length_a   7.71158925
_cell_length_b   7.74190985
_cell_length_c   3.96219100
_cell_angle_alpha   90.00000000
_cell_angle_beta   90.00000000
_cell_angle_gamma   119.93673671
_symmetry_Int_Tables_number   1
_chemical_formula_structural   DyTh2In3PtRh2
_chemical_formula_sum   'Dy1 Th2 In3 Pt1 Rh2'
_cell_volume   204.99088033
_cell_formula_units_Z   1
loop_
 _symmetry_equiv_pos_site_id
 _symmetry_equiv_pos_as_xyz
  1  'x, y, z'
loop_
 _atom_site_type_symbol
 _atom_site_label
 _atom_site_symmetry_multiplicity
 _atom_site_fract_x
 _atom_site_fract_y
 _atom_site_fract_z
 _atom_site_occupancy
  Dy  Dy0  1  0.407378  0.408811  0.500000  1
  Th  Th1  1  0.010034  0.595880  0.500000  1
  Th  Th2  1  0.589136  0.996699  0.500000  1
  In  In3  1  0.016589  0.253938  0.000000  1
  In  In4  1  0.251320  0.011750  0.000000  1
  In  In5  1  0.733442  0.734842  0.000000  1
  Pt  Pt6  1  0.677390  0.331528  0.000000  1
  Rh  Rh7  1  0.984313  0.984908  0.500000  1
  Rh  Rh8  1  0.330398  0.681644  0.000000  1
