# generated using pymatgen
data_Hf20Zn3CdSb8
_symmetry_space_group_name_H-M   'P 1'
_cell_length_a   5.55812900
_cell_length_b   8.27837588
_cell_length_c   15.56735500
_cell_angle_alpha   90.00000000
_cell_angle_beta   90.00000000
_cell_angle_gamma   109.61521466
_symmetry_Int_Tables_number   1
_chemical_formula_structural   Hf20Zn3CdSb8
_chemical_formula_sum   'Hf20 Zn3 Cd1 Sb8'
_cell_volume   674.72204523
_cell_formula_units_Z   1
loop_
 _symmetry_equiv_pos_site_id
 _symmetry_equiv_pos_as_xyz
  1  'x, y, z'
loop_
 _atom_site_type_symbol
 _atom_site_label
 _atom_site_symmetry_multiplicity
 _atom_site_fract_x
 _atom_site_fract_y
 _atom_site_fract_z
 _atom_site_occupancy
  Hf  Hf0  1  0.431483  0.859383  0.356188  1
  Hf  Hf1  1  0.921194  0.856804  0.850668  1
  Hf  Hf2  1  0.064389  0.143196  0.149332  1
  Hf  Hf3  1  0.572101  0.140617  0.643812  1
  Hf  Hf4  1  0.653876  0.296182  0.072501  1
  Hf  Hf5  1  0.145119  0.289633  0.568617  1
  Hf  Hf6  1  0.855486  0.710367  0.431383  1
  Hf  Hf7  1  0.357695  0.703818  0.927499  1
  Hf  Hf8  1  0.846124  0.703818  0.072501  1
  Hf  Hf9  1  0.354881  0.710367  0.568617  1
  Hf  Hf10  1  0.644514  0.289633  0.431383  1
  Hf  Hf11  1  0.142305  0.296182  0.927499  1
  Hf  Hf12  1  0.068517  0.140617  0.356188  1
  Hf  Hf13  1  0.578806  0.143196  0.850668  1
  Hf  Hf14  1  0.435611  0.856804  0.149332  1
  Hf  Hf15  1  0.927899  0.859383  0.643812  1
  Hf  Hf16  1  0.500413  0.500620  0.250175  1
  Hf  Hf17  1  0.999792  0.499380  0.749825  1
  Hf  Hf18  1  0.999587  0.499380  0.250175  1
  Hf  Hf19  1  0.500208  0.500620  0.749825  1
  Zn  Zn20  1  0.750000  0.000000  0.500000  1
  Zn  Zn21  1  0.750000  0.000000  0.000000  1
  Zn  Zn22  1  0.250000  0.000000  0.500000  1
  Cd  Cd23  1  0.250000  0.000000  0.000000  1
  Sb  Sb24  1  0.917738  0.828946  0.251725  1
  Sb  Sb25  1  0.411208  0.828946  0.748275  1
  Sb  Sb26  1  0.582262  0.171054  0.251725  1
  Sb  Sb27  1  0.088792  0.171054  0.748275  1
  Sb  Sb28  1  0.250000  0.500000  0.085501  1
  Sb  Sb29  1  0.750000  0.500000  0.585530  1
  Sb  Sb30  1  0.250000  0.500000  0.414470  1
  Sb  Sb31  1  0.750000  0.500000  0.914499  1
