# generated using pymatgen
data_Tc3Ru3Rh2
_symmetry_space_group_name_H-M   'P 1'
_cell_length_a   5.48282700
_cell_length_b   5.48282685
_cell_length_c   4.35338900
_cell_angle_alpha   90.00000000
_cell_angle_beta   90.00000000
_cell_angle_gamma   120.00000696
_symmetry_Int_Tables_number   1
_chemical_formula_structural   Tc3Ru3Rh2
_chemical_formula_sum   'Tc3 Ru3 Rh2'
_cell_volume   113.33580930
_cell_formula_units_Z   1
loop_
 _symmetry_equiv_pos_site_id
 _symmetry_equiv_pos_as_xyz
  1  'x, y, z'
loop_
 _atom_site_type_symbol
 _atom_site_label
 _atom_site_symmetry_multiplicity
 _atom_site_fract_x
 _atom_site_fract_y
 _atom_site_fract_z
 _atom_site_occupancy
  Tc  Tc0  1  0.160877  0.321755  0.250000  1
  Tc  Tc1  1  0.678245  0.839123  0.250000  1
  Tc  Tc2  1  0.160877  0.839123  0.250000  1
  Ru  Ru3  1  0.835321  0.670642  0.750000  1
  Ru  Ru4  1  0.329358  0.164679  0.750000  1
  Ru  Ru5  1  0.835321  0.164679  0.750000  1
  Rh  Rh6  1  0.333333  0.666667  0.750000  1
  Rh  Rh7  1  0.666667  0.333333  0.250000  1
