# generated using pymatgen
data_TbPrNdSi6Pd19Pt
_symmetry_space_group_name_H-M   'P 1'
_cell_length_a   8.76146539
_cell_length_b   8.76146484
_cell_length_c   8.76146500
_cell_angle_alpha   60.00000316
_cell_angle_beta   60.00000524
_cell_angle_gamma   59.99999705
_symmetry_Int_Tables_number   1
_chemical_formula_structural   TbPrNdSi6Pd19Pt
_chemical_formula_sum   'Tb1 Pr1 Nd1 Si6 Pd19 Pt1'
_cell_volume   475.57084510
_cell_formula_units_Z   1
loop_
 _symmetry_equiv_pos_site_id
 _symmetry_equiv_pos_as_xyz
  1  'x, y, z'
loop_
 _atom_site_type_symbol
 _atom_site_label
 _atom_site_symmetry_multiplicity
 _atom_site_fract_x
 _atom_site_fract_y
 _atom_site_fract_z
 _atom_site_occupancy
  Tb  Tb0  1  0.000627  0.999999  0.999999  1
  Pr  Pr1  1  0.250120  0.249772  0.249772  1
  Nd  Nd2  1  0.749627  0.750253  0.750253  1
  Si  Si3  1  0.733214  0.266653  0.266653  1
  Si  Si4  1  0.266517  0.733345  0.733345  1
  Si  Si5  1  0.266484  0.734225  0.265777  1
  Si  Si6  1  0.733734  0.266735  0.733261  1
  Si  Si7  1  0.266484  0.265777  0.734225  1
  Si  Si8  1  0.733734  0.733261  0.266735  1
  Pd  Pd9  1  0.654723  0.999791  0.999791  1
  Pd  Pd10  1  0.999896  0.345770  0.654648  1
  Pd  Pd11  1  0.999896  0.654648  0.345770  1
  Pd  Pd12  1  0.998733  0.346377  0.000478  1
  Pd  Pd13  1  0.654563  0.000049  0.345344  1
  Pd  Pd14  1  0.999552  0.655058  0.999539  1
  Pd  Pd15  1  0.345997  0.999101  0.654020  1
  Pd  Pd16  1  0.998733  0.000478  0.346377  1
  Pd  Pd17  1  0.999552  0.999539  0.655058  1
  Pd  Pd18  1  0.654563  0.345344  0.000049  1
  Pd  Pd19  1  0.345997  0.654020  0.999101  1
  Pd  Pd20  1  0.385552  0.385567  0.385567  1
  Pd  Pd21  1  0.615039  0.614804  0.614804  1
  Pd  Pd22  1  0.385742  0.386117  0.843307  1
  Pd  Pd23  1  0.385742  0.843307  0.386117  1
  Pd  Pd24  1  0.615549  0.614271  0.155548  1
  Pd  Pd25  1  0.615549  0.155548  0.614271  1
  Pd  Pd26  1  0.843496  0.385575  0.385575  1
  Pd  Pd27  1  0.155548  0.614808  0.614808  1
  Pt  Pt28  1  0.345036  0.999806  0.999806  1
