# generated using pymatgen
data_Er8Ti9Nb2Si16Rh
_symmetry_space_group_name_H-M   'P 1'
_cell_length_a   7.01201579
_cell_length_b   7.01201637
_cell_length_c   12.83522965
_cell_angle_alpha   90.16305672
_cell_angle_beta   89.83694136
_cell_angle_gamma   89.69625759
_symmetry_Int_Tables_number   1
_chemical_formula_structural   Er8Ti9Nb2Si16Rh
_chemical_formula_sum   'Er8 Ti9 Nb2 Si16 Rh1'
_cell_volume   631.07330786
_cell_formula_units_Z   1
loop_
 _symmetry_equiv_pos_site_id
 _symmetry_equiv_pos_as_xyz
  1  'x, y, z'
loop_
 _atom_site_type_symbol
 _atom_site_label
 _atom_site_symmetry_multiplicity
 _atom_site_fract_x
 _atom_site_fract_y
 _atom_site_fract_z
 _atom_site_occupancy
  Er  Er0  1  0.340944  0.002748  0.466712  1
  Er  Er1  1  0.497938  0.842976  0.718082  1
  Er  Er2  1  0.500844  0.157352  0.215259  1
  Er  Er3  1  0.842976  0.497938  0.281918  1
  Er  Er4  1  0.157352  0.500844  0.784741  1
  Er  Er5  1  0.657864  0.999353  0.968072  1
  Er  Er6  1  0.002748  0.340944  0.533288  1
  Er  Er7  1  0.999353  0.657864  0.031928  1
  Ti  Ti8  1  0.673675  0.673675  0.500000  1
  Ti  Ti9  1  0.147971  0.002837  0.874657  1
  Ti  Ti10  1  0.492618  0.656787  0.125190  1
  Ti  Ti11  1  0.508020  0.348289  0.628198  1
  Ti  Ti12  1  0.656787  0.492618  0.874810  1
  Ti  Ti13  1  0.348289  0.508020  0.371802  1
  Ti  Ti14  1  0.850127  0.993303  0.373373  1
  Ti  Ti15  1  0.002837  0.147971  0.125343  1
  Ti  Ti16  1  0.993303  0.850127  0.626627  1
  Nb  Nb17  1  0.174978  0.826097  0.248246  1
  Nb  Nb18  1  0.826097  0.174978  0.751754  1
  Si  Si19  1  0.204136  0.133100  0.684074  1
  Si  Si20  1  0.371764  0.703497  0.933146  1
  Si  Si21  1  0.631114  0.295990  0.433455  1
  Si  Si22  1  0.703497  0.371764  0.066854  1
  Si  Si23  1  0.295990  0.631114  0.566545  1
  Si  Si24  1  0.795095  0.867573  0.183178  1
  Si  Si25  1  0.133100  0.204136  0.315926  1
  Si  Si26  1  0.867573  0.795095  0.816822  1
  Si  Si27  1  0.288350  0.952400  0.061329  1
  Si  Si28  1  0.548618  0.791887  0.315607  1
  Si  Si29  1  0.447720  0.209509  0.817626  1
  Si  Si30  1  0.791887  0.548618  0.684393  1
  Si  Si31  1  0.209509  0.447720  0.182374  1
  Si  Si32  1  0.706976  0.046597  0.564190  1
  Si  Si33  1  0.952400  0.288350  0.938671  1
  Si  Si34  1  0.046597  0.706976  0.435810  1
  Rh  Rh35  1  0.330948  0.330948  0.000000  1
