# generated using pymatgen
data_Ti2(VN2)3
_symmetry_space_group_name_H-M   'P 1'
_cell_length_a   4.93785900
_cell_length_b   4.93785896
_cell_length_c   9.85605100
_cell_angle_alpha   90.00000000
_cell_angle_beta   90.00000000
_cell_angle_gamma   120.00000696
_symmetry_Int_Tables_number   1
_chemical_formula_structural   Ti2(VN2)3
_chemical_formula_sum   'Ti4 V6 N12'
_cell_volume   208.11860630
_cell_formula_units_Z   2
loop_
 _symmetry_equiv_pos_site_id
 _symmetry_equiv_pos_as_xyz
  1  'x, y, z'
loop_
 _atom_site_type_symbol
 _atom_site_label
 _atom_site_symmetry_multiplicity
 _atom_site_fract_x
 _atom_site_fract_y
 _atom_site_fract_z
 _atom_site_occupancy
  Ti  Ti0  1  0.333333  0.666667  0.500000  1
  Ti  Ti1  1  0.666667  0.333333  0.000000  1
  Ti  Ti2  1  0.666667  0.333333  0.500000  1
  Ti  Ti3  1  0.333333  0.666667  0.000000  1
  V  V4  1  0.678021  0.000000  0.750000  1
  V  V5  1  0.678021  0.678021  0.250000  1
  V  V6  1  0.000000  0.321979  0.250000  1
  V  V7  1  0.000000  0.678021  0.750000  1
  V  V8  1  0.321979  0.321979  0.750000  1
  V  V9  1  0.321979  0.000000  0.250000  1
  N  N10  1  0.341978  0.341978  0.372792  1
  N  N11  1  0.658022  0.000000  0.372792  1
  N  N12  1  0.000000  0.658022  0.372792  1
  N  N13  1  0.000000  0.341978  0.872792  1
  N  N14  1  0.658022  0.000000  0.127208  1
  N  N15  1  0.658022  0.658022  0.872792  1
  N  N16  1  0.341978  0.000000  0.872792  1
  N  N17  1  0.658022  0.658022  0.627208  1
  N  N18  1  0.000000  0.341978  0.627208  1
  N  N19  1  0.000000  0.658022  0.127208  1
  N  N20  1  0.341978  0.000000  0.627208  1
  N  N21  1  0.341978  0.341978  0.127208  1
