# generated using pymatgen
data_Ho4GaSi3Rh4
_symmetry_space_group_name_H-M   'P 1'
_cell_length_a   4.29773300
_cell_length_b   6.92652958
_cell_length_c   7.36859374
_cell_angle_alpha   90.18335707
_cell_angle_beta   90.00000000
_cell_angle_gamma   90.00000000
_symmetry_Int_Tables_number   1
_chemical_formula_structural   Ho4GaSi3Rh4
_chemical_formula_sum   'Ho4 Ga1 Si3 Rh4'
_cell_volume   219.34993673
_cell_formula_units_Z   1
loop_
 _symmetry_equiv_pos_site_id
 _symmetry_equiv_pos_as_xyz
  1  'x, y, z'
loop_
 _atom_site_type_symbol
 _atom_site_label
 _atom_site_symmetry_multiplicity
 _atom_site_fract_x
 _atom_site_fract_y
 _atom_site_fract_z
 _atom_site_occupancy
  Ho  Ho0  1  0.250000  0.499468  0.689142  1
  Ho  Ho1  1  0.750000  0.504229  0.309306  1
  Ho  Ho2  1  0.250000  0.994097  0.809008  1
  Ho  Ho3  1  0.750000  0.998506  0.191285  1
  Ga  Ga4  1  0.250000  0.295745  0.104564  1
  Si  Si5  1  0.750000  0.701744  0.897062  1
  Si  Si6  1  0.250000  0.795977  0.395837  1
  Si  Si7  1  0.750000  0.202468  0.603796  1
  Rh  Rh8  1  0.750000  0.843431  0.568861  1
  Rh  Rh9  1  0.250000  0.149266  0.440295  1
  Rh  Rh10  1  0.750000  0.345976  0.920277  1
  Rh  Rh11  1  0.250000  0.669092  0.070568  1
