# generated using pymatgen
data_Dy9HoTl2In6NiAu3
_symmetry_space_group_name_H-M   'P 1'
_cell_length_a   8.17184800
_cell_length_b   18.35266662
_cell_length_c   3.65383500
_cell_angle_alpha   90.00000000
_cell_angle_beta   90.00000000
_cell_angle_gamma   89.79399574
_symmetry_Int_Tables_number   1
_chemical_formula_structural   Dy9HoTl2In6NiAu3
_chemical_formula_sum   'Dy9 Ho1 Tl2 In6 Ni1 Au3'
_cell_volume   547.98110042
_cell_formula_units_Z   1
loop_
 _symmetry_equiv_pos_site_id
 _symmetry_equiv_pos_as_xyz
  1  'x, y, z'
loop_
 _atom_site_type_symbol
 _atom_site_label
 _atom_site_symmetry_multiplicity
 _atom_site_fract_x
 _atom_site_fract_y
 _atom_site_fract_z
 _atom_site_occupancy
  Dy  Dy0  1  0.500184  0.497904  0.000000  1
  Dy  Dy1  1  0.001456  0.002055  0.000000  1
  Dy  Dy2  1  0.759749  0.283131  0.000000  1
  Dy  Dy3  1  0.261242  0.715222  0.000000  1
  Dy  Dy4  1  0.760982  0.782596  0.000000  1
  Dy  Dy5  1  0.225612  0.224339  0.000000  1
  Dy  Dy6  1  0.620439  0.083315  0.000000  1
  Dy  Dy7  1  0.378574  0.920468  0.000000  1
  Dy  Dy8  1  0.878949  0.577146  0.000000  1
  Ho  Ho9  1  0.114201  0.411422  0.000000  1
  Tl  Tl10  1  0.711969  0.935149  0.500000  1
  Tl  Tl11  1  0.288580  0.070068  0.500000  1
  In  In12  1  0.794021  0.429834  0.500000  1
  In  In13  1  0.207565  0.562515  0.500000  1
  In  In14  1  0.579688  0.645602  0.500000  1
  In  In15  1  0.420546  0.352323  0.500000  1
  In  In16  1  0.923317  0.151699  0.500000  1
  In  In17  1  0.080808  0.852732  0.500000  1
  Ni  Ni18  1  0.025553  0.304202  0.500000  1
  Au  Au19  1  0.530185  0.200694  0.500000  1
  Au  Au20  1  0.466871  0.802438  0.500000  1
  Au  Au21  1  0.969509  0.695148  0.500000  1
