# generated using pymatgen
data_CaY3Tm2(Si3Ru)8
_symmetry_space_group_name_H-M   'P 1'
_cell_length_a   10.13953947
_cell_length_b   10.13954123
_cell_length_c   8.14603239
_cell_angle_alpha   89.90594883
_cell_angle_beta   90.09405007
_cell_angle_gamma   132.62968887
_symmetry_Int_Tables_number   1
_chemical_formula_structural   CaY3Tm2(Si3Ru)8
_chemical_formula_sum   'Ca1 Y3 Tm2 Si24 Ru8'
_cell_volume   616.18344961
_cell_formula_units_Z   1
loop_
 _symmetry_equiv_pos_site_id
 _symmetry_equiv_pos_as_xyz
  1  'x, y, z'
loop_
 _atom_site_type_symbol
 _atom_site_label
 _atom_site_symmetry_multiplicity
 _atom_site_fract_x
 _atom_site_fract_y
 _atom_site_fract_z
 _atom_site_occupancy
  Ca  Ca0  1  0.001966  0.501966  0.250000  1
  Y  Y1  1  0.498412  0.998412  0.750000  1
  Y  Y2  1  0.997111  0.497111  0.750000  1
  Y  Y3  1  0.502676  0.002676  0.250000  1
  Tm  Tm4  1  0.000273  0.000370  0.000571  1
  Tm  Tm5  1  0.500370  0.500273  0.499429  1
  Si  Si6  1  0.293799  0.704489  0.000217  1
  Si  Si7  1  0.795268  0.206237  0.498806  1
  Si  Si8  1  0.706237  0.295268  0.001194  1
  Si  Si9  1  0.204489  0.793799  0.499783  1
  Si  Si10  1  0.832491  0.833959  0.332973  1
  Si  Si11  1  0.166962  0.168559  0.666970  1
  Si  Si12  1  0.668559  0.666962  0.833030  1
  Si  Si13  1  0.333959  0.332491  0.167027  1
  Si  Si14  1  0.620260  0.386486  0.228352  1
  Si  Si15  1  0.610970  0.378001  0.772150  1
  Si  Si16  1  0.111535  0.878582  0.728562  1
  Si  Si17  1  0.123339  0.889923  0.271689  1
  Si  Si18  1  0.378582  0.611535  0.771438  1
  Si  Si19  1  0.389923  0.623339  0.228311  1
  Si  Si20  1  0.886486  0.120260  0.271648  1
  Si  Si21  1  0.878001  0.110970  0.727850  1
  Si  Si22  1  0.844655  0.611857  0.002694  1
  Si  Si23  1  0.388056  0.155487  0.994748  1
  Si  Si24  1  0.887771  0.654646  0.506031  1
  Si  Si25  1  0.344206  0.112054  0.495205  1
  Si  Si26  1  0.154646  0.387771  0.993969  1
  Si  Si27  1  0.612054  0.844206  0.004795  1
  Si  Si28  1  0.111857  0.344655  0.497306  1
  Si  Si29  1  0.655487  0.888056  0.505252  1
  Ru  Ru30  1  0.169881  0.831697  0.999401  1
  Ru  Ru31  1  0.667209  0.329679  0.501695  1
  Ru  Ru32  1  0.829679  0.167209  0.998305  1
  Ru  Ru33  1  0.331697  0.669881  0.500599  1
  Ru  Ru34  1  0.626872  0.626704  0.127117  1
  Ru  Ru35  1  0.373402  0.374157  0.873128  1
  Ru  Ru36  1  0.874157  0.873402  0.626872  1
  Ru  Ru37  1  0.126704  0.126872  0.372883  1
