# generated using pymatgen
data_Sr12Zn12TeW7O48
_symmetry_space_group_name_H-M   'P 1'
_cell_length_a   11.28850096
_cell_length_b   11.26465474
_cell_length_c   11.26465416
_cell_angle_alpha   109.42829336
_cell_angle_beta   109.51410508
_cell_angle_gamma   109.51411033
_symmetry_Int_Tables_number   1
_chemical_formula_structural   Sr12Zn12TeW7O48
_chemical_formula_sum   'Sr12 Zn12 Te1 W7 O48'
_cell_volume   1102.09752131
_cell_formula_units_Z   1
loop_
 _symmetry_equiv_pos_site_id
 _symmetry_equiv_pos_as_xyz
  1  'x, y, z'
loop_
 _atom_site_type_symbol
 _atom_site_label
 _atom_site_symmetry_multiplicity
 _atom_site_fract_x
 _atom_site_fract_y
 _atom_site_fract_z
 _atom_site_occupancy
  Sr  Sr0  1  0.377269  0.750853  0.125145  1
  Sr  Sr1  1  0.252125  0.374854  0.125707  1
  Sr  Sr2  1  0.873582  0.625707  0.250852  1
  Sr  Sr3  1  0.375004  0.125036  0.250041  1
  Sr  Sr4  1  0.124965  0.249959  0.374996  1
  Sr  Sr5  1  0.749968  0.125003  0.374963  1
  Sr  Sr6  1  0.875037  0.750041  0.625005  1
  Sr  Sr7  1  0.250031  0.874996  0.625036  1
  Sr  Sr8  1  0.126417  0.374292  0.749147  1
  Sr  Sr9  1  0.624997  0.874965  0.749959  1
  Sr  Sr10  1  0.622730  0.249146  0.874854  1
  Sr  Sr11  1  0.747875  0.625147  0.874294  1
  Zn  Zn12  1  0.750090  0.875380  0.125018  1
  Zn  Zn13  1  0.876738  0.250557  0.123439  1
  Zn  Zn14  1  0.625073  0.374983  0.250362  1
  Zn  Zn15  1  0.126181  0.872881  0.249443  1
  Zn  Zn16  1  0.625290  0.750361  0.375380  1
  Zn  Zn17  1  0.246700  0.623438  0.372881  1
  Zn  Zn18  1  0.374711  0.249638  0.624620  1
  Zn  Zn19  1  0.753300  0.376561  0.627120  1
  Zn  Zn20  1  0.873819  0.127120  0.750556  1
  Zn  Zn21  1  0.374928  0.625018  0.749637  1
  Zn  Zn22  1  0.123262  0.749442  0.876562  1
  Zn  Zn23  1  0.249910  0.124621  0.874982  1
  Te  Te24  1  0.000000  0.500000  0.000000  1
  W  W25  1  0.000000  0.000000  0.000000  1
  W  W26  1  0.500000  0.000000  0.000000  1
  W  W27  1  0.500000  0.500000  0.000000  1
  W  W28  1  0.000000  0.000000  0.500000  1
  W  W29  1  0.500000  0.500000  0.500000  1
  W  W30  1  0.500000  0.000000  0.500000  1
  W  W31  1  0.000000  0.500000  0.500000  1
  O  O32  1  0.329428  0.904784  0.015333  1
  O  O33  1  0.186528  0.109943  0.016085  1
  O  O34  1  0.686184  0.670635  0.076334  1
  O  O35  1  0.888312  0.407771  0.076783  1
  O  O36  1  0.980540  0.669011  0.092229  1
  O  O37  1  0.609851  0.423666  0.094303  1
  O  O38  1  0.594464  0.924039  0.110380  1
  O  O39  1  0.017526  0.186886  0.111457  1
  O  O40  1  0.188471  0.576782  0.169012  1
  O  O41  1  0.484452  0.594302  0.170636  1
  O  O42  1  0.575706  0.170069  0.186677  1
  O  O43  1  0.110027  0.014691  0.185918  1
  O  O44  1  0.330639  0.924571  0.313114  1
  O  O45  1  0.484084  0.389620  0.313659  1
  O  O46  1  0.905637  0.016608  0.329931  1
  O  O47  1  0.924109  0.314082  0.328773  1
  O  O48  1  0.576585  0.906142  0.390057  1
  O  O49  1  0.314093  0.484666  0.389451  1
  O  O50  1  0.829558  0.516085  0.406142  1
  O  O51  1  0.075357  0.889451  0.404784  1
  O  O52  1  0.829575  0.813659  0.424039  1
  O  O53  1  0.093932  0.611457  0.424571  1
  O  O54  1  0.595336  0.171227  0.485308  1
  O  O55  1  0.389030  0.313323  0.483392  1
  O  O56  1  0.610970  0.686676  0.516608  1
  O  O57  1  0.404664  0.828773  0.514692  1
  O  O58  1  0.170425  0.186340  0.575960  1
  O  O59  1  0.906068  0.388543  0.575429  1
  O  O60  1  0.924643  0.110549  0.595216  1
  O  O61  1  0.170442  0.483915  0.593858  1
  O  O62  1  0.685906  0.515334  0.610549  1
  O  O63  1  0.423415  0.093858  0.609943  1
  O  O64  1  0.094362  0.983391  0.670068  1
  O  O65  1  0.075891  0.685917  0.671226  1
  O  O66  1  0.515916  0.610380  0.686341  1
  O  O67  1  0.669360  0.075429  0.686885  1
  O  O68  1  0.889973  0.985309  0.814082  1
  O  O69  1  0.424293  0.829932  0.813323  1
  O  O70  1  0.515548  0.405698  0.829364  1
  O  O71  1  0.811529  0.423218  0.830988  1
  O  O72  1  0.982474  0.813114  0.888543  1
  O  O73  1  0.405536  0.075961  0.889620  1
  O  O74  1  0.019459  0.330988  0.907771  1
  O  O75  1  0.390149  0.576334  0.905697  1
  O  O76  1  0.111688  0.592229  0.923217  1
  O  O77  1  0.313815  0.329364  0.923666  1
  O  O78  1  0.670572  0.095216  0.984665  1
  O  O79  1  0.813472  0.890057  0.983915  1
