# generated using pymatgen
data_SrFeP3N5O2
_symmetry_space_group_name_H-M   'P 1'
_cell_length_a   6.63475000
_cell_length_b   7.09856996
_cell_length_c   14.27842254
_cell_angle_alpha   60.76945832
_cell_angle_beta   90.00000000
_cell_angle_gamma   90.00000000
_symmetry_Int_Tables_number   1
_chemical_formula_structural   SrFeP3N5O2
_chemical_formula_sum   'Sr4 Fe4 P12 N20 O8'
_cell_volume   586.84265649
_cell_formula_units_Z   4
loop_
 _symmetry_equiv_pos_site_id
 _symmetry_equiv_pos_as_xyz
  1  'x, y, z'
loop_
 _atom_site_type_symbol
 _atom_site_label
 _atom_site_symmetry_multiplicity
 _atom_site_fract_x
 _atom_site_fract_y
 _atom_site_fract_z
 _atom_site_occupancy
  Sr  Sr0  1  0.748964  0.513750  0.610787  1
  Sr  Sr1  1  0.248964  0.486250  0.889213  1
  Sr  Sr2  1  0.251036  0.486250  0.389213  1
  Sr  Sr3  1  0.751036  0.513750  0.110787  1
  Fe  Fe4  1  0.504516  0.985712  0.879411  1
  Fe  Fe5  1  0.004516  0.014288  0.620589  1
  Fe  Fe6  1  0.495484  0.014288  0.120589  1
  Fe  Fe7  1  0.995484  0.985712  0.379411  1
  P  P8  1  0.014012  0.938475  0.880945  1
  P  P9  1  0.514012  0.061525  0.619055  1
  P  P10  1  0.985988  0.061525  0.119055  1
  P  P11  1  0.485988  0.938475  0.380945  1
  P  P12  1  0.276628  0.738825  0.589301  1
  P  P13  1  0.776628  0.261175  0.910699  1
  P  P14  1  0.723372  0.261175  0.410699  1
  P  P15  1  0.223372  0.738825  0.089301  1
  P  P16  1  0.759112  0.722263  0.792023  1
  P  P17  1  0.259112  0.277737  0.707977  1
  P  P18  1  0.240888  0.277737  0.207977  1
  P  P19  1  0.740888  0.722263  0.292023  1
  N  N20  1  0.308212  0.937812  0.615635  1
  N  N21  1  0.808212  0.062188  0.884365  1
  N  N22  1  0.691788  0.062188  0.384365  1
  N  N23  1  0.191788  0.937812  0.115635  1
  N  N24  1  0.704681  0.892752  0.664683  1
  N  N25  1  0.204681  0.107248  0.835317  1
  N  N26  1  0.295319  0.107248  0.335317  1
  N  N27  1  0.795319  0.892752  0.164683  1
  N  N28  1  0.973391  0.821299  0.808112  1
  N  N29  1  0.473391  0.178701  0.691888  1
  N  N30  1  0.026609  0.178701  0.191888  1
  N  N31  1  0.526609  0.821299  0.308112  1
  N  N32  1  0.805288  0.489332  0.799660  1
  N  N33  1  0.305288  0.510668  0.700340  1
  N  N34  1  0.194712  0.510668  0.200340  1
  N  N35  1  0.694712  0.489332  0.299660  1
  N  N36  1  0.573583  0.262267  0.500750  1
  N  N37  1  0.073583  0.737733  0.999250  1
  N  N38  1  0.426417  0.737733  0.499250  1
  N  N39  1  0.926417  0.262267  0.000750  1
  O  O40  1  0.051136  0.772201  0.550637  1
  O  O41  1  0.551136  0.227799  0.949363  1
  O  O42  1  0.948864  0.227799  0.449363  1
  O  O43  1  0.448864  0.772201  0.050637  1
  O  O44  1  0.588243  0.703924  0.871281  1
  O  O45  1  0.088243  0.296076  0.628719  1
  O  O46  1  0.411757  0.296076  0.128719  1
  O  O47  1  0.911757  0.703924  0.371281  1
