# generated using pymatgen
data_Hf6Ti2Al14SiRu5Rh2
_symmetry_space_group_name_H-M   'P 1'
_cell_length_a   8.77424743
_cell_length_b   8.77350576
_cell_length_c   8.77428400
_cell_angle_alpha   120.18500684
_cell_angle_beta   119.75046344
_cell_angle_gamma   90.05840772
_symmetry_Int_Tables_number   1
_chemical_formula_structural   Hf6Ti2Al14SiRu5Rh2
_chemical_formula_sum   'Hf6 Ti2 Al14 Si1 Ru5 Rh2'
_cell_volume   477.83227045
_cell_formula_units_Z   1
loop_
 _symmetry_equiv_pos_site_id
 _symmetry_equiv_pos_as_xyz
  1  'x, y, z'
loop_
 _atom_site_type_symbol
 _atom_site_label
 _atom_site_symmetry_multiplicity
 _atom_site_fract_x
 _atom_site_fract_y
 _atom_site_fract_z
 _atom_site_occupancy
  Hf  Hf0  1  0.796687  0.294420  0.083432  1
  Hf  Hf1  1  0.210887  0.294364  0.497696  1
  Hf  Hf2  1  0.204974  0.704986  0.499970  1
  Hf  Hf3  1  0.210943  0.713232  0.916567  1
  Hf  Hf4  1  0.796692  0.713218  0.502292  1
  Hf  Hf5  1  0.787869  0.287891  0.500023  1
  Ti  Ti6  1  0.378594  0.122368  0.743781  1
  Ti  Ti7  1  0.378615  0.634858  0.256266  1
  Al  Al8  1  0.163468  0.336956  0.173538  1
  Al  Al9  1  0.163470  0.989907  0.826481  1
  Al  Al10  1  0.160591  0.338397  0.822192  1
  Al  Al11  1  0.516192  0.338321  0.177746  1
  Al  Al12  1  0.837653  0.661204  0.823578  1
  Al  Al13  1  0.837586  0.014095  0.176403  1
  Al  Al14  1  0.835525  0.662933  0.172562  1
  Al  Al15  1  0.490357  0.662968  0.827426  1
  Al  Al16  1  0.382090  0.121044  0.261033  1
  Al  Al17  1  0.860012  0.121019  0.738945  1
  Al  Al18  1  0.619076  0.876303  0.257228  1
  Al  Al19  1  0.619073  0.361892  0.742774  1
  Al  Al20  1  0.616628  0.877872  0.738764  1
  Al  Al21  1  0.139118  0.877906  0.261253  1
  Si  Si22  1  0.996090  0.496124  0.500036  1
  Ru  Ru23  1  0.001778  0.000651  0.501874  1
  Ru  Ru24  1  0.498758  0.000630  0.998860  1
  Ru  Ru25  1  0.498211  0.498199  0.999952  1
  Ru  Ru26  1  0.498841  0.499873  0.498124  1
  Ru  Ru27  1  0.001805  0.499917  0.001142  1
  Rh  Rh28  1  0.000854  0.000875  0.000033  1
  Rh  Rh29  1  0.497553  0.997573  0.500029  1
