# generated using pymatgen
data_VCu(ReO4)4
_symmetry_space_group_name_H-M   'P 1'
_cell_length_a   5.68460284
_cell_length_b   9.83751520
_cell_length_c   6.57523500
_cell_angle_alpha   89.93856037
_cell_angle_beta   90.04615228
_cell_angle_gamma   90.10824592
_symmetry_Int_Tables_number   1
_chemical_formula_structural   VCu(ReO4)4
_chemical_formula_sum   'V1 Cu1 Re4 O16'
_cell_volume   367.70171758
_cell_formula_units_Z   1
loop_
 _symmetry_equiv_pos_site_id
 _symmetry_equiv_pos_as_xyz
  1  'x, y, z'
loop_
 _atom_site_type_symbol
 _atom_site_label
 _atom_site_symmetry_multiplicity
 _atom_site_fract_x
 _atom_site_fract_y
 _atom_site_fract_z
 _atom_site_occupancy
  V  V0  1  0.500008  0.500003  0.999997  1
  Cu  Cu1  1  0.999989  0.999979  0.999996  1
  Re  Re2  1  0.999687  0.335310  0.279839  1
  Re  Re3  1  0.500115  0.830447  0.278711  1
  Re  Re4  1  0.499878  0.169554  0.721315  1
  Re  Re5  1  0.000325  0.664690  0.720140  1
  O  O6  1  0.500546  0.174748  0.456812  1
  O  O7  1  0.998858  0.660669  0.456279  1
  O  O8  1  0.001147  0.339328  0.543701  1
  O  O9  1  0.499441  0.825250  0.543209  1
  O  O10  1  0.744247  0.078838  0.807945  1
  O  O11  1  0.250452  0.579153  0.816629  1
  O  O12  1  0.991615  0.167598  0.197527  1
  O  O13  1  0.491360  0.661817  0.176140  1
  O  O14  1  0.256939  0.413188  0.181898  1
  O  O15  1  0.753647  0.913077  0.193036  1
  O  O16  1  0.749566  0.420852  0.183357  1
  O  O17  1  0.255731  0.921159  0.192073  1
  O  O18  1  0.508643  0.338189  0.823870  1
  O  O19  1  0.008395  0.832405  0.802446  1
  O  O20  1  0.246338  0.086933  0.806984  1
  O  O21  1  0.743073  0.586816  0.818095  1
