# generated using pymatgen
data_Ba4As2Se
_symmetry_space_group_name_H-M   'P 1'
_cell_length_a   8.69658672
_cell_length_b   8.69658731
_cell_length_c   8.69658713
_cell_angle_alpha   109.37561036
_cell_angle_beta   109.37560668
_cell_angle_gamma   109.66261150
_symmetry_Int_Tables_number   1
_chemical_formula_structural   Ba4As2Se
_chemical_formula_sum   'Ba8 As4 Se2'
_cell_volume   506.31528123
_cell_formula_units_Z   2
loop_
 _symmetry_equiv_pos_site_id
 _symmetry_equiv_pos_as_xyz
  1  'x, y, z'
loop_
 _atom_site_type_symbol
 _atom_site_label
 _atom_site_symmetry_multiplicity
 _atom_site_fract_x
 _atom_site_fract_y
 _atom_site_fract_z
 _atom_site_occupancy
  Ba  Ba0  1  0.369012  0.369224  0.363424  1
  Ba  Ba1  1  0.130988  0.494412  0.000212  1
  Ba  Ba2  1  0.994200  0.130776  0.499788  1
  Ba  Ba3  1  0.869224  0.869012  0.863424  1
  Ba  Ba4  1  0.505800  0.005588  0.136576  1
  Ba  Ba5  1  0.630776  0.494200  0.999788  1
  Ba  Ba6  1  0.505588  0.005800  0.636576  1
  Ba  Ba7  1  0.994412  0.630988  0.500212  1
  As  As8  1  0.876585  0.250000  0.126585  1
  As  As9  1  0.623415  0.750000  0.373415  1
  As  As10  1  0.250000  0.123415  0.873415  1
  As  As11  1  0.750000  0.376585  0.626585  1
  Se  Se12  1  0.125000  0.875000  0.250000  1
  Se  Se13  1  0.375000  0.625000  0.750000  1
