# generated using pymatgen
data_Cs6K3GaBi4
_symmetry_space_group_name_H-M   'P 1'
_cell_length_a   11.44114100
_cell_length_b   11.44114183
_cell_length_c   11.87596100
_cell_angle_alpha   90.00000000
_cell_angle_beta   90.00000000
_cell_angle_gamma   119.99999471
_symmetry_Int_Tables_number   1
_chemical_formula_structural   Cs6K3GaBi4
_chemical_formula_sum   'Cs12 K6 Ga2 Bi8'
_cell_volume   1346.28846489
_cell_formula_units_Z   2
loop_
 _symmetry_equiv_pos_site_id
 _symmetry_equiv_pos_as_xyz
  1  'x, y, z'
loop_
 _atom_site_type_symbol
 _atom_site_label
 _atom_site_symmetry_multiplicity
 _atom_site_fract_x
 _atom_site_fract_y
 _atom_site_fract_z
 _atom_site_occupancy
  Cs  Cs0  1  0.209341  0.418680  0.541548  1
  Cs  Cs1  1  0.790659  0.209341  0.041548  1
  Cs  Cs2  1  0.418680  0.209341  0.041548  1
  Cs  Cs3  1  0.581320  0.790659  0.541548  1
  Cs  Cs4  1  0.209341  0.790659  0.541548  1
  Cs  Cs5  1  0.790659  0.581320  0.458452  1
  Cs  Cs6  1  0.790659  0.209341  0.458452  1
  Cs  Cs7  1  0.790659  0.581320  0.041548  1
  Cs  Cs8  1  0.418680  0.209341  0.458452  1
  Cs  Cs9  1  0.581320  0.790659  0.958452  1
  Cs  Cs10  1  0.209341  0.418680  0.958452  1
  Cs  Cs11  1  0.209341  0.790659  0.958452  1
  K  K12  1  0.118997  0.237993  0.250000  1
  K  K13  1  0.881003  0.118997  0.750000  1
  K  K14  1  0.237993  0.118997  0.750000  1
  K  K15  1  0.762007  0.881003  0.250000  1
  K  K16  1  0.118997  0.881003  0.250000  1
  K  K17  1  0.881003  0.762007  0.750000  1
  Ga  Ga18  1  0.333333  0.666667  0.250000  1
  Ga  Ga19  1  0.666667  0.333333  0.750000  1
  Bi  Bi20  1  0.474370  0.525630  0.250000  1
  Bi  Bi21  1  0.948738  0.474370  0.750000  1
  Bi  Bi22  1  0.525630  0.051262  0.750000  1
  Bi  Bi23  1  0.474370  0.948738  0.250000  1
  Bi  Bi24  1  0.051262  0.525630  0.250000  1
  Bi  Bi25  1  0.525630  0.474370  0.750000  1
  Bi  Bi26  1  0.000000  0.000000  0.000000  1
  Bi  Bi27  1  0.000000  0.000000  0.500000  1
