# generated using pymatgen
data_Zr8Nb12Si15B
_symmetry_space_group_name_H-M   'P 1'
_cell_length_a   6.67333436
_cell_length_b   6.83776315
_cell_length_c   13.14452300
_cell_angle_alpha   90.00000000
_cell_angle_beta   90.00000000
_cell_angle_gamma   89.70294593
_symmetry_Int_Tables_number   1
_chemical_formula_structural   Zr8Nb12Si15B
_chemical_formula_sum   'Zr8 Nb12 Si15 B1'
_cell_volume   599.78545926
_cell_formula_units_Z   1
loop_
 _symmetry_equiv_pos_site_id
 _symmetry_equiv_pos_as_xyz
  1  'x, y, z'
loop_
 _atom_site_type_symbol
 _atom_site_label
 _atom_site_symmetry_multiplicity
 _atom_site_fract_x
 _atom_site_fract_y
 _atom_site_fract_z
 _atom_site_occupancy
  Zr  Zr0  1  0.499660  0.668120  0.596719  1
  Zr  Zr1  1  0.001225  0.825626  0.902223  1
  Zr  Zr2  1  0.501676  0.327616  0.093916  1
  Zr  Zr3  1  0.001809  0.173023  0.406774  1
  Zr  Zr4  1  0.501676  0.327616  0.406084  1
  Zr  Zr5  1  0.001809  0.173023  0.093226  1
  Zr  Zr6  1  0.499660  0.668120  0.903281  1
  Zr  Zr7  1  0.001225  0.825626  0.597777  1
  Nb  Nb8  1  0.652341  0.183554  0.627698  1
  Nb  Nb9  1  0.169724  0.328491  0.873672  1
  Nb  Nb10  1  0.337594  0.827792  0.122778  1
  Nb  Nb11  1  0.836801  0.672740  0.377087  1
  Nb  Nb12  1  0.337594  0.827792  0.377222  1
  Nb  Nb13  1  0.836801  0.672740  0.122913  1
  Nb  Nb14  1  0.652341  0.183554  0.872302  1
  Nb  Nb15  1  0.169724  0.328491  0.626328  1
  Nb  Nb16  1  0.829183  0.494264  0.750000  1
  Nb  Nb17  1  0.337076  0.006891  0.750000  1
  Nb  Nb18  1  0.162667  0.504939  0.250000  1
  Nb  Nb19  1  0.662923  0.995782  0.250000  1
  Si  Si20  1  0.670065  0.965325  0.465208  1
  Si  Si21  1  0.170734  0.536102  0.036945  1
  Si  Si22  1  0.329803  0.035707  0.961487  1
  Si  Si23  1  0.832375  0.463375  0.539205  1
  Si  Si24  1  0.329803  0.035707  0.538513  1
  Si  Si25  1  0.832375  0.463375  0.960795  1
  Si  Si26  1  0.670065  0.965325  0.034792  1
  Si  Si27  1  0.170734  0.536102  0.463055  1
  Si  Si28  1  0.958159  0.116046  0.750000  1
  Si  Si29  1  0.540006  0.614824  0.250000  1
  Si  Si30  1  0.039503  0.885926  0.250000  1
  Si  Si31  1  0.704036  0.866177  0.750000  1
  Si  Si32  1  0.218070  0.623326  0.750000  1
  Si  Si33  1  0.294362  0.136712  0.250000  1
  Si  Si34  1  0.796433  0.363522  0.250000  1
  B  B35  1  0.449969  0.376648  0.750000  1
