# generated using pymatgen
data_Hf5ScCoSn6Ir5
_symmetry_space_group_name_H-M   'P 1'
_cell_length_a   7.40284351
_cell_length_b   7.38449398
_cell_length_c   7.17220200
_cell_angle_alpha   90.00000000
_cell_angle_beta   90.00000000
_cell_angle_gamma   119.91895712
_symmetry_Int_Tables_number   1
_chemical_formula_structural   Hf5ScCoSn6Ir5
_chemical_formula_sum   'Hf5 Sc1 Co1 Sn6 Ir5'
_cell_volume   339.82594866
_cell_formula_units_Z   1
loop_
 _symmetry_equiv_pos_site_id
 _symmetry_equiv_pos_as_xyz
  1  'x, y, z'
loop_
 _atom_site_type_symbol
 _atom_site_label
 _atom_site_symmetry_multiplicity
 _atom_site_fract_x
 _atom_site_fract_y
 _atom_site_fract_z
 _atom_site_occupancy
  Hf  Hf0  1  0.012882  0.401967  0.750000  1
  Hf  Hf1  1  0.596383  0.613237  0.750000  1
  Hf  Hf2  1  0.388338  0.985849  0.750000  1
  Hf  Hf3  1  0.613839  0.597406  0.250000  1
  Hf  Hf4  1  0.401587  0.015077  0.250000  1
  Sc  Sc5  1  0.985465  0.389217  0.250000  1
  Co  Co6  1  0.000854  0.990681  0.250000  1
  Sn  Sn7  1  0.263509  0.265275  0.490076  1
  Sn  Sn8  1  0.998695  0.730296  0.493954  1
  Sn  Sn9  1  0.998695  0.730296  0.006046  1
  Sn  Sn10  1  0.738132  0.004503  0.488973  1
  Sn  Sn11  1  0.738132  0.004503  0.011027  1
  Sn  Sn12  1  0.263509  0.265275  0.009924  1
  Ir  Ir13  1  0.338410  0.670789  0.478819  1
  Ir  Ir14  1  0.661943  0.332540  0.534683  1
  Ir  Ir15  1  0.338410  0.670789  0.021181  1
  Ir  Ir16  1  0.999276  0.999759  0.750000  1
  Ir  Ir17  1  0.661943  0.332540  0.965317  1
