# generated using pymatgen
data_Mg2Sn2Ir3
_symmetry_space_group_name_H-M   'P 1'
_cell_length_a   7.69804257
_cell_length_b   7.69804295
_cell_length_c   7.69804219
_cell_angle_alpha   33.86459065
_cell_angle_beta   33.86458793
_cell_angle_gamma   33.86459397
_symmetry_Int_Tables_number   1
_chemical_formula_structural   Mg2Sn2Ir3
_chemical_formula_sum   'Mg2 Sn2 Ir3'
_cell_volume   126.23401821
_cell_formula_units_Z   1
loop_
 _symmetry_equiv_pos_site_id
 _symmetry_equiv_pos_as_xyz
  1  'x, y, z'
loop_
 _atom_site_type_symbol
 _atom_site_label
 _atom_site_symmetry_multiplicity
 _atom_site_fract_x
 _atom_site_fract_y
 _atom_site_fract_z
 _atom_site_occupancy
  Mg  Mg0  1  0.243576  0.243576  0.243576  1
  Mg  Mg1  1  0.754532  0.754532  0.754532  1
  Sn  Sn2  1  0.005263  0.005263  0.005263  1
  Sn  Sn3  1  0.496653  0.496653  0.496653  1
  Ir  Ir4  1  0.371357  0.371357  0.371357  1
  Ir  Ir5  1  0.625189  0.625189  0.625189  1
  Ir  Ir6  1  0.878428  0.878428  0.878428  1
