# generated using pymatgen
data_Dy5Co9Si6(P3Ru5)2
_symmetry_space_group_name_H-M   'P 1'
_cell_length_a   12.43976102
_cell_length_b   12.40596785
_cell_length_c   3.79878300
_cell_angle_alpha   90.00000000
_cell_angle_beta   90.00000000
_cell_angle_gamma   119.80946371
_symmetry_Int_Tables_number   1
_chemical_formula_structural   Dy5Co9Si6(P3Ru5)2
_chemical_formula_sum   'Dy5 Co9 Si6 P6 Ru10'
_cell_volume   508.68442525
_cell_formula_units_Z   1
loop_
 _symmetry_equiv_pos_site_id
 _symmetry_equiv_pos_as_xyz
  1  'x, y, z'
loop_
 _atom_site_type_symbol
 _atom_site_label
 _atom_site_symmetry_multiplicity
 _atom_site_fract_x
 _atom_site_fract_y
 _atom_site_fract_z
 _atom_site_occupancy
  Dy  Dy0  1  0.663683  0.332704  0.000000  1
  Dy  Dy1  1  0.333045  0.666988  0.000000  1
  Dy  Dy2  1  0.183179  0.179589  0.500000  1
  Dy  Dy3  1  0.821302  0.001281  0.500000  1
  Dy  Dy4  1  0.996682  0.818695  0.500000  1
  Co  Co5  1  0.803084  0.634083  0.000000  1
  Co  Co6  1  0.364521  0.167747  0.000000  1
  Co  Co7  1  0.195136  0.826188  0.000000  1
  Co  Co8  1  0.627924  0.800979  0.000000  1
  Co  Co9  1  0.178152  0.372979  0.000000  1
  Co  Co10  1  0.720802  0.726602  0.500000  1
  Co  Co11  1  0.271038  0.993570  0.500000  1
  Co  Co12  1  0.012704  0.282827  0.500000  1
  Co  Co13  1  0.000059  0.999387  0.000000  1
  Si  Si14  1  0.366938  0.366337  0.000000  1
  Si  Si15  1  0.628671  0.995781  0.000000  1
  Si  Si16  1  0.000423  0.635124  0.000000  1
  Si  Si17  1  0.848253  0.321260  0.500000  1
  Si  Si18  1  0.681222  0.527406  0.500000  1
  Si  Si19  1  0.469187  0.152327  0.500000  1
  P  P20  1  0.314349  0.841666  0.500000  1
  P  P21  1  0.526188  0.684386  0.500000  1
  P  P22  1  0.161379  0.476451  0.500000  1
  P  P23  1  0.817974  0.820268  0.000000  1
  P  P24  1  0.178346  0.997157  0.000000  1
  P  P25  1  0.009131  0.184243  0.000000  1
  Ru  Ru26  1  0.561608  0.561270  0.000000  1
  Ru  Ru27  1  0.432395  0.994385  0.000000  1
  Ru  Ru28  1  0.008547  0.444030  0.000000  1
  Ru  Ru29  1  0.829186  0.195153  0.000000  1
  Ru  Ru30  1  0.643824  0.124499  0.500000  1
  Ru  Ru31  1  0.873311  0.523474  0.500000  1
  Ru  Ru32  1  0.477067  0.349684  0.500000  1
  Ru  Ru33  1  0.132243  0.649118  0.500000  1
  Ru  Ru34  1  0.514163  0.867211  0.500000  1
  Ru  Ru35  1  0.354285  0.485150  0.500000  1
