# generated using pymatgen
data_Tb4Ge3Sb3Rh7
_symmetry_space_group_name_H-M   'P 1'
_cell_length_a   7.49257457
_cell_length_b   7.45714308
_cell_length_c   7.45714353
_cell_angle_alpha   109.37477188
_cell_angle_beta   109.56750179
_cell_angle_gamma   109.56749537
_symmetry_Int_Tables_number   1
_chemical_formula_structural   Tb4Ge3Sb3Rh7
_chemical_formula_sum   'Tb4 Ge3 Sb3 Rh7'
_cell_volume   320.35886765
_cell_formula_units_Z   1
loop_
 _symmetry_equiv_pos_site_id
 _symmetry_equiv_pos_as_xyz
  1  'x, y, z'
loop_
 _atom_site_type_symbol
 _atom_site_label
 _atom_site_symmetry_multiplicity
 _atom_site_fract_x
 _atom_site_fract_y
 _atom_site_fract_z
 _atom_site_occupancy
  Tb  Tb0  1  0.541200  0.000000  0.000000  1
  Tb  Tb1  1  0.988544  0.481060  0.000000  1
  Tb  Tb2  1  0.988544  0.000000  0.481060  1
  Tb  Tb3  1  0.507484  0.518940  0.518940  1
  Ge  Ge4  1  0.005210  0.332920  0.332920  1
  Ge  Ge5  1  0.672289  0.000000  0.667080  1
  Ge  Ge6  1  0.672289  0.667080  0.000000  1
  Sb  Sb7  1  0.008020  0.693860  0.693860  1
  Sb  Sb8  1  0.314159  0.000000  0.306140  1
  Sb  Sb9  1  0.314159  0.306140  0.000000  1
  Rh  Rh10  1  0.965149  0.000000  0.000000  1
  Rh  Rh11  1  0.503823  0.750101  0.249893  1
  Rh  Rh12  1  0.753722  0.499792  0.249899  1
  Rh  Rh13  1  0.253930  0.750107  0.500208  1
  Rh  Rh14  1  0.253930  0.500208  0.750107  1
  Rh  Rh15  1  0.503823  0.249893  0.750101  1
  Rh  Rh16  1  0.753722  0.249899  0.499792  1
