# generated using pymatgen
data_Tb5Er3Hf9Si16W3
_symmetry_space_group_name_H-M   'P 1'
_cell_length_a   7.18118783
_cell_length_b   7.18024025
_cell_length_c   13.17091947
_cell_angle_alpha   90.02823003
_cell_angle_beta   89.96773963
_cell_angle_gamma   90.08968019
_symmetry_Int_Tables_number   1
_chemical_formula_structural   Tb5Er3Hf9Si16W3
_chemical_formula_sum   'Tb5 Er3 Hf9 Si16 W3'
_cell_volume   679.12654039
_cell_formula_units_Z   1
loop_
 _symmetry_equiv_pos_site_id
 _symmetry_equiv_pos_as_xyz
  1  'x, y, z'
loop_
 _atom_site_type_symbol
 _atom_site_label
 _atom_site_symmetry_multiplicity
 _atom_site_fract_x
 _atom_site_fract_y
 _atom_site_fract_z
 _atom_site_occupancy
  Tb  Tb0  1  0.500857  0.844958  0.036401  1
  Tb  Tb1  1  0.846312  0.503223  0.967949  1
  Tb  Tb2  1  0.497186  0.153633  0.531996  1
  Tb  Tb3  1  0.342413  0.997591  0.784827  1
  Tb  Tb4  1  0.655851  0.000338  0.285296  1
  Er  Er5  1  0.000463  0.344120  0.215078  1
  Er  Er6  1  0.001818  0.656882  0.714400  1
  Er  Er7  1  0.154866  0.499956  0.463718  1
  Hf  Hf8  1  0.675991  0.324382  0.749672  1
  Hf  Hf9  1  0.146385  0.993778  0.373235  1
  Hf  Hf10  1  0.855348  0.004203  0.874970  1
  Hf  Hf11  1  0.505179  0.649550  0.619657  1
  Hf  Hf12  1  0.349848  0.495661  0.879663  1
  Hf  Hf13  1  0.493192  0.352126  0.124003  1
  Hf  Hf14  1  0.647309  0.506251  0.376227  1
  Hf  Hf15  1  0.996534  0.144972  0.624513  1
  Hf  Hf16  1  0.005685  0.853147  0.126999  1
  Si  Si17  1  0.358558  0.301007  0.315689  1
  Si  Si18  1  0.640517  0.703231  0.814956  1
  Si  Si19  1  0.198609  0.856797  0.564487  1
  Si  Si20  1  0.141168  0.800394  0.935788  1
  Si  Si21  1  0.800374  0.140765  0.066734  1
  Si  Si22  1  0.861018  0.202182  0.433489  1
  Si  Si23  1  0.295771  0.361453  0.684040  1
  Si  Si24  1  0.701173  0.638172  0.184940  1
  Si  Si25  1  0.293788  0.051314  0.184909  1
  Si  Si26  1  0.706277  0.945704  0.681729  1
  Si  Si27  1  0.446738  0.793432  0.432405  1
  Si  Si28  1  0.205097  0.551322  0.068121  1
  Si  Si29  1  0.548344  0.203993  0.936105  1
  Si  Si30  1  0.798667  0.452932  0.563803  1
  Si  Si31  1  0.053334  0.295890  0.817560  1
  Si  Si32  1  0.950718  0.703174  0.315590  1
  W  W33  1  0.176467  0.176519  0.002582  1
  W  W34  1  0.824522  0.822322  0.497890  1
  W  W35  1  0.323626  0.674626  0.250575  1
