# generated using pymatgen
data_SrTlVS4
_symmetry_space_group_name_H-M   'P 1'
_cell_length_a   12.67614800
_cell_length_b   6.78825000
_cell_length_c   9.04189800
_cell_angle_alpha   90.00000000
_cell_angle_beta   90.00000000
_cell_angle_gamma   90.00000000
_symmetry_Int_Tables_number   1
_chemical_formula_structural   SrTlVS4
_chemical_formula_sum   'Sr4 Tl4 V4 S16'
_cell_volume   778.04503015
_cell_formula_units_Z   4
loop_
 _symmetry_equiv_pos_site_id
 _symmetry_equiv_pos_as_xyz
  1  'x, y, z'
loop_
 _atom_site_type_symbol
 _atom_site_label
 _atom_site_symmetry_multiplicity
 _atom_site_fract_x
 _atom_site_fract_y
 _atom_site_fract_z
 _atom_site_occupancy
  Sr  Sr0  1  0.642470  0.250000  0.892958  1
  Sr  Sr1  1  0.857530  0.750000  0.392959  1
  Sr  Sr2  1  0.142470  0.250000  0.607042  1
  Sr  Sr3  1  0.357530  0.750000  0.107041  1
  Tl  Tl4  1  0.392999  0.750000  0.628157  1
  Tl  Tl5  1  0.107001  0.250000  0.128157  1
  Tl  Tl6  1  0.892999  0.750000  0.871843  1
  Tl  Tl7  1  0.607001  0.250000  0.371843  1
  V  V8  1  0.351908  0.250000  0.879871  1
  V  V9  1  0.148093  0.750000  0.379871  1
  V  V10  1  0.851908  0.250000  0.620130  1
  V  V11  1  0.648093  0.750000  0.120129  1
  S  S12  1  0.247839  0.997546  0.867447  1
  S  S13  1  0.252161  0.002454  0.367447  1
  S  S14  1  0.747839  0.502456  0.632552  1
  S  S15  1  0.752161  0.497546  0.132552  1
  S  S16  1  0.752161  0.002454  0.132552  1
  S  S17  1  0.747839  0.997546  0.632552  1
  S  S18  1  0.252161  0.497546  0.367447  1
  S  S19  1  0.247839  0.502456  0.867447  1
  S  S20  1  0.440741  0.250000  0.081677  1
  S  S21  1  0.059259  0.750000  0.581677  1
  S  S22  1  0.940740  0.250000  0.418323  1
  S  S23  1  0.559259  0.750000  0.918323  1
  S  S24  1  0.453149  0.250000  0.688415  1
  S  S25  1  0.046851  0.750000  0.188415  1
  S  S26  1  0.953149  0.250000  0.811586  1
  S  S27  1  0.546850  0.750000  0.311586  1
