# generated using pymatgen
data_CaPr6RhI12
_symmetry_space_group_name_H-M   'P 1'
_cell_length_a   10.14549615
_cell_length_b   10.14549536
_cell_length_c   10.14549604
_cell_angle_alpha   107.23367131
_cell_angle_beta   107.23366568
_cell_angle_gamma   107.23366856
_symmetry_Int_Tables_number   1
_chemical_formula_structural   CaPr6RhI12
_chemical_formula_sum   'Ca1 Pr6 Rh1 I12'
_cell_volume   864.08859206
_cell_formula_units_Z   1
loop_
 _symmetry_equiv_pos_site_id
 _symmetry_equiv_pos_as_xyz
  1  'x, y, z'
loop_
 _atom_site_type_symbol
 _atom_site_label
 _atom_site_symmetry_multiplicity
 _atom_site_fract_x
 _atom_site_fract_y
 _atom_site_fract_z
 _atom_site_occupancy
  Ca  Ca0  1  0.500000  0.500000  0.500000  1
  Pr  Pr1  1  0.975311  0.901228  0.695334  1
  Pr  Pr2  1  0.024689  0.098772  0.304666  1
  Pr  Pr3  1  0.098772  0.304666  0.024689  1
  Pr  Pr4  1  0.304666  0.024689  0.098772  1
  Pr  Pr5  1  0.901228  0.695334  0.975311  1
  Pr  Pr6  1  0.695334  0.975311  0.901228  1
  Rh  Rh7  1  0.000000  0.000000  0.000000  1
  I  I8  1  0.538110  0.616466  0.839884  1
  I  I9  1  0.461890  0.383534  0.160116  1
  I  I10  1  0.318784  0.926531  0.773509  1
  I  I11  1  0.383534  0.160116  0.461890  1
  I  I12  1  0.926531  0.773509  0.318784  1
  I  I13  1  0.681216  0.073469  0.226491  1
  I  I14  1  0.073469  0.226491  0.681216  1
  I  I15  1  0.773509  0.318784  0.926531  1
  I  I16  1  0.226491  0.681216  0.073469  1
  I  I17  1  0.839884  0.538110  0.616466  1
  I  I18  1  0.160116  0.461890  0.383534  1
  I  I19  1  0.616466  0.839884  0.538110  1
