# generated using pymatgen
data_Nd4ZrSc3Pt4
_symmetry_space_group_name_H-M   'P 1'
_cell_length_a   4.72192600
_cell_length_b   7.20160651
_cell_length_c   8.50198370
_cell_angle_alpha   90.73240468
_cell_angle_beta   90.00000000
_cell_angle_gamma   90.00000000
_symmetry_Int_Tables_number   1
_chemical_formula_structural   Nd4ZrSc3Pt4
_chemical_formula_sum   'Nd4 Zr1 Sc3 Pt4'
_cell_volume   289.09018703
_cell_formula_units_Z   1
loop_
 _symmetry_equiv_pos_site_id
 _symmetry_equiv_pos_as_xyz
  1  'x, y, z'
loop_
 _atom_site_type_symbol
 _atom_site_label
 _atom_site_symmetry_multiplicity
 _atom_site_fract_x
 _atom_site_fract_y
 _atom_site_fract_z
 _atom_site_occupancy
  Nd  Nd0  1  0.250000  0.015520  0.679123  1
  Nd  Nd1  1  0.250000  0.518603  0.822054  1
  Nd  Nd2  1  0.750000  0.980233  0.320925  1
  Nd  Nd3  1  0.750000  0.482055  0.175816  1
  Zr  Zr4  1  0.750000  0.360036  0.574874  1
  Sc  Sc5  1  0.250000  0.140937  0.074741  1
  Sc  Sc6  1  0.250000  0.638743  0.423797  1
  Sc  Sc7  1  0.750000  0.862604  0.926658  1
  Pt  Pt8  1  0.250000  0.268746  0.410341  1
  Pt  Pt9  1  0.250000  0.766283  0.096663  1
  Pt  Pt10  1  0.750000  0.731444  0.593649  1
  Pt  Pt11  1  0.750000  0.234796  0.901359  1
