# generated using pymatgen
data_Ca2LaCd(Ru2O7)2
_symmetry_space_group_name_H-M   'P 1'
_cell_length_a   7.26549905
_cell_length_b   7.28523851
_cell_length_c   7.28523758
_cell_angle_alpha   60.71613698
_cell_angle_beta   60.82628876
_cell_angle_gamma   60.82629332
_symmetry_Int_Tables_number   1
_chemical_formula_structural   Ca2LaCd(Ru2O7)2
_chemical_formula_sum   'Ca2 La1 Cd1 Ru4 O14'
_cell_volume   277.52601382
_cell_formula_units_Z   1
loop_
 _symmetry_equiv_pos_site_id
 _symmetry_equiv_pos_as_xyz
  1  'x, y, z'
loop_
 _atom_site_type_symbol
 _atom_site_label
 _atom_site_symmetry_multiplicity
 _atom_site_fract_x
 _atom_site_fract_y
 _atom_site_fract_z
 _atom_site_occupancy
  Ca  Ca0  1  0.125000  0.625000  0.125000  1
  Ca  Ca1  1  0.125000  0.125000  0.625000  1
  La  La2  1  0.625000  0.125000  0.125000  1
  Cd  Cd3  1  0.125000  0.125000  0.125000  1
  Ru  Ru4  1  0.625000  0.125000  0.625000  1
  Ru  Ru5  1  0.625000  0.625000  0.125000  1
  Ru  Ru6  1  0.125000  0.625000  0.625000  1
  Ru  Ru7  1  0.625000  0.625000  0.625000  1
  O  O8  1  0.706315  0.697818  0.298629  1
  O  O9  1  0.941130  0.556374  0.556374  1
  O  O10  1  0.550117  0.945875  0.945875  1
  O  O11  1  0.937401  0.940594  0.562227  1
  O  O12  1  0.937401  0.562227  0.940594  1
  O  O13  1  0.543685  0.951371  0.552182  1
  O  O14  1  0.312599  0.687773  0.309406  1
  O  O15  1  0.308870  0.693626  0.693626  1
  O  O16  1  0.699883  0.304125  0.304125  1
  O  O17  1  0.706315  0.298629  0.697818  1
  O  O18  1  0.543685  0.552182  0.951371  1
  O  O19  1  0.312599  0.309406  0.687773  1
  O  O20  1  0.239239  0.247929  0.247929  1
  O  O21  1  0.010761  0.002071  0.002071  1
