# generated using pymatgen
data_SmPaHgRh2
_symmetry_space_group_name_H-M   'P 1'
_cell_length_a   7.77352920
_cell_length_b   7.77352852
_cell_length_c   3.63457600
_cell_angle_alpha   90.00000000
_cell_angle_beta   90.00000000
_cell_angle_gamma   95.04974800
_symmetry_Int_Tables_number   1
_chemical_formula_structural   SmPaHgRh2
_chemical_formula_sum   'Sm2 Pa2 Hg2 Rh4'
_cell_volume   218.77679484
_cell_formula_units_Z   2
loop_
 _symmetry_equiv_pos_site_id
 _symmetry_equiv_pos_as_xyz
  1  'x, y, z'
loop_
 _atom_site_type_symbol
 _atom_site_label
 _atom_site_symmetry_multiplicity
 _atom_site_fract_x
 _atom_site_fract_y
 _atom_site_fract_z
 _atom_site_occupancy
  Sm  Sm0  1  0.169181  0.330819  0.500000  1
  Sm  Sm1  1  0.830819  0.669181  0.500000  1
  Pa  Pa2  1  0.666802  0.166802  0.500000  1
  Pa  Pa3  1  0.333198  0.833198  0.500000  1
  Hg  Hg4  1  0.000000  0.000000  0.000000  1
  Hg  Hg5  1  0.500000  0.500000  0.000000  1
  Rh  Rh6  1  0.150618  0.650618  0.000000  1
  Rh  Rh7  1  0.849382  0.349382  0.000000  1
  Rh  Rh8  1  0.622069  0.877931  0.000000  1
  Rh  Rh9  1  0.377931  0.122069  0.000000  1
