# generated using pymatgen
data_TmSc4Co19Si11As
_symmetry_space_group_name_H-M   'P 1'
_cell_length_a   12.05625848
_cell_length_b   12.08005750
_cell_length_c   3.66160800
_cell_angle_alpha   90.00000000
_cell_angle_beta   90.00000000
_cell_angle_gamma   119.98519959
_symmetry_Int_Tables_number   1
_chemical_formula_structural   TmSc4Co19Si11As
_chemical_formula_sum   'Tm1 Sc4 Co19 Si11 As1'
_cell_volume   461.90087249
_cell_formula_units_Z   1
loop_
 _symmetry_equiv_pos_site_id
 _symmetry_equiv_pos_as_xyz
  1  'x, y, z'
loop_
 _atom_site_type_symbol
 _atom_site_label
 _atom_site_symmetry_multiplicity
 _atom_site_fract_x
 _atom_site_fract_y
 _atom_site_fract_z
 _atom_site_occupancy
  Tm  Tm0  1  0.334252  0.667568  0.000000  1
  Sc  Sc1  1  0.665742  0.333182  0.000000  1
  Sc  Sc2  1  0.189363  0.185427  0.500000  1
  Sc  Sc3  1  0.809515  0.993444  0.500000  1
  Sc  Sc4  1  0.001555  0.816403  0.500000  1
  Co  Co5  1  0.818616  0.198585  0.000000  1
  Co  Co6  1  0.801869  0.620389  0.000000  1
  Co  Co7  1  0.376984  0.180770  0.000000  1
  Co  Co8  1  0.197784  0.821944  0.000000  1
  Co  Co9  1  0.626688  0.804012  0.000000  1
  Co  Co10  1  0.177910  0.376106  0.000000  1
  Co  Co11  1  0.556447  0.557426  0.000000  1
  Co  Co12  1  0.443719  0.001356  0.000000  1
  Co  Co13  1  0.999805  0.444844  0.000000  1
  Co  Co14  1  0.644256  0.124372  0.500000  1
  Co  Co15  1  0.876375  0.521705  0.500000  1
  Co  Co16  1  0.478478  0.355557  0.500000  1
  Co  Co17  1  0.123575  0.647119  0.500000  1
  Co  Co18  1  0.523257  0.877006  0.500000  1
  Co  Co19  1  0.353844  0.478335  0.500000  1
  Co  Co20  1  0.719557  0.716226  0.500000  1
  Co  Co21  1  0.283469  0.002577  0.500000  1
  Co  Co22  1  0.997109  0.282705  0.500000  1
  Co  Co23  1  0.999994  0.994577  0.000000  1
  Si  Si24  1  0.366331  0.367456  0.000000  1
  Si  Si25  1  0.633243  0.000371  0.000000  1
  Si  Si26  1  0.000319  0.634536  0.000000  1
  Si  Si27  1  0.834706  0.320085  0.500000  1
  Si  Si28  1  0.680964  0.516615  0.500000  1
  Si  Si29  1  0.482717  0.165080  0.500000  1
  Si  Si30  1  0.320460  0.841735  0.500000  1
  Si  Si31  1  0.521939  0.680938  0.500000  1
  Si  Si32  1  0.159007  0.480609  0.500000  1
  Si  Si33  1  0.819986  0.815627  0.000000  1
  Si  Si34  1  0.182451  0.000341  0.000000  1
  As  As35  1  0.997716  0.174969  0.000000  1
