# generated using pymatgen
data_Tb4Er3(TmSb2)3
_symmetry_space_group_name_H-M   'P 1'
_cell_length_a   8.92386829
_cell_length_b   8.92050802
_cell_length_c   6.30115301
_cell_angle_alpha   90.00598154
_cell_angle_beta   89.99701213
_cell_angle_gamma   119.98754290
_symmetry_Int_Tables_number   1
_chemical_formula_structural   Tb4Er3(TmSb2)3
_chemical_formula_sum   'Tb4 Er3 Tm3 Sb6'
_cell_volume   434.45809773
_cell_formula_units_Z   1
loop_
 _symmetry_equiv_pos_site_id
 _symmetry_equiv_pos_as_xyz
  1  'x, y, z'
loop_
 _atom_site_type_symbol
 _atom_site_label
 _atom_site_symmetry_multiplicity
 _atom_site_fract_x
 _atom_site_fract_y
 _atom_site_fract_z
 _atom_site_occupancy
  Tb  Tb0  1  0.754211  0.753042  0.249989  1
  Tb  Tb1  1  0.754211  0.001170  0.750011  1
  Tb  Tb2  1  0.245696  0.246939  0.750013  1
  Tb  Tb3  1  0.245696  0.998758  0.249987  1
  Er  Er4  1  0.000064  0.752368  0.750038  1
  Er  Er5  1  0.000064  0.247696  0.249962  1
  Er  Er6  1  0.334401  0.667201  0.000000  1
  Tm  Tm7  1  0.334461  0.667231  0.500000  1
  Tm  Tm8  1  0.665508  0.332753  0.000000  1
  Tm  Tm9  1  0.665548  0.332773  0.500000  1
  Sb  Sb10  1  0.389372  0.999263  0.749742  1
  Sb  Sb11  1  0.389372  0.390108  0.250258  1
  Sb  Sb12  1  0.999699  0.606831  0.250252  1
  Sb  Sb13  1  0.999699  0.392868  0.749748  1
  Sb  Sb14  1  0.610999  0.609629  0.749736  1
  Sb  Sb15  1  0.610999  0.001371  0.250264  1
