# generated using pymatgen
data_Sm2ThSnRh3Pb2
_symmetry_space_group_name_H-M   'P 1'
_cell_length_a   7.72420378
_cell_length_b   7.73703952
_cell_length_c   3.97545200
_cell_angle_alpha   90.00000000
_cell_angle_beta   90.00000000
_cell_angle_gamma   119.13981647
_symmetry_Int_Tables_number   1
_chemical_formula_structural   Sm2ThSnRh3Pb2
_chemical_formula_sum   'Sm2 Th1 Sn1 Rh3 Pb2'
_cell_volume   207.51293236
_cell_formula_units_Z   1
loop_
 _symmetry_equiv_pos_site_id
 _symmetry_equiv_pos_as_xyz
  1  'x, y, z'
loop_
 _atom_site_type_symbol
 _atom_site_label
 _atom_site_symmetry_multiplicity
 _atom_site_fract_x
 _atom_site_fract_y
 _atom_site_fract_z
 _atom_site_occupancy
  Sm  Sm0  1  0.596505  0.003573  0.500000  1
  Sm  Sm1  1  0.997366  0.588323  0.500000  1
  Th  Th2  1  0.410536  0.412199  0.500000  1
  Sn  Sn3  1  0.990556  0.258312  0.000000  1
  Rh  Rh4  1  0.653878  0.332638  0.000000  1
  Rh  Rh5  1  0.328052  0.638603  0.000000  1
  Rh  Rh6  1  0.011963  0.023736  0.500000  1
  Pb  Pb7  1  0.752686  0.753680  0.000000  1
  Pb  Pb8  1  0.258458  0.988936  0.000000  1
