# generated using pymatgen
data_Zr10BiPdPb6
_symmetry_space_group_name_H-M   'P 1'
_cell_length_a   8.96623702
_cell_length_b   8.97496056
_cell_length_c   5.99395800
_cell_angle_alpha   89.99287550
_cell_angle_beta   90.00357211
_cell_angle_gamma   120.03219521
_symmetry_Int_Tables_number   1
_chemical_formula_structural   Zr10BiPdPb6
_chemical_formula_sum   'Zr10 Bi1 Pd1 Pb6'
_cell_volume   417.58616554
_cell_formula_units_Z   1
loop_
 _symmetry_equiv_pos_site_id
 _symmetry_equiv_pos_as_xyz
  1  'x, y, z'
loop_
 _atom_site_type_symbol
 _atom_site_label
 _atom_site_symmetry_multiplicity
 _atom_site_fract_x
 _atom_site_fract_y
 _atom_site_fract_z
 _atom_site_occupancy
  Zr  Zr0  1  0.274324  0.274178  0.737884  1
  Zr  Zr1  1  0.000000  0.725773  0.738963  1
  Zr  Zr2  1  0.000000  0.273183  0.261685  1
  Zr  Zr3  1  0.725676  0.999856  0.737884  1
  Zr  Zr4  1  0.334122  0.666762  0.500866  1
  Zr  Zr5  1  0.725864  0.727113  0.261845  1
  Zr  Zr6  1  0.274136  0.001249  0.261845  1
  Zr  Zr7  1  0.665878  0.332638  0.500866  1
  Zr  Zr8  1  0.666291  0.332835  0.999186  1
  Zr  Zr9  1  0.333709  0.666545  0.999186  1
  Bi  Bi10  1  0.000000  0.614759  0.246205  1
  Pd  Pd11  1  0.000000  0.000905  0.501216  1
  Pb  Pb12  1  0.384372  0.384384  0.244927  1
  Pb  Pb13  1  0.615628  0.000012  0.244927  1
  Pb  Pb14  1  0.000000  0.000451  0.999155  1
  Pb  Pb15  1  0.383993  0.000119  0.754547  1
  Pb  Pb16  1  0.616007  0.616125  0.754547  1
  Pb  Pb17  1  0.000000  0.383112  0.754264  1
