# generated using pymatgen
data_YbSc3(CuTe)12
_symmetry_space_group_name_H-M   'P 1'
_cell_length_a   6.84719260
_cell_length_b   7.47280921
_cell_length_c   12.79532110
_cell_angle_alpha   89.98760445
_cell_angle_beta   90.00637203
_cell_angle_gamma   89.65269356
_symmetry_Int_Tables_number   1
_chemical_formula_structural   YbSc3(CuTe)12
_chemical_formula_sum   'Yb1 Sc3 Cu12 Te12'
_cell_volume   654.69592181
_cell_formula_units_Z   1
loop_
 _symmetry_equiv_pos_site_id
 _symmetry_equiv_pos_as_xyz
  1  'x, y, z'
loop_
 _atom_site_type_symbol
 _atom_site_label
 _atom_site_symmetry_multiplicity
 _atom_site_fract_x
 _atom_site_fract_y
 _atom_site_fract_z
 _atom_site_occupancy
  Yb  Yb0  1  0.244185  0.749660  0.835491  1
  Sc  Sc1  1  0.744015  0.250556  0.339361  1
  Sc  Sc2  1  0.744395  0.250289  0.663829  1
  Sc  Sc3  1  0.244179  0.749885  0.159103  1
  Cu  Cu4  1  0.361506  0.113152  0.829679  1
  Cu  Cu5  1  0.621775  0.613649  0.999767  1
  Cu  Cu6  1  0.869473  0.884224  0.670876  1
  Cu  Cu7  1  0.618799  0.616608  0.672216  1
  Cu  Cu8  1  0.867502  0.884492  0.000645  1
  Cu  Cu9  1  0.121355  0.385741  0.498261  1
  Cu  Cu10  1  0.622627  0.614969  0.328133  1
  Cu  Cu11  1  0.366273  0.115660  0.498802  1
  Cu  Cu12  1  0.865058  0.886152  0.328767  1
  Cu  Cu13  1  0.367446  0.114694  0.172475  1
  Cu  Cu14  1  0.125579  0.385502  0.828338  1
  Cu  Cu15  1  0.121935  0.384703  0.172591  1
  Te  Te16  1  0.009394  0.566275  0.335158  1
  Te  Te17  1  0.509038  0.434143  0.165268  1
  Te  Te18  1  0.979665  0.065671  0.165591  1
  Te  Te19  1  0.003330  0.559601  0.662388  1
  Te  Te20  1  0.001233  0.554233  0.003968  1
  Te  Te21  1  0.516889  0.426183  0.834627  1
  Te  Te22  1  0.478521  0.934586  0.335303  1
  Te  Te23  1  0.484603  0.941082  0.662579  1
  Te  Te24  1  0.983961  0.059996  0.498905  1
  Te  Te25  1  0.488055  0.944495  0.004099  1
  Te  Te26  1  0.970822  0.072862  0.834713  1
  Te  Te27  1  0.504392  0.440941  0.499070  1
