# generated using pymatgen
data_Tm4Zn2Ga14Co3
_symmetry_space_group_name_H-M   'P 1'
_cell_length_a   5.99130300
_cell_length_b   5.99130300
_cell_length_c   11.00875400
_cell_angle_alpha   90.00000000
_cell_angle_beta   90.00000000
_cell_angle_gamma   90.00000000
_symmetry_Int_Tables_number   1
_chemical_formula_structural   Tm4Zn2Ga14Co3
_chemical_formula_sum   'Tm4 Zn2 Ga14 Co3'
_cell_volume   395.16705908
_cell_formula_units_Z   1
loop_
 _symmetry_equiv_pos_site_id
 _symmetry_equiv_pos_as_xyz
  1  'x, y, z'
loop_
 _atom_site_type_symbol
 _atom_site_label
 _atom_site_symmetry_multiplicity
 _atom_site_fract_x
 _atom_site_fract_y
 _atom_site_fract_z
 _atom_site_occupancy
  Tm  Tm0  1  0.000000  0.500000  0.193082  1
  Tm  Tm1  1  0.000000  0.500000  0.806918  1
  Tm  Tm2  1  0.500000  0.000000  0.806918  1
  Tm  Tm3  1  0.500000  0.000000  0.193082  1
  Zn  Zn4  1  0.500000  0.500000  0.199541  1
  Zn  Zn5  1  0.500000  0.500000  0.800459  1
  Ga  Ga6  1  0.000000  0.000000  0.216934  1
  Ga  Ga7  1  0.000000  0.000000  0.783066  1
  Ga  Ga8  1  0.281341  0.281341  0.000000  1
  Ga  Ga9  1  0.718659  0.718659  0.000000  1
  Ga  Ga10  1  0.281341  0.718659  0.000000  1
  Ga  Ga11  1  0.718659  0.281341  0.000000  1
  Ga  Ga12  1  0.252063  0.252063  0.382093  1
  Ga  Ga13  1  0.747937  0.747937  0.382093  1
  Ga  Ga14  1  0.252063  0.747937  0.617907  1
  Ga  Ga15  1  0.747937  0.252063  0.617907  1
  Ga  Ga16  1  0.747937  0.747937  0.617907  1
  Ga  Ga17  1  0.252063  0.252063  0.617907  1
  Ga  Ga18  1  0.252063  0.747937  0.382093  1
  Ga  Ga19  1  0.747937  0.252063  0.382093  1
  Co  Co20  1  0.000000  0.500000  0.500000  1
  Co  Co21  1  0.500000  0.000000  0.500000  1
  Co  Co22  1  0.000000  0.000000  0.000000  1
