# generated using pymatgen
data_Hf(AgTe)4
_symmetry_space_group_name_H-M   'P 1'
_cell_length_a   8.01465095
_cell_length_b   8.01465138
_cell_length_c   8.01465050
_cell_angle_alpha   131.69498358
_cell_angle_beta   131.69497093
_cell_angle_gamma   70.71120197
_symmetry_Int_Tables_number   1
_chemical_formula_structural   Hf(AgTe)4
_chemical_formula_sum   'Hf1 Ag4 Te4'
_cell_volume   281.17680011
_cell_formula_units_Z   1
loop_
 _symmetry_equiv_pos_site_id
 _symmetry_equiv_pos_as_xyz
  1  'x, y, z'
loop_
 _atom_site_type_symbol
 _atom_site_label
 _atom_site_symmetry_multiplicity
 _atom_site_fract_x
 _atom_site_fract_y
 _atom_site_fract_z
 _atom_site_occupancy
  Hf  Hf0  1  0.000000  0.000000  0.000000  1
  Ag  Ag1  1  0.500000  0.000000  0.500000  1
  Ag  Ag2  1  0.000000  0.500000  0.500000  1
  Ag  Ag3  1  0.756037  0.756037  0.000000  1
  Ag  Ag4  1  0.243963  0.243963  0.000000  1
  Te  Te5  1  0.369294  0.369294  0.493667  1
  Te  Te6  1  0.630706  0.124375  0.000000  1
  Te  Te7  1  0.875625  0.875625  0.506333  1
  Te  Te8  1  0.124375  0.630706  0.000000  1
