# generated using pymatgen
data_DyTa5(B2Os5)2
_symmetry_space_group_name_H-M   'P 1'
_cell_length_a   9.59029002
_cell_length_b   9.59028971
_cell_length_c   3.05691400
_cell_angle_alpha   90.00000000
_cell_angle_beta   90.00000000
_cell_angle_gamma   90.41799826
_symmetry_Int_Tables_number   1
_chemical_formula_structural   DyTa5(B2Os5)2
_chemical_formula_sum   'Dy1 Ta5 B4 Os10'
_cell_volume   281.14808606
_cell_formula_units_Z   1
loop_
 _symmetry_equiv_pos_site_id
 _symmetry_equiv_pos_as_xyz
  1  'x, y, z'
loop_
 _atom_site_type_symbol
 _atom_site_label
 _atom_site_symmetry_multiplicity
 _atom_site_fract_x
 _atom_site_fract_y
 _atom_site_fract_z
 _atom_site_occupancy
  Dy  Dy0  1  0.824121  0.675879  0.000000  1
  Ta  Ta1  1  0.179915  0.320085  0.000000  1
  Ta  Ta2  1  0.324055  0.822581  0.000000  1
  Ta  Ta3  1  0.677419  0.175945  0.000000  1
  Ta  Ta4  1  0.501460  0.500790  0.000000  1
  Ta  Ta5  1  0.999210  0.998540  0.000000  1
  B  B6  1  0.619474  0.880526  0.000000  1
  B  B7  1  0.377547  0.122453  0.000000  1
  B  B8  1  0.121738  0.619998  0.000000  1
  B  B9  1  0.880002  0.378262  0.000000  1
  Os  Os10  1  0.557274  0.725550  0.500000  1
  Os  Os11  1  0.426414  0.283512  0.500000  1
  Os  Os12  1  0.082686  0.782648  0.500000  1
  Os  Os13  1  0.930220  0.215999  0.500000  1
  Os  Os14  1  0.284001  0.569780  0.500000  1
  Os  Os15  1  0.717352  0.417314  0.500000  1
  Os  Os16  1  0.216488  0.073586  0.500000  1
  Os  Os17  1  0.774450  0.942726  0.500000  1
  Os  Os18  1  0.495496  0.004504  0.500000  1
  Os  Os19  1  0.010676  0.489324  0.500000  1
