# generated using pymatgen
data_Ca2Sb2PtRh
_symmetry_space_group_name_H-M   'P 1'
_cell_length_a   4.61051400
_cell_length_b   7.37681700
_cell_length_c   7.91880200
_cell_angle_alpha   90.00000000
_cell_angle_beta   90.00000000
_cell_angle_gamma   90.00000000
_symmetry_Int_Tables_number   1
_chemical_formula_structural   Ca2Sb2PtRh
_chemical_formula_sum   'Ca4 Sb4 Pt2 Rh2'
_cell_volume   269.32572591
_cell_formula_units_Z   2
loop_
 _symmetry_equiv_pos_site_id
 _symmetry_equiv_pos_as_xyz
  1  'x, y, z'
loop_
 _atom_site_type_symbol
 _atom_site_label
 _atom_site_symmetry_multiplicity
 _atom_site_fract_x
 _atom_site_fract_y
 _atom_site_fract_z
 _atom_site_occupancy
  Ca  Ca0  1  0.750000  0.988351  0.696954  1
  Ca  Ca1  1  0.250000  0.008422  0.300660  1
  Ca  Ca2  1  0.750000  0.488351  0.803046  1
  Ca  Ca3  1  0.250000  0.508422  0.199340  1
  Sb  Sb4  1  0.750000  0.310517  0.416223  1
  Sb  Sb5  1  0.250000  0.183429  0.904763  1
  Sb  Sb6  1  0.250000  0.683429  0.595237  1
  Sb  Sb7  1  0.750000  0.810517  0.083777  1
  Pt  Pt8  1  0.750000  0.700487  0.412465  1
  Pt  Pt9  1  0.750000  0.200487  0.087535  1
  Rh  Rh10  1  0.250000  0.808793  0.913828  1
  Rh  Rh11  1  0.250000  0.308793  0.586172  1
