# generated using pymatgen
data_Sc3CI3
_symmetry_space_group_name_H-M   'P 1'
_cell_length_a   3.74170600
_cell_length_b   8.28926661
_cell_length_c   12.03422712
_cell_angle_alpha   91.95704110
_cell_angle_beta   90.00000000
_cell_angle_gamma   90.00000000
_symmetry_Int_Tables_number   1
_chemical_formula_structural   Sc3CI3
_chemical_formula_sum   'Sc6 C2 I6'
_cell_volume   373.03585776
_cell_formula_units_Z   2
loop_
 _symmetry_equiv_pos_site_id
 _symmetry_equiv_pos_as_xyz
  1  'x, y, z'
loop_
 _atom_site_type_symbol
 _atom_site_label
 _atom_site_symmetry_multiplicity
 _atom_site_fract_x
 _atom_site_fract_y
 _atom_site_fract_z
 _atom_site_occupancy
  Sc  Sc0  1  0.250000  0.923007  0.588956  1
  Sc  Sc1  1  0.750000  0.076993  0.411044  1
  Sc  Sc2  1  0.250000  0.890903  0.216009  1
  Sc  Sc3  1  0.750000  0.109097  0.783991  1
  Sc  Sc4  1  0.250000  0.279793  0.606779  1
  Sc  Sc5  1  0.750000  0.720207  0.393221  1
  C  C6  1  0.250000  0.887129  0.396873  1
  C  C7  1  0.750000  0.112871  0.603127  1
  I  I8  1  0.250000  0.868733  0.854585  1
  I  I9  1  0.750000  0.131267  0.145415  1
  I  I10  1  0.250000  0.363811  0.851582  1
  I  I11  1  0.750000  0.636189  0.148418  1
  I  I12  1  0.250000  0.381615  0.378088  1
  I  I13  1  0.750000  0.618385  0.621912  1
