# generated using pymatgen
data_ErTm5Fe16(CoP6)2
_symmetry_space_group_name_H-M   'P 1'
_cell_length_a   3.68884400
_cell_length_b   10.44386900
_cell_length_c   12.12980300
_cell_angle_alpha   90.00000000
_cell_angle_beta   90.00000000
_cell_angle_gamma   90.00000000
_symmetry_Int_Tables_number   1
_chemical_formula_structural   ErTm5Fe16(CoP6)2
_chemical_formula_sum   'Er1 Tm5 Fe16 Co2 P12'
_cell_volume   467.31040684
_cell_formula_units_Z   1
loop_
 _symmetry_equiv_pos_site_id
 _symmetry_equiv_pos_as_xyz
  1  'x, y, z'
loop_
 _atom_site_type_symbol
 _atom_site_label
 _atom_site_symmetry_multiplicity
 _atom_site_fract_x
 _atom_site_fract_y
 _atom_site_fract_z
 _atom_site_occupancy
  Er  Er0  1  0.250000  0.750000  0.525897  1
  Tm  Tm1  1  0.750000  0.250000  0.474237  1
  Tm  Tm2  1  0.250000  0.929996  0.792841  1
  Tm  Tm3  1  0.250000  0.570004  0.792841  1
  Tm  Tm4  1  0.750000  0.070075  0.207150  1
  Tm  Tm5  1  0.750000  0.429925  0.207150  1
  Fe  Fe6  1  0.250000  0.250000  0.847131  1
  Fe  Fe7  1  0.750000  0.750000  0.152831  1
  Fe  Fe8  1  0.750000  0.250000  0.011322  1
  Fe  Fe9  1  0.250000  0.750000  0.988732  1
  Fe  Fe10  1  0.250000  0.422573  0.003517  1
  Fe  Fe11  1  0.250000  0.077427  0.003517  1
  Fe  Fe12  1  0.750000  0.577568  0.996480  1
  Fe  Fe13  1  0.750000  0.922432  0.996480  1
  Fe  Fe14  1  0.250000  0.450709  0.570053  1
  Fe  Fe15  1  0.250000  0.049291  0.570053  1
  Fe  Fe16  1  0.750000  0.548991  0.429895  1
  Fe  Fe17  1  0.750000  0.951009  0.429895  1
  Fe  Fe18  1  0.250000  0.867989  0.291347  1
  Fe  Fe19  1  0.250000  0.632011  0.291347  1
  Fe  Fe20  1  0.750000  0.131945  0.708489  1
  Fe  Fe21  1  0.750000  0.368055  0.708489  1
  Co  Co22  1  0.250000  0.250000  0.300069  1
  Co  Co23  1  0.750000  0.750000  0.700313  1
  P  P24  1  0.250000  0.250000  0.116759  1
  P  P25  1  0.750000  0.750000  0.883346  1
  P  P26  1  0.250000  0.250000  0.658165  1
  P  P27  1  0.750000  0.750000  0.341509  1
  P  P28  1  0.250000  0.442693  0.385493  1
  P  P29  1  0.250000  0.057307  0.385493  1
  P  P30  1  0.750000  0.556964  0.614617  1
  P  P31  1  0.750000  0.943036  0.614617  1
  P  P32  1  0.250000  0.899247  0.112087  1
  P  P33  1  0.250000  0.600753  0.112087  1
  P  P34  1  0.750000  0.100683  0.887874  1
  P  P35  1  0.750000  0.399317  0.887874  1
