# generated using pymatgen
data_Zr4In4Co2Hg
_symmetry_space_group_name_H-M   'P 1'
_cell_length_a   3.32064700
_cell_length_b   7.49342854
_cell_length_c   9.13257726
_cell_angle_alpha   85.35731528
_cell_angle_beta   90.00000000
_cell_angle_gamma   90.00000000
_symmetry_Int_Tables_number   1
_chemical_formula_structural   Zr4In4Co2Hg
_chemical_formula_sum   'Zr4 In4 Co2 Hg1'
_cell_volume   226.50057525
_cell_formula_units_Z   1
loop_
 _symmetry_equiv_pos_site_id
 _symmetry_equiv_pos_as_xyz
  1  'x, y, z'
loop_
 _atom_site_type_symbol
 _atom_site_label
 _atom_site_symmetry_multiplicity
 _atom_site_fract_x
 _atom_site_fract_y
 _atom_site_fract_z
 _atom_site_occupancy
  Zr  Zr0  1  0.500000  0.799040  0.439076  1
  Zr  Zr1  1  0.500000  0.180087  0.159792  1
  Zr  Zr2  1  0.500000  0.200960  0.560924  1
  Zr  Zr3  1  0.500000  0.819913  0.840208  1
  In  In4  1  0.000000  0.540802  0.669316  1
  In  In5  1  0.000000  0.160763  0.859360  1
  In  In6  1  0.000000  0.839237  0.140640  1
  In  In7  1  0.000000  0.459198  0.330684  1
  Co  Co8  1  0.000000  0.075340  0.366358  1
  Co  Co9  1  0.000000  0.924660  0.633642  1
  Hg  Hg10  1  0.000000  0.500000  0.000000  1
