# generated using pymatgen
data_Pr5Nd7Ir3Pd
_symmetry_space_group_name_H-M   'P 1'
_cell_length_a   6.61138224
_cell_length_b   7.40221025
_cell_length_c   9.93850677
_cell_angle_alpha   90.04082423
_cell_angle_beta   90.07482822
_cell_angle_gamma   90.25910424
_symmetry_Int_Tables_number   1
_chemical_formula_structural   Pr5Nd7Ir3Pd
_chemical_formula_sum   'Pr5 Nd7 Ir3 Pd1'
_cell_volume   486.37349305
_cell_formula_units_Z   1
loop_
 _symmetry_equiv_pos_site_id
 _symmetry_equiv_pos_as_xyz
  1  'x, y, z'
loop_
 _atom_site_type_symbol
 _atom_site_label
 _atom_site_symmetry_multiplicity
 _atom_site_fract_x
 _atom_site_fract_y
 _atom_site_fract_z
 _atom_site_occupancy
  Pr  Pr0  1  0.335492  0.671576  0.062375  1
  Pr  Pr1  1  0.856811  0.524151  0.250224  1
  Pr  Pr2  1  0.630683  0.036513  0.250149  1
  Pr  Pr3  1  0.138516  0.465149  0.749829  1
  Pr  Pr4  1  0.361684  0.965863  0.749794  1
  Nd  Nd5  1  0.170834  0.181361  0.437418  1
  Nd  Nd6  1  0.672508  0.324561  0.565911  1
  Nd  Nd7  1  0.829287  0.825139  0.931635  1
  Nd  Nd8  1  0.672582  0.324500  0.933785  1
  Nd  Nd9  1  0.829232  0.824961  0.568004  1
  Nd  Nd10  1  0.335451  0.671226  0.437311  1
  Nd  Nd11  1  0.170679  0.181445  0.062694  1
  Ir  Ir12  1  0.431801  0.381506  0.250817  1
  Ir  Ir13  1  0.933870  0.118523  0.750088  1
  Ir  Ir14  1  0.562854  0.618025  0.749461  1
  Pd  Pd15  1  0.067714  0.885501  0.250504  1
