# generated using pymatgen
data_Zr3BePd5
_symmetry_space_group_name_H-M   'P 1'
_cell_length_a   7.72600615
_cell_length_b   7.72600722
_cell_length_c   7.72600663
_cell_angle_alpha   124.71431548
_cell_angle_beta   124.09860568
_cell_angle_gamma   82.52441407
_symmetry_Int_Tables_number   1
_chemical_formula_structural   Zr3BePd5
_chemical_formula_sum   'Zr6 Be2 Pd10'
_cell_volume   301.54649408
_cell_formula_units_Z   2
loop_
 _symmetry_equiv_pos_site_id
 _symmetry_equiv_pos_as_xyz
  1  'x, y, z'
loop_
 _atom_site_type_symbol
 _atom_site_label
 _atom_site_symmetry_multiplicity
 _atom_site_fract_x
 _atom_site_fract_y
 _atom_site_fract_z
 _atom_site_occupancy
  Zr  Zr0  1  0.229805  0.449705  0.780099  1
  Zr  Zr1  1  0.770195  0.550295  0.219901  1
  Zr  Zr2  1  0.830394  0.050295  0.780099  1
  Zr  Zr3  1  0.169606  0.949705  0.219901  1
  Zr  Zr4  1  0.400579  0.250000  0.150579  1
  Zr  Zr5  1  0.599421  0.750000  0.849421  1
  Be  Be6  1  0.793908  0.250000  0.543908  1
  Be  Be7  1  0.206092  0.750000  0.456092  1
  Pd  Pd8  1  0.174362  0.408423  0.360186  1
  Pd  Pd9  1  0.825638  0.185824  0.234061  1
  Pd  Pd10  1  0.451763  0.091577  0.765939  1
  Pd  Pd11  1  0.548237  0.314176  0.639814  1
  Pd  Pd12  1  0.000000  0.500000  0.000000  1
  Pd  Pd13  1  0.000000  0.000000  0.500000  1
  Pd  Pd14  1  0.451763  0.685824  0.360186  1
  Pd  Pd15  1  0.548237  0.908423  0.234061  1
  Pd  Pd16  1  0.174362  0.814176  0.765939  1
  Pd  Pd17  1  0.825638  0.591577  0.639814  1
