# generated using pymatgen
data_K8HoTm3F20
_symmetry_space_group_name_H-M   'P 1'
_cell_length_a   6.71486576
_cell_length_b   7.25308600
_cell_length_c   11.05340868
_cell_angle_alpha   89.99896652
_cell_angle_beta   89.85898980
_cell_angle_gamma   90.00121370
_symmetry_Int_Tables_number   1
_chemical_formula_structural   K8HoTm3F20
_chemical_formula_sum   'K8 Ho1 Tm3 F20'
_cell_volume   538.33804636
_cell_formula_units_Z   1
loop_
 _symmetry_equiv_pos_site_id
 _symmetry_equiv_pos_as_xyz
  1  'x, y, z'
loop_
 _atom_site_type_symbol
 _atom_site_label
 _atom_site_symmetry_multiplicity
 _atom_site_fract_x
 _atom_site_fract_y
 _atom_site_fract_z
 _atom_site_occupancy
  K  K0  1  0.531114  0.497234  0.827616  1
  K  K1  1  0.468199  0.501107  0.172514  1
  K  K2  1  0.031274  0.501618  0.670744  1
  K  K3  1  0.468201  0.998889  0.172521  1
  K  K4  1  0.968902  0.497513  0.329329  1
  K  K5  1  0.531122  0.002762  0.827648  1
  K  K6  1  0.968799  0.002503  0.329274  1
  K  K7  1  0.031247  0.998409  0.670745  1
  Ho  Ho8  1  0.936548  0.749997  0.001957  1
  Tm  Tm9  1  0.562481  0.750001  0.501306  1
  Tm  Tm10  1  0.437687  0.249997  0.498651  1
  Tm  Tm11  1  0.063734  0.249995  0.998393  1
  F  F12  1  0.840180  0.749999  0.811124  1
  F  F13  1  0.158684  0.250001  0.186972  1
  F  F14  1  0.341442  0.249998  0.686845  1
  F  F15  1  0.659057  0.749993  0.312795  1
  F  F16  1  0.373890  0.749998  0.660823  1
  F  F17  1  0.626039  0.250002  0.339137  1
  F  F18  1  0.874552  0.250004  0.839184  1
  F  F19  1  0.128511  0.750004  0.163242  1
  F  F20  1  0.884464  0.750004  0.514612  1
  F  F21  1  0.115601  0.249990  0.485051  1
  F  F22  1  0.386377  0.249995  0.985631  1
  F  F23  1  0.610508  0.749988  0.014334  1
  F  F24  1  0.642469  0.034860  0.573854  1
  F  F25  1  0.357805  0.965323  0.426198  1
  F  F26  1  0.143245  0.967617  0.924476  1
  F  F27  1  0.357799  0.534674  0.426203  1
  F  F28  1  0.857161  0.036782  0.075246  1
  F  F29  1  0.642475  0.465147  0.573854  1
  F  F30  1  0.857177  0.463213  0.075251  1
  F  F31  1  0.143252  0.532383  0.924468  1
