# generated using pymatgen
data_YbCe6(ErIr2)3
_symmetry_space_group_name_H-M   'P 1'
_cell_length_a   8.19373100
_cell_length_b   8.19373021
_cell_length_c   6.44606500
_cell_angle_alpha   90.00000000
_cell_angle_beta   90.00000000
_cell_angle_gamma   120.00000722
_symmetry_Int_Tables_number   1
_chemical_formula_structural   YbCe6(ErIr2)3
_chemical_formula_sum   'Yb1 Ce6 Er3 Ir6'
_cell_volume   374.79055932
_cell_formula_units_Z   1
loop_
 _symmetry_equiv_pos_site_id
 _symmetry_equiv_pos_as_xyz
  1  'x, y, z'
loop_
 _atom_site_type_symbol
 _atom_site_label
 _atom_site_symmetry_multiplicity
 _atom_site_fract_x
 _atom_site_fract_y
 _atom_site_fract_z
 _atom_site_occupancy
  Yb  Yb0  1  0.666667  0.333333  0.000000  1
  Ce  Ce1  1  0.745067  0.744387  0.248578  1
  Ce  Ce2  1  0.255613  0.000680  0.248578  1
  Ce  Ce3  1  0.999320  0.254933  0.248578  1
  Ce  Ce4  1  0.255613  0.254933  0.751422  1
  Ce  Ce5  1  0.745067  0.000680  0.751422  1
  Ce  Ce6  1  0.999320  0.744387  0.751422  1
  Er  Er7  1  0.666667  0.333333  0.500000  1
  Er  Er8  1  0.333333  0.666667  0.500000  1
  Er  Er9  1  0.333333  0.666667  0.000000  1
  Ir  Ir10  1  0.379580  0.383548  0.259947  1
  Ir  Ir11  1  0.616452  0.996033  0.259947  1
  Ir  Ir12  1  0.003967  0.620420  0.259947  1
  Ir  Ir13  1  0.616452  0.620420  0.740053  1
  Ir  Ir14  1  0.379580  0.996033  0.740053  1
  Ir  Ir15  1  0.003967  0.383548  0.740053  1
