# generated using pymatgen
data_La4InBiPt4
_symmetry_space_group_name_H-M   'P 1'
_cell_length_a   8.09142600
_cell_length_b   8.09142600
_cell_length_c   3.89980100
_cell_angle_alpha   90.00000000
_cell_angle_beta   90.00000000
_cell_angle_gamma   90.00000000
_symmetry_Int_Tables_number   1
_chemical_formula_structural   La4InBiPt4
_chemical_formula_sum   'La4 In1 Bi1 Pt4'
_cell_volume   255.32455262
_cell_formula_units_Z   1
loop_
 _symmetry_equiv_pos_site_id
 _symmetry_equiv_pos_as_xyz
  1  'x, y, z'
loop_
 _atom_site_type_symbol
 _atom_site_label
 _atom_site_symmetry_multiplicity
 _atom_site_fract_x
 _atom_site_fract_y
 _atom_site_fract_z
 _atom_site_occupancy
  La  La0  1  0.325237  0.174264  0.500001  1
  La  La1  1  0.825737  0.325237  0.500001  1
  La  La2  1  0.174264  0.674764  0.500001  1
  La  La3  1  0.674764  0.825737  0.500001  1
  In  In4  1  0.500000  0.500000  0.000000  1
  Bi  Bi5  1  0.000000  0.000000  0.000000  1
  Pt  Pt6  1  0.612749  0.139769  0.000000  1
  Pt  Pt7  1  0.139769  0.387252  0.000000  1
  Pt  Pt8  1  0.860230  0.612749  0.000000  1
  Pt  Pt9  1  0.387252  0.860230  0.000000  1
