# generated using pymatgen
data_Np(OsCl6)5
_symmetry_space_group_name_H-M   'P 1'
_cell_length_a   13.60637216
_cell_length_b   13.63548012
_cell_length_c   6.49230746
_cell_angle_alpha   89.45392532
_cell_angle_beta   89.36673684
_cell_angle_gamma   86.15440752
_symmetry_Int_Tables_number   1
_chemical_formula_structural   Np(OsCl6)5
_chemical_formula_sum   'Np1 Os5 Cl30'
_cell_volume   1201.68191455
_cell_formula_units_Z   1
loop_
 _symmetry_equiv_pos_site_id
 _symmetry_equiv_pos_as_xyz
  1  'x, y, z'
loop_
 _atom_site_type_symbol
 _atom_site_label
 _atom_site_symmetry_multiplicity
 _atom_site_fract_x
 _atom_site_fract_y
 _atom_site_fract_z
 _atom_site_occupancy
  Np  Np0  1  0.228142  0.438425  0.474684  1
  Os  Os1  1  0.438636  0.228049  0.474344  1
  Os  Os2  1  0.767939  0.565394  0.525775  1
  Os  Os3  1  0.565181  0.768245  0.525577  1
  Os  Os4  1  0.100614  0.899671  0.999780  1
  Os  Os5  1  0.898960  0.100779  0.999833  1
  Cl  Cl6  1  0.525469  0.326882  0.263133  1
  Cl  Cl7  1  0.669331  0.478330  0.737225  1
  Cl  Cl8  1  0.477523  0.670565  0.737621  1
  Cl  Cl9  1  0.332880  0.533065  0.245099  1
  Cl  Cl10  1  0.569213  0.196432  0.680163  1
  Cl  Cl11  1  0.796694  0.435818  0.316665  1
  Cl  Cl12  1  0.869337  0.230651  0.787277  1
  Cl  Cl13  1  0.768610  0.130450  0.212230  1
  Cl  Cl14  1  0.130015  0.770080  0.212748  1
  Cl  Cl15  1  0.230965  0.870241  0.787355  1
  Cl  Cl16  1  0.996455  0.188736  0.203581  1
  Cl  Cl17  1  0.811128  0.003124  0.796194  1
  Cl  Cl18  1  0.002999  0.811855  0.796315  1
  Cl  Cl19  1  0.188497  0.997423  0.203385  1
  Cl  Cl20  1  0.047427  0.047756  0.798926  1
  Cl  Cl21  1  0.951993  0.952882  0.200576  1
  Cl  Cl22  1  0.291746  0.274542  0.267547  1
  Cl  Cl23  1  0.713586  0.713987  0.720521  1
  Cl  Cl24  1  0.087613  0.468565  0.240328  1
  Cl  Cl25  1  0.536752  0.897803  0.734960  1
  Cl  Cl26  1  0.897212  0.537005  0.735779  1
  Cl  Cl27  1  0.469480  0.097751  0.267464  1
  Cl  Cl28  1  0.133149  0.334024  0.704063  1
  Cl  Cl29  1  0.663621  0.855066  0.313520  1
  Cl  Cl30  1  0.855308  0.663481  0.314344  1
  Cl  Cl31  1  0.339121  0.141903  0.685612  1
  Cl  Cl32  1  0.392371  0.374678  0.681364  1
  Cl  Cl33  1  0.619254  0.619777  0.330718  1
  Cl  Cl34  1  0.197471  0.579108  0.708290  1
  Cl  Cl35  1  0.435306  0.797459  0.317003  1
