# generated using pymatgen
data_DyLu5Al24(Ru3Rh)2
_symmetry_space_group_name_H-M   'P 1'
_cell_length_a   8.74810057
_cell_length_b   8.75440539
_cell_length_c   9.53214500
_cell_angle_alpha   89.99984759
_cell_angle_beta   90.00107074
_cell_angle_gamma   119.79449706
_symmetry_Int_Tables_number   1
_chemical_formula_structural   DyLu5Al24(Ru3Rh)2
_chemical_formula_sum   'Dy1 Lu5 Al24 Ru6 Rh2'
_cell_volume   633.51558458
_cell_formula_units_Z   1
loop_
 _symmetry_equiv_pos_site_id
 _symmetry_equiv_pos_as_xyz
  1  'x, y, z'
loop_
 _atom_site_type_symbol
 _atom_site_label
 _atom_site_symmetry_multiplicity
 _atom_site_fract_x
 _atom_site_fract_y
 _atom_site_fract_z
 _atom_site_occupancy
  Dy  Dy0  1  0.384814  0.189165  0.750004  1
  Lu  Lu1  1  0.196121  0.804425  0.250007  1
  Lu  Lu2  1  0.190695  0.389194  0.250007  1
  Lu  Lu3  1  0.611396  0.809708  0.250000  1
  Lu  Lu4  1  0.804502  0.195675  0.750016  1
  Lu  Lu5  1  0.809592  0.610933  0.749994  1
  Al  Al6  1  0.560854  0.439635  0.249994  1
  Al  Al7  1  0.560950  0.123541  0.250002  1
  Al  Al8  1  0.876537  0.439381  0.250001  1
  Al  Al9  1  0.439578  0.562081  0.749994  1
  Al  Al10  1  0.439653  0.875561  0.750001  1
  Al  Al11  1  0.123455  0.560651  0.750001  1
  Al  Al12  1  0.325037  0.161657  0.420097  1
  Al  Al13  1  0.837155  0.162890  0.421395  1
  Al  Al14  1  0.838425  0.675310  0.420848  1
  Al  Al15  1  0.675296  0.838482  0.578356  1
  Al  Al16  1  0.162683  0.836155  0.577679  1
  Al  Al17  1  0.161291  0.325439  0.578200  1
  Al  Al18  1  0.675299  0.838489  0.921646  1
  Al  Al19  1  0.162677  0.836146  0.922326  1
  Al  Al20  1  0.161295  0.325439  0.921805  1
  Al  Al21  1  0.325038  0.161665  0.079906  1
  Al  Al22  1  0.837154  0.162885  0.078616  1
  Al  Al23  1  0.838430  0.675312  0.079151  1
  Al  Al24  1  0.667675  0.333127  0.521250  1
  Al  Al25  1  0.333258  0.667139  0.477581  1
  Al  Al26  1  0.333243  0.667141  0.022428  1
  Al  Al27  1  0.667663  0.333142  0.978759  1
  Al  Al28  1  0.999795  0.000622  0.249991  1
  Al  Al29  1  0.997431  0.997838  0.749990  1
  Ru  Ru30  1  0.000188  0.000119  0.500008  1
  Ru  Ru31  1  0.000188  0.000109  0.999980  1
  Ru  Ru32  1  0.500423  0.999418  0.499272  1
  Ru  Ru33  1  0.000461  0.500268  0.499781  1
  Ru  Ru34  1  0.500421  0.999424  0.000731  1
  Ru  Ru35  1  0.000452  0.500254  0.000222  1
  Rh  Rh36  1  0.500448  0.500807  0.499487  1
  Rh  Rh37  1  0.500424  0.500773  0.000476  1
