# generated using pymatgen
data_Cs7In3P5W
_symmetry_space_group_name_H-M   'P 1'
_cell_length_a   8.96749590
_cell_length_b   9.85762459
_cell_length_c   15.04209227
_cell_angle_alpha   84.98308559
_cell_angle_beta   84.18892412
_cell_angle_gamma   82.64524895
_symmetry_Int_Tables_number   1
_chemical_formula_structural   Cs7In3P5W
_chemical_formula_sum   'Cs14 In6 P10 W2'
_cell_volume   1308.23305201
_cell_formula_units_Z   2
loop_
 _symmetry_equiv_pos_site_id
 _symmetry_equiv_pos_as_xyz
  1  'x, y, z'
loop_
 _atom_site_type_symbol
 _atom_site_label
 _atom_site_symmetry_multiplicity
 _atom_site_fract_x
 _atom_site_fract_y
 _atom_site_fract_z
 _atom_site_occupancy
  Cs  Cs0  1  0.848759  0.365365  0.653045  1
  Cs  Cs1  1  0.821150  0.795215  0.141812  1
  Cs  Cs2  1  0.234636  0.005900  0.467365  1
  Cs  Cs3  1  0.270690  0.249012  0.249111  1
  Cs  Cs4  1  0.732946  0.505673  0.975379  1
  Cs  Cs5  1  0.267054  0.494327  0.024621  1
  Cs  Cs6  1  0.684723  0.091060  0.901258  1
  Cs  Cs7  1  0.765364  0.994100  0.532635  1
  Cs  Cs8  1  0.729310  0.750988  0.750889  1
  Cs  Cs9  1  0.347136  0.349185  0.593428  1
  Cs  Cs10  1  0.151241  0.634635  0.346955  1
  Cs  Cs11  1  0.178850  0.204785  0.858188  1
  Cs  Cs12  1  0.315277  0.908940  0.098742  1
  Cs  Cs13  1  0.652864  0.650815  0.406572  1
  In  In14  1  0.064249  0.816975  0.861641  1
  In  In15  1  0.935751  0.183025  0.138359  1
  In  In16  1  0.350301  0.943097  0.704661  1
  In  In17  1  0.103621  0.728823  0.626496  1
  In  In18  1  0.896379  0.271177  0.373504  1
  In  In19  1  0.649699  0.056903  0.295339  1
  P  P20  1  0.897588  0.435303  0.216134  1
  P  P21  1  0.629332  0.217803  0.135210  1
  P  P22  1  0.102412  0.564697  0.783866  1
  P  P23  1  0.586704  0.301237  0.376786  1
  P  P24  1  0.413296  0.698763  0.623214  1
  P  P25  1  0.038213  0.987491  0.701597  1
  P  P26  1  0.508311  0.408653  0.805337  1
  P  P27  1  0.491689  0.591347  0.194663  1
  P  P28  1  0.370668  0.782197  0.864790  1
  P  P29  1  0.961787  0.012509  0.298403  1
  W  W30  1  0.356340  0.605173  0.770840  1
  W  W31  1  0.643660  0.394827  0.229160  1
