# generated using pymatgen
data_Dy8Cd3HgPd8
_symmetry_space_group_name_H-M   'P 1'
_cell_length_a   7.76411500
_cell_length_b   7.76411500
_cell_length_c   7.27989500
_cell_angle_alpha   90.00000000
_cell_angle_beta   90.00000000
_cell_angle_gamma   90.00000000
_symmetry_Int_Tables_number   1
_chemical_formula_structural   Dy8Cd3HgPd8
_chemical_formula_sum   'Dy8 Cd3 Hg1 Pd8'
_cell_volume   438.84285746
_cell_formula_units_Z   1
loop_
 _symmetry_equiv_pos_site_id
 _symmetry_equiv_pos_as_xyz
  1  'x, y, z'
loop_
 _atom_site_type_symbol
 _atom_site_label
 _atom_site_symmetry_multiplicity
 _atom_site_fract_x
 _atom_site_fract_y
 _atom_site_fract_z
 _atom_site_occupancy
  Dy  Dy0  1  0.844342  0.177803  0.499030  1
  Dy  Dy1  1  0.155658  0.822197  0.499030  1
  Dy  Dy2  1  0.322197  0.344342  0.000970  1
  Dy  Dy3  1  0.677803  0.655658  0.000970  1
  Dy  Dy4  1  0.687555  0.662829  0.498803  1
  Dy  Dy5  1  0.312445  0.337171  0.498803  1
  Dy  Dy6  1  0.162829  0.812445  0.001197  1
  Dy  Dy7  1  0.837171  0.187555  0.001197  1
  Cd  Cd8  1  0.500000  0.000000  0.250000  1
  Cd  Cd9  1  0.000000  0.500000  0.750000  1
  Cd  Cd10  1  0.500000  0.000000  0.750000  1
  Hg  Hg11  1  0.000000  0.500000  0.250000  1
  Pd  Pd12  1  0.616556  0.358617  0.259645  1
  Pd  Pd13  1  0.383444  0.641383  0.259645  1
  Pd  Pd14  1  0.139186  0.120172  0.759560  1
  Pd  Pd15  1  0.860814  0.879828  0.759560  1
  Pd  Pd16  1  0.379828  0.639186  0.740440  1
  Pd  Pd17  1  0.620172  0.360814  0.740440  1
  Pd  Pd18  1  0.858617  0.883444  0.240355  1
  Pd  Pd19  1  0.141383  0.116556  0.240355  1
