# generated using pymatgen
data_La8Dy12BiPb15
_symmetry_space_group_name_H-M   'P 1'
_cell_length_a   8.30743462
_cell_length_b   8.41218910
_cell_length_c   15.79589200
_cell_angle_alpha   89.92763265
_cell_angle_beta   90.29164476
_cell_angle_gamma   90.09465245
_symmetry_Int_Tables_number   1
_chemical_formula_structural   La8Dy12BiPb15
_chemical_formula_sum   'La8 Dy12 Bi1 Pb15'
_cell_volume   1103.85887543
_cell_formula_units_Z   1
loop_
 _symmetry_equiv_pos_site_id
 _symmetry_equiv_pos_as_xyz
  1  'x, y, z'
loop_
 _atom_site_type_symbol
 _atom_site_label
 _atom_site_symmetry_multiplicity
 _atom_site_fract_x
 _atom_site_fract_y
 _atom_site_fract_z
 _atom_site_occupancy
  La  La0  1  0.476356  0.676141  0.597962  1
  La  La1  1  0.979099  0.822611  0.903050  1
  La  La2  1  0.521149  0.323273  0.097228  1
  La  La3  1  0.026570  0.177888  0.401375  1
  La  La4  1  0.523543  0.324734  0.402318  1
  La  La5  1  0.021625  0.177324  0.097087  1
  La  La6  1  0.478711  0.677798  0.903137  1
  La  La7  1  0.978934  0.821487  0.598173  1
  Dy  Dy8  1  0.635255  0.159588  0.622939  1
  Dy  Dy9  1  0.137163  0.341009  0.876727  1
  Dy  Dy10  1  0.362138  0.841733  0.123502  1
  Dy  Dy11  1  0.865626  0.656075  0.376887  1
  Dy  Dy12  1  0.359513  0.841829  0.377777  1
  Dy  Dy13  1  0.861241  0.658468  0.123559  1
  Dy  Dy14  1  0.638148  0.158217  0.876938  1
  Dy  Dy15  1  0.136267  0.341493  0.622736  1
  Dy  Dy16  1  0.803510  0.495546  0.750340  1
  Dy  Dy17  1  0.303618  0.004610  0.749488  1
  Dy  Dy18  1  0.196958  0.504524  0.249165  1
  Dy  Dy19  1  0.696524  0.996057  0.248198  1
  Bi  Bi20  1  0.704537  0.958585  0.455565  1
  Pb  Pb21  1  0.201039  0.542218  0.043395  1
  Pb  Pb22  1  0.298375  0.042635  0.956674  1
  Pb  Pb23  1  0.796235  0.459457  0.543659  1
  Pb  Pb24  1  0.293586  0.040971  0.544017  1
  Pb  Pb25  1  0.798325  0.458057  0.956823  1
  Pb  Pb26  1  0.700999  0.957783  0.043436  1
  Pb  Pb27  1  0.203992  0.539911  0.455860  1
  Pb  Pb28  1  0.441748  0.370203  0.749998  1
  Pb  Pb29  1  0.941069  0.128528  0.749156  1
  Pb  Pb30  1  0.557793  0.631044  0.251766  1
  Pb  Pb31  1  0.057689  0.870777  0.250336  1
  Pb  Pb32  1  0.667820  0.850789  0.750149  1
  Pb  Pb33  1  0.167346  0.648501  0.750577  1
  Pb  Pb34  1  0.334232  0.149511  0.250118  1
  Pb  Pb35  1  0.833265  0.350621  0.249885  1
