# generated using pymatgen
data_Tb2Tm3P7Rh9
_symmetry_space_group_name_H-M   'P 1'
_cell_length_a   3.94702800
_cell_length_b   9.94486275
_cell_length_c   9.94063152
_cell_angle_alpha   120.00284713
_cell_angle_beta   89.99996629
_cell_angle_gamma   89.99711081
_symmetry_Int_Tables_number   1
_chemical_formula_structural   Tb2Tm3P7Rh9
_chemical_formula_sum   'Tb2 Tm3 P7 Rh9'
_cell_volume   337.91008035
_cell_formula_units_Z   1
loop_
 _symmetry_equiv_pos_site_id
 _symmetry_equiv_pos_as_xyz
  1  'x, y, z'
loop_
 _atom_site_type_symbol
 _atom_site_label
 _atom_site_symmetry_multiplicity
 _atom_site_fract_x
 _atom_site_fract_y
 _atom_site_fract_z
 _atom_site_occupancy
  Tb  Tb0  1  0.261848  0.666498  0.332920  1
  Tb  Tb1  1  0.761955  0.333384  0.666711  1
  Tm  Tm2  1  0.761971  0.109669  0.876456  1
  Tm  Tm3  1  0.761935  0.123476  0.233134  1
  Tm  Tm4  1  0.761892  0.767008  0.890360  1
  P  P5  1  0.261833  0.000018  0.999911  1
  P  P6  1  0.761757  0.858652  0.580878  1
  P  P7  1  0.761882  0.419146  0.277990  1
  P  P8  1  0.761905  0.722210  0.141105  1
  P  P9  1  0.261950  0.112341  0.429332  1
  P  P10  1  0.261903  0.570678  0.683165  1
  P  P11  1  0.261941  0.316830  0.887551  1
  Rh  Rh12  1  0.261923  0.874877  0.170227  1
  Rh  Rh13  1  0.261761  0.829706  0.704182  1
  Rh  Rh14  1  0.261894  0.295641  0.125467  1
  Rh  Rh15  1  0.761851  0.598437  0.546269  1
  Rh  Rh16  1  0.761879  0.453692  0.052336  1
  Rh  Rh17  1  0.761968  0.947384  0.401231  1
  Rh  Rh18  1  0.261952  0.357634  0.436267  1
  Rh  Rh19  1  0.261902  0.564162  0.922193  1
  Rh  Rh20  1  0.262096  0.078556  0.642314  1
