# generated using pymatgen
data_CaTaNb4(B2Ru5)2
_symmetry_space_group_name_H-M   'P 1'
_cell_length_a   9.53922296
_cell_length_b   9.54334600
_cell_length_c   3.04394000
_cell_angle_alpha   90.00000000
_cell_angle_beta   90.00000000
_cell_angle_gamma   90.48969329
_symmetry_Int_Tables_number   1
_chemical_formula_structural   CaTaNb4(B2Ru5)2
_chemical_formula_sum   'Ca1 Ta1 Nb4 B4 Ru10'
_cell_volume   277.09832128
_cell_formula_units_Z   1
loop_
 _symmetry_equiv_pos_site_id
 _symmetry_equiv_pos_as_xyz
  1  'x, y, z'
loop_
 _atom_site_type_symbol
 _atom_site_label
 _atom_site_symmetry_multiplicity
 _atom_site_fract_x
 _atom_site_fract_y
 _atom_site_fract_z
 _atom_site_occupancy
  Ca  Ca0  1  0.824722  0.675540  0.000000  1
  Ta  Ta1  1  0.998391  0.996254  0.000000  1
  Nb  Nb2  1  0.177914  0.321796  0.000000  1
  Nb  Nb3  1  0.324919  0.824093  0.000000  1
  Nb  Nb4  1  0.676349  0.174896  0.000000  1
  Nb  Nb5  1  0.504136  0.501601  0.000000  1
  B  B6  1  0.618895  0.881082  0.000000  1
  B  B7  1  0.376662  0.123422  0.000000  1
  B  B8  1  0.123472  0.618746  0.000000  1
  B  B9  1  0.881420  0.376508  0.000000  1
  Ru  Ru10  1  0.554049  0.727517  0.500000  1
  Ru  Ru11  1  0.425647  0.283856  0.500000  1
  Ru  Ru12  1  0.085881  0.782952  0.500000  1
  Ru  Ru13  1  0.931072  0.214826  0.500000  1
  Ru  Ru14  1  0.284715  0.569144  0.500000  1
  Ru  Ru15  1  0.717478  0.413474  0.500000  1
  Ru  Ru16  1  0.215811  0.073901  0.500000  1
  Ru  Ru17  1  0.773100  0.945523  0.500000  1
  Ru  Ru18  1  0.494765  0.005536  0.500000  1
  Ru  Ru19  1  0.010603  0.489332  0.500000  1
