# generated using pymatgen
data_Ho7ErNb12Si15Ge
_symmetry_space_group_name_H-M   'P 1'
_cell_length_a   6.87692874
_cell_length_b   7.07310912
_cell_length_c   13.44292409
_cell_angle_alpha   90.06152641
_cell_angle_beta   89.92637502
_cell_angle_gamma   90.03328328
_symmetry_Int_Tables_number   1
_chemical_formula_structural   Ho7ErNb12Si15Ge
_chemical_formula_sum   'Ho7 Er1 Nb12 Si15 Ge1'
_cell_volume   653.87983889
_cell_formula_units_Z   1
loop_
 _symmetry_equiv_pos_site_id
 _symmetry_equiv_pos_as_xyz
  1  'x, y, z'
loop_
 _atom_site_type_symbol
 _atom_site_label
 _atom_site_symmetry_multiplicity
 _atom_site_fract_x
 _atom_site_fract_y
 _atom_site_fract_z
 _atom_site_occupancy
  Ho  Ho0  1  0.001158  0.171224  0.403990  1
  Ho  Ho1  1  0.500849  0.673681  0.596301  1
  Ho  Ho2  1  0.997795  0.828066  0.904743  1
  Ho  Ho3  1  0.497650  0.671566  0.904636  1
  Ho  Ho4  1  0.997542  0.829121  0.595837  1
  Ho  Ho5  1  0.502832  0.326920  0.403515  1
  Ho  Ho6  1  0.002185  0.172091  0.095422  1
  Er  Er7  1  0.502119  0.328279  0.095703  1
  Nb  Nb8  1  0.665035  0.008368  0.750178  1
  Nb  Nb9  1  0.164922  0.490832  0.751870  1
  Nb  Nb10  1  0.334752  0.991786  0.249745  1
  Nb  Nb11  1  0.834825  0.508491  0.249806  1
  Nb  Nb12  1  0.836608  0.324602  0.625887  1
  Nb  Nb13  1  0.338487  0.174865  0.874802  1
  Nb  Nb14  1  0.161717  0.674947  0.125337  1
  Nb  Nb15  1  0.661217  0.825493  0.374101  1
  Nb  Nb16  1  0.160008  0.677466  0.372889  1
  Nb  Nb17  1  0.660822  0.824755  0.125334  1
  Nb  Nb18  1  0.838203  0.324902  0.874718  1
  Nb  Nb19  1  0.340779  0.171339  0.626728  1
  Si  Si20  1  0.797558  0.627008  0.750161  1
  Si  Si21  1  0.296557  0.871894  0.750531  1
  Si  Si22  1  0.203064  0.372910  0.249636  1
  Si  Si23  1  0.702869  0.127224  0.249474  1
  Si  Si24  1  0.543084  0.377103  0.750346  1
  Si  Si25  1  0.043103  0.123185  0.750087  1
  Si  Si26  1  0.456563  0.622853  0.249854  1
  Si  Si27  1  0.955894  0.877501  0.249076  1
  Si  Si28  1  0.664605  0.037411  0.540017  1
  Si  Si29  1  0.164060  0.462918  0.959760  1
  Si  Si30  1  0.335803  0.963420  0.040422  1
  Si  Si31  1  0.832039  0.537826  0.458846  1
  Si  Si32  1  0.335417  0.962605  0.459715  1
  Si  Si33  1  0.835832  0.536858  0.040628  1
  Si  Si34  1  0.664028  0.037132  0.959743  1
  Ge  Ge35  1  0.170018  0.463364  0.540157  1
