# generated using pymatgen
data_Ho4Er2ScVO12
_symmetry_space_group_name_H-M   'P 1'
_cell_length_a   6.53949856
_cell_length_b   6.54252372
_cell_length_c   6.53884567
_cell_angle_alpha   92.76635230
_cell_angle_beta   92.77952793
_cell_angle_gamma   92.76797428
_symmetry_Int_Tables_number   1
_chemical_formula_structural   Ho4Er2ScVO12
_chemical_formula_sum   'Ho4 Er2 Sc1 V1 O12'
_cell_volume   278.74891978
_cell_formula_units_Z   1
loop_
 _symmetry_equiv_pos_site_id
 _symmetry_equiv_pos_as_xyz
  1  'x, y, z'
loop_
 _atom_site_type_symbol
 _atom_site_label
 _atom_site_symmetry_multiplicity
 _atom_site_fract_x
 _atom_site_fract_y
 _atom_site_fract_z
 _atom_site_occupancy
  Ho  Ho0  1  0.435098  0.742776  0.926372  1
  Ho  Ho1  1  0.256731  0.073428  0.564515  1
  Ho  Ho2  1  0.072916  0.564801  0.256972  1
  Ho  Ho3  1  0.564867  0.256432  0.073101  1
  Er  Er4  1  0.743375  0.926785  0.435623  1
  Er  Er5  1  0.926698  0.435154  0.743132  1
  Sc  Sc6  1  0.999196  0.999954  0.999317  1
  V  V7  1  0.500845  0.499531  0.500056  1
  O  O8  1  0.590829  0.460856  0.802140  1
  O  O9  1  0.461931  0.803059  0.589184  1
  O  O10  1  0.802939  0.590595  0.462196  1
  O  O11  1  0.410216  0.538596  0.197764  1
  O  O12  1  0.540188  0.197670  0.410818  1
  O  O13  1  0.197609  0.410690  0.540372  1
  O  O14  1  0.067866  0.915584  0.308646  1
  O  O15  1  0.915562  0.308680  0.067798  1
  O  O16  1  0.690935  0.930792  0.085921  1
  O  O17  1  0.083910  0.690752  0.930306  1
  O  O18  1  0.929932  0.085438  0.690646  1
  O  O19  1  0.308354  0.068429  0.915122  1
