# generated using pymatgen
data_Gd6In5CoO18
_symmetry_space_group_name_H-M   'P 1'
_cell_length_a   6.41155180
_cell_length_b   6.41155327
_cell_length_c   12.38783600
_cell_angle_alpha   89.88111093
_cell_angle_beta   89.88111090
_cell_angle_gamma   120.02388934
_symmetry_Int_Tables_number   1
_chemical_formula_structural   Gd6In5CoO18
_chemical_formula_sum   'Gd6 In5 Co1 O18'
_cell_volume   440.90411392
_cell_formula_units_Z   1
loop_
 _symmetry_equiv_pos_site_id
 _symmetry_equiv_pos_as_xyz
  1  'x, y, z'
loop_
 _atom_site_type_symbol
 _atom_site_label
 _atom_site_symmetry_multiplicity
 _atom_site_fract_x
 _atom_site_fract_y
 _atom_site_fract_z
 _atom_site_occupancy
  Gd  Gd0  1  0.668387  0.340510  0.956930  1
  Gd  Gd1  1  0.334472  0.665455  0.464216  1
  Gd  Gd2  1  0.665455  0.334472  0.464216  1
  Gd  Gd3  1  0.340510  0.668387  0.956930  1
  Gd  Gd4  1  0.996706  0.996706  0.994034  1
  Gd  Gd5  1  0.994483  0.994483  0.500276  1
  In  In6  1  0.999999  0.335012  0.726890  1
  In  In7  1  0.333421  0.333421  0.226499  1
  In  In8  1  0.000275  0.666281  0.226353  1
  In  In9  1  0.335012  0.999999  0.726890  1
  In  In10  1  0.666281  0.000275  0.226353  1
  Co  Co11  1  0.670155  0.670155  0.724994  1
  O  O12  1  0.695938  0.695938  0.889535  1
  O  O13  1  0.000528  0.308445  0.895070  1
  O  O14  1  0.308707  0.308707  0.399299  1
  O  O15  1  0.998985  0.691562  0.399057  1
  O  O16  1  0.308445  0.000528  0.895070  1
  O  O17  1  0.691562  0.998985  0.399057  1
  O  O18  1  0.637671  0.637671  0.567156  1
  O  O19  1  0.999436  0.357191  0.559249  1
  O  O20  1  0.361279  0.361279  0.055625  1
  O  O21  1  0.999125  0.639886  0.055782  1
  O  O22  1  0.357191  0.999436  0.559249  1
  O  O23  1  0.639886  0.999125  0.055782  1
  O  O24  1  0.975399  0.975399  0.699209  1
  O  O25  1  0.000162  0.000162  0.196158  1
  O  O26  1  0.666605  0.354309  0.751617  1
  O  O27  1  0.333165  0.666449  0.254336  1
  O  O28  1  0.666449  0.333165  0.254336  1
  O  O29  1  0.354309  0.666605  0.751617  1
