# generated using pymatgen
data_Tb7Dy(Ta3Ge4)4
_symmetry_space_group_name_H-M   'P 1'
_cell_length_a   7.01509746
_cell_length_b   7.20446683
_cell_length_c   13.51446921
_cell_angle_alpha   90.00936451
_cell_angle_beta   89.89984785
_cell_angle_gamma   90.05407782
_symmetry_Int_Tables_number   1
_chemical_formula_structural   Tb7Dy(Ta3Ge4)4
_chemical_formula_sum   'Tb7 Dy1 Ta12 Ge16'
_cell_volume   683.02041619
_cell_formula_units_Z   1
loop_
 _symmetry_equiv_pos_site_id
 _symmetry_equiv_pos_as_xyz
  1  'x, y, z'
loop_
 _atom_site_type_symbol
 _atom_site_label
 _atom_site_symmetry_multiplicity
 _atom_site_fract_x
 _atom_site_fract_y
 _atom_site_fract_z
 _atom_site_occupancy
  Tb  Tb0  1  0.995230  0.825449  0.905285  1
  Tb  Tb1  1  0.505135  0.327345  0.094414  1
  Tb  Tb2  1  0.005102  0.173002  0.405759  1
  Tb  Tb3  1  0.504971  0.325759  0.405730  1
  Tb  Tb4  1  0.004811  0.174384  0.094577  1
  Tb  Tb5  1  0.494872  0.672627  0.905596  1
  Tb  Tb6  1  0.994804  0.827013  0.594303  1
  Dy  Dy7  1  0.494877  0.674569  0.594450  1
  Ta  Ta8  1  0.660910  0.169080  0.626852  1
  Ta  Ta9  1  0.161358  0.331121  0.872964  1
  Ta  Ta10  1  0.341786  0.830420  0.126510  1
  Ta  Ta11  1  0.841548  0.669639  0.373607  1
  Ta  Ta12  1  0.339446  0.830869  0.373262  1
  Ta  Ta13  1  0.838908  0.668965  0.126924  1
  Ta  Ta14  1  0.658098  0.169610  0.873415  1
  Ta  Ta15  1  0.158349  0.330451  0.626390  1
  Ta  Ta16  1  0.835596  0.484904  0.749793  1
  Ta  Ta17  1  0.335782  0.015383  0.749868  1
  Ta  Ta18  1  0.164369  0.515272  0.250174  1
  Ta  Ta19  1  0.664281  0.984537  0.250126  1
  Ge  Ge20  1  0.674882  0.959899  0.457785  1
  Ge  Ge21  1  0.174651  0.539665  0.042473  1
  Ge  Ge22  1  0.323467  0.039068  0.958130  1
  Ge  Ge23  1  0.823239  0.461301  0.541921  1
  Ge  Ge24  1  0.325354  0.039387  0.542568  1
  Ge  Ge25  1  0.825440  0.460315  0.957448  1
  Ge  Ge26  1  0.676417  0.960806  0.041841  1
  Ge  Ge27  1  0.176127  0.539129  0.458271  1
  Ge  Ge28  1  0.460436  0.380099  0.749198  1
  Ge  Ge29  1  0.960253  0.120403  0.750419  1
  Ge  Ge30  1  0.539696  0.620157  0.250631  1
  Ge  Ge31  1  0.039765  0.879596  0.249619  1
  Ge  Ge32  1  0.693554  0.860810  0.749750  1
  Ge  Ge33  1  0.194137  0.638979  0.749668  1
  Ge  Ge34  1  0.306220  0.138862  0.250114  1
  Ge  Ge35  1  0.806131  0.361125  0.250162  1
