# generated using pymatgen
data_Tb5Dy9(TmBi2)6
_symmetry_space_group_name_H-M   'P 1'
_cell_length_a   8.24216077
_cell_length_b   9.50684053
_cell_length_c   12.05397979
_cell_angle_alpha   89.97983242
_cell_angle_beta   90.00613993
_cell_angle_gamma   89.99619890
_symmetry_Int_Tables_number   1
_chemical_formula_structural   Tb5Dy9(TmBi2)6
_chemical_formula_sum   'Tb5 Dy9 Tm6 Bi12'
_cell_volume   944.51252059
_cell_formula_units_Z   1
loop_
 _symmetry_equiv_pos_site_id
 _symmetry_equiv_pos_as_xyz
  1  'x, y, z'
loop_
 _atom_site_type_symbol
 _atom_site_label
 _atom_site_symmetry_multiplicity
 _atom_site_fract_x
 _atom_site_fract_y
 _atom_site_fract_z
 _atom_site_occupancy
  Tb  Tb0  1  0.191882  0.563228  0.440960  1
  Tb  Tb1  1  0.312979  0.249977  0.218586  1
  Tb  Tb2  1  0.813337  0.249771  0.281613  1
  Tb  Tb3  1  0.686875  0.750400  0.781821  1
  Tb  Tb4  1  0.186994  0.750344  0.718761  1
  Dy  Dy5  1  0.353944  0.750644  0.216045  1
  Dy  Dy6  1  0.852519  0.750512  0.283302  1
  Dy  Dy7  1  0.647346  0.249948  0.783443  1
  Dy  Dy8  1  0.146652  0.250061  0.716287  1
  Dy  Dy9  1  0.692450  0.564610  0.058932  1
  Dy  Dy10  1  0.192743  0.935120  0.440655  1
  Dy  Dy11  1  0.307260  0.064179  0.940939  1
  Dy  Dy12  1  0.807904  0.435328  0.558890  1
  Dy  Dy13  1  0.307937  0.435699  0.941043  1
  Tm  Tm14  1  0.806744  0.065338  0.559382  1
  Tm  Tm15  1  0.692644  0.934537  0.058885  1
  Tm  Tm16  1  0.476181  0.250095  0.488106  1
  Tm  Tm17  1  0.975203  0.250159  0.011742  1
  Tm  Tm18  1  0.524814  0.749994  0.511964  1
  Tm  Tm19  1  0.023853  0.750206  0.988107  1
  Bi  Bi20  1  0.406069  0.750494  0.958055  1
  Bi  Bi21  1  0.905098  0.751921  0.542414  1
  Bi  Bi22  1  0.594946  0.248288  0.042299  1
  Bi  Bi23  1  0.093407  0.247921  0.458387  1
  Bi  Bi24  1  0.565548  0.995613  0.326757  1
  Bi  Bi25  1  0.065328  0.504796  0.172867  1
  Bi  Bi26  1  0.434618  0.495538  0.673233  1
  Bi  Bi27  1  0.934451  0.004936  0.826847  1
  Bi  Bi28  1  0.435060  0.004708  0.673166  1
  Bi  Bi29  1  0.934291  0.495563  0.826868  1
  Bi  Bi30  1  0.565953  0.504635  0.326708  1
  Bi  Bi31  1  0.064967  0.995436  0.172933  1
