# generated using pymatgen
data_Pm2CO
_symmetry_space_group_name_H-M   'P 1'
_cell_length_a   5.15894600
_cell_length_b   5.15894200
_cell_length_c   5.14411300
_cell_angle_alpha   90.00004442
_cell_angle_beta   90.00002221
_cell_angle_gamma   90.00003332
_symmetry_Int_Tables_number   1
_chemical_formula_structural   Pm2CO
_chemical_formula_sum   'Pm4 C2 O2'
_cell_volume   136.90904070
_cell_formula_units_Z   2
loop_
 _symmetry_equiv_pos_site_id
 _symmetry_equiv_pos_as_xyz
  1  'x, y, z'
loop_
 _atom_site_type_symbol
 _atom_site_label
 _atom_site_symmetry_multiplicity
 _atom_site_fract_x
 _atom_site_fract_y
 _atom_site_fract_z
 _atom_site_occupancy
  Pm  Pm0  1  0.250000  0.249999  0.499957  1
  Pm  Pm1  1  0.750000  0.750000  0.500044  1
  Pm  Pm2  1  0.750000  0.249999  0.000000  1
  Pm  Pm3  1  0.250000  0.750000  0.000000  1
  C  C4  1  0.750000  0.750000  0.000330  1
  C  C5  1  0.250000  0.250000  0.999671  1
  O  O6  1  0.750000  0.249999  0.500000  1
  O  O7  1  0.249999  0.750000  0.500000  1
