# generated using pymatgen
data_SmHo(Si7Rh3)2
_symmetry_space_group_name_H-M   'P 1'
_cell_length_a   8.00934239
_cell_length_b   8.00934240
_cell_length_c   8.00934305
_cell_angle_alpha   57.09525086
_cell_angle_beta   57.09525503
_cell_angle_gamma   57.09524257
_symmetry_Int_Tables_number   1
_chemical_formula_structural   SmHo(Si7Rh3)2
_chemical_formula_sum   'Sm1 Ho1 Si14 Rh6'
_cell_volume   338.98679055
_cell_formula_units_Z   1
loop_
 _symmetry_equiv_pos_site_id
 _symmetry_equiv_pos_as_xyz
  1  'x, y, z'
loop_
 _atom_site_type_symbol
 _atom_site_label
 _atom_site_symmetry_multiplicity
 _atom_site_fract_x
 _atom_site_fract_y
 _atom_site_fract_z
 _atom_site_occupancy
  Sm  Sm0  1  0.500000  0.500000  0.500000  1
  Ho  Ho1  1  0.000000  0.000000  0.000000  1
  Si  Si2  1  0.750091  0.750091  0.750091  1
  Si  Si3  1  0.249909  0.249909  0.249909  1
  Si  Si4  1  0.852159  0.064745  0.672559  1
  Si  Si5  1  0.672559  0.852159  0.064745  1
  Si  Si6  1  0.064745  0.672559  0.852159  1
  Si  Si7  1  0.648677  0.828162  0.434662  1
  Si  Si8  1  0.434662  0.648677  0.828162  1
  Si  Si9  1  0.828162  0.434662  0.648677  1
  Si  Si10  1  0.171838  0.565338  0.351323  1
  Si  Si11  1  0.565338  0.351323  0.171838  1
  Si  Si12  1  0.351323  0.171838  0.565338  1
  Si  Si13  1  0.935255  0.327441  0.147841  1
  Si  Si14  1  0.327441  0.147841  0.935255  1
  Si  Si15  1  0.147841  0.935255  0.327441  1
  Rh  Rh16  1  0.068319  0.429653  0.751161  1
  Rh  Rh17  1  0.248839  0.931681  0.570347  1
  Rh  Rh18  1  0.570347  0.248839  0.931681  1
  Rh  Rh19  1  0.931681  0.570347  0.248839  1
  Rh  Rh20  1  0.429653  0.751161  0.068319  1
  Rh  Rh21  1  0.751161  0.068319  0.429653  1
