# generated using pymatgen
data_Y5Nb3(ReB6)4
_symmetry_space_group_name_H-M   'P 1'
_cell_length_a   3.59487700
_cell_length_b   9.01508009
_cell_length_c   11.38489734
_cell_angle_alpha   89.93508248
_cell_angle_beta   90.00000000
_cell_angle_gamma   90.00000000
_symmetry_Int_Tables_number   1
_chemical_formula_structural   Y5Nb3(ReB6)4
_chemical_formula_sum   'Y5 Nb3 Re4 B24'
_cell_volume   368.96270099
_cell_formula_units_Z   1
loop_
 _symmetry_equiv_pos_site_id
 _symmetry_equiv_pos_as_xyz
  1  'x, y, z'
loop_
 _atom_site_type_symbol
 _atom_site_label
 _atom_site_symmetry_multiplicity
 _atom_site_fract_x
 _atom_site_fract_y
 _atom_site_fract_z
 _atom_site_occupancy
  Y  Y0  1  0.000000  0.321921  0.414402  1
  Y  Y1  1  0.000000  0.677081  0.587367  1
  Y  Y2  1  0.000000  0.822140  0.085223  1
  Y  Y3  1  0.000000  0.177670  0.913171  1
  Y  Y4  1  0.000000  0.945429  0.373916  1
  Nb  Nb5  1  0.000000  0.056535  0.629457  1
  Nb  Nb6  1  0.000000  0.445496  0.123998  1
  Nb  Nb7  1  0.000000  0.555933  0.875497  1
  Re  Re8  1  0.000000  0.634501  0.314080  1
  Re  Re9  1  0.000000  0.357885  0.685593  1
  Re  Re10  1  0.000000  0.148118  0.177938  1
  Re  Re11  1  0.000000  0.856891  0.817990  1
  B  B12  1  0.500000  0.551028  0.432507  1
  B  B13  1  0.500000  0.444233  0.567965  1
  B  B14  1  0.500000  0.055943  0.065342  1
  B  B15  1  0.500000  0.944978  0.933339  1
  B  B16  1  0.500000  0.747174  0.416998  1
  B  B17  1  0.500000  0.246497  0.583893  1
  B  B18  1  0.500000  0.255688  0.079726  1
  B  B19  1  0.500000  0.745779  0.918467  1
  B  B20  1  0.500000  0.792435  0.262289  1
  B  B21  1  0.500000  0.204318  0.738154  1
  B  B22  1  0.500000  0.297245  0.233723  1
  B  B23  1  0.500000  0.703496  0.764342  1
  B  B24  1  0.500000  0.627470  0.181018  1
  B  B25  1  0.500000  0.371821  0.818779  1
  B  B26  1  0.500000  0.133634  0.314583  1
  B  B27  1  0.500000  0.871112  0.683254  1
  B  B28  1  0.500000  0.984470  0.211020  1
  B  B29  1  0.500000  0.018347  0.787702  1
  B  B30  1  0.500000  0.479540  0.285092  1
  B  B31  1  0.500000  0.519291  0.713723  1
  B  B32  1  0.500000  0.598860  0.025405  1
  B  B33  1  0.500000  0.402605  0.973062  1
  B  B34  1  0.500000  0.102851  0.478831  1
  B  B35  1  0.500000  0.901586  0.532149  1
