# generated using pymatgen
data_Yb6Re2N6Cl
_symmetry_space_group_name_H-M   'P 1'
_cell_length_a   6.05265813
_cell_length_b   6.05265873
_cell_length_c   6.05265900
_cell_angle_alpha   95.50374095
_cell_angle_beta   95.50374150
_cell_angle_gamma   95.50373998
_symmetry_Int_Tables_number   1
_chemical_formula_structural   Yb6Re2N6Cl
_chemical_formula_sum   'Yb6 Re2 N6 Cl1'
_cell_volume   218.45770863
_cell_formula_units_Z   1
loop_
 _symmetry_equiv_pos_site_id
 _symmetry_equiv_pos_as_xyz
  1  'x, y, z'
loop_
 _atom_site_type_symbol
 _atom_site_label
 _atom_site_symmetry_multiplicity
 _atom_site_fract_x
 _atom_site_fract_y
 _atom_site_fract_z
 _atom_site_occupancy
  Yb  Yb0  1  0.616354  0.120599  0.781030  1
  Yb  Yb1  1  0.120599  0.781030  0.616354  1
  Yb  Yb2  1  0.781030  0.616354  0.120599  1
  Yb  Yb3  1  0.383646  0.879401  0.218970  1
  Yb  Yb4  1  0.879401  0.218970  0.383646  1
  Yb  Yb5  1  0.218970  0.383646  0.879401  1
  Re  Re6  1  0.626190  0.626190  0.626190  1
  Re  Re7  1  0.373810  0.373810  0.373810  1
  N  N8  1  0.734844  0.866606  0.469429  1
  N  N9  1  0.866606  0.469429  0.734844  1
  N  N10  1  0.469429  0.734844  0.866606  1
  N  N11  1  0.265156  0.133394  0.530571  1
  N  N12  1  0.133394  0.530571  0.265156  1
  N  N13  1  0.530571  0.265156  0.133394  1
  Cl  Cl14  1  0.000000  0.000000  0.000000  1
