# generated using pymatgen
data_Ba4Na2Te2O11
_symmetry_space_group_name_H-M   'P 1'
_cell_length_a   6.01512217
_cell_length_b   6.01512163
_cell_length_c   8.72136700
_cell_angle_alpha   90.00000000
_cell_angle_beta   90.00000000
_cell_angle_gamma   90.85343957
_symmetry_Int_Tables_number   1
_chemical_formula_structural   Ba4Na2Te2O11
_chemical_formula_sum   'Ba4 Na2 Te2 O11'
_cell_volume   315.51880438
_cell_formula_units_Z   1
loop_
 _symmetry_equiv_pos_site_id
 _symmetry_equiv_pos_as_xyz
  1  'x, y, z'
loop_
 _atom_site_type_symbol
 _atom_site_label
 _atom_site_symmetry_multiplicity
 _atom_site_fract_x
 _atom_site_fract_y
 _atom_site_fract_z
 _atom_site_occupancy
  Ba  Ba0  1  0.012624  0.478267  0.277788  1
  Ba  Ba1  1  0.012624  0.478267  0.722212  1
  Ba  Ba2  1  0.521733  0.987376  0.277788  1
  Ba  Ba3  1  0.521733  0.987376  0.722212  1
  Na  Na4  1  0.514059  0.485941  0.500000  1
  Na  Na5  1  0.979850  0.020150  0.000000  1
  Te  Te6  1  0.503429  0.496571  0.000000  1
  Te  Te7  1  0.019686  0.980314  0.500000  1
  O  O8  1  0.246614  0.753385  0.500000  1
  O  O9  1  0.789298  0.210702  0.500000  1
  O  O10  1  0.784650  0.753847  0.500000  1
  O  O11  1  0.246153  0.215350  0.500000  1
  O  O12  1  0.020676  0.979324  0.271472  1
  O  O13  1  0.020676  0.979324  0.728528  1
  O  O14  1  0.496478  0.503522  0.777803  1
  O  O15  1  0.496478  0.503522  0.222197  1
  O  O16  1  0.722003  0.277997  0.000000  1
  O  O17  1  0.603817  0.798847  0.000000  1
  O  O18  1  0.201153  0.396183  0.000000  1
