# generated using pymatgen
data_K2FeAs2O7
_symmetry_space_group_name_H-M   'P 1'
_cell_length_a   8.51133800
_cell_length_b   8.51137300
_cell_length_c   5.83519600
_cell_angle_alpha   90.00004348
_cell_angle_beta   89.99950910
_cell_angle_gamma   90.00044429
_symmetry_Int_Tables_number   1
_chemical_formula_structural   K2FeAs2O7
_chemical_formula_sum   'K4 Fe2 As4 O14'
_cell_volume   422.72011008
_cell_formula_units_Z   2
loop_
 _symmetry_equiv_pos_site_id
 _symmetry_equiv_pos_as_xyz
  1  'x, y, z'
loop_
 _atom_site_type_symbol
 _atom_site_label
 _atom_site_symmetry_multiplicity
 _atom_site_fract_x
 _atom_site_fract_y
 _atom_site_fract_z
 _atom_site_occupancy
  K  K0  1  0.335859  0.164143  0.488874  1
  K  K1  1  0.664146  0.835855  0.488869  1
  K  K2  1  0.835855  0.335862  0.511128  1
  K  K3  1  0.164138  0.664142  0.511127  1
  Fe  Fe4  1  0.999999  0.000007  0.000000  1
  Fe  Fe5  1  0.499999  0.500002  0.999995  1
  As  As6  1  0.139165  0.360836  0.037654  1
  As  As7  1  0.860842  0.639159  0.037653  1
  As  As8  1  0.639159  0.139161  0.962349  1
  As  As9  1  0.360835  0.860837  0.962351  1
  O  O10  1  0.000002  0.499996  0.158742  1
  O  O11  1  0.079266  0.191026  0.171451  1
  O  O12  1  0.308979  0.420731  0.171444  1
  O  O13  1  0.691025  0.579268  0.171436  1
  O  O14  1  0.920735  0.808976  0.171430  1
  O  O15  1  0.638334  0.138332  0.250198  1
  O  O16  1  0.361666  0.861666  0.250201  1
  O  O17  1  0.138334  0.361665  0.749804  1
  O  O18  1  0.861667  0.638331  0.749801  1
  O  O19  1  0.808977  0.079274  0.828558  1
  O  O20  1  0.579266  0.308976  0.828563  1
  O  O21  1  0.420729  0.691024  0.828556  1
  O  O22  1  0.191021  0.920732  0.828563  1
  O  O23  1  0.499999  0.999997  0.841260  1
