# generated using pymatgen
data_Sn5(PO4)6
_symmetry_space_group_name_H-M   'P 1'
_cell_length_a   8.46741761
_cell_length_b   8.46742887
_cell_length_c   9.20625380
_cell_angle_alpha   62.62301155
_cell_angle_beta   117.37837169
_cell_angle_gamma   119.99776993
_symmetry_Int_Tables_number   1
_chemical_formula_structural   Sn5(PO4)6
_chemical_formula_sum   'Sn5 P6 O24'
_cell_volume   484.39543978
_cell_formula_units_Z   1
loop_
 _symmetry_equiv_pos_site_id
 _symmetry_equiv_pos_as_xyz
  1  'x, y, z'
loop_
 _atom_site_type_symbol
 _atom_site_label
 _atom_site_symmetry_multiplicity
 _atom_site_fract_x
 _atom_site_fract_y
 _atom_site_fract_z
 _atom_site_occupancy
  Sn  Sn0  1  0.000000  0.000000  0.000000  1
  Sn  Sn1  1  0.350214  0.649745  0.050692  1
  Sn  Sn2  1  0.148494  0.851585  0.445363  1
  Sn  Sn3  1  0.851506  0.148415  0.554637  1
  Sn  Sn4  1  0.649786  0.350255  0.949308  1
  P  P5  1  0.037430  0.249991  0.246091  1
  P  P6  1  0.458632  0.962602  0.246063  1
  P  P7  1  0.750030  0.541359  0.246076  1
  P  P8  1  0.249970  0.458640  0.753924  1
  P  P9  1  0.541368  0.037398  0.753937  1
  P  P10  1  0.962570  0.750009  0.753908  1
  O  O11  1  0.469790  0.155225  0.101167  1
  O  O12  1  0.786564  0.530271  0.101114  1
  O  O13  1  0.844829  0.213429  0.101159  1
  O  O14  1  0.484058  0.824208  0.202346  1
  O  O15  1  0.542526  0.515975  0.202417  1
  O  O16  1  0.175827  0.457516  0.202406  1
  O  O17  1  0.253424  0.878714  0.264038  1
  O  O18  1  0.889367  0.746554  0.264058  1
  O  O19  1  0.121305  0.110689  0.264042  1
  O  O20  1  0.800374  0.394278  0.419399  1
  O  O21  1  0.013364  0.199596  0.419458  1
  O  O22  1  0.605665  0.986591  0.419449  1
  O  O23  1  0.394335  0.013409  0.580550  1
  O  O24  1  0.986636  0.800404  0.580541  1
  O  O25  1  0.199627  0.605722  0.580602  1
  O  O26  1  0.878695  0.889312  0.735958  1
  O  O27  1  0.110633  0.253446  0.735941  1
  O  O28  1  0.746576  0.121285  0.735962  1
  O  O29  1  0.824172  0.542484  0.797594  1
  O  O30  1  0.457474  0.484026  0.797583  1
  O  O31  1  0.515942  0.175793  0.797654  1
  O  O32  1  0.155171  0.786571  0.898841  1
  O  O33  1  0.213435  0.469729  0.898885  1
  O  O34  1  0.530210  0.844775  0.898833  1
