# generated using pymatgen
data_Tm8AlZnNi2
_symmetry_space_group_name_H-M   'P 1'
_cell_length_a   9.29589671
_cell_length_b   9.29631120
_cell_length_c   9.28557501
_cell_angle_alpha   60.04090101
_cell_angle_beta   60.03981610
_cell_angle_gamma   60.17035073
_symmetry_Int_Tables_number   1
_chemical_formula_structural   Tm8AlZnNi2
_chemical_formula_sum   'Tm16 Al2 Zn2 Ni4'
_cell_volume   568.48249243
_cell_formula_units_Z   2
loop_
 _symmetry_equiv_pos_site_id
 _symmetry_equiv_pos_as_xyz
  1  'x, y, z'
loop_
 _atom_site_type_symbol
 _atom_site_label
 _atom_site_symmetry_multiplicity
 _atom_site_fract_x
 _atom_site_fract_y
 _atom_site_fract_z
 _atom_site_occupancy
  Tm  Tm0  1  0.352248  0.352207  0.351612  1
  Tm  Tm1  1  0.352217  0.352174  0.943961  1
  Tm  Tm2  1  0.352550  0.943455  0.351963  1
  Tm  Tm3  1  0.943428  0.352528  0.351991  1
  Tm  Tm4  1  0.808588  0.192275  0.190163  1
  Tm  Tm5  1  0.192286  0.808580  0.808957  1
  Tm  Tm6  1  0.192288  0.808616  0.190165  1
  Tm  Tm7  1  0.808554  0.192274  0.808993  1
  Tm  Tm8  1  0.189661  0.189653  0.810364  1
  Tm  Tm9  1  0.807446  0.807507  0.192516  1
  Tm  Tm10  1  0.937826  0.565343  0.563152  1
  Tm  Tm11  1  0.565320  0.937854  0.933712  1
  Tm  Tm12  1  0.565343  0.937842  0.563124  1
  Tm  Tm13  1  0.937837  0.565320  0.933699  1
  Tm  Tm14  1  0.565032  0.565009  0.934984  1
  Tm  Tm15  1  0.936604  0.936607  0.563387  1
  Al  Al16  1  0.576259  0.576254  0.577912  1
  Al  Al17  1  0.576256  0.576257  0.269580  1
  Zn  Zn18  1  0.579430  0.261387  0.579591  1
  Zn  Zn19  1  0.261386  0.579432  0.579591  1
  Ni  Ni20  1  0.143053  0.143069  0.144122  1
  Ni  Ni21  1  0.143052  0.143067  0.569772  1
  Ni  Ni22  1  0.142336  0.570945  0.143363  1
  Ni  Ni23  1  0.571002  0.142345  0.143328  1
