# generated using pymatgen
data_NdErAl9Co2Ni
_symmetry_space_group_name_H-M   'P 1'
_cell_length_a   7.43445306
_cell_length_b   7.43498902
_cell_length_c   9.36081600
_cell_angle_alpha   90.00000000
_cell_angle_beta   90.00000000
_cell_angle_gamma   119.33618080
_symmetry_Int_Tables_number   1
_chemical_formula_structural   NdErAl9Co2Ni
_chemical_formula_sum   'Nd2 Er2 Al18 Co4 Ni2'
_cell_volume   451.06594022
_cell_formula_units_Z   2
loop_
 _symmetry_equiv_pos_site_id
 _symmetry_equiv_pos_as_xyz
  1  'x, y, z'
loop_
 _atom_site_type_symbol
 _atom_site_label
 _atom_site_symmetry_multiplicity
 _atom_site_fract_x
 _atom_site_fract_y
 _atom_site_fract_z
 _atom_site_occupancy
  Nd  Nd0  1  0.994535  0.672342  0.250000  1
  Nd  Nd1  1  0.672414  0.994496  0.250000  1
  Er  Er2  1  0.005453  0.326398  0.750000  1
  Er  Er3  1  0.326517  0.005867  0.750000  1
  Al  Al4  1  0.661645  0.002408  0.923664  1
  Al  Al5  1  0.002505  0.661706  0.576331  1
  Al  Al6  1  0.132015  0.131999  0.250000  1
  Al  Al7  1  0.664079  0.664095  0.036298  1
  Al  Al8  1  0.334375  0.334428  0.548190  1
  Al  Al9  1  0.334375  0.334428  0.951810  1
  Al  Al10  1  0.664079  0.664095  0.463702  1
  Al  Al11  1  0.338025  0.000456  0.067053  1
  Al  Al12  1  0.000490  0.337998  0.432936  1
  Al  Al13  1  0.338814  0.550444  0.250000  1
  Al  Al14  1  0.000490  0.337998  0.067064  1
  Al  Al15  1  0.550516  0.338799  0.250000  1
  Al  Al16  1  0.659926  0.443497  0.750000  1
  Al  Al17  1  0.872403  0.872404  0.750000  1
  Al  Al18  1  0.002505  0.661706  0.923669  1
  Al  Al19  1  0.661645  0.002408  0.576336  1
  Al  Al20  1  0.338025  0.000456  0.432947  1
  Al  Al21  1  0.443447  0.659913  0.750000  1
  Co  Co22  1  0.670260  0.328568  0.502844  1
  Co  Co23  1  0.670260  0.328568  0.997156  1
  Co  Co24  1  0.328581  0.670253  0.502818  1
  Co  Co25  1  0.328581  0.670253  0.997182  1
  Ni  Ni26  1  0.002017  0.002010  0.996473  1
  Ni  Ni27  1  0.002017  0.002010  0.503527  1
