# generated using pymatgen
data_Tm8V7Si16W5
_symmetry_space_group_name_H-M   'P 1'
_cell_length_a   6.79235706
_cell_length_b   6.79524048
_cell_length_c   12.62546066
_cell_angle_alpha   90.00360313
_cell_angle_beta   90.01840304
_cell_angle_gamma   89.99591824
_symmetry_Int_Tables_number   1
_chemical_formula_structural   Tm8V7Si16W5
_chemical_formula_sum   'Tm8 V7 Si16 W5'
_cell_volume   582.73693792
_cell_formula_units_Z   1
loop_
 _symmetry_equiv_pos_site_id
 _symmetry_equiv_pos_as_xyz
  1  'x, y, z'
loop_
 _atom_site_type_symbol
 _atom_site_label
 _atom_site_symmetry_multiplicity
 _atom_site_fract_x
 _atom_site_fract_y
 _atom_site_fract_z
 _atom_site_occupancy
  Tm  Tm0  1  0.001718  0.662451  0.030622  1
  Tm  Tm1  1  0.836848  0.500270  0.280816  1
  Tm  Tm2  1  0.163642  0.499119  0.779864  1
  Tm  Tm3  1  0.501520  0.837175  0.719405  1
  Tm  Tm4  1  0.499109  0.163126  0.219411  1
  Tm  Tm5  1  0.998184  0.337335  0.530923  1
  Tm  Tm6  1  0.663985  0.001423  0.969207  1
  Tm  Tm7  1  0.337229  0.998066  0.470029  1
  V  V8  1  0.339409  0.506093  0.375536  1
  V  V9  1  0.659997  0.493309  0.875027  1
  V  V10  1  0.506848  0.340103  0.624268  1
  V  V11  1  0.493460  0.660399  0.124568  1
  V  V12  1  0.993160  0.840097  0.625636  1
  V  V13  1  0.160232  0.006691  0.874983  1
  V  V14  1  0.840173  0.994281  0.373804  1
  Si  Si15  1  0.293556  0.958134  0.062716  1
  Si  Si16  1  0.538973  0.789371  0.314396  1
  Si  Si17  1  0.460106  0.210346  0.813123  1
  Si  Si18  1  0.789543  0.539772  0.686523  1
  Si  Si19  1  0.212697  0.462974  0.187620  1
  Si  Si20  1  0.710663  0.039507  0.563239  1
  Si  Si21  1  0.959332  0.291705  0.933867  1
  Si  Si22  1  0.039263  0.710756  0.436865  1
  Si  Si23  1  0.700967  0.378972  0.066538  1
  Si  Si24  1  0.125284  0.204365  0.320016  1
  Si  Si25  1  0.876588  0.796982  0.817260  1
  Si  Si26  1  0.203225  0.123546  0.682635  1
  Si  Si27  1  0.793926  0.871248  0.183139  1
  Si  Si28  1  0.296631  0.623312  0.567463  1
  Si  Si29  1  0.376586  0.702548  0.932019  1
  Si  Si30  1  0.623467  0.296737  0.432738  1
  W  W31  1  0.332376  0.332285  0.999577  1
  W  W32  1  0.167503  0.832203  0.250629  1
  W  W33  1  0.831854  0.167410  0.749391  1
  W  W34  1  0.667736  0.667371  0.500435  1
  W  W35  1  0.004215  0.160517  0.125711  1
