# generated using pymatgen
data_Hf18Re2Ni2MoW5
_symmetry_space_group_name_H-M   'P 1'
_cell_length_a   8.48311100
_cell_length_b   8.69380880
_cell_length_c   8.68095072
_cell_angle_alpha   120.10134255
_cell_angle_beta   90.00000000
_cell_angle_gamma   90.00000000
_symmetry_Int_Tables_number   1
_chemical_formula_structural   Hf18Re2Ni2MoW5
_chemical_formula_sum   'Hf18 Re2 Ni2 Mo1 W5'
_cell_volume   553.88391214
_cell_formula_units_Z   1
loop_
 _symmetry_equiv_pos_site_id
 _symmetry_equiv_pos_as_xyz
  1  'x, y, z'
loop_
 _atom_site_type_symbol
 _atom_site_label
 _atom_site_symmetry_multiplicity
 _atom_site_fract_x
 _atom_site_fract_y
 _atom_site_fract_z
 _atom_site_occupancy
  Hf  Hf0  1  0.557248  0.800599  0.601635  1
  Hf  Hf1  1  0.558185  0.800457  0.199253  1
  Hf  Hf2  1  0.558376  0.398938  0.199559  1
  Hf  Hf3  1  0.443174  0.199185  0.399009  1
  Hf  Hf4  1  0.442122  0.199362  0.799875  1
  Hf  Hf5  1  0.441728  0.601196  0.800527  1
  Hf  Hf6  1  0.056826  0.199185  0.399009  1
  Hf  Hf7  1  0.057878  0.199362  0.799875  1
  Hf  Hf8  1  0.058272  0.601196  0.800527  1
  Hf  Hf9  1  0.942752  0.800599  0.601635  1
  Hf  Hf10  1  0.941815  0.800457  0.199253  1
  Hf  Hf11  1  0.941624  0.398938  0.199559  1
  Hf  Hf12  1  0.750000  0.458070  0.915820  1
  Hf  Hf13  1  0.750000  0.457325  0.541836  1
  Hf  Hf14  1  0.750000  0.084387  0.541666  1
  Hf  Hf15  1  0.250000  0.542979  0.084660  1
  Hf  Hf16  1  0.250000  0.543378  0.458654  1
  Hf  Hf17  1  0.250000  0.915317  0.458176  1
  Re  Re18  1  0.750000  0.112193  0.224253  1
  Re  Re19  1  0.250000  0.887081  0.775085  1
  Ni  Ni20  1  0.750000  0.666765  0.333450  1
  Ni  Ni21  1  0.250000  0.332798  0.666280  1
  Mo  Mo22  1  0.250000  0.223426  0.111748  1
  W  W23  1  0.750000  0.111822  0.888380  1
  W  W24  1  0.750000  0.776804  0.888454  1
  W  W25  1  0.250000  0.887559  0.111641  1
  W  W26  1  0.499410  0.000313  0.000091  1
  W  W27  1  0.000590  0.000313  0.000091  1
