# generated using pymatgen
data_PuReN3
_symmetry_space_group_name_H-M   'P 1'
_cell_length_a   5.32467000
_cell_length_b   5.73315300
_cell_length_c   7.71198600
_cell_angle_alpha   90.00000000
_cell_angle_beta   90.00000000
_cell_angle_gamma   90.00000000
_symmetry_Int_Tables_number   1
_chemical_formula_structural   PuReN3
_chemical_formula_sum   'Pu4 Re4 N12'
_cell_volume   235.42493633
_cell_formula_units_Z   4
loop_
 _symmetry_equiv_pos_site_id
 _symmetry_equiv_pos_as_xyz
  1  'x, y, z'
loop_
 _atom_site_type_symbol
 _atom_site_label
 _atom_site_symmetry_multiplicity
 _atom_site_fract_x
 _atom_site_fract_y
 _atom_site_fract_z
 _atom_site_occupancy
  Pu  Pu0  1  0.479122  0.432000  0.250000  1
  Pu  Pu1  1  0.020878  0.932000  0.250000  1
  Pu  Pu2  1  0.520878  0.568000  0.750000  1
  Pu  Pu3  1  0.979122  0.068000  0.750000  1
  Re  Re4  1  0.500000  0.000000  0.500000  1
  Re  Re5  1  0.000000  0.500000  0.000000  1
  Re  Re6  1  0.000000  0.500000  0.500000  1
  Re  Re7  1  0.500000  0.000000  0.000000  1
  N  N8  1  0.686930  0.302297  0.550267  1
  N  N9  1  0.313070  0.697703  0.050267  1
  N  N10  1  0.186930  0.197703  0.050267  1
  N  N11  1  0.408505  0.972941  0.750000  1
  N  N12  1  0.908505  0.527059  0.250000  1
  N  N13  1  0.313070  0.697703  0.449733  1
  N  N14  1  0.813070  0.802297  0.949733  1
  N  N15  1  0.686930  0.302297  0.949733  1
  N  N16  1  0.813070  0.802297  0.550267  1
  N  N17  1  0.091495  0.472941  0.750000  1
  N  N18  1  0.186930  0.197703  0.449733  1
  N  N19  1  0.591495  0.027059  0.250000  1
