# generated using pymatgen
data_Zr16Co4Os3Au
_symmetry_space_group_name_H-M   'P 1'
_cell_length_a   8.72656087
_cell_length_b   8.72739648
_cell_length_c   8.72927589
_cell_angle_alpha   59.92419575
_cell_angle_beta   59.92251884
_cell_angle_gamma   59.92512598
_symmetry_Int_Tables_number   1
_chemical_formula_structural   Zr16Co4Os3Au
_chemical_formula_sum   'Zr16 Co4 Os3 Au1'
_cell_volume   469.28987572
_cell_formula_units_Z   1
loop_
 _symmetry_equiv_pos_site_id
 _symmetry_equiv_pos_as_xyz
  1  'x, y, z'
loop_
 _atom_site_type_symbol
 _atom_site_label
 _atom_site_symmetry_multiplicity
 _atom_site_fract_x
 _atom_site_fract_y
 _atom_site_fract_z
 _atom_site_occupancy
  Zr  Zr0  1  0.057764  0.648634  0.648769  1
  Zr  Zr1  1  0.648822  0.057915  0.648600  1
  Zr  Zr2  1  0.648929  0.648563  0.057813  1
  Zr  Zr3  1  0.649026  0.648638  0.648746  1
  Zr  Zr4  1  0.800830  0.800786  0.199257  1
  Zr  Zr5  1  0.196167  0.196592  0.807307  1
  Zr  Zr6  1  0.800833  0.199290  0.800838  1
  Zr  Zr7  1  0.196257  0.807251  0.196547  1
  Zr  Zr8  1  0.199116  0.800785  0.800832  1
  Zr  Zr9  1  0.807272  0.196440  0.196322  1
  Zr  Zr10  1  0.436100  0.436045  0.052570  1
  Zr  Zr11  1  0.063048  0.063044  0.436291  1
  Zr  Zr12  1  0.436090  0.052562  0.436054  1
  Zr  Zr13  1  0.063052  0.436303  0.063043  1
  Zr  Zr14  1  0.052532  0.436088  0.436106  1
  Zr  Zr15  1  0.436308  0.063089  0.063087  1
  Co  Co16  1  0.423562  0.860078  0.860037  1
  Co  Co17  1  0.860036  0.423650  0.860018  1
  Co  Co18  1  0.860044  0.860064  0.423600  1
  Co  Co19  1  0.858403  0.858396  0.858371  1
  Os  Os20  1  0.749546  0.419284  0.419287  1
  Os  Os21  1  0.419284  0.749510  0.419292  1
  Os  Os22  1  0.419278  0.419284  0.749515  1
  Au  Au23  1  0.417702  0.417707  0.417697  1
