# generated using pymatgen
data_Sr5Yb8Cu4O21
_symmetry_space_group_name_H-M   'P 1'
_cell_length_a   5.55472392
_cell_length_b   9.83693979
_cell_length_c   9.83694003
_cell_angle_alpha   94.57223468
_cell_angle_beta   106.39991245
_cell_angle_gamma   73.60008644
_symmetry_Int_Tables_number   1
_chemical_formula_structural   Sr5Yb8Cu4O21
_chemical_formula_sum   'Sr5 Yb8 Cu4 O21'
_cell_volume   494.65732576
_cell_formula_units_Z   1
loop_
 _symmetry_equiv_pos_site_id
 _symmetry_equiv_pos_as_xyz
  1  'x, y, z'
loop_
 _atom_site_type_symbol
 _atom_site_label
 _atom_site_symmetry_multiplicity
 _atom_site_fract_x
 _atom_site_fract_y
 _atom_site_fract_z
 _atom_site_occupancy
  Sr  Sr0  1  0.000000  0.000000  0.000000  1
  Sr  Sr1  1  0.857273  0.610226  0.324772  1
  Sr  Sr2  1  0.532502  0.324772  0.389775  1
  Sr  Sr3  1  0.467498  0.675227  0.610225  1
  Sr  Sr4  1  0.142726  0.389774  0.675227  1
  Yb  Yb5  1  0.406708  0.233561  0.046979  1
  Yb  Yb6  1  0.252007  0.580986  0.085002  1
  Yb  Yb7  1  0.640269  0.953021  0.233561  1
  Yb  Yb8  1  0.167006  0.085002  0.419015  1
  Yb  Yb9  1  0.832994  0.914998  0.580985  1
  Yb  Yb10  1  0.359730  0.046979  0.766439  1
  Yb  Yb11  1  0.747992  0.419015  0.914999  1
  Yb  Yb12  1  0.593291  0.766439  0.953022  1
  Cu  Cu13  1  0.955597  0.284840  0.196035  1
  Cu  Cu14  1  0.240437  0.803964  0.284840  1
  Cu  Cu15  1  0.759562  0.196035  0.715160  1
  Cu  Cu16  1  0.044403  0.715160  0.803965  1
  O  O17  1  0.500000  0.000000  0.000000  1
  O  O18  1  0.092268  0.409064  0.130185  1
  O  O19  1  0.628853  0.409064  0.130185  1
  O  O20  1  0.420198  0.776663  0.144944  1
  O  O21  1  0.948084  0.776663  0.144944  1
  O  O22  1  0.275255  0.144944  0.223338  1
  O  O23  1  0.803141  0.144944  0.223338  1
  O  O24  1  0.377945  0.594326  0.350216  1
  O  O25  1  0.027729  0.350216  0.405674  1
  O  O26  1  0.037917  0.869815  0.409065  1
  O  O27  1  0.501333  0.869815  0.409065  1
  O  O28  1  0.498668  0.130185  0.590935  1
  O  O29  1  0.962084  0.130185  0.590935  1
  O  O30  1  0.972271  0.649783  0.594326  1
  O  O31  1  0.622055  0.405674  0.649783  1
  O  O32  1  0.196861  0.855056  0.776662  1
  O  O33  1  0.724747  0.855056  0.776662  1
  O  O34  1  0.051915  0.223337  0.855056  1
  O  O35  1  0.579803  0.223337  0.855056  1
  O  O36  1  0.371147  0.590936  0.869815  1
  O  O37  1  0.907732  0.590936  0.869815  1
