# generated using pymatgen
data_Tb3ThHgRh
_symmetry_space_group_name_H-M   'P 1'
_cell_length_a   9.74006722
_cell_length_b   9.74006719
_cell_length_c   9.74006800
_cell_angle_alpha   60.00000405
_cell_angle_beta   60.00000415
_cell_angle_gamma   60.00000463
_symmetry_Int_Tables_number   1
_chemical_formula_structural   Tb3ThHgRh
_chemical_formula_sum   'Tb12 Th4 Hg4 Rh4'
_cell_volume   653.38767836
_cell_formula_units_Z   4
loop_
 _symmetry_equiv_pos_site_id
 _symmetry_equiv_pos_as_xyz
  1  'x, y, z'
loop_
 _atom_site_type_symbol
 _atom_site_label
 _atom_site_symmetry_multiplicity
 _atom_site_fract_x
 _atom_site_fract_y
 _atom_site_fract_z
 _atom_site_occupancy
  Tb  Tb0  1  0.812256  0.187744  0.187744  1
  Tb  Tb1  1  0.187744  0.812256  0.812256  1
  Tb  Tb2  1  0.187744  0.812256  0.187744  1
  Tb  Tb3  1  0.812256  0.187744  0.812256  1
  Tb  Tb4  1  0.187744  0.187744  0.812256  1
  Tb  Tb5  1  0.812256  0.812256  0.187744  1
  Tb  Tb6  1  0.935430  0.564570  0.564570  1
  Tb  Tb7  1  0.564570  0.935430  0.935430  1
  Tb  Tb8  1  0.564570  0.935430  0.564570  1
  Tb  Tb9  1  0.935430  0.564570  0.935430  1
  Tb  Tb10  1  0.564570  0.564570  0.935430  1
  Tb  Tb11  1  0.935430  0.935430  0.564570  1
  Th  Th12  1  0.351030  0.351030  0.351030  1
  Th  Th13  1  0.351030  0.351030  0.946911  1
  Th  Th14  1  0.351030  0.946911  0.351030  1
  Th  Th15  1  0.946911  0.351030  0.351030  1
  Hg  Hg16  1  0.586769  0.586769  0.586769  1
  Hg  Hg17  1  0.586769  0.586769  0.239693  1
  Hg  Hg18  1  0.586769  0.239693  0.586769  1
  Hg  Hg19  1  0.239693  0.586769  0.586769  1
  Rh  Rh20  1  0.144798  0.144798  0.144798  1
  Rh  Rh21  1  0.144798  0.144798  0.565605  1
  Rh  Rh22  1  0.144798  0.565605  0.144798  1
  Rh  Rh23  1  0.565605  0.144798  0.144798  1
