# generated using pymatgen
data_Sr2LiOsN4
_symmetry_space_group_name_H-M   'P 1'
_cell_length_a   5.87699700
_cell_length_b   6.21800034
_cell_length_c   6.95223572
_cell_angle_alpha   73.06367368
_cell_angle_beta   90.00000000
_cell_angle_gamma   90.00000000
_symmetry_Int_Tables_number   1
_chemical_formula_structural   Sr2LiOsN4
_chemical_formula_sum   'Sr4 Li2 Os2 N8'
_cell_volume   243.03805386
_cell_formula_units_Z   2
loop_
 _symmetry_equiv_pos_site_id
 _symmetry_equiv_pos_as_xyz
  1  'x, y, z'
loop_
 _atom_site_type_symbol
 _atom_site_label
 _atom_site_symmetry_multiplicity
 _atom_site_fract_x
 _atom_site_fract_y
 _atom_site_fract_z
 _atom_site_occupancy
  Sr  Sr0  1  0.250000  0.262293  0.061644  1
  Sr  Sr1  1  0.750000  0.737707  0.938356  1
  Sr  Sr2  1  0.750000  0.781789  0.427254  1
  Sr  Sr3  1  0.250000  0.218211  0.572746  1
  Li  Li4  1  0.750000  0.313994  0.313298  1
  Li  Li5  1  0.250000  0.686006  0.686702  1
  Os  Os6  1  0.250000  0.723430  0.198176  1
  Os  Os7  1  0.750000  0.276570  0.801824  1
  N  N8  1  0.503254  0.466409  0.752241  1
  N  N9  1  0.003254  0.533591  0.247759  1
  N  N10  1  0.496746  0.533591  0.247759  1
  N  N11  1  0.996746  0.466409  0.752241  1
  N  N12  1  0.750000  0.105302  0.623623  1
  N  N13  1  0.250000  0.894698  0.376377  1
  N  N14  1  0.750000  0.111487  0.066975  1
  N  N15  1  0.250000  0.888513  0.933025  1
