# generated using pymatgen
data_TbDyB6Os
_symmetry_space_group_name_H-M   'P 1'
_cell_length_a   3.66647500
_cell_length_b   9.17257600
_cell_length_c   11.55287900
_cell_angle_alpha   90.00000000
_cell_angle_beta   90.00000000
_cell_angle_gamma   90.00000000
_symmetry_Int_Tables_number   1
_chemical_formula_structural   TbDyB6Os
_chemical_formula_sum   'Tb4 Dy4 B24 Os4'
_cell_volume   388.53511152
_cell_formula_units_Z   4
loop_
 _symmetry_equiv_pos_site_id
 _symmetry_equiv_pos_as_xyz
  1  'x, y, z'
loop_
 _atom_site_type_symbol
 _atom_site_label
 _atom_site_symmetry_multiplicity
 _atom_site_fract_x
 _atom_site_fract_y
 _atom_site_fract_z
 _atom_site_occupancy
  Tb  Tb0  1  0.000000  0.322492  0.413985  1
  Tb  Tb1  1  0.000000  0.677508  0.586015  1
  Tb  Tb2  1  0.000000  0.822492  0.086015  1
  Tb  Tb3  1  0.000000  0.177508  0.913985  1
  Dy  Dy4  1  0.000000  0.943898  0.372543  1
  Dy  Dy5  1  0.000000  0.056102  0.627458  1
  Dy  Dy6  1  0.000000  0.443898  0.127457  1
  Dy  Dy7  1  0.000000  0.556102  0.872542  1
  B  B8  1  0.500000  0.554378  0.432686  1
  B  B9  1  0.500000  0.445622  0.567314  1
  B  B10  1  0.500000  0.054378  0.067314  1
  B  B11  1  0.500000  0.945622  0.932686  1
  B  B12  1  0.500000  0.747828  0.419411  1
  B  B13  1  0.500000  0.252172  0.580589  1
  B  B14  1  0.500000  0.247828  0.080589  1
  B  B15  1  0.500000  0.752172  0.919411  1
  B  B16  1  0.500000  0.790668  0.266468  1
  B  B17  1  0.500000  0.209332  0.733532  1
  B  B18  1  0.500000  0.290667  0.233532  1
  B  B19  1  0.500000  0.709332  0.766468  1
  B  B20  1  0.500000  0.631834  0.185472  1
  B  B21  1  0.500000  0.368166  0.814528  1
  B  B22  1  0.500000  0.131834  0.314528  1
  B  B23  1  0.500000  0.868166  0.685472  1
  B  B24  1  0.500000  0.984007  0.212957  1
  B  B25  1  0.500000  0.015993  0.787043  1
  B  B26  1  0.500000  0.484007  0.287043  1
  B  B27  1  0.500000  0.515993  0.712957  1
  B  B28  1  0.500000  0.607305  0.029696  1
  B  B29  1  0.500000  0.392695  0.970304  1
  B  B30  1  0.500000  0.107305  0.470304  1
  B  B31  1  0.500000  0.892695  0.529696  1
  Os  Os32  1  0.000000  0.637510  0.321318  1
  Os  Os33  1  0.000000  0.362490  0.678682  1
  Os  Os34  1  0.000000  0.137510  0.178682  1
  Os  Os35  1  0.000000  0.862490  0.821318  1
