# generated using pymatgen
data_Tm4NiB16Rh3
_symmetry_space_group_name_H-M   'P 1'
_cell_length_a   3.51591700
_cell_length_b   5.92583630
_cell_length_c   11.47018646
_cell_angle_alpha   90.03452066
_cell_angle_beta   90.00000000
_cell_angle_gamma   90.00000000
_symmetry_Int_Tables_number   1
_chemical_formula_structural   Tm4NiB16Rh3
_chemical_formula_sum   'Tm4 Ni1 B16 Rh3'
_cell_volume   238.97840783
_cell_formula_units_Z   1
loop_
 _symmetry_equiv_pos_site_id
 _symmetry_equiv_pos_as_xyz
  1  'x, y, z'
loop_
 _atom_site_type_symbol
 _atom_site_label
 _atom_site_symmetry_multiplicity
 _atom_site_fract_x
 _atom_site_fract_y
 _atom_site_fract_z
 _atom_site_occupancy
  Tm  Tm0  1  0.000000  0.128303  0.647696  1
  Tm  Tm1  1  0.000000  0.869978  0.353743  1
  Tm  Tm2  1  0.000000  0.631910  0.847496  1
  Tm  Tm3  1  0.000000  0.367742  0.150005  1
  Ni  Ni4  1  0.000000  0.645215  0.597165  1
  B  B5  1  0.500000  0.789097  0.683949  1
  B  B6  1  0.500000  0.208409  0.314390  1
  B  B7  1  0.500000  0.290517  0.810518  1
  B  B8  1  0.500000  0.708896  0.188374  1
  B  B9  1  0.500000  0.862266  0.532601  1
  B  B10  1  0.500000  0.133616  0.468584  1
  B  B11  1  0.500000  0.365264  0.968861  1
  B  B12  1  0.500000  0.634598  0.029303  1
  B  B13  1  0.500000  0.022802  0.193817  1
  B  B14  1  0.500000  0.977917  0.804789  1
  B  B15  1  0.500000  0.520318  0.307396  1
  B  B16  1  0.500000  0.480931  0.690100  1
  B  B17  1  0.500000  0.112815  0.047470  1
  B  B18  1  0.500000  0.887268  0.951515  1
  B  B19  1  0.500000  0.612422  0.453408  1
  B  B20  1  0.500000  0.385032  0.546602  1
  Rh  Rh21  1  0.000000  0.367028  0.410720  1
  Rh  Rh22  1  0.000000  0.143045  0.906393  1
  Rh  Rh23  1  0.000000  0.854613  0.095105  1
