# generated using pymatgen
data_Lu(As2Rh3)2
_symmetry_space_group_name_H-M   'P 1'
_cell_length_a   7.28466600
_cell_length_b   7.28466566
_cell_length_c   3.79082000
_cell_angle_alpha   90.00000000
_cell_angle_beta   90.00000000
_cell_angle_gamma   119.99999246
_symmetry_Int_Tables_number   1
_chemical_formula_structural   Lu(As2Rh3)2
_chemical_formula_sum   'Lu1 As4 Rh6'
_cell_volume   174.21401762
_cell_formula_units_Z   1
loop_
 _symmetry_equiv_pos_site_id
 _symmetry_equiv_pos_as_xyz
  1  'x, y, z'
loop_
 _atom_site_type_symbol
 _atom_site_label
 _atom_site_symmetry_multiplicity
 _atom_site_fract_x
 _atom_site_fract_y
 _atom_site_fract_z
 _atom_site_occupancy
  Lu  Lu0  1  0.333333  0.666667  0.000000  1
  As  As1  1  0.666667  0.333333  0.000000  1
  As  As2  1  0.711020  0.855510  0.500000  1
  As  As3  1  0.144490  0.288980  0.500000  1
  As  As4  1  0.144490  0.855510  0.500000  1
  Rh  Rh5  1  0.266293  0.133147  0.000000  1
  Rh  Rh6  1  0.866853  0.733707  0.000000  1
  Rh  Rh7  1  0.866853  0.133147  0.000000  1
  Rh  Rh8  1  0.943052  0.471526  0.500000  1
  Rh  Rh9  1  0.528474  0.056948  0.500000  1
  Rh  Rh10  1  0.528474  0.471526  0.500000  1
