# generated using pymatgen
data_Ba4TmMnO8
_symmetry_space_group_name_H-M   'P 1'
_cell_length_a   7.39987201
_cell_length_b   7.39987162
_cell_length_c   5.87319100
_cell_angle_alpha   90.00000000
_cell_angle_beta   90.00000000
_cell_angle_gamma   133.30741829
_symmetry_Int_Tables_number   1
_chemical_formula_structural   Ba4TmMnO8
_chemical_formula_sum   'Ba4 Tm1 Mn1 O8'
_cell_volume   234.02665087
_cell_formula_units_Z   1
loop_
 _symmetry_equiv_pos_site_id
 _symmetry_equiv_pos_as_xyz
  1  'x, y, z'
loop_
 _atom_site_type_symbol
 _atom_site_label
 _atom_site_symmetry_multiplicity
 _atom_site_fract_x
 _atom_site_fract_y
 _atom_site_fract_z
 _atom_site_occupancy
  Ba  Ba0  1  0.357268  0.642732  0.000000  1
  Ba  Ba1  1  0.855416  0.144584  0.500000  1
  Ba  Ba2  1  0.144584  0.855416  0.500000  1
  Ba  Ba3  1  0.642732  0.357268  0.000000  1
  Tm  Tm4  1  0.000000  0.000000  0.000000  1
  Mn  Mn5  1  0.500000  0.500000  0.500000  1
  O  O6  1  0.264407  0.264407  0.732916  1
  O  O7  1  0.735593  0.735593  0.267084  1
  O  O8  1  0.735593  0.735593  0.732916  1
  O  O9  1  0.264407  0.264407  0.267084  1
  O  O10  1  0.163442  0.836558  0.000000  1
  O  O11  1  0.648130  0.351870  0.500000  1
  O  O12  1  0.351870  0.648130  0.500000  1
  O  O13  1  0.836558  0.163442  0.000000  1
