# generated using pymatgen
data_CaHg3F8
_symmetry_space_group_name_H-M   'P 1'
_cell_length_a   5.62242157
_cell_length_b   5.61322460
_cell_length_c   5.60667763
_cell_angle_alpha   89.87817024
_cell_angle_beta   90.48789816
_cell_angle_gamma   90.13236112
_symmetry_Int_Tables_number   1
_chemical_formula_structural   CaHg3F8
_chemical_formula_sum   'Ca1 Hg3 F8'
_cell_volume   176.93898966
_cell_formula_units_Z   1
loop_
 _symmetry_equiv_pos_site_id
 _symmetry_equiv_pos_as_xyz
  1  'x, y, z'
loop_
 _atom_site_type_symbol
 _atom_site_label
 _atom_site_symmetry_multiplicity
 _atom_site_fract_x
 _atom_site_fract_y
 _atom_site_fract_z
 _atom_site_occupancy
  Ca  Ca0  1  0.750001  0.999934  0.750027  1
  Hg  Hg1  1  0.250042  0.000277  0.249956  1
  Hg  Hg2  1  0.749964  0.500286  0.250061  1
  Hg  Hg3  1  0.249997  0.499765  0.749932  1
  F  F4  1  0.507669  0.246743  0.994571  1
  F  F5  1  0.995735  0.755051  0.000656  1
  F  F6  1  0.994785  0.245882  0.503250  1
  F  F7  1  0.501166  0.755122  0.502228  1
  F  F8  1  0.503955  0.245193  0.502705  1
  F  F9  1  0.992934  0.752887  0.508921  1
  F  F10  1  0.999161  0.245115  0.994395  1
  F  F11  1  0.504596  0.753743  0.993301  1
