# generated using pymatgen
data_Lu5Ta(B2Ir5)2
_symmetry_space_group_name_H-M   'P 1'
_cell_length_a   9.65441200
_cell_length_b   9.65441200
_cell_length_c   3.22696400
_cell_angle_alpha   90.00000000
_cell_angle_beta   90.00000000
_cell_angle_gamma   90.00000000
_symmetry_Int_Tables_number   1
_chemical_formula_structural   Lu5Ta(B2Ir5)2
_chemical_formula_sum   'Lu5 Ta1 B4 Ir10'
_cell_volume   300.77779905
_cell_formula_units_Z   1
loop_
 _symmetry_equiv_pos_site_id
 _symmetry_equiv_pos_as_xyz
  1  'x, y, z'
loop_
 _atom_site_type_symbol
 _atom_site_label
 _atom_site_symmetry_multiplicity
 _atom_site_fract_x
 _atom_site_fract_y
 _atom_site_fract_z
 _atom_site_occupancy
  Lu  Lu0  1  0.175813  0.676654  0.000000  1
  Lu  Lu1  1  0.323346  0.175813  0.000000  1
  Lu  Lu2  1  0.824187  0.323346  0.000000  1
  Lu  Lu3  1  0.500000  0.500000  0.000000  1
  Lu  Lu4  1  0.676654  0.824187  0.000000  1
  Ta  Ta5  1  0.000000  0.000000  0.000000  1
  B  B6  1  0.382934  0.879418  0.000000  1
  B  B7  1  0.120582  0.382934  0.000000  1
  B  B8  1  0.879418  0.617066  0.000000  1
  B  B9  1  0.617066  0.120582  0.000000  1
  Ir  Ir10  1  0.220163  0.933442  0.500000  1
  Ir  Ir11  1  0.933442  0.779837  0.500000  1
  Ir  Ir12  1  0.425854  0.729121  0.500000  1
  Ir  Ir13  1  0.574146  0.270879  0.500000  1
  Ir  Ir14  1  0.729121  0.574146  0.500000  1
  Ir  Ir15  1  0.270879  0.425854  0.500000  1
  Ir  Ir16  1  0.066558  0.220163  0.500000  1
  Ir  Ir17  1  0.000000  0.500000  0.500000  1
  Ir  Ir18  1  0.500000  0.000000  0.500000  1
  Ir  Ir19  1  0.779837  0.066558  0.500000  1
