# generated using pymatgen
data_Er4Lu6(InBi)3
_symmetry_space_group_name_H-M   'P 1'
_cell_length_a   6.45904002
_cell_length_b   8.91777171
_cell_length_c   8.92581719
_cell_angle_alpha   119.97019334
_cell_angle_beta   89.99478515
_cell_angle_gamma   90.01043896
_symmetry_Int_Tables_number   1
_chemical_formula_structural   Er4Lu6(InBi)3
_chemical_formula_sum   'Er4 Lu6 In3 Bi3'
_cell_volume   445.38265594
_cell_formula_units_Z   1
loop_
 _symmetry_equiv_pos_site_id
 _symmetry_equiv_pos_as_xyz
  1  'x, y, z'
loop_
 _atom_site_type_symbol
 _atom_site_label
 _atom_site_symmetry_multiplicity
 _atom_site_fract_x
 _atom_site_fract_y
 _atom_site_fract_z
 _atom_site_occupancy
  Er  Er0  1  0.749812  0.234798  0.000000  1
  Er  Er1  1  0.749914  0.765041  0.764841  1
  Er  Er2  1  0.749914  0.000201  0.235159  1
  Er  Er3  1  0.249934  0.762986  0.000000  1
  Lu  Lu4  1  0.491878  0.333239  0.666653  1
  Lu  Lu5  1  0.491878  0.666586  0.333347  1
  Lu  Lu6  1  0.008183  0.666681  0.333485  1
  Lu  Lu7  1  0.008183  0.333197  0.666515  1
  Lu  Lu8  1  0.249899  0.237226  0.237130  1
  Lu  Lu9  1  0.249899  0.000097  0.762870  1
  In  In10  1  0.249987  0.392780  0.000000  1
  In  In11  1  0.250259  0.606701  0.606369  1
  In  In12  1  0.250259  0.000332  0.393631  1
  Bi  Bi13  1  0.750028  0.602109  0.000000  1
  Bi  Bi14  1  0.749987  0.398000  0.397969  1
  Bi  Bi15  1  0.749987  0.000031  0.602031  1
