# generated using pymatgen
data_Hf6TaTi3(GaSi2)2
_symmetry_space_group_name_H-M   'P 1'
_cell_length_a   7.81005148
_cell_length_b   7.81005261
_cell_length_c   5.33917179
_cell_angle_alpha   90.04681336
_cell_angle_beta   90.04680975
_cell_angle_gamma   120.16694550
_symmetry_Int_Tables_number   1
_chemical_formula_structural   Hf6TaTi3(GaSi2)2
_chemical_formula_sum   'Hf6 Ta1 Ti3 Ga2 Si4'
_cell_volume   281.56504985
_cell_formula_units_Z   1
loop_
 _symmetry_equiv_pos_site_id
 _symmetry_equiv_pos_as_xyz
  1  'x, y, z'
loop_
 _atom_site_type_symbol
 _atom_site_label
 _atom_site_symmetry_multiplicity
 _atom_site_fract_x
 _atom_site_fract_y
 _atom_site_fract_z
 _atom_site_occupancy
  Hf  Hf0  1  0.251193  0.997142  0.248760  1
  Hf  Hf1  1  0.747302  0.001083  0.751773  1
  Hf  Hf2  1  0.998917  0.252698  0.248227  1
  Hf  Hf3  1  0.002858  0.748807  0.751240  1
  Hf  Hf4  1  0.755861  0.756838  0.247763  1
  Hf  Hf5  1  0.243162  0.244139  0.752237  1
  Ta  Ta6  1  0.329633  0.670367  0.000000  1
  Ti  Ti7  1  0.670233  0.329767  0.000000  1
  Ti  Ti8  1  0.670538  0.329462  0.500000  1
  Ti  Ti9  1  0.329727  0.670273  0.500000  1
  Ga  Ga10  1  0.401509  0.399232  0.252552  1
  Ga  Ga11  1  0.600768  0.598491  0.747448  1
  Si  Si12  1  0.603942  0.999477  0.251060  1
  Si  Si13  1  0.397557  0.003722  0.749016  1
  Si  Si14  1  0.996278  0.602443  0.250984  1
  Si  Si15  1  0.000523  0.396058  0.748940  1
