# generated using pymatgen
data_La(Tc2As)2
_symmetry_space_group_name_H-M   'P 1'
_cell_length_a   7.69079553
_cell_length_b   7.69079534
_cell_length_c   4.10489700
_cell_angle_alpha   90.00000000
_cell_angle_beta   90.00000000
_cell_angle_gamma   148.73152308
_symmetry_Int_Tables_number   1
_chemical_formula_structural   La(Tc2As)2
_chemical_formula_sum   'La1 Tc4 As2'
_cell_volume   126.02394785
_cell_formula_units_Z   1
loop_
 _symmetry_equiv_pos_site_id
 _symmetry_equiv_pos_as_xyz
  1  'x, y, z'
loop_
 _atom_site_type_symbol
 _atom_site_label
 _atom_site_symmetry_multiplicity
 _atom_site_fract_x
 _atom_site_fract_y
 _atom_site_fract_z
 _atom_site_occupancy
  La  La0  1  0.000000  0.000000  0.000000  1
  Tc  Tc1  1  0.698728  0.301274  0.000000  1
  Tc  Tc2  1  0.301274  0.698728  0.000000  1
  Tc  Tc3  1  0.808029  0.191972  0.499999  1
  Tc  Tc4  1  0.191972  0.808029  0.499999  1
  As  As5  1  0.593857  0.406145  0.499999  1
  As  As6  1  0.406145  0.593857  0.499999  1
