# generated using pymatgen
data_Na4PuScO6
_symmetry_space_group_name_H-M   'P 1'
_cell_length_a   5.70431964
_cell_length_b   5.70434160
_cell_length_c   5.94174300
_cell_angle_alpha   99.34106668
_cell_angle_beta   99.34102152
_cell_angle_gamma   119.92240825
_symmetry_Int_Tables_number   1
_chemical_formula_structural   Na4PuScO6
_chemical_formula_sum   'Na4 Pu1 Sc1 O6'
_cell_volume   158.51570567
_cell_formula_units_Z   1
loop_
 _symmetry_equiv_pos_site_id
 _symmetry_equiv_pos_as_xyz
  1  'x, y, z'
loop_
 _atom_site_type_symbol
 _atom_site_label
 _atom_site_symmetry_multiplicity
 _atom_site_fract_x
 _atom_site_fract_y
 _atom_site_fract_z
 _atom_site_occupancy
  Na  Na0  1  0.499922  0.499509  0.999834  1
  Na  Na1  1  0.005896  0.998330  0.501157  1
  Na  Na2  1  0.655923  0.339739  0.499208  1
  Na  Na3  1  0.338356  0.662118  0.500198  1
  Pu  Pu4  1  0.834521  0.170218  0.999836  1
  Sc  Sc5  1  0.171469  0.841724  0.000124  1
  O  O6  1  0.574891  0.941559  0.205871  1
  O  O7  1  0.937318  0.565228  0.209159  1
  O  O8  1  0.210591  0.202410  0.216328  1
  O  O9  1  0.795978  0.799830  0.790013  1
  O  O10  1  0.419251  0.056191  0.786856  1
  O  O11  1  0.055888  0.423144  0.791418  1
