# generated using pymatgen
data_Er4Ga20OsRu5
_symmetry_space_group_name_H-M   'P 1'
_cell_length_a   8.89933200
_cell_length_b   8.89933200
_cell_length_c   6.39128000
_cell_angle_alpha   90.00000000
_cell_angle_beta   90.00000000
_cell_angle_gamma   90.00000000
_symmetry_Int_Tables_number   1
_chemical_formula_structural   Er4Ga20OsRu5
_chemical_formula_sum   'Er4 Ga20 Os1 Ru5'
_cell_volume   506.17729678
_cell_formula_units_Z   1
loop_
 _symmetry_equiv_pos_site_id
 _symmetry_equiv_pos_as_xyz
  1  'x, y, z'
loop_
 _atom_site_type_symbol
 _atom_site_label
 _atom_site_symmetry_multiplicity
 _atom_site_fract_x
 _atom_site_fract_y
 _atom_site_fract_z
 _atom_site_occupancy
  Er  Er0  1  0.682643  0.183274  0.000000  1
  Er  Er1  1  0.317357  0.816726  0.000000  1
  Er  Er2  1  0.816726  0.682643  0.000000  1
  Er  Er3  1  0.183274  0.317357  0.000000  1
  Ga  Ga4  1  0.938692  0.206743  0.292771  1
  Ga  Ga5  1  0.706992  0.438647  0.293315  1
  Ga  Ga6  1  0.500000  0.000000  0.284936  1
  Ga  Ga7  1  0.561353  0.706992  0.706685  1
  Ga  Ga8  1  0.293008  0.561353  0.706685  1
  Ga  Ga9  1  0.793257  0.938692  0.292771  1
  Ga  Ga10  1  0.938692  0.206743  0.707229  1
  Ga  Ga11  1  0.293008  0.561353  0.293315  1
  Ga  Ga12  1  0.061308  0.793257  0.292771  1
  Ga  Ga13  1  0.706992  0.438647  0.706685  1
  Ga  Ga14  1  0.438647  0.293008  0.706685  1
  Ga  Ga15  1  0.061308  0.793257  0.707229  1
  Ga  Ga16  1  0.206743  0.061308  0.707229  1
  Ga  Ga17  1  0.793257  0.938692  0.707229  1
  Ga  Ga18  1  0.206743  0.061308  0.292771  1
  Ga  Ga19  1  0.000000  0.500000  0.715064  1
  Ga  Ga20  1  0.000000  0.500000  0.284936  1
  Ga  Ga21  1  0.561353  0.706992  0.293315  1
  Ga  Ga22  1  0.438647  0.293008  0.293315  1
  Ga  Ga23  1  0.500000  0.000000  0.715064  1
  Os  Os24  1  0.500000  0.500000  0.000000  1
  Ru  Ru25  1  0.678164  0.178301  0.500000  1
  Ru  Ru26  1  0.821699  0.678164  0.500000  1
  Ru  Ru27  1  0.178301  0.321836  0.500000  1
  Ru  Ru28  1  0.000000  0.000000  0.000000  1
  Ru  Ru29  1  0.321836  0.821699  0.500000  1
