# generated using pymatgen
data_Tl2CdIr4PbO14
_symmetry_space_group_name_H-M   'P 1'
_cell_length_a   7.28659413
_cell_length_b   7.34097858
_cell_length_c   7.29967156
_cell_angle_alpha   60.25359456
_cell_angle_beta   60.05924897
_cell_angle_gamma   60.24476355
_symmetry_Int_Tables_number   1
_chemical_formula_structural   Tl2CdIr4PbO14
_chemical_formula_sum   'Tl2 Cd1 Ir4 Pb1 O14'
_cell_volume   277.26041435
_cell_formula_units_Z   1
loop_
 _symmetry_equiv_pos_site_id
 _symmetry_equiv_pos_as_xyz
  1  'x, y, z'
loop_
 _atom_site_type_symbol
 _atom_site_label
 _atom_site_symmetry_multiplicity
 _atom_site_fract_x
 _atom_site_fract_y
 _atom_site_fract_z
 _atom_site_occupancy
  Tl  Tl0  1  0.625000  0.125000  0.125000  1
  Tl  Tl1  1  0.125000  0.125000  0.125000  1
  Cd  Cd2  1  0.125000  0.125000  0.625000  1
  Ir  Ir3  1  0.125000  0.625000  0.625000  1
  Ir  Ir4  1  0.625000  0.125000  0.625000  1
  Ir  Ir5  1  0.625000  0.625000  0.125000  1
  Ir  Ir6  1  0.625000  0.625000  0.625000  1
  Pb  Pb7  1  0.125000  0.625000  0.125000  1
  O  O8  1  0.705261  0.700901  0.296172  1
  O  O9  1  0.301125  0.302291  0.704677  1
  O  O10  1  0.691907  0.302291  0.704677  1
  O  O11  1  0.297665  0.700901  0.296172  1
  O  O12  1  0.299405  0.692120  0.709070  1
  O  O13  1  0.700503  0.300833  0.298160  1
  O  O14  1  0.544739  0.549099  0.953828  1
  O  O15  1  0.948875  0.947709  0.545323  1
  O  O16  1  0.558093  0.947709  0.545323  1
  O  O17  1  0.952335  0.549099  0.953828  1
  O  O18  1  0.950595  0.557880  0.540930  1
  O  O19  1  0.549497  0.949167  0.951840  1
  O  O20  1  0.248683  0.239109  0.263525  1
  O  O21  1  0.001317  0.010891  0.986475  1
