# generated using pymatgen
data_Y3Al12(RuRh)2
_symmetry_space_group_name_H-M   'P 1'
_cell_length_a   8.83418714
_cell_length_b   8.77645735
_cell_length_c   9.57754400
_cell_angle_alpha   90.00000000
_cell_angle_beta   90.00000000
_cell_angle_gamma   119.78407032
_symmetry_Int_Tables_number   1
_chemical_formula_structural   Y3Al12(RuRh)2
_chemical_formula_sum   'Y6 Al24 Ru4 Rh4'
_cell_volume   644.48302520
_cell_formula_units_Z   2
loop_
 _symmetry_equiv_pos_site_id
 _symmetry_equiv_pos_as_xyz
  1  'x, y, z'
loop_
 _atom_site_type_symbol
 _atom_site_label
 _atom_site_symmetry_multiplicity
 _atom_site_fract_x
 _atom_site_fract_y
 _atom_site_fract_z
 _atom_site_occupancy
  Y  Y0  1  0.189755  0.804170  0.250000  1
  Y  Y1  1  0.189755  0.385585  0.250000  1
  Y  Y2  1  0.616465  0.808232  0.250000  1
  Y  Y3  1  0.810245  0.195830  0.750000  1
  Y  Y4  1  0.810245  0.614415  0.750000  1
  Y  Y5  1  0.383535  0.191768  0.750000  1
  Al  Al6  1  0.560833  0.437786  0.250000  1
  Al  Al7  1  0.560833  0.123048  0.250000  1
  Al  Al8  1  0.876128  0.438064  0.250000  1
  Al  Al9  1  0.439167  0.562214  0.750000  1
  Al  Al10  1  0.439167  0.876952  0.750000  1
  Al  Al11  1  0.123872  0.561936  0.750000  1
  Al  Al12  1  0.325011  0.162506  0.422502  1
  Al  Al13  1  0.837805  0.164337  0.422316  1
  Al  Al14  1  0.837805  0.673468  0.422316  1
  Al  Al15  1  0.674989  0.837494  0.577498  1
  Al  Al16  1  0.162195  0.835663  0.577684  1
  Al  Al17  1  0.162195  0.326532  0.577684  1
  Al  Al18  1  0.674989  0.837494  0.922502  1
  Al  Al19  1  0.162195  0.835663  0.922316  1
  Al  Al20  1  0.162195  0.326532  0.922316  1
  Al  Al21  1  0.325011  0.162506  0.077498  1
  Al  Al22  1  0.837805  0.164337  0.077684  1
  Al  Al23  1  0.837805  0.673468  0.077684  1
  Al  Al24  1  0.668967  0.334483  0.522391  1
  Al  Al25  1  0.331033  0.665517  0.477609  1
  Al  Al26  1  0.331033  0.665517  0.022391  1
  Al  Al27  1  0.668967  0.334483  0.977609  1
  Al  Al28  1  0.997837  0.998919  0.250000  1
  Al  Al29  1  0.002163  0.001081  0.750000  1
  Ru  Ru30  1  0.000000  0.000000  0.500000  1
  Ru  Ru31  1  0.000000  0.000000  0.000000  1
  Ru  Ru32  1  0.000000  0.500000  0.500000  1
  Ru  Ru33  1  0.000000  0.500000  0.000000  1
  Rh  Rh34  1  0.500000  0.500000  0.500000  1
  Rh  Rh35  1  0.500000  0.000000  0.500000  1
  Rh  Rh36  1  0.500000  0.500000  0.000000  1
  Rh  Rh37  1  0.500000  0.000000  0.000000  1
