# generated using pymatgen
data_Dy11Y(Si3Ir)4
_symmetry_space_group_name_H-M   'P 1'
_cell_length_a   4.24051700
_cell_length_b   10.65350550
_cell_length_c   12.31153237
_cell_angle_alpha   89.97540771
_cell_angle_beta   90.00000000
_cell_angle_gamma   90.00000000
_symmetry_Int_Tables_number   1
_chemical_formula_structural   Dy11Y(Si3Ir)4
_chemical_formula_sum   'Dy11 Y1 Si12 Ir4'
_cell_volume   556.19030498
_cell_formula_units_Z   1
loop_
 _symmetry_equiv_pos_site_id
 _symmetry_equiv_pos_as_xyz
  1  'x, y, z'
loop_
 _atom_site_type_symbol
 _atom_site_label
 _atom_site_symmetry_multiplicity
 _atom_site_fract_x
 _atom_site_fract_y
 _atom_site_fract_z
 _atom_site_occupancy
  Dy  Dy0  1  0.250000  0.880492  0.020692  1
  Dy  Dy1  1  0.250000  0.619290  0.520254  1
  Dy  Dy2  1  0.750000  0.119663  0.979297  1
  Dy  Dy3  1  0.750000  0.380190  0.479655  1
  Dy  Dy4  1  0.250000  0.918251  0.603295  1
  Dy  Dy5  1  0.250000  0.581643  0.103799  1
  Dy  Dy6  1  0.750000  0.081120  0.396868  1
  Dy  Dy7  1  0.750000  0.419047  0.896396  1
  Dy  Dy8  1  0.250000  0.659127  0.800894  1
  Dy  Dy9  1  0.250000  0.841612  0.301083  1
  Dy  Dy10  1  0.750000  0.340269  0.199135  1
  Y  Y11  1  0.750000  0.158693  0.699262  1
  Si  Si12  1  0.250000  0.009742  0.820867  1
  Si  Si13  1  0.250000  0.489781  0.320877  1
  Si  Si14  1  0.750000  0.990809  0.179072  1
  Si  Si15  1  0.750000  0.510024  0.678889  1
  Si  Si16  1  0.250000  0.246470  0.840460  1
  Si  Si17  1  0.250000  0.253491  0.341065  1
  Si  Si18  1  0.750000  0.754257  0.159480  1
  Si  Si19  1  0.750000  0.745943  0.658967  1
  Si  Si20  1  0.250000  0.201102  0.543986  1
  Si  Si21  1  0.250000  0.298814  0.043481  1
  Si  Si22  1  0.750000  0.798096  0.456305  1
  Si  Si23  1  0.750000  0.701917  0.956294  1
  Ir  Ir24  1  0.250000  0.389592  0.681440  1
  Ir  Ir25  1  0.250000  0.110993  0.181246  1
  Ir  Ir26  1  0.750000  0.610503  0.318525  1
  Ir  Ir27  1  0.750000  0.889072  0.818419  1
