# generated using pymatgen
data_Lu4As6Ir5Ru2
_symmetry_space_group_name_H-M   'P 1'
_cell_length_a   7.20742193
_cell_length_b   7.20742194
_cell_length_c   7.20742189
_cell_angle_alpha   109.42891302
_cell_angle_beta   109.55585174
_cell_angle_gamma   109.42891660
_symmetry_Int_Tables_number   1
_chemical_formula_structural   Lu4As6Ir5Ru2
_chemical_formula_sum   'Lu4 As6 Ir5 Ru2'
_cell_volume   288.21548492
_cell_formula_units_Z   1
loop_
 _symmetry_equiv_pos_site_id
 _symmetry_equiv_pos_as_xyz
  1  'x, y, z'
loop_
 _atom_site_type_symbol
 _atom_site_label
 _atom_site_symmetry_multiplicity
 _atom_site_fract_x
 _atom_site_fract_y
 _atom_site_fract_z
 _atom_site_occupancy
  Lu  Lu0  1  0.000176  0.000351  0.500176  1
  Lu  Lu1  1  0.499824  0.999649  0.999824  1
  Lu  Lu2  1  0.000176  0.500000  0.999824  1
  Lu  Lu3  1  0.499824  0.500000  0.500176  1
  As  As4  1  0.681548  0.684561  0.996986  1
  As  As5  1  0.312426  0.315439  0.996986  1
  As  As6  1  0.003014  0.684561  0.687574  1
  As  As7  1  0.003014  0.315439  0.318452  1
  As  As8  1  0.686549  0.000000  0.686549  1
  As  As9  1  0.313451  0.000000  0.313451  1
  Ir  Ir10  1  0.749330  0.249323  0.500006  1
  Ir  Ir11  1  0.499994  0.249323  0.749317  1
  Ir  Ir12  1  0.499994  0.750677  0.250670  1
  Ir  Ir13  1  0.750000  0.500000  0.250000  1
  Ir  Ir14  1  0.250683  0.750677  0.500006  1
  Ru  Ru15  1  0.000000  0.000000  0.000000  1
  Ru  Ru16  1  0.250000  0.500000  0.750000  1
