# generated using pymatgen
data_SmTh2(GaCo)3
_symmetry_space_group_name_H-M   'P 1'
_cell_length_a   7.16551500
_cell_length_b   7.16551460
_cell_length_c   3.86588100
_cell_angle_alpha   90.00000000
_cell_angle_beta   90.00000000
_cell_angle_gamma   121.93460440
_symmetry_Int_Tables_number   1
_chemical_formula_structural   SmTh2(GaCo)3
_chemical_formula_sum   'Sm1 Th2 Ga3 Co3'
_cell_volume   168.45081179
_cell_formula_units_Z   1
loop_
 _symmetry_equiv_pos_site_id
 _symmetry_equiv_pos_as_xyz
  1  'x, y, z'
loop_
 _atom_site_type_symbol
 _atom_site_label
 _atom_site_symmetry_multiplicity
 _atom_site_fract_x
 _atom_site_fract_y
 _atom_site_fract_z
 _atom_site_occupancy
  Sm  Sm0  1  0.413380  0.413380  0.500000  1
  Th  Th1  1  0.582535  0.000771  0.500000  1
  Th  Th2  1  0.000771  0.582535  0.500000  1
  Ga  Ga3  1  0.756194  0.756194  0.000000  1
  Ga  Ga4  1  0.235910  0.008331  0.000000  1
  Ga  Ga5  1  0.008331  0.235910  0.000000  1
  Co  Co6  1  0.687885  0.328516  0.000000  1
  Co  Co7  1  0.328516  0.687885  0.000000  1
  Co  Co8  1  0.986476  0.986476  0.500000  1
