# generated using pymatgen
data_La4As4Ru3PtO4
_symmetry_space_group_name_H-M   'P 1'
_cell_length_a   5.86318600
_cell_length_b   10.44230431
_cell_length_c   10.44217603
_cell_angle_alpha   68.31099869
_cell_angle_beta   89.99952828
_cell_angle_gamma   89.99962900
_symmetry_Int_Tables_number   1
_chemical_formula_structural   La4As4Ru3PtO4
_chemical_formula_sum   'La8 As8 Ru6 Pt2 O8'
_cell_volume   594.06214531
_cell_formula_units_Z   2
loop_
 _symmetry_equiv_pos_site_id
 _symmetry_equiv_pos_as_xyz
  1  'x, y, z'
loop_
 _atom_site_type_symbol
 _atom_site_label
 _atom_site_symmetry_multiplicity
 _atom_site_fract_x
 _atom_site_fract_y
 _atom_site_fract_z
 _atom_site_occupancy
  La  La0  1  0.749764  0.430589  0.430918  1
  La  La1  1  0.749731  0.930545  0.930906  1
  La  La2  1  0.250275  0.680890  0.180597  1
  La  La3  1  0.250289  0.180903  0.680565  1
  La  La4  1  0.250272  0.069068  0.069395  1
  La  La5  1  0.250278  0.569085  0.569431  1
  La  La6  1  0.749753  0.319384  0.819092  1
  La  La7  1  0.749742  0.819416  0.319084  1
  As  As8  1  0.758863  0.176909  0.168173  1
  As  As9  1  0.758868  0.676945  0.668157  1
  As  As10  1  0.241107  0.418191  0.926934  1
  As  As11  1  0.241102  0.918157  0.426905  1
  As  As12  1  0.241106  0.331839  0.323090  1
  As  As13  1  0.241088  0.831885  0.823057  1
  As  As14  1  0.758866  0.573071  0.081837  1
  As  As15  1  0.758891  0.073091  0.581845  1
  Ru  Ru16  1  0.999984  0.374998  0.125007  1
  Ru  Ru17  1  0.000000  0.875018  0.624980  1
  Ru  Ru18  1  0.999995  0.125004  0.375007  1
  Ru  Ru19  1  0.499977  0.374989  0.125015  1
  Ru  Ru20  1  0.500002  0.875022  0.624982  1
  Ru  Ru21  1  0.999984  0.625026  0.874983  1
  Pt  Pt22  1  0.499986  0.625056  0.875022  1
  Pt  Pt23  1  0.499988  0.124997  0.375007  1
  O  O24  1  0.500016  0.375001  0.625007  1
  O  O25  1  0.499999  0.874980  0.124998  1
  O  O26  1  0.999995  0.124978  0.874992  1
  O  O27  1  0.000025  0.625003  0.375012  1
  O  O28  1  0.500012  0.124976  0.874989  1
  O  O29  1  0.500022  0.625004  0.375012  1
  O  O30  1  0.000016  0.374997  0.625000  1
  O  O31  1  0.999999  0.874982  0.125000  1
