# generated using pymatgen
data_HoMg3Ge5PIr7
_symmetry_space_group_name_H-M   'P 1'
_cell_length_a   7.12782387
_cell_length_b   7.12782342
_cell_length_c   6.97320857
_cell_angle_alpha   108.80025360
_cell_angle_beta   108.80025454
_cell_angle_gamma   110.57385393
_symmetry_Int_Tables_number   1
_chemical_formula_structural   HoMg3Ge5PIr7
_chemical_formula_sum   'Ho1 Mg3 Ge5 P1 Ir7'
_cell_volume   273.46137380
_cell_formula_units_Z   1
loop_
 _symmetry_equiv_pos_site_id
 _symmetry_equiv_pos_as_xyz
  1  'x, y, z'
loop_
 _atom_site_type_symbol
 _atom_site_label
 _atom_site_symmetry_multiplicity
 _atom_site_fract_x
 _atom_site_fract_y
 _atom_site_fract_z
 _atom_site_occupancy
  Ho  Ho0  1  0.000019  0.000019  0.489535  1
  Mg  Mg1  1  0.001187  0.507912  0.000188  1
  Mg  Mg2  1  0.507912  0.001187  0.000188  1
  Mg  Mg3  1  0.509941  0.509941  0.508961  1
  Ge  Ge4  1  0.317225  0.000247  0.306398  1
  Ge  Ge5  1  0.000247  0.317225  0.306398  1
  Ge  Ge6  1  0.304400  0.304400  0.007583  1
  Ge  Ge7  1  0.686993  0.001428  0.691600  1
  Ge  Ge8  1  0.001428  0.686993  0.691600  1
  P  P9  1  0.672934  0.672934  0.995872  1
  Ir  Ir10  1  0.750199  0.256027  0.502493  1
  Ir  Ir11  1  0.744759  0.495354  0.242507  1
  Ir  Ir12  1  0.507675  0.260500  0.755290  1
  Ir  Ir13  1  0.260500  0.507675  0.755290  1
  Ir  Ir14  1  0.256027  0.750199  0.502493  1
  Ir  Ir15  1  0.495354  0.744759  0.242507  1
  Ir  Ir16  1  0.983201  0.983201  0.001096  1
