# generated using pymatgen
data_Yb4Tc3B8Ru7
_symmetry_space_group_name_H-M   'P 1'
_cell_length_a   3.01166200
_cell_length_b   8.74889370
_cell_length_c   10.15893429
_cell_angle_alpha   90.07496728
_cell_angle_beta   90.00000000
_cell_angle_gamma   90.00000000
_symmetry_Int_Tables_number   1
_chemical_formula_structural   Yb4Tc3B8Ru7
_chemical_formula_sum   'Yb4 Tc3 B8 Ru7'
_cell_volume   267.67459125
_cell_formula_units_Z   1
loop_
 _symmetry_equiv_pos_site_id
 _symmetry_equiv_pos_as_xyz
  1  'x, y, z'
loop_
 _atom_site_type_symbol
 _atom_site_label
 _atom_site_symmetry_multiplicity
 _atom_site_fract_x
 _atom_site_fract_y
 _atom_site_fract_z
 _atom_site_occupancy
  Yb  Yb0  1  0.500000  0.835968  0.181844  1
  Yb  Yb1  1  0.500000  0.162046  0.817072  1
  Yb  Yb2  1  0.500000  0.662208  0.681987  1
  Yb  Yb3  1  0.500000  0.335360  0.318647  1
  Tc  Tc4  1  0.000000  0.657733  0.954389  1
  Tc  Tc5  1  0.000000  0.341968  0.045340  1
  Tc  Tc6  1  0.000000  0.845023  0.456344  1
  B  B7  1  0.500000  0.967957  0.588282  1
  B  B8  1  0.500000  0.032266  0.411529  1
  B  B9  1  0.500000  0.851981  0.900993  1
  B  B10  1  0.500000  0.148733  0.098196  1
  B  B11  1  0.500000  0.648887  0.400987  1
  B  B12  1  0.500000  0.353479  0.599860  1
  B  B13  1  0.500000  0.468108  0.912561  1
  B  B14  1  0.500000  0.532610  0.087131  1
  Ru  Ru15  1  0.000000  0.160543  0.545867  1
  Ru  Ru16  1  0.000000  0.998924  0.000262  1
  Ru  Ru17  1  0.000000  0.411241  0.759178  1
  Ru  Ru18  1  0.000000  0.586828  0.241031  1
  Ru  Ru19  1  0.000000  0.499779  0.499261  1
  Ru  Ru20  1  0.000000  0.910940  0.739871  1
  Ru  Ru21  1  0.000000  0.087415  0.259368  1
