# generated using pymatgen
data_Y4Al17GaRh6
_symmetry_space_group_name_H-M   'P 1'
_cell_length_a   7.54068556
_cell_length_b   7.54066851
_cell_length_c   9.50552100
_cell_angle_alpha   90.00000000
_cell_angle_beta   90.00000000
_cell_angle_gamma   119.37048008
_symmetry_Int_Tables_number   1
_chemical_formula_structural   Y4Al17GaRh6
_chemical_formula_sum   'Y4 Al17 Ga1 Rh6'
_cell_volume   471.02869295
_cell_formula_units_Z   1
loop_
 _symmetry_equiv_pos_site_id
 _symmetry_equiv_pos_as_xyz
  1  'x, y, z'
loop_
 _atom_site_type_symbol
 _atom_site_label
 _atom_site_symmetry_multiplicity
 _atom_site_fract_x
 _atom_site_fract_y
 _atom_site_fract_z
 _atom_site_occupancy
  Y  Y0  1  0.993949  0.673352  0.250000  1
  Y  Y1  1  0.005399  0.328866  0.750000  1
  Y  Y2  1  0.673353  0.993951  0.250000  1
  Y  Y3  1  0.328867  0.005401  0.750000  1
  Al  Al4  1  0.871078  0.871077  0.750000  1
  Al  Al5  1  0.001357  0.335529  0.073299  1
  Al  Al6  1  0.998823  0.664743  0.926293  1
  Al  Al7  1  0.998823  0.664743  0.573707  1
  Al  Al8  1  0.335528  0.001356  0.426701  1
  Al  Al9  1  0.001357  0.335529  0.426701  1
  Al  Al10  1  0.664744  0.998822  0.573708  1
  Al  Al11  1  0.664744  0.998822  0.926292  1
  Al  Al12  1  0.335528  0.001356  0.073299  1
  Al  Al13  1  0.333461  0.333461  0.552018  1
  Al  Al14  1  0.665821  0.665821  0.450209  1
  Al  Al15  1  0.665821  0.665821  0.049791  1
  Al  Al16  1  0.333461  0.333461  0.947982  1
  Al  Al17  1  0.338124  0.549156  0.250000  1
  Al  Al18  1  0.661214  0.451133  0.750000  1
  Al  Al19  1  0.549153  0.338124  0.250000  1
  Al  Al20  1  0.451133  0.661214  0.750000  1
  Ga  Ga21  1  0.131634  0.131634  0.250000  1
  Rh  Rh22  1  0.671361  0.327574  0.000255  1
  Rh  Rh23  1  0.327574  0.671360  0.000255  1
  Rh  Rh24  1  0.327574  0.671360  0.499745  1
  Rh  Rh25  1  0.671361  0.327574  0.499745  1
  Rh  Rh26  1  0.999379  0.999379  0.997726  1
  Rh  Rh27  1  0.999379  0.999379  0.502274  1
