# generated using pymatgen
data_Dy3ZrCo15Si12Ni5
_symmetry_space_group_name_H-M   'P 1'
_cell_length_a   3.71448800
_cell_length_b   6.72779058
_cell_length_c   18.36571337
_cell_angle_alpha   89.93158046
_cell_angle_beta   90.00000000
_cell_angle_gamma   90.00000000
_symmetry_Int_Tables_number   1
_chemical_formula_structural   Dy3ZrCo15Si12Ni5
_chemical_formula_sum   'Dy3 Zr1 Co15 Si12 Ni5'
_cell_volume   458.96431167
_cell_formula_units_Z   1
loop_
 _symmetry_equiv_pos_site_id
 _symmetry_equiv_pos_as_xyz
  1  'x, y, z'
loop_
 _atom_site_type_symbol
 _atom_site_label
 _atom_site_symmetry_multiplicity
 _atom_site_fract_x
 _atom_site_fract_y
 _atom_site_fract_z
 _atom_site_occupancy
  Dy  Dy0  1  0.750000  0.131270  0.641486  1
  Dy  Dy1  1  0.750000  0.368996  0.144629  1
  Dy  Dy2  1  0.250000  0.632260  0.856324  1
  Zr  Zr3  1  0.250000  0.872892  0.356561  1
  Co  Co4  1  0.250000  0.047635  0.206578  1
  Co  Co5  1  0.750000  0.950471  0.795208  1
  Co  Co6  1  0.750000  0.548340  0.296202  1
  Co  Co7  1  0.250000  0.449686  0.702639  1
  Co  Co8  1  0.250000  0.630553  0.483815  1
  Co  Co9  1  0.750000  0.377565  0.507253  1
  Co  Co10  1  0.750000  0.125894  0.011992  1
  Co  Co11  1  0.250000  0.874648  0.988452  1
  Co  Co12  1  0.250000  0.671169  0.204648  1
  Co  Co13  1  0.750000  0.329648  0.797627  1
  Co  Co14  1  0.750000  0.166656  0.299521  1
  Co  Co15  1  0.250000  0.828243  0.701750  1
  Co  Co16  1  0.250000  0.347760  0.387465  1
  Co  Co17  1  0.750000  0.640846  0.612872  1
  Co  Co18  1  0.250000  0.147589  0.886725  1
  Si  Si19  1  0.250000  0.083703  0.083299  1
  Si  Si20  1  0.750000  0.919845  0.917619  1
  Si  Si21  1  0.750000  0.592417  0.415078  1
  Si  Si22  1  0.250000  0.419220  0.579066  1
  Si  Si23  1  0.250000  0.654298  0.078687  1
  Si  Si24  1  0.750000  0.348300  0.923089  1
  Si  Si25  1  0.750000  0.145694  0.422094  1
  Si  Si26  1  0.250000  0.842146  0.576943  1
  Si  Si27  1  0.250000  0.357402  0.263728  1
  Si  Si28  1  0.750000  0.639678  0.736112  1
  Si  Si29  1  0.750000  0.859117  0.241913  1
  Si  Si30  1  0.250000  0.140673  0.762630  1
  Ni  Ni31  1  0.750000  0.855936  0.117493  1
  Ni  Ni32  1  0.250000  0.375487  0.005874  1
  Ni  Ni33  1  0.750000  0.628310  0.996170  1
  Ni  Ni34  1  0.750000  0.872048  0.493795  1
  Ni  Ni35  1  0.250000  0.123602  0.504670  1
