# generated using pymatgen
data_Dy2Sc3(SnBi)2
_symmetry_space_group_name_H-M   'P 1'
_cell_length_a   7.92814100
_cell_length_b   7.91464200
_cell_length_c   14.98367800
_cell_angle_alpha   90.00000000
_cell_angle_beta   90.00000000
_cell_angle_gamma   90.00000000
_symmetry_Int_Tables_number   1
_chemical_formula_structural   Dy2Sc3(SnBi)2
_chemical_formula_sum   'Dy8 Sc12 Sn8 Bi8'
_cell_volume   940.20178676
_cell_formula_units_Z   4
loop_
 _symmetry_equiv_pos_site_id
 _symmetry_equiv_pos_as_xyz
  1  'x, y, z'
loop_
 _atom_site_type_symbol
 _atom_site_label
 _atom_site_symmetry_multiplicity
 _atom_site_fract_x
 _atom_site_fract_y
 _atom_site_fract_z
 _atom_site_occupancy
  Dy  Dy0  1  0.976688  0.180542  0.099706  1
  Dy  Dy1  1  0.023312  0.819458  0.900294  1
  Dy  Dy2  1  0.523312  0.680542  0.900294  1
  Dy  Dy3  1  0.023312  0.819458  0.599706  1
  Dy  Dy4  1  0.476688  0.319458  0.099706  1
  Dy  Dy5  1  0.976688  0.180542  0.400294  1
  Dy  Dy6  1  0.476688  0.319458  0.400294  1
  Dy  Dy7  1  0.523312  0.680542  0.599706  1
  Sc  Sc8  1  0.180328  0.496724  0.750000  1
  Sc  Sc9  1  0.819672  0.503276  0.250000  1
  Sc  Sc10  1  0.319672  0.996724  0.250000  1
  Sc  Sc11  1  0.680328  0.003276  0.750000  1
  Sc  Sc12  1  0.354801  0.153853  0.630103  1
  Sc  Sc13  1  0.645199  0.846147  0.369897  1
  Sc  Sc14  1  0.145199  0.653853  0.369897  1
  Sc  Sc15  1  0.645199  0.846147  0.130103  1
  Sc  Sc16  1  0.854801  0.346147  0.630103  1
  Sc  Sc17  1  0.354801  0.153853  0.869897  1
  Sc  Sc18  1  0.854801  0.346147  0.869897  1
  Sc  Sc19  1  0.145199  0.653853  0.130103  1
  Sn  Sn20  1  0.045242  0.125359  0.750000  1
  Sn  Sn21  1  0.954758  0.874641  0.250000  1
  Sn  Sn22  1  0.454758  0.625359  0.250000  1
  Sn  Sn23  1  0.545242  0.374641  0.750000  1
  Sn  Sn24  1  0.324587  0.847294  0.750000  1
  Sn  Sn25  1  0.675413  0.152706  0.250000  1
  Sn  Sn26  1  0.175413  0.347294  0.250000  1
  Sn  Sn27  1  0.824587  0.652706  0.750000  1
  Bi  Bi28  1  0.205078  0.454420  0.542853  1
  Bi  Bi29  1  0.794922  0.545580  0.457147  1
  Bi  Bi30  1  0.294922  0.954420  0.457147  1
  Bi  Bi31  1  0.794922  0.545580  0.042853  1
  Bi  Bi32  1  0.705078  0.045580  0.542853  1
  Bi  Bi33  1  0.205078  0.454420  0.957147  1
  Bi  Bi34  1  0.705078  0.045580  0.957147  1
  Bi  Bi35  1  0.294922  0.954420  0.042853  1
