# generated using pymatgen
data_Zr3TiSb2
_symmetry_space_group_name_H-M   'P 1'
_cell_length_a   3.96648308
_cell_length_b   4.19722341
_cell_length_c   8.38674627
_cell_angle_alpha   104.49110456
_cell_angle_beta   103.67849827
_cell_angle_gamma   89.99999408
_symmetry_Int_Tables_number   1
_chemical_formula_structural   Zr3TiSb2
_chemical_formula_sum   'Zr3 Ti1 Sb2'
_cell_volume   131.08826864
_cell_formula_units_Z   1
loop_
 _symmetry_equiv_pos_site_id
 _symmetry_equiv_pos_as_xyz
  1  'x, y, z'
loop_
 _atom_site_type_symbol
 _atom_site_label
 _atom_site_symmetry_multiplicity
 _atom_site_fract_x
 _atom_site_fract_y
 _atom_site_fract_z
 _atom_site_occupancy
  Zr  Zr0  1  0.000000  0.500000  0.000000  1
  Zr  Zr1  1  0.677153  0.677153  0.354307  1
  Zr  Zr2  1  0.322847  0.322847  0.645693  1
  Ti  Ti3  1  0.500000  0.000000  0.000000  1
  Sb  Sb4  1  0.134958  0.134958  0.269917  1
  Sb  Sb5  1  0.865043  0.865043  0.730084  1
