# generated using pymatgen
data_TbInNi5
_symmetry_space_group_name_H-M   'P 1'
_cell_length_a   10.29146597
_cell_length_b   10.29146584
_cell_length_c   10.29146500
_cell_angle_alpha   27.49721095
_cell_angle_beta   27.49721239
_cell_angle_gamma   27.49720896
_symmetry_Int_Tables_number   1
_chemical_formula_structural   TbInNi5
_chemical_formula_sum   'Tb2 In2 Ni10'
_cell_volume   205.08813008
_cell_formula_units_Z   2
loop_
 _symmetry_equiv_pos_site_id
 _symmetry_equiv_pos_as_xyz
  1  'x, y, z'
loop_
 _atom_site_type_symbol
 _atom_site_label
 _atom_site_symmetry_multiplicity
 _atom_site_fract_x
 _atom_site_fract_y
 _atom_site_fract_z
 _atom_site_occupancy
  Tb  Tb0  1  0.000000  0.000000  0.000000  1
  Tb  Tb1  1  0.500000  0.500000  0.500000  1
  In  In2  1  0.110350  0.110350  0.110350  1
  In  In3  1  0.889650  0.889650  0.889650  1
  Ni  Ni4  1  0.333673  0.333673  0.333673  1
  Ni  Ni5  1  0.567022  0.567022  0.069968  1
  Ni  Ni6  1  0.069968  0.567022  0.567022  1
  Ni  Ni7  1  0.567022  0.069968  0.567022  1
  Ni  Ni8  1  0.801902  0.801902  0.801902  1
  Ni  Ni9  1  0.198098  0.198098  0.198098  1
  Ni  Ni10  1  0.432978  0.930032  0.432978  1
  Ni  Ni11  1  0.930032  0.432978  0.432978  1
  Ni  Ni12  1  0.432978  0.432978  0.930032  1
  Ni  Ni13  1  0.666327  0.666327  0.666327  1
