# generated using pymatgen
data_Tb3Tm5B24Rh3W
_symmetry_space_group_name_H-M   'P 1'
_cell_length_a   3.64543800
_cell_length_b   9.14679190
_cell_length_c   11.52835200
_cell_angle_alpha   90.24686196
_cell_angle_beta   90.00000000
_cell_angle_gamma   90.00000000
_symmetry_Int_Tables_number   1
_chemical_formula_structural   Tb3Tm5B24Rh3W
_chemical_formula_sum   'Tb3 Tm5 B24 Rh3 W1'
_cell_volume   384.39852490
_cell_formula_units_Z   1
loop_
 _symmetry_equiv_pos_site_id
 _symmetry_equiv_pos_as_xyz
  1  'x, y, z'
loop_
 _atom_site_type_symbol
 _atom_site_label
 _atom_site_symmetry_multiplicity
 _atom_site_fract_x
 _atom_site_fract_y
 _atom_site_fract_z
 _atom_site_occupancy
  Tb  Tb0  1  0.500000  0.319145  0.411055  1
  Tb  Tb1  1  0.500000  0.676849  0.584778  1
  Tb  Tb2  1  0.500000  0.178791  0.916507  1
  Tm  Tm3  1  0.500000  0.823240  0.086602  1
  Tm  Tm4  1  0.500000  0.445777  0.125588  1
  Tm  Tm5  1  0.500000  0.557773  0.871849  1
  Tm  Tm6  1  0.500000  0.055785  0.629448  1
  Tm  Tm7  1  0.500000  0.944241  0.374102  1
  B  B8  1  0.000000  0.103757  0.473639  1
  B  B9  1  0.000000  0.894548  0.529765  1
  B  B10  1  0.000000  0.397718  0.969812  1
  B  B11  1  0.000000  0.607920  0.028050  1
  B  B12  1  0.000000  0.130925  0.317329  1
  B  B13  1  0.000000  0.867382  0.683739  1
  B  B14  1  0.000000  0.369548  0.816393  1
  B  B15  1  0.000000  0.633248  0.182804  1
  B  B16  1  0.000000  0.050962  0.064930  1
  B  B17  1  0.000000  0.945442  0.933568  1
  B  B18  1  0.000000  0.444388  0.566058  1
  B  B19  1  0.000000  0.553376  0.432933  1
  B  B20  1  0.000000  0.483899  0.286497  1
  B  B21  1  0.000000  0.517030  0.712653  1
  B  B22  1  0.000000  0.016613  0.787436  1
  B  B23  1  0.000000  0.978672  0.213977  1
  B  B24  1  0.000000  0.252192  0.078998  1
  B  B25  1  0.000000  0.751068  0.920087  1
  B  B26  1  0.000000  0.248996  0.580283  1
  B  B27  1  0.000000  0.749311  0.419990  1
  B  B28  1  0.000000  0.295670  0.235557  1
  B  B29  1  0.000000  0.706685  0.764084  1
  B  B30  1  0.000000  0.208018  0.736072  1
  B  B31  1  0.000000  0.792181  0.265317  1
  Rh  Rh32  1  0.500000  0.860701  0.820794  1
  Rh  Rh33  1  0.500000  0.360567  0.679973  1
  Rh  Rh34  1  0.500000  0.639697  0.320000  1
  W  W35  1  0.500000  0.137886  0.179331  1
