# generated using pymatgen
data_YbHoB4Ru5
_symmetry_space_group_name_H-M   'P 1'
_cell_length_a   3.03214200
_cell_length_b   8.71380742
_cell_length_c   10.21276759
_cell_angle_alpha   89.68535336
_cell_angle_beta   90.00000000
_cell_angle_gamma   90.00000000
_symmetry_Int_Tables_number   1
_chemical_formula_structural   YbHoB4Ru5
_chemical_formula_sum   'Yb2 Ho2 B8 Ru10'
_cell_volume   269.83258482
_cell_formula_units_Z   2
loop_
 _symmetry_equiv_pos_site_id
 _symmetry_equiv_pos_as_xyz
  1  'x, y, z'
loop_
 _atom_site_type_symbol
 _atom_site_label
 _atom_site_symmetry_multiplicity
 _atom_site_fract_x
 _atom_site_fract_y
 _atom_site_fract_z
 _atom_site_occupancy
  Yb  Yb0  1  0.500000  0.842062  0.180724  1
  Yb  Yb1  1  0.500000  0.157938  0.819276  1
  Ho  Ho2  1  0.500000  0.659003  0.683671  1
  Ho  Ho3  1  0.500000  0.340997  0.316329  1
  B  B4  1  0.500000  0.966338  0.589258  1
  B  B5  1  0.500000  0.033662  0.410742  1
  B  B6  1  0.500000  0.855032  0.901332  1
  B  B7  1  0.500000  0.144968  0.098668  1
  B  B8  1  0.500000  0.648438  0.398259  1
  B  B9  1  0.500000  0.351562  0.601741  1
  B  B10  1  0.500000  0.464810  0.911556  1
  B  B11  1  0.500000  0.535190  0.088444  1
  Ru  Ru12  1  0.000000  0.656676  0.953878  1
  Ru  Ru13  1  0.000000  0.343324  0.046122  1
  Ru  Ru14  1  0.000000  0.842788  0.454632  1
  Ru  Ru15  1  0.000000  0.157212  0.545368  1
  Ru  Ru16  1  0.000000  0.000000  0.000000  1
  Ru  Ru17  1  0.000000  0.404031  0.760939  1
  Ru  Ru18  1  0.000000  0.595969  0.239061  1
  Ru  Ru19  1  0.000000  0.500000  0.500000  1
  Ru  Ru20  1  0.000000  0.907104  0.739994  1
  Ru  Ru21  1  0.000000  0.092896  0.260006  1
