# generated using pymatgen
data_Pr4Nd6CuGeBi6
_symmetry_space_group_name_H-M   'P 1'
_cell_length_a   9.68638900
_cell_length_b   9.68638830
_cell_length_c   6.64266200
_cell_angle_alpha   90.00000000
_cell_angle_beta   90.00000000
_cell_angle_gamma   119.99999215
_symmetry_Int_Tables_number   1
_chemical_formula_structural   Pr4Nd6CuGeBi6
_chemical_formula_sum   'Pr4 Nd6 Cu1 Ge1 Bi6'
_cell_volume   539.75490968
_cell_formula_units_Z   1
loop_
 _symmetry_equiv_pos_site_id
 _symmetry_equiv_pos_as_xyz
  1  'x, y, z'
loop_
 _atom_site_type_symbol
 _atom_site_label
 _atom_site_symmetry_multiplicity
 _atom_site_fract_x
 _atom_site_fract_y
 _atom_site_fract_z
 _atom_site_occupancy
  Pr  Pr0  1  0.666667  0.333333  0.000000  1
  Pr  Pr1  1  0.333333  0.666667  0.000000  1
  Pr  Pr2  1  0.333333  0.666667  0.500000  1
  Pr  Pr3  1  0.666667  0.333333  0.500000  1
  Nd  Nd4  1  0.747771  0.747771  0.751853  1
  Nd  Nd5  1  0.252229  0.000000  0.751853  1
  Nd  Nd6  1  0.000000  0.252229  0.751853  1
  Nd  Nd7  1  0.252229  0.252229  0.248147  1
  Nd  Nd8  1  0.747771  0.000000  0.248147  1
  Nd  Nd9  1  0.000000  0.747771  0.248147  1
  Cu  Cu10  1  0.000000  0.000000  0.500000  1
  Ge  Ge11  1  0.000000  0.000000  0.000000  1
  Bi  Bi12  1  0.386571  0.386571  0.749216  1
  Bi  Bi13  1  0.613429  0.000000  0.749216  1
  Bi  Bi14  1  0.000000  0.613429  0.749216  1
  Bi  Bi15  1  0.613429  0.613429  0.250784  1
  Bi  Bi16  1  0.386571  0.000000  0.250784  1
  Bi  Bi17  1  0.000000  0.386571  0.250784  1
