# generated using pymatgen
data_TbSb3(SeO3)8
_symmetry_space_group_name_H-M   'P 1'
_cell_length_a   8.50765455
_cell_length_b   8.84586338
_cell_length_c   8.52733529
_cell_angle_alpha   90.77906637
_cell_angle_beta   89.79316405
_cell_angle_gamma   90.07982406
_symmetry_Int_Tables_number   1
_chemical_formula_structural   TbSb3(SeO3)8
_chemical_formula_sum   'Tb1 Sb3 Se8 O24'
_cell_volume   641.68227564
_cell_formula_units_Z   1
loop_
 _symmetry_equiv_pos_site_id
 _symmetry_equiv_pos_as_xyz
  1  'x, y, z'
loop_
 _atom_site_type_symbol
 _atom_site_label
 _atom_site_symmetry_multiplicity
 _atom_site_fract_x
 _atom_site_fract_y
 _atom_site_fract_z
 _atom_site_occupancy
  Tb  Tb0  1  0.000000  0.500000  0.000000  1
  Sb  Sb1  1  0.500000  0.500000  0.500000  1
  Sb  Sb2  1  0.000000  0.000000  0.500000  1
  Sb  Sb3  1  0.500000  0.000000  0.000000  1
  Se  Se4  1  0.352343  0.689339  0.171424  1
  Se  Se5  1  0.837945  0.308344  0.347322  1
  Se  Se6  1  0.686794  0.844166  0.682581  1
  Se  Se7  1  0.197234  0.150659  0.809664  1
  Se  Se8  1  0.647657  0.310661  0.828576  1
  Se  Se9  1  0.162055  0.691656  0.652678  1
  Se  Se10  1  0.313206  0.155834  0.317419  1
  Se  Se11  1  0.802766  0.849341  0.190336  1
  O  O12  1  0.246451  0.576562  0.051149  1
  O  O13  1  0.755376  0.433132  0.478529  1
  O  O14  1  0.766962  0.980368  0.552470  1
  O  O15  1  0.267023  0.016442  0.948303  1
  O  O16  1  0.549142  0.972602  0.767911  1
  O  O17  1  0.489792  0.569359  0.246128  1
  O  O18  1  0.966483  0.414944  0.246278  1
  O  O19  1  0.052195  0.024016  0.731855  1
  O  O20  1  0.979168  0.223067  0.481766  1
  O  O21  1  0.567219  0.749258  0.558722  1
  O  O22  1  0.482221  0.776783  0.025915  1
  O  O23  1  0.087351  0.262308  0.924683  1
  O  O24  1  0.753549  0.423438  0.948851  1
  O  O25  1  0.244624  0.566868  0.521471  1
  O  O26  1  0.233038  0.019632  0.447530  1
  O  O27  1  0.732977  0.983558  0.051697  1
  O  O28  1  0.450858  0.027398  0.232089  1
  O  O29  1  0.510208  0.430641  0.753872  1
  O  O30  1  0.033517  0.585056  0.753722  1
  O  O31  1  0.947805  0.975984  0.268145  1
  O  O32  1  0.020832  0.776933  0.518234  1
  O  O33  1  0.432781  0.250742  0.441278  1
  O  O34  1  0.517779  0.223217  0.974085  1
  O  O35  1  0.912649  0.737692  0.075317  1
