# generated using pymatgen
data_Yb3Dy2Er3(B6Os)4
_symmetry_space_group_name_H-M   'P 1'
_cell_length_a   3.63871200
_cell_length_b   9.13739482
_cell_length_c   11.52824700
_cell_angle_alpha   89.93509878
_cell_angle_beta   90.00000000
_cell_angle_gamma   90.00000000
_symmetry_Int_Tables_number   1
_chemical_formula_structural   Yb3Dy2Er3(B6Os)4
_chemical_formula_sum   'Yb3 Dy2 Er3 B24 Os4'
_cell_volume   383.29492445
_cell_formula_units_Z   1
loop_
 _symmetry_equiv_pos_site_id
 _symmetry_equiv_pos_as_xyz
  1  'x, y, z'
loop_
 _atom_site_type_symbol
 _atom_site_label
 _atom_site_symmetry_multiplicity
 _atom_site_fract_x
 _atom_site_fract_y
 _atom_site_fract_z
 _atom_site_occupancy
  Yb  Yb0  1  0.000000  0.324695  0.414445  1
  Yb  Yb1  1  0.000000  0.675299  0.585234  1
  Yb  Yb2  1  0.000000  0.823166  0.086155  1
  Dy  Dy3  1  0.000000  0.176040  0.914745  1
  Dy  Dy4  1  0.000000  0.941450  0.367840  1
  Er  Er5  1  0.000000  0.057971  0.631050  1
  Er  Er6  1  0.000000  0.443212  0.131917  1
  Er  Er7  1  0.000000  0.558537  0.868693  1
  B  B8  1  0.500000  0.552965  0.433190  1
  B  B9  1  0.500000  0.446199  0.567731  1
  B  B10  1  0.500000  0.053646  0.066744  1
  B  B11  1  0.500000  0.945904  0.933294  1
  B  B12  1  0.500000  0.747656  0.417370  1
  B  B13  1  0.500000  0.251399  0.582573  1
  B  B14  1  0.500000  0.249118  0.081901  1
  B  B15  1  0.500000  0.751666  0.917952  1
  B  B16  1  0.500000  0.790167  0.264236  1
  B  B17  1  0.500000  0.208794  0.735673  1
  B  B18  1  0.500000  0.291458  0.234637  1
  B  B19  1  0.500000  0.709902  0.765092  1
  B  B20  1  0.500000  0.630812  0.185888  1
  B  B21  1  0.500000  0.369129  0.814919  1
  B  B22  1  0.500000  0.131485  0.313031  1
  B  B23  1  0.500000  0.869365  0.685447  1
  B  B24  1  0.500000  0.983230  0.210341  1
  B  B25  1  0.500000  0.016926  0.788344  1
  B  B26  1  0.500000  0.483228  0.288785  1
  B  B27  1  0.500000  0.516430  0.711891  1
  B  B28  1  0.500000  0.599069  0.027476  1
  B  B29  1  0.500000  0.400515  0.972570  1
  B  B30  1  0.500000  0.097900  0.473161  1
  B  B31  1  0.500000  0.902643  0.527231  1
  Os  Os32  1  0.000000  0.637755  0.320732  1
  Os  Os33  1  0.000000  0.360213  0.680818  1
  Os  Os34  1  0.000000  0.139135  0.178476  1
  Os  Os35  1  0.000000  0.862924  0.820417  1
