# generated using pymatgen
data_PrEr19Rh12
_symmetry_space_group_name_H-M   'P 1'
_cell_length_a   10.83464160
_cell_length_b   10.84635635
_cell_length_c   6.33133280
_cell_angle_alpha   89.92354378
_cell_angle_beta   90.03981993
_cell_angle_gamma   90.04802526
_symmetry_Int_Tables_number   1
_chemical_formula_structural   PrEr19Rh12
_chemical_formula_sum   'Pr1 Er19 Rh12'
_cell_volume   744.03423219
_cell_formula_units_Z   1
loop_
 _symmetry_equiv_pos_site_id
 _symmetry_equiv_pos_as_xyz
  1  'x, y, z'
loop_
 _atom_site_type_symbol
 _atom_site_label
 _atom_site_symmetry_multiplicity
 _atom_site_fract_x
 _atom_site_fract_y
 _atom_site_fract_z
 _atom_site_occupancy
  Pr  Pr0  1  0.090740  0.287245  0.123041  1
  Er  Er1  1  0.293255  0.086791  0.382120  1
  Er  Er2  1  0.291434  0.910549  0.880875  1
  Er  Er3  1  0.708302  0.089037  0.880396  1
  Er  Er4  1  0.708541  0.910767  0.380584  1
  Er  Er5  1  0.589188  0.791433  0.881045  1
  Er  Er6  1  0.589233  0.208794  0.380607  1
  Er  Er7  1  0.411096  0.791115  0.380555  1
  Er  Er8  1  0.411675  0.208535  0.879474  1
  Er  Er9  1  0.209274  0.412461  0.619750  1
  Er  Er10  1  0.208874  0.592010  0.119737  1
  Er  Er11  1  0.789888  0.411369  0.119310  1
  Er  Er12  1  0.791157  0.590041  0.619943  1
  Er  Er13  1  0.910098  0.708573  0.119948  1
  Er  Er14  1  0.908395  0.292007  0.619675  1
  Er  Er15  1  0.089442  0.708748  0.619684  1
  Er  Er16  1  0.999787  0.999516  0.499544  1
  Er  Er17  1  0.998912  0.997313  0.998560  1
  Er  Er18  1  0.499918  0.500612  0.999168  1
  Er  Er19  1  0.500482  0.500371  0.499841  1
  Rh  Rh20  1  0.842466  0.151998  0.252141  1
  Rh  Rh21  1  0.846059  0.846210  0.750279  1
  Rh  Rh22  1  0.155484  0.151264  0.742784  1
  Rh  Rh23  1  0.153989  0.846373  0.249798  1
  Rh  Rh24  1  0.653946  0.345991  0.750360  1
  Rh  Rh25  1  0.653892  0.653718  0.249952  1
  Rh  Rh26  1  0.350693  0.347148  0.252166  1
  Rh  Rh27  1  0.346336  0.653731  0.749874  1
  Rh  Rh28  1  0.500359  0.999691  0.123728  1
  Rh  Rh29  1  0.500016  0.999690  0.624133  1
  Rh  Rh30  1  0.998566  0.503827  0.872700  1
  Rh  Rh31  1  0.998502  0.503074  0.378227  1
