# generated using pymatgen
data_CuSe23
_symmetry_space_group_name_H-M   'P 1'
_cell_length_a   5.68511510
_cell_length_b   10.28509539
_cell_length_c   16.15558500
_cell_angle_alpha   89.10824159
_cell_angle_beta   87.08539489
_cell_angle_gamma   90.44174592
_symmetry_Int_Tables_number   1
_chemical_formula_structural   CuSe23
_chemical_formula_sum   'Cu1 Se23'
_cell_volume   943.27815527
_cell_formula_units_Z   1
loop_
 _symmetry_equiv_pos_site_id
 _symmetry_equiv_pos_as_xyz
  1  'x, y, z'
loop_
 _atom_site_type_symbol
 _atom_site_label
 _atom_site_symmetry_multiplicity
 _atom_site_fract_x
 _atom_site_fract_y
 _atom_site_fract_z
 _atom_site_occupancy
  Cu  Cu0  1  0.539260  0.263817  0.443728  1
  Se  Se1  1  0.489996  0.795810  0.387968  1
  Se  Se2  1  0.980744  0.319289  0.114434  1
  Se  Se3  1  0.946821  0.277869  0.467863  1
  Se  Se4  1  0.259070  0.793021  0.513538  1
  Se  Se5  1  0.210743  0.272806  0.992775  1
  Se  Se6  1  0.750120  0.718317  0.007188  1
  Se  Se7  1  0.242812  0.278890  0.348713  1
  Se  Se8  1  0.623767  0.582608  0.364200  1
  Se  Se9  1  0.768086  0.127626  0.154906  1
  Se  Se10  1  0.218534  0.858230  0.137061  1
  Se  Se11  1  0.739648  0.647373  0.639118  1
  Se  Se12  1  0.309664  0.373016  0.628800  1
  Se  Se13  1  0.216955  0.866738  0.860532  1
  Se  Se14  1  0.770326  0.135396  0.846737  1
  Se  Se15  1  0.980595  0.671684  0.121328  1
  Se  Se16  1  0.519070  0.837929  0.619587  1
  Se  Se17  1  0.558350  0.204737  0.584085  1
  Se  Se18  1  0.989182  0.676061  0.886966  1
  Se  Se19  1  0.990820  0.323485  0.876709  1
  Se  Se20  1  0.345537  0.483493  0.280529  1
  Se  Se21  1  0.013823  0.993462  0.232458  1
  Se  Se22  1  0.515562  0.498786  0.724837  1
  Se  Se23  1  0.020515  0.999555  0.765944  1
