# generated using pymatgen
data_HoPa3(InRh2)2
_symmetry_space_group_name_H-M   'P 1'
_cell_length_a   7.71056711
_cell_length_b   7.71056789
_cell_length_c   3.61408600
_cell_angle_alpha   90.00000000
_cell_angle_beta   90.00000000
_cell_angle_gamma   92.20225194
_symmetry_Int_Tables_number   1
_chemical_formula_structural   HoPa3(InRh2)2
_chemical_formula_sum   'Ho1 Pa3 In2 Rh4'
_cell_volume   214.70901724
_cell_formula_units_Z   1
loop_
 _symmetry_equiv_pos_site_id
 _symmetry_equiv_pos_as_xyz
  1  'x, y, z'
loop_
 _atom_site_type_symbol
 _atom_site_label
 _atom_site_symmetry_multiplicity
 _atom_site_fract_x
 _atom_site_fract_y
 _atom_site_fract_z
 _atom_site_occupancy
  Ho  Ho0  1  0.169873  0.330127  0.500000  1
  Pa  Pa1  1  0.668071  0.171228  0.500000  1
  Pa  Pa2  1  0.328772  0.831929  0.500000  1
  Pa  Pa3  1  0.831916  0.668084  0.500000  1
  In  In4  1  0.489852  0.498305  0.000000  1
  In  In5  1  0.001695  0.010148  0.000000  1
  Rh  Rh6  1  0.385761  0.114239  0.000000  1
  Rh  Rh7  1  0.644058  0.855942  0.000000  1
  Rh  Rh8  1  0.851045  0.371041  0.000000  1
  Rh  Rh9  1  0.128959  0.648955  0.000000  1
