# generated using pymatgen
data_ErCdGaPd3
_symmetry_space_group_name_H-M   'P 1'
_cell_length_a   5.51796354
_cell_length_b   5.51796411
_cell_length_c   5.18617237
_cell_angle_alpha   57.86012942
_cell_angle_beta   57.86011957
_cell_angle_gamma   60.00000774
_symmetry_Int_Tables_number   1
_chemical_formula_structural   ErCdGaPd3
_chemical_formula_sum   'Er1 Cd1 Ga1 Pd3'
_cell_volume   107.90905275
_cell_formula_units_Z   1
loop_
 _symmetry_equiv_pos_site_id
 _symmetry_equiv_pos_as_xyz
  1  'x, y, z'
loop_
 _atom_site_type_symbol
 _atom_site_label
 _atom_site_symmetry_multiplicity
 _atom_site_fract_x
 _atom_site_fract_y
 _atom_site_fract_z
 _atom_site_occupancy
  Er  Er0  1  0.247413  0.247413  0.257762  1
  Cd  Cd1  1  0.995577  0.995577  0.013267  1
  Ga  Ga2  1  0.627956  0.627956  0.116134  1
  Pd  Pd3  1  0.626303  0.126448  0.620946  1
  Pd  Pd4  1  0.126448  0.626303  0.620946  1
  Pd  Pd5  1  0.626303  0.626303  0.620946  1
