# generated using pymatgen
data_NdTh2AlGa2Ir3
_symmetry_space_group_name_H-M   'P 1'
_cell_length_a   7.27972452
_cell_length_b   7.36284542
_cell_length_c   4.05275900
_cell_angle_alpha   90.00000000
_cell_angle_beta   90.00000000
_cell_angle_gamma   120.10988502
_symmetry_Int_Tables_number   1
_chemical_formula_structural   NdTh2AlGa2Ir3
_chemical_formula_sum   'Nd1 Th2 Al1 Ga2 Ir3'
_cell_volume   187.91441192
_cell_formula_units_Z   1
loop_
 _symmetry_equiv_pos_site_id
 _symmetry_equiv_pos_as_xyz
  1  'x, y, z'
loop_
 _atom_site_type_symbol
 _atom_site_label
 _atom_site_symmetry_multiplicity
 _atom_site_fract_x
 _atom_site_fract_y
 _atom_site_fract_z
 _atom_site_occupancy
  Nd  Nd0  1  0.414749  0.998334  0.500000  1
  Th  Th1  1  0.998932  0.415858  0.500000  1
  Th  Th2  1  0.587145  0.586044  0.500000  1
  Al  Al3  1  0.230924  0.226472  0.000000  1
  Ga  Ga4  1  0.755190  0.001159  0.000000  1
  Ga  Ga5  1  0.009502  0.771884  0.000000  1
  Ir  Ir6  1  0.329273  0.638087  0.000000  1
  Ir  Ir7  1  0.678673  0.354560  0.000000  1
  Ir  Ir8  1  0.995612  0.007604  0.500000  1
