# generated using pymatgen
data_Y6Zn4Pd3Pt10
_symmetry_space_group_name_H-M   'P 1'
_cell_length_a   8.27595949
_cell_length_b   8.27596062
_cell_length_c   8.27596008
_cell_angle_alpha   109.44815355
_cell_angle_beta   109.44815035
_cell_angle_gamma   109.44815488
_symmetry_Int_Tables_number   1
_chemical_formula_structural   Y6Zn4Pd3Pt10
_chemical_formula_sum   'Y6 Zn4 Pd3 Pt10'
_cell_volume   436.72054951
_cell_formula_units_Z   1
loop_
 _symmetry_equiv_pos_site_id
 _symmetry_equiv_pos_as_xyz
  1  'x, y, z'
loop_
 _atom_site_type_symbol
 _atom_site_label
 _atom_site_symmetry_multiplicity
 _atom_site_fract_x
 _atom_site_fract_y
 _atom_site_fract_z
 _atom_site_occupancy
  Y  Y0  1  0.699491  0.699491  0.002096  1
  Y  Y1  1  0.300422  0.999307  0.300422  1
  Y  Y2  1  0.999307  0.300422  0.300422  1
  Y  Y3  1  0.300422  0.300422  0.999307  1
  Y  Y4  1  0.699491  0.002096  0.699491  1
  Y  Y5  1  0.002096  0.699491  0.699491  1
  Zn  Zn6  1  0.999120  0.999120  0.499460  1
  Zn  Zn7  1  0.999120  0.499460  0.999120  1
  Zn  Zn8  1  0.499460  0.999120  0.999120  1
  Zn  Zn9  1  0.500189  0.500189  0.500189  1
  Pd  Pd10  1  0.667294  0.667294  0.335221  1
  Pd  Pd11  1  0.667294  0.335221  0.667294  1
  Pd  Pd12  1  0.335221  0.667294  0.667294  1
  Pt  Pt13  1  0.332641  0.332641  0.663823  1
  Pt  Pt14  1  0.668222  0.000667  0.332829  1
  Pt  Pt15  1  0.000667  0.668222  0.332829  1
  Pt  Pt16  1  0.668222  0.332829  0.000667  1
  Pt  Pt17  1  0.332641  0.663823  0.332641  1
  Pt  Pt18  1  0.000667  0.332829  0.668222  1
  Pt  Pt19  1  0.332829  0.668222  0.000667  1
  Pt  Pt20  1  0.332829  0.000667  0.668222  1
  Pt  Pt21  1  0.663823  0.332641  0.332641  1
  Pt  Pt22  1  0.998530  0.998530  0.998530  1
