# generated using pymatgen
data_La6AsPBr6
_symmetry_space_group_name_H-M   'P 1'
_cell_length_a   10.57980767
_cell_length_b   10.57980612
_cell_length_c   10.55970109
_cell_angle_alpha   109.47408424
_cell_angle_beta   109.47492056
_cell_angle_gamma   109.54161534
_symmetry_Int_Tables_number   1
_chemical_formula_structural   La6AsPBr6
_chemical_formula_sum   'La12 As2 P2 Br12'
_cell_volume   909.01678293
_cell_formula_units_Z   2
loop_
 _symmetry_equiv_pos_site_id
 _symmetry_equiv_pos_as_xyz
  1  'x, y, z'
loop_
 _atom_site_type_symbol
 _atom_site_label
 _atom_site_symmetry_multiplicity
 _atom_site_fract_x
 _atom_site_fract_y
 _atom_site_fract_z
 _atom_site_occupancy
  La  La0  1  0.476014  0.492487  0.234032  1
  La  La1  1  0.758449  0.241990  0.265966  1
  La  La2  1  0.757739  0.016184  0.492060  1
  La  La3  1  0.234331  0.475883  0.492053  1
  La  La4  1  0.258021  0.741547  0.234049  1
  La  La5  1  0.024123  0.265678  0.007941  1
  La  La6  1  0.007519  0.023971  0.265954  1
  La  La7  1  0.483805  0.742251  0.007924  1
  La  La8  1  0.490646  0.240645  0.481291  1
  La  La9  1  0.013749  0.486248  0.750004  1
  La  La10  1  0.259358  0.009361  0.018726  1
  La  La11  1  0.236243  0.263749  0.749993  1
  As  As12  1  0.249744  0.250259  0.250003  1
  As  As13  1  0.500257  0.999745  0.250006  1
  P  P14  1  0.000801  0.250800  0.501601  1
  P  P15  1  0.249202  0.499201  0.998403  1
  Br  Br16  1  0.249676  0.754576  0.744618  1
  Br  Br17  1  0.509957  0.505054  0.755382  1
  Br  Br18  1  0.991609  0.745510  0.995756  1
  Br  Br19  1  0.745421  0.250324  0.755379  1
  Br  Br20  1  0.994942  0.990041  0.744617  1
  Br  Br21  1  0.249759  0.995860  0.504245  1
  Br  Br22  1  0.754488  0.508385  0.504246  1
  Br  Br23  1  0.504147  0.250246  0.995754  1
  Br  Br24  1  0.755360  0.744639  0.250000  1
  Br  Br25  1  0.745972  0.995972  0.991943  1
  Br  Br26  1  0.994640  0.505362  0.250000  1
  Br  Br27  1  0.504028  0.754028  0.508054  1
