# generated using pymatgen
data_La2GdTaO7
_symmetry_space_group_name_H-M   'P 1'
_cell_length_a   6.70249643
_cell_length_b   6.70249696
_cell_length_c   7.76776900
_cell_angle_alpha   90.00000000
_cell_angle_beta   90.00000000
_cell_angle_gamma   108.97407695
_symmetry_Int_Tables_number   1
_chemical_formula_structural   La2GdTaO7
_chemical_formula_sum   'La4 Gd2 Ta2 O14'
_cell_volume   329.99487328
_cell_formula_units_Z   2
loop_
 _symmetry_equiv_pos_site_id
 _symmetry_equiv_pos_as_xyz
  1  'x, y, z'
loop_
 _atom_site_type_symbol
 _atom_site_label
 _atom_site_symmetry_multiplicity
 _atom_site_fract_x
 _atom_site_fract_y
 _atom_site_fract_z
 _atom_site_occupancy
  La  La0  1  0.474009  0.474009  0.500000  1
  La  La1  1  0.474009  0.474009  0.000000  1
  La  La2  1  0.533890  0.994421  0.750000  1
  La  La3  1  0.994421  0.533890  0.250000  1
  Gd  Gd4  1  0.469264  0.996475  0.250000  1
  Gd  Gd5  1  0.996475  0.469264  0.750000  1
  Ta  Ta6  1  0.999110  0.999110  0.500000  1
  Ta  Ta7  1  0.999110  0.999110  0.000000  1
  O  O8  1  0.696802  0.946976  0.461040  1
  O  O9  1  0.946976  0.696802  0.538960  1
  O  O10  1  0.696802  0.946976  0.038960  1
  O  O11  1  0.946976  0.696802  0.961040  1
  O  O12  1  0.319648  0.074145  0.521536  1
  O  O13  1  0.074145  0.319648  0.478464  1
  O  O14  1  0.319648  0.074145  0.978464  1
  O  O15  1  0.074145  0.319648  0.021536  1
  O  O16  1  0.945722  0.057208  0.750000  1
  O  O17  1  0.057208  0.945722  0.250000  1
  O  O18  1  0.357920  0.621620  0.750000  1
  O  O19  1  0.621620  0.357920  0.250000  1
  O  O20  1  0.640383  0.361716  0.750000  1
  O  O21  1  0.361716  0.640383  0.250000  1
