# generated using pymatgen
data_Dy3Er3TcIr
_symmetry_space_group_name_H-M   'P 1'
_cell_length_a   6.32280876
_cell_length_b   7.30292500
_cell_length_c   9.12569014
_cell_angle_alpha   90.00000000
_cell_angle_beta   90.49449978
_cell_angle_gamma   90.00000000
_symmetry_Int_Tables_number   1
_chemical_formula_structural   Dy3Er3TcIr
_chemical_formula_sum   'Dy6 Er6 Tc2 Ir2'
_cell_volume   421.36303127
_cell_formula_units_Z   2
loop_
 _symmetry_equiv_pos_site_id
 _symmetry_equiv_pos_as_xyz
  1  'x, y, z'
loop_
 _atom_site_type_symbol
 _atom_site_label
 _atom_site_symmetry_multiplicity
 _atom_site_fract_x
 _atom_site_fract_y
 _atom_site_fract_z
 _atom_site_occupancy
  Dy  Dy0  1  0.327362  0.677483  0.065698  1
  Dy  Dy1  1  0.172638  0.177483  0.434302  1
  Dy  Dy2  1  0.873676  0.538400  0.250300  1
  Dy  Dy3  1  0.626324  0.038400  0.249700  1
  Dy  Dy4  1  0.133007  0.459469  0.750384  1
  Dy  Dy5  1  0.366993  0.959469  0.749616  1
  Er  Er6  1  0.670085  0.323262  0.561018  1
  Er  Er7  1  0.829915  0.823262  0.938982  1
  Er  Er8  1  0.667617  0.324016  0.938067  1
  Er  Er9  1  0.832383  0.824016  0.561933  1
  Er  Er10  1  0.330866  0.676214  0.435151  1
  Er  Er11  1  0.169134  0.176214  0.064849  1
  Tc  Tc12  1  0.035368  0.887343  0.251038  1
  Tc  Tc13  1  0.464632  0.387343  0.248962  1
  Ir  Ir14  1  0.954122  0.113813  0.752911  1
  Ir  Ir15  1  0.545878  0.613813  0.747089  1
