# generated using pymatgen
data_Tb6GdHo(WO6)4
_symmetry_space_group_name_H-M   'P 1'
_cell_length_a   5.42531627
_cell_length_b   7.74637843
_cell_length_c   11.52421938
_cell_angle_alpha   75.58914393
_cell_angle_beta   90.00119716
_cell_angle_gamma   89.96517606
_symmetry_Int_Tables_number   1
_chemical_formula_structural   Tb6GdHo(WO6)4
_chemical_formula_sum   'Tb6 Gd1 Ho1 W4 O24'
_cell_volume   469.08438762
_cell_formula_units_Z   1
loop_
 _symmetry_equiv_pos_site_id
 _symmetry_equiv_pos_as_xyz
  1  'x, y, z'
loop_
 _atom_site_type_symbol
 _atom_site_label
 _atom_site_symmetry_multiplicity
 _atom_site_fract_x
 _atom_site_fract_y
 _atom_site_fract_z
 _atom_site_occupancy
  Tb  Tb0  1  0.740214  0.000259  0.749531  1
  Tb  Tb1  1  0.261109  0.000342  0.250594  1
  Tb  Tb2  1  0.185201  0.795353  0.576851  1
  Tb  Tb3  1  0.814689  0.794572  0.077676  1
  Tb  Tb4  1  0.316675  0.499530  0.250472  1
  Tb  Tb5  1  0.185614  0.205068  0.922853  1
  Gd  Gd6  1  0.683906  0.499896  0.749879  1
  Ho  Ho7  1  0.815006  0.206010  0.421889  1
  W  W8  1  0.254777  0.724360  0.885381  1
  W  W9  1  0.745163  0.723217  0.384773  1
  W  W10  1  0.254783  0.275495  0.614042  1
  W  W11  1  0.745506  0.276441  0.115691  1
  O  O12  1  0.043327  0.938698  0.896247  1
  O  O13  1  0.530788  0.847719  0.930436  1
  O  O14  1  0.953983  0.940463  0.395070  1
  O  O15  1  0.456532  0.790624  0.728049  1
  O  O16  1  0.469588  0.846899  0.430570  1
  O  O17  1  0.982504  0.712480  0.771691  1
  O  O18  1  0.541871  0.788985  0.228232  1
  O  O19  1  0.850036  0.635240  0.546413  1
  O  O20  1  0.358225  0.491539  0.886114  1
  O  O21  1  0.018519  0.710033  0.272394  1
  O  O22  1  0.357670  0.508072  0.613406  1
  O  O23  1  0.849868  0.364815  0.953790  1
  O  O24  1  0.152589  0.636157  0.047902  1
  O  O25  1  0.640240  0.490339  0.385738  1
  O  O26  1  0.982946  0.287512  0.728206  1
  O  O27  1  0.638317  0.508478  0.114479  1
  O  O28  1  0.149958  0.362796  0.451841  1
  O  O29  1  0.456666  0.209069  0.771481  1
  O  O30  1  0.017757  0.290127  0.228905  1
  O  O31  1  0.532707  0.153609  0.568102  1
  O  O32  1  0.543796  0.210106  0.273115  1
  O  O33  1  0.042920  0.061736  0.603028  1
  O  O34  1  0.470167  0.152658  0.070066  1
  O  O35  1  0.956384  0.061302  0.105092  1
