# generated using pymatgen
data_Tm2Si2Pt3
_symmetry_space_group_name_H-M   'P 1'
_cell_length_a   4.15799200
_cell_length_b   6.62555700
_cell_length_c   8.90194300
_cell_angle_alpha   90.00000000
_cell_angle_beta   90.00000000
_cell_angle_gamma   90.00000000
_symmetry_Int_Tables_number   1
_chemical_formula_structural   Tm2Si2Pt3
_chemical_formula_sum   'Tm4 Si4 Pt6'
_cell_volume   245.23974345
_cell_formula_units_Z   2
loop_
 _symmetry_equiv_pos_site_id
 _symmetry_equiv_pos_as_xyz
  1  'x, y, z'
loop_
 _atom_site_type_symbol
 _atom_site_label
 _atom_site_symmetry_multiplicity
 _atom_site_fract_x
 _atom_site_fract_y
 _atom_site_fract_z
 _atom_site_occupancy
  Tm  Tm0  1  0.000000  0.888595  0.329435  1
  Tm  Tm1  1  0.000000  0.111405  0.670565  1
  Tm  Tm2  1  0.000000  0.388595  0.170565  1
  Tm  Tm3  1  0.000000  0.611405  0.829435  1
  Si  Si4  1  0.500000  0.574158  0.354931  1
  Si  Si5  1  0.500000  0.425842  0.645069  1
  Si  Si6  1  0.500000  0.074158  0.145069  1
  Si  Si7  1  0.500000  0.925842  0.854931  1
  Pt  Pt8  1  0.500000  0.693470  0.089161  1
  Pt  Pt9  1  0.500000  0.306530  0.910839  1
  Pt  Pt10  1  0.500000  0.193470  0.410839  1
  Pt  Pt11  1  0.500000  0.806530  0.589161  1
  Pt  Pt12  1  0.000000  0.500000  0.500000  1
  Pt  Pt13  1  0.000000  0.000000  0.000000  1
