# generated using pymatgen
data_Hf5Sc4Nb3Sn10
_symmetry_space_group_name_H-M   'P 1'
_cell_length_a   10.88475555
_cell_length_b   10.88489663
_cell_length_c   10.88527317
_cell_angle_alpha   149.32563026
_cell_angle_beta   131.85113694
_cell_angle_gamma   58.17363385
_symmetry_Int_Tables_number   1
_chemical_formula_structural   Hf5Sc4Nb3Sn10
_chemical_formula_sum   'Hf5 Sc4 Nb3 Sn10'
_cell_volume   486.40543944
_cell_formula_units_Z   1
loop_
 _symmetry_equiv_pos_site_id
 _symmetry_equiv_pos_as_xyz
  1  'x, y, z'
loop_
 _atom_site_type_symbol
 _atom_site_label
 _atom_site_symmetry_multiplicity
 _atom_site_fract_x
 _atom_site_fract_y
 _atom_site_fract_z
 _atom_site_occupancy
  Hf  Hf0  1  0.309380  0.059385  0.750001  1
  Hf  Hf1  1  0.673454  0.435106  0.238256  1
  Hf  Hf2  1  0.327397  0.564780  0.761617  1
  Hf  Hf3  1  0.196871  0.935180  0.261744  1
  Hf  Hf4  1  0.803153  0.065749  0.738342  1
  Sc  Sc5  1  0.256643  0.146096  0.111249  1
  Sc  Sc6  1  0.743734  0.853660  0.889207  1
  Sc  Sc7  1  0.034869  0.645393  0.388749  1
  Sc  Sc8  1  0.964427  0.354505  0.610759  1
  Nb  Nb9  1  0.310010  0.560031  0.250005  1
  Nb  Nb10  1  0.689336  0.439329  0.749996  1
  Nb  Nb11  1  0.690131  0.940143  0.250023  1
  Sn  Sn12  1  0.588930  0.290479  0.305213  1
  Sn  Sn13  1  0.415227  0.707600  0.697904  1
  Sn  Sn14  1  0.985256  0.783723  0.194754  1
  Sn  Sn15  1  0.009707  0.217329  0.802126  1
  Sn  Sn16  1  0.000036  0.250032  0.249981  1
  Sn  Sn17  1  0.000317  0.750349  0.750046  1
  Sn  Sn18  1  0.464992  0.068472  0.395089  1
  Sn  Sn19  1  0.536721  0.929533  0.603518  1
  Sn  Sn20  1  0.673387  0.569917  0.104926  1
  Sn  Sn21  1  0.326022  0.433209  0.896496  1
