# generated using pymatgen
data_Tb2ErU5(ReB6)4
_symmetry_space_group_name_H-M   'P 1'
_cell_length_a   3.64020700
_cell_length_b   9.30447267
_cell_length_c   11.41076726
_cell_angle_alpha   89.96588459
_cell_angle_beta   90.00000000
_cell_angle_gamma   90.00000000
_symmetry_Int_Tables_number   1
_chemical_formula_structural   Tb2ErU5(ReB6)4
_chemical_formula_sum   'Tb2 Er1 U5 Re4 B24'
_cell_volume   386.48497571
_cell_formula_units_Z   1
loop_
 _symmetry_equiv_pos_site_id
 _symmetry_equiv_pos_as_xyz
  1  'x, y, z'
loop_
 _atom_site_type_symbol
 _atom_site_label
 _atom_site_symmetry_multiplicity
 _atom_site_fract_x
 _atom_site_fract_y
 _atom_site_fract_z
 _atom_site_occupancy
  Tb  Tb0  1  0.000000  0.663358  0.591858  1
  Tb  Tb1  1  0.000000  0.835490  0.093031  1
  Er  Er2  1  0.000000  0.336762  0.407682  1
  U  U3  1  0.000000  0.163502  0.907185  1
  U  U4  1  0.000000  0.956568  0.396880  1
  U  U5  1  0.000000  0.043156  0.603282  1
  U  U6  1  0.000000  0.457457  0.103910  1
  U  U7  1  0.000000  0.543444  0.897012  1
  Re  Re8  1  0.000000  0.644948  0.319016  1
  Re  Re9  1  0.000000  0.352170  0.683566  1
  Re  Re10  1  0.000000  0.146506  0.178400  1
  Re  Re11  1  0.000000  0.857490  0.819451  1
  B  B12  1  0.500000  0.550937  0.431214  1
  B  B13  1  0.500000  0.447282  0.569426  1
  B  B14  1  0.500000  0.052841  0.067649  1
  B  B15  1  0.500000  0.950316  0.930372  1
  B  B16  1  0.500000  0.742952  0.423043  1
  B  B17  1  0.500000  0.257103  0.576558  1
  B  B18  1  0.500000  0.242932  0.075961  1
  B  B19  1  0.500000  0.756444  0.922577  1
  B  B20  1  0.500000  0.801958  0.275191  1
  B  B21  1  0.500000  0.196659  0.726345  1
  B  B22  1  0.500000  0.302388  0.225196  1
  B  B23  1  0.500000  0.698213  0.774875  1
  B  B24  1  0.500000  0.643349  0.188802  1
  B  B25  1  0.500000  0.354870  0.812167  1
  B  B26  1  0.500000  0.144553  0.311211  1
  B  B27  1  0.500000  0.855740  0.688374  1
  B  B28  1  0.500000  0.989507  0.219601  1
  B  B29  1  0.500000  0.013302  0.781039  1
  B  B30  1  0.500000  0.488025  0.281026  1
  B  B31  1  0.500000  0.511011  0.719650  1
  B  B32  1  0.500000  0.640073  0.038622  1
  B  B33  1  0.500000  0.357329  0.960524  1
  B  B34  1  0.500000  0.140819  0.460670  1
  B  B35  1  0.500000  0.860546  0.538636  1
