# generated using pymatgen
data_Lu3ScSb10
_symmetry_space_group_name_H-M   'P 1'
_cell_length_a   4.20129900
_cell_length_b   13.01805373
_cell_length_c   14.31549830
_cell_angle_alpha   78.80851472
_cell_angle_beta   90.00000000
_cell_angle_gamma   90.00000000
_symmetry_Int_Tables_number   1
_chemical_formula_structural   Lu3ScSb10
_chemical_formula_sum   'Lu6 Sc2 Sb20'
_cell_volume   768.06512951
_cell_formula_units_Z   2
loop_
 _symmetry_equiv_pos_site_id
 _symmetry_equiv_pos_as_xyz
  1  'x, y, z'
loop_
 _atom_site_type_symbol
 _atom_site_label
 _atom_site_symmetry_multiplicity
 _atom_site_fract_x
 _atom_site_fract_y
 _atom_site_fract_z
 _atom_site_occupancy
  Lu  Lu0  1  0.250000  0.660232  0.856454  1
  Lu  Lu1  1  0.750000  0.339768  0.143546  1
  Lu  Lu2  1  0.250000  0.668675  0.575768  1
  Lu  Lu3  1  0.750000  0.331325  0.424232  1
  Lu  Lu4  1  0.250000  0.952880  0.358235  1
  Lu  Lu5  1  0.750000  0.047120  0.641765  1
  Sc  Sc6  1  0.250000  0.395434  0.769988  1
  Sc  Sc7  1  0.750000  0.604566  0.230012  1
  Sb  Sb8  1  0.250000  0.146381  0.777860  1
  Sb  Sb9  1  0.750000  0.853619  0.222140  1
  Sb  Sb10  1  0.250000  0.143796  0.484500  1
  Sb  Sb11  1  0.750000  0.856204  0.515500  1
  Sb  Sb12  1  0.250000  0.154893  0.168319  1
  Sb  Sb13  1  0.750000  0.845107  0.831681  1
  Sb  Sb14  1  0.250000  0.421801  0.972353  1
  Sb  Sb15  1  0.750000  0.578199  0.027647  1
  Sb  Sb16  1  0.750000  0.030482  0.913212  1
  Sb  Sb17  1  0.250000  0.969518  0.086788  1
  Sb  Sb18  1  0.750000  0.139017  0.322102  1
  Sb  Sb19  1  0.250000  0.860983  0.677898  1
  Sb  Sb20  1  0.750000  0.280085  0.932444  1
  Sb  Sb21  1  0.250000  0.719915  0.067556  1
  Sb  Sb22  1  0.750000  0.287447  0.655943  1
  Sb  Sb23  1  0.250000  0.712553  0.344057  1
  Sb  Sb24  1  0.750000  0.572140  0.735392  1
  Sb  Sb25  1  0.250000  0.427860  0.264608  1
  Sb  Sb26  1  0.750000  0.570171  0.444870  1
  Sb  Sb27  1  0.250000  0.429829  0.555130  1
