# generated using pymatgen
data_Cs6Gd3LuBr18
_symmetry_space_group_name_H-M   'P 1'
_cell_length_a   10.52897438
_cell_length_b   10.52895313
_cell_length_c   10.52909400
_cell_angle_alpha   83.01642342
_cell_angle_beta   83.01631697
_cell_angle_gamma   83.01670523
_symmetry_Int_Tables_number   1
_chemical_formula_structural   Cs6Gd3LuBr18
_chemical_formula_sum   'Cs6 Gd3 Lu1 Br18'
_cell_volume   1143.21375019
_cell_formula_units_Z   1
loop_
 _symmetry_equiv_pos_site_id
 _symmetry_equiv_pos_as_xyz
  1  'x, y, z'
loop_
 _atom_site_type_symbol
 _atom_site_label
 _atom_site_symmetry_multiplicity
 _atom_site_fract_x
 _atom_site_fract_y
 _atom_site_fract_z
 _atom_site_occupancy
  Cs  Cs0  1  0.588723  0.911400  0.251516  1
  Cs  Cs1  1  0.251579  0.588436  0.911334  1
  Cs  Cs2  1  0.911133  0.251580  0.588631  1
  Cs  Cs3  1  0.749746  0.412073  0.087584  1
  Cs  Cs4  1  0.087370  0.749989  0.412124  1
  Cs  Cs5  1  0.412472  0.087650  0.749787  1
  Gd  Gd6  1  0.847529  0.846215  0.846719  1
  Gd  Gd7  1  0.346909  0.348109  0.347418  1
  Gd  Gd8  1  0.151985  0.151957  0.152243  1
  Lu  Lu9  1  0.654578  0.654579  0.654538  1
  Br  Br10  1  0.092843  0.405852  0.249628  1
  Br  Br11  1  0.249608  0.093741  0.405731  1
  Br  Br12  1  0.405486  0.249949  0.093473  1
  Br  Br13  1  0.748452  0.901273  0.594067  1
  Br  Br14  1  0.594410  0.747907  0.901311  1
  Br  Br15  1  0.901656  0.593552  0.747943  1
  Br  Br16  1  0.232719  0.416242  0.581791  1
  Br  Br17  1  0.581062  0.233615  0.415836  1
  Br  Br18  1  0.415748  0.582193  0.233010  1
  Br  Br19  1  0.082129  0.915300  0.732834  1
  Br  Br20  1  0.733397  0.081118  0.915292  1
  Br  Br21  1  0.915581  0.732769  0.081761  1
  Br  Br22  1  0.762873  0.586914  0.427068  1
  Br  Br23  1  0.427049  0.762712  0.586867  1
  Br  Br24  1  0.587163  0.426855  0.762701  1
  Br  Br25  1  0.917437  0.083646  0.267109  1
  Br  Br26  1  0.266844  0.917520  0.083739  1
  Br  Br27  1  0.083518  0.266853  0.917944  1
