# generated using pymatgen
data_LiCa2ZnSi2Ge
_symmetry_space_group_name_H-M   'P 1'
_cell_length_a   9.49809024
_cell_length_b   9.49808929
_cell_length_c   6.88054400
_cell_angle_alpha   90.00000000
_cell_angle_beta   90.00000000
_cell_angle_gamma   153.36923983
_symmetry_Int_Tables_number   1
_chemical_formula_structural   LiCa2ZnSi2Ge
_chemical_formula_sum   'Li2 Ca4 Zn2 Si4 Ge2'
_cell_volume   278.23068105
_cell_formula_units_Z   2
loop_
 _symmetry_equiv_pos_site_id
 _symmetry_equiv_pos_as_xyz
  1  'x, y, z'
loop_
 _atom_site_type_symbol
 _atom_site_label
 _atom_site_symmetry_multiplicity
 _atom_site_fract_x
 _atom_site_fract_y
 _atom_site_fract_z
 _atom_site_occupancy
  Li  Li0  1  0.813050  0.186950  0.940381  1
  Li  Li1  1  0.186950  0.813050  0.440381  1
  Ca  Ca2  1  0.446274  0.553726  0.755403  1
  Ca  Ca3  1  0.553726  0.446274  0.255403  1
  Ca  Ca4  1  0.655430  0.344570  0.742172  1
  Ca  Ca5  1  0.344570  0.655430  0.242172  1
  Zn  Zn6  1  0.190584  0.809416  0.050722  1
  Zn  Zn7  1  0.809416  0.190584  0.550722  1
  Si  Si8  1  0.940953  0.059047  0.428407  1
  Si  Si9  1  0.054916  0.945084  0.583267  1
  Si  Si10  1  0.945084  0.054916  0.083267  1
  Si  Si11  1  0.059047  0.940953  0.928407  1
  Ge  Ge12  1  0.277863  0.722137  0.749652  1
  Ge  Ge13  1  0.722137  0.277863  0.249652  1
