# generated using pymatgen
data_La3(BrN)2
_symmetry_space_group_name_H-M   'P 1'
_cell_length_a   13.97776700
_cell_length_b   4.14277100
_cell_length_c   12.56628700
_cell_angle_alpha   90.00000000
_cell_angle_beta   90.00000000
_cell_angle_gamma   90.00000000
_symmetry_Int_Tables_number   1
_chemical_formula_structural   La3(BrN)2
_chemical_formula_sum   'La12 Br8 N8'
_cell_volume   727.67205777
_cell_formula_units_Z   4
loop_
 _symmetry_equiv_pos_site_id
 _symmetry_equiv_pos_as_xyz
  1  'x, y, z'
loop_
 _atom_site_type_symbol
 _atom_site_label
 _atom_site_symmetry_multiplicity
 _atom_site_fract_x
 _atom_site_fract_y
 _atom_site_fract_z
 _atom_site_occupancy
  La  La0  1  0.586214  0.749998  0.095080  1
  La  La1  1  0.970241  0.750005  0.115436  1
  La  La2  1  0.181186  0.250007  0.164549  1
  La  La3  1  0.681914  0.249997  0.336154  1
  La  La4  1  0.470562  0.750001  0.384362  1
  La  La5  1  0.085892  0.750007  0.405202  1
  La  La6  1  0.914066  0.250010  0.594690  1
  La  La7  1  0.529449  0.249992  0.615619  1
  La  La8  1  0.318113  0.749996  0.663920  1
  La  La9  1  0.818812  0.750008  0.835384  1
  La  La10  1  0.029735  0.250004  0.884542  1
  La  La11  1  0.413800  0.250021  0.905004  1
  Br  Br12  1  0.417755  0.249998  0.169333  1
  Br  Br13  1  0.917379  0.249965  0.330300  1
  Br  Br14  1  0.082613  0.749992  0.669648  1
  Br  Br15  1  0.582249  0.749995  0.830739  1
  Br  Br16  1  0.758457  0.249982  0.054074  1
  Br  Br17  1  0.257866  0.250000  0.445405  1
  Br  Br18  1  0.742110  0.749997  0.554598  1
  Br  Br19  1  0.241642  0.749973  0.945974  1
  N  N20  1  0.045884  0.250002  0.071499  1
  N  N21  1  0.122580  0.750007  0.235826  1
  N  N22  1  0.623228  0.749998  0.264484  1
  N  N23  1  0.546217  0.249995  0.428706  1
  N  N24  1  0.453777  0.749998  0.571296  1
  N  N25  1  0.376766  0.249997  0.735604  1
  N  N26  1  0.877392  0.250007  0.764124  1
  N  N27  1  0.954105  0.750006  0.928450  1
