# generated using pymatgen
data_Ba4Zn(RuO6)2
_symmetry_space_group_name_H-M   'P 1'
_cell_length_a   9.90879580
_cell_length_b   9.90879585
_cell_length_c   9.90879588
_cell_angle_alpha   33.89282625
_cell_angle_beta   33.89282446
_cell_angle_gamma   33.89282629
_symmetry_Int_Tables_number   1
_chemical_formula_structural   Ba4Zn(RuO6)2
_chemical_formula_sum   'Ba4 Zn1 Ru2 O12'
_cell_volume   269.62239057
_cell_formula_units_Z   1
loop_
 _symmetry_equiv_pos_site_id
 _symmetry_equiv_pos_as_xyz
  1  'x, y, z'
loop_
 _atom_site_type_symbol
 _atom_site_label
 _atom_site_symmetry_multiplicity
 _atom_site_fract_x
 _atom_site_fract_y
 _atom_site_fract_z
 _atom_site_occupancy
  Ba  Ba0  1  0.707989  0.707989  0.707989  1
  Ba  Ba1  1  0.292011  0.292011  0.292011  1
  Ba  Ba2  1  0.871063  0.871063  0.871063  1
  Ba  Ba3  1  0.128937  0.128937  0.128937  1
  Zn  Zn4  1  0.000000  0.000000  0.000000  1
  Ru  Ru5  1  0.580301  0.580301  0.580301  1
  Ru  Ru6  1  0.419699  0.419699  0.419699  1
  O  O7  1  0.218159  0.695282  0.218159  1
  O  O8  1  0.218159  0.218159  0.695282  1
  O  O9  1  0.695282  0.218159  0.218159  1
  O  O10  1  0.781841  0.304718  0.781841  1
  O  O11  1  0.781841  0.781841  0.304718  1
  O  O12  1  0.304718  0.781841  0.781841  1
  O  O13  1  0.387472  0.858386  0.387472  1
  O  O14  1  0.387472  0.387472  0.858386  1
  O  O15  1  0.858386  0.387472  0.387472  1
  O  O16  1  0.612528  0.141614  0.612528  1
  O  O17  1  0.612528  0.612528  0.141614  1
  O  O18  1  0.141614  0.612528  0.612528  1
