# generated using pymatgen
data_LiLa4Pr12Cd3Pt4
_symmetry_space_group_name_H-M   'P 1'
_cell_length_a   10.12173790
_cell_length_b   10.12173764
_cell_length_c   10.12173737
_cell_angle_alpha   60.07504384
_cell_angle_beta   60.07503647
_cell_angle_gamma   60.07504238
_symmetry_Int_Tables_number   1
_chemical_formula_structural   LiLa4Pr12Cd3Pt4
_chemical_formula_sum   'Li1 La4 Pr12 Cd3 Pt4'
_cell_volume   734.49381951
_cell_formula_units_Z   1
loop_
 _symmetry_equiv_pos_site_id
 _symmetry_equiv_pos_as_xyz
  1  'x, y, z'
loop_
 _atom_site_type_symbol
 _atom_site_label
 _atom_site_symmetry_multiplicity
 _atom_site_fract_x
 _atom_site_fract_y
 _atom_site_fract_z
 _atom_site_occupancy
  Li  Li0  1  0.571646  0.571646  0.571646  1
  La  La1  1  0.349823  0.349823  0.349823  1
  La  La2  1  0.350520  0.350520  0.949592  1
  La  La3  1  0.350520  0.949592  0.350520  1
  La  La4  1  0.949592  0.350520  0.350520  1
  Pr  Pr5  1  0.809990  0.191923  0.191923  1
  Pr  Pr6  1  0.187579  0.811769  0.811769  1
  Pr  Pr7  1  0.191923  0.809990  0.191923  1
  Pr  Pr8  1  0.811769  0.187579  0.811769  1
  Pr  Pr9  1  0.191923  0.191923  0.809990  1
  Pr  Pr10  1  0.811769  0.811769  0.187579  1
  Pr  Pr11  1  0.937653  0.564377  0.564377  1
  Pr  Pr12  1  0.561833  0.936152  0.936152  1
  Pr  Pr13  1  0.564377  0.937653  0.564377  1
  Pr  Pr14  1  0.936152  0.561833  0.936152  1
  Pr  Pr15  1  0.564377  0.564377  0.937653  1
  Pr  Pr16  1  0.936152  0.936152  0.561833  1
  Cd  Cd17  1  0.582116  0.582116  0.256382  1
  Cd  Cd18  1  0.582116  0.256382  0.582116  1
  Cd  Cd19  1  0.256382  0.582116  0.582116  1
  Pt  Pt20  1  0.144321  0.144321  0.144321  1
  Pt  Pt21  1  0.143265  0.143265  0.570938  1
  Pt  Pt22  1  0.143265  0.570938  0.143265  1
  Pt  Pt23  1  0.570938  0.143265  0.143265  1
