# generated using pymatgen
data_Ho5(NiTe)2
_symmetry_space_group_name_H-M   'P 1'
_cell_length_a   4.02643900
_cell_length_b   14.41107000
_cell_length_c   15.65949100
_cell_angle_alpha   90.00000000
_cell_angle_beta   90.00000000
_cell_angle_gamma   90.00000000
_symmetry_Int_Tables_number   1
_chemical_formula_structural   Ho5(NiTe)2
_chemical_formula_sum   'Ho20 Ni8 Te8'
_cell_volume   908.64657355
_cell_formula_units_Z   4
loop_
 _symmetry_equiv_pos_site_id
 _symmetry_equiv_pos_as_xyz
  1  'x, y, z'
loop_
 _atom_site_type_symbol
 _atom_site_label
 _atom_site_symmetry_multiplicity
 _atom_site_fract_x
 _atom_site_fract_y
 _atom_site_fract_z
 _atom_site_occupancy
  Ho  Ho0  1  0.250000  0.152381  0.260667  1
  Ho  Ho1  1  0.250000  0.652381  0.239333  1
  Ho  Ho2  1  0.750000  0.847619  0.739333  1
  Ho  Ho3  1  0.750000  0.347619  0.760667  1
  Ho  Ho4  1  0.250000  0.887821  0.190519  1
  Ho  Ho5  1  0.250000  0.387821  0.309481  1
  Ho  Ho6  1  0.750000  0.112179  0.809481  1
  Ho  Ho7  1  0.750000  0.612179  0.690519  1
  Ho  Ho8  1  0.250000  0.880896  0.554245  1
  Ho  Ho9  1  0.250000  0.380896  0.945755  1
  Ho  Ho10  1  0.750000  0.119104  0.445755  1
  Ho  Ho11  1  0.750000  0.619104  0.054245  1
  Ho  Ho12  1  0.250000  0.207966  0.623139  1
  Ho  Ho13  1  0.250000  0.707966  0.876861  1
  Ho  Ho14  1  0.750000  0.792034  0.376861  1
  Ho  Ho15  1  0.750000  0.292034  0.123139  1
  Ho  Ho16  1  0.250000  0.138047  0.994007  1
  Ho  Ho17  1  0.250000  0.638047  0.505993  1
  Ho  Ho18  1  0.750000  0.861953  0.005993  1
  Ho  Ho19  1  0.750000  0.361953  0.494007  1
  Ni  Ni20  1  0.250000  0.737066  0.676106  1
  Ni  Ni21  1  0.250000  0.237066  0.823894  1
  Ni  Ni22  1  0.750000  0.262934  0.323894  1
  Ni  Ni23  1  0.750000  0.762934  0.176106  1
  Ni  Ni24  1  0.250000  0.247505  0.432655  1
  Ni  Ni25  1  0.250000  0.747505  0.067345  1
  Ni  Ni26  1  0.750000  0.752495  0.567345  1
  Ni  Ni27  1  0.750000  0.252495  0.932655  1
  Te  Te28  1  0.250000  0.966472  0.372991  1
  Te  Te29  1  0.250000  0.466472  0.127009  1
  Te  Te30  1  0.750000  0.033528  0.627009  1
  Te  Te31  1  0.750000  0.533528  0.872991  1
  Te  Te32  1  0.250000  0.949140  0.871642  1
  Te  Te33  1  0.250000  0.449140  0.628358  1
  Te  Te34  1  0.750000  0.050860  0.128358  1
  Te  Te35  1  0.750000  0.550860  0.371642  1
