# generated using pymatgen
data_Tm10Os3Ru
_symmetry_space_group_name_H-M   'P 1'
_cell_length_a   6.25804572
_cell_length_b   7.29601937
_cell_length_c   8.29594041
_cell_angle_alpha   96.99987334
_cell_angle_beta   112.21893426
_cell_angle_gamma   90.08052162
_symmetry_Int_Tables_number   1
_chemical_formula_structural   Tm10Os3Ru
_chemical_formula_sum   'Tm10 Os3 Ru1'
_cell_volume   347.57780612
_cell_formula_units_Z   1
loop_
 _symmetry_equiv_pos_site_id
 _symmetry_equiv_pos_as_xyz
  1  'x, y, z'
loop_
 _atom_site_type_symbol
 _atom_site_label
 _atom_site_symmetry_multiplicity
 _atom_site_fract_x
 _atom_site_fract_y
 _atom_site_fract_z
 _atom_site_occupancy
  Tm  Tm0  1  0.793383  0.084058  0.816567  1
  Tm  Tm1  1  0.975248  0.416136  0.183338  1
  Tm  Tm2  1  0.208272  0.916191  0.185387  1
  Tm  Tm3  1  0.024692  0.584848  0.816770  1
  Tm  Tm4  1  0.203716  0.183338  0.564487  1
  Tm  Tm5  1  0.640485  0.316848  0.436050  1
  Tm  Tm6  1  0.794448  0.815892  0.434495  1
  Tm  Tm7  1  0.360255  0.682585  0.563418  1
  Tm  Tm8  1  0.420544  0.249930  0.000078  1
  Tm  Tm9  1  0.580552  0.749954  0.000727  1
  Os  Os10  1  0.602156  0.422492  0.780160  1
  Os  Os11  1  0.822020  0.077234  0.219952  1
  Os  Os12  1  0.397673  0.577681  0.219290  1
  Ru  Ru13  1  0.176556  0.922814  0.779283  1
