# generated using pymatgen
data_Cs4CeSm3(GeSe4)4
_symmetry_space_group_name_H-M   'P 1'
_cell_length_a   6.87022033
_cell_length_b   7.20882872
_cell_length_c   18.80367652
_cell_angle_alpha   89.90576439
_cell_angle_beta   90.01142066
_cell_angle_gamma   90.03349533
_symmetry_Int_Tables_number   1
_chemical_formula_structural   Cs4CeSm3(GeSe4)4
_chemical_formula_sum   'Cs4 Ce1 Sm3 Ge4 Se16'
_cell_volume   931.27398930
_cell_formula_units_Z   1
loop_
 _symmetry_equiv_pos_site_id
 _symmetry_equiv_pos_as_xyz
  1  'x, y, z'
loop_
 _atom_site_type_symbol
 _atom_site_label
 _atom_site_symmetry_multiplicity
 _atom_site_fract_x
 _atom_site_fract_y
 _atom_site_fract_z
 _atom_site_occupancy
  Cs  Cs0  1  0.995623  0.006991  0.031753  1
  Cs  Cs1  1  0.504537  0.993164  0.531441  1
  Cs  Cs2  1  0.495948  0.493093  0.968679  1
  Cs  Cs3  1  0.003639  0.506796  0.468186  1
  Ce  Ce4  1  0.207918  0.517317  0.726687  1
  Sm  Sm5  1  0.292702  0.483351  0.227307  1
  Sm  Sm6  1  0.707167  0.983515  0.272769  1
  Sm  Sm7  1  0.793802  0.016866  0.773085  1
  Ge  Ge8  1  0.288504  0.980888  0.834169  1
  Ge  Ge9  1  0.210875  0.018928  0.333520  1
  Ge  Ge10  1  0.789115  0.518780  0.166561  1
  Ge  Ge11  1  0.711470  0.479940  0.666130  1
  Se  Se12  1  0.402097  0.913578  0.717229  1
  Se  Se13  1  0.098665  0.090640  0.216981  1
  Se  Se14  1  0.901226  0.590775  0.283014  1
  Se  Se15  1  0.604344  0.408698  0.783540  1
  Se  Se16  1  0.093587  0.253326  0.848143  1
  Se  Se17  1  0.404464  0.744647  0.346323  1
  Se  Se18  1  0.595295  0.244642  0.153708  1
  Se  Se19  1  0.900441  0.756987  0.652789  1
  Se  Se20  1  0.051773  0.742964  0.855432  1
  Se  Se21  1  0.446029  0.258302  0.354192  1
  Se  Se22  1  0.553944  0.758212  0.145807  1
  Se  Se23  1  0.942217  0.238019  0.644440  1
  Se  Se24  1  0.440492  0.485023  0.589234  1
  Se  Se25  1  0.064074  0.514707  0.091159  1
  Se  Se26  1  0.935860  0.014626  0.408879  1
  Se  Se27  1  0.564193  0.985223  0.908840  1
