# generated using pymatgen
data_Pr20Al3Si8P
_symmetry_space_group_name_H-M   'P 1'
_cell_length_a   7.82304200
_cell_length_b   7.82304200
_cell_length_c   14.51588700
_cell_angle_alpha   90.00000000
_cell_angle_beta   90.00000000
_cell_angle_gamma   90.00000000
_symmetry_Int_Tables_number   1
_chemical_formula_structural   Pr20Al3Si8P
_chemical_formula_sum   'Pr20 Al3 Si8 P1'
_cell_volume   888.37208312
_cell_formula_units_Z   1
loop_
 _symmetry_equiv_pos_site_id
 _symmetry_equiv_pos_as_xyz
  1  'x, y, z'
loop_
 _atom_site_type_symbol
 _atom_site_label
 _atom_site_symmetry_multiplicity
 _atom_site_fract_x
 _atom_site_fract_y
 _atom_site_fract_z
 _atom_site_occupancy
  Pr  Pr0  1  0.835725  0.810883  0.605117  1
  Pr  Pr1  1  0.185012  0.829252  0.111299  1
  Pr  Pr2  1  0.164091  0.810679  0.394580  1
  Pr  Pr3  1  0.000000  0.500000  0.772505  1
  Pr  Pr4  1  0.835909  0.189321  0.394580  1
  Pr  Pr5  1  0.689321  0.664091  0.394580  1
  Pr  Pr6  1  0.689117  0.335725  0.605117  1
  Pr  Pr7  1  0.310883  0.664275  0.605117  1
  Pr  Pr8  1  0.000000  0.500000  0.226772  1
  Pr  Pr9  1  0.670748  0.685012  0.111299  1
  Pr  Pr10  1  0.672082  0.316387  0.888919  1
  Pr  Pr11  1  0.816387  0.827918  0.888919  1
  Pr  Pr12  1  0.310679  0.335909  0.394580  1
  Pr  Pr13  1  0.164275  0.189117  0.605117  1
  Pr  Pr14  1  0.814988  0.170748  0.111299  1
  Pr  Pr15  1  0.327918  0.683613  0.888919  1
  Pr  Pr16  1  0.329252  0.314988  0.111299  1
  Pr  Pr17  1  0.500000  0.000000  0.274786  1
  Pr  Pr18  1  0.183613  0.172082  0.888919  1
  Pr  Pr19  1  0.500000  0.000000  0.727565  1
  Al  Al20  1  0.500000  0.000000  0.500491  1
  Al  Al21  1  0.500000  0.000000  0.998717  1
  Al  Al22  1  0.000000  0.500000  0.000218  1
  Si  Si23  1  0.612669  0.385912  0.253421  1
  Si  Si24  1  0.114211  0.887703  0.746399  1
  Si  Si25  1  0.387703  0.385789  0.746399  1
  Si  Si26  1  0.387331  0.614088  0.253421  1
  Si  Si27  1  0.885912  0.887331  0.253421  1
  Si  Si28  1  0.612297  0.614211  0.746399  1
  Si  Si29  1  0.885789  0.112297  0.746399  1
  Si  Si30  1  0.114088  0.112669  0.253421  1
  P  P31  1  0.000000  0.500000  0.500010  1
