# generated using pymatgen
data_RbMn2O4
_symmetry_space_group_name_H-M   'P 1'
_cell_length_a   6.11277862
_cell_length_b   5.10136546
_cell_length_c   13.35301186
_cell_angle_alpha   90.03960736
_cell_angle_beta   89.90011637
_cell_angle_gamma   87.84009067
_symmetry_Int_Tables_number   1
_chemical_formula_structural   RbMn2O4
_chemical_formula_sum   'Rb4 Mn8 O16'
_cell_volume   416.09729579
_cell_formula_units_Z   4
loop_
 _symmetry_equiv_pos_site_id
 _symmetry_equiv_pos_as_xyz
  1  'x, y, z'
loop_
 _atom_site_type_symbol
 _atom_site_label
 _atom_site_symmetry_multiplicity
 _atom_site_fract_x
 _atom_site_fract_y
 _atom_site_fract_z
 _atom_site_occupancy
  Rb  Rb0  1  0.998007  0.053125  0.251522  1
  Rb  Rb1  1  0.000504  0.367238  0.748985  1
  Rb  Rb2  1  0.498018  0.632586  0.248974  1
  Rb  Rb3  1  0.500979  0.946764  0.751490  1
  Mn  Mn4  1  0.002046  0.998221  0.994988  1
  Mn  Mn5  1  0.004896  0.001446  0.505478  1
  Mn  Mn6  1  0.245926  0.498544  0.002071  1
  Mn  Mn7  1  0.254264  0.501484  0.502196  1
  Mn  Mn8  1  0.495259  0.998469  0.005566  1
  Mn  Mn9  1  0.498238  0.001778  0.494906  1
  Mn  Mn10  1  0.748145  0.501808  0.498065  1
  Mn  Mn11  1  0.752120  0.498263  0.998371  1
  O  O12  1  0.009456  0.340295  0.432214  1
  O  O13  1  0.000992  0.332136  0.070601  1
  O  O14  1  0.026882  0.681616  0.581003  1
  O  O15  1  0.029825  0.684382  0.918261  1
  O  O16  1  0.253513  0.833941  0.425968  1
  O  O17  1  0.220030  0.814702  0.080160  1
  O  O18  1  0.279536  0.185480  0.580262  1
  O  O19  1  0.247216  0.166209  0.925849  1
  O  O20  1  0.471513  0.315680  0.418304  1
  O  O21  1  0.471858  0.318230  0.081074  1
  O  O22  1  0.498525  0.668062  0.570555  1
  O  O23  1  0.492004  0.659681  0.932356  1
  O  O24  1  0.729635  0.824278  0.418779  1
  O  O25  1  0.761958  0.839418  0.071560  1
  O  O26  1  0.737757  0.160575  0.571308  1
  O  O27  1  0.770995  0.175384  0.919135  1
