# generated using pymatgen
data_LiCu2O3
_symmetry_space_group_name_H-M   'P 1'
_cell_length_a   3.45374500
_cell_length_b   3.75493400
_cell_length_c   9.56513200
_cell_angle_alpha   90.00000000
_cell_angle_beta   90.00000000
_cell_angle_gamma   90.00000000
_symmetry_Int_Tables_number   1
_chemical_formula_structural   LiCu2O3
_chemical_formula_sum   'Li2 Cu4 O6'
_cell_volume   124.04622286
_cell_formula_units_Z   2
loop_
 _symmetry_equiv_pos_site_id
 _symmetry_equiv_pos_as_xyz
  1  'x, y, z'
loop_
 _atom_site_type_symbol
 _atom_site_label
 _atom_site_symmetry_multiplicity
 _atom_site_fract_x
 _atom_site_fract_y
 _atom_site_fract_z
 _atom_site_occupancy
  Li  Li0  1  0.309197  0.000000  0.000000  1
  Li  Li1  1  0.690803  0.500000  0.500000  1
  Cu  Cu2  1  0.191508  0.000000  0.340985  1
  Cu  Cu3  1  0.191508  0.000000  0.659015  1
  Cu  Cu4  1  0.808492  0.500000  0.840985  1
  Cu  Cu5  1  0.808492  0.500000  0.159015  1
  O  O6  1  0.499262  0.000000  0.500000  1
  O  O7  1  0.910195  0.000000  0.830959  1
  O  O8  1  0.910195  0.000000  0.169041  1
  O  O9  1  0.500738  0.500000  0.000000  1
  O  O10  1  0.089805  0.500000  0.330959  1
  O  O11  1  0.089805  0.500000  0.669041  1
