# generated using pymatgen
data_YbTh8Se17
_symmetry_space_group_name_H-M   'P 1'
_cell_length_a   8.54450184
_cell_length_b   8.54450095
_cell_length_c   11.51083472
_cell_angle_alpha   79.76386683
_cell_angle_beta   79.76387006
_cell_angle_gamma   64.19006386
_symmetry_Int_Tables_number   1
_chemical_formula_structural   YbTh8Se17
_chemical_formula_sum   'Yb1 Th8 Se17'
_cell_volume   739.72260394
_cell_formula_units_Z   1
loop_
 _symmetry_equiv_pos_site_id
 _symmetry_equiv_pos_as_xyz
  1  'x, y, z'
loop_
 _atom_site_type_symbol
 _atom_site_label
 _atom_site_symmetry_multiplicity
 _atom_site_fract_x
 _atom_site_fract_y
 _atom_site_fract_z
 _atom_site_occupancy
  Yb  Yb0  1  0.000000  0.000000  0.000000  1
  Th  Th1  1  0.186101  0.696993  0.700653  1
  Th  Th2  1  0.696993  0.186101  0.700653  1
  Th  Th3  1  0.813899  0.303007  0.299347  1
  Th  Th4  1  0.303007  0.813899  0.299347  1
  Th  Th5  1  0.795479  0.795479  0.460050  1
  Th  Th6  1  0.204521  0.204521  0.539950  1
  Th  Th7  1  0.316206  0.316206  0.020036  1
  Th  Th8  1  0.683794  0.683794  0.979964  1
  Se  Se9  1  0.177558  0.568909  0.470263  1
  Se  Se10  1  0.568909  0.177558  0.470263  1
  Se  Se11  1  0.822442  0.431091  0.529737  1
  Se  Se12  1  0.431091  0.822442  0.529737  1
  Se  Se13  1  0.057382  0.664607  0.955719  1
  Se  Se14  1  0.664607  0.057382  0.955719  1
  Se  Se15  1  0.942618  0.335393  0.044281  1
  Se  Se16  1  0.335393  0.942618  0.044281  1
  Se  Se17  1  0.791007  0.791007  0.720415  1
  Se  Se18  1  0.208993  0.208993  0.279585  1
  Se  Se19  1  0.938233  0.938233  0.240747  1
  Se  Se20  1  0.061767  0.061767  0.759253  1
  Se  Se21  1  0.696529  0.696529  0.248599  1
  Se  Se22  1  0.303471  0.303471  0.751401  1
  Se  Se23  1  0.480612  0.480612  0.168097  1
  Se  Se24  1  0.519388  0.519388  0.831903  1
  Se  Se25  1  0.000000  0.000000  0.500000  1
