# generated using pymatgen
data_Cs2Zr(TeO4)3
_symmetry_space_group_name_H-M   'P 1'
_cell_length_a   7.36081891
_cell_length_b   7.36081965
_cell_length_c   7.49399237
_cell_angle_alpha   60.58144283
_cell_angle_beta   60.58143468
_cell_angle_gamma   60.01159578
_symmetry_Int_Tables_number   1
_chemical_formula_structural   Cs2Zr(TeO4)3
_chemical_formula_sum   'Cs2 Zr1 Te3 O12'
_cell_volume   289.63473285
_cell_formula_units_Z   1
loop_
 _symmetry_equiv_pos_site_id
 _symmetry_equiv_pos_as_xyz
  1  'x, y, z'
loop_
 _atom_site_type_symbol
 _atom_site_label
 _atom_site_symmetry_multiplicity
 _atom_site_fract_x
 _atom_site_fract_y
 _atom_site_fract_z
 _atom_site_occupancy
  Cs  Cs0  1  0.879879  0.867327  0.878770  1
  Cs  Cs1  1  0.132673  0.120121  0.121230  1
  Zr  Zr2  1  0.503603  0.496397  0.000000  1
  Te  Te3  1  0.502829  0.996927  0.500414  1
  Te  Te4  1  0.003073  0.497171  0.499586  1
  Te  Te5  1  0.502992  0.497008  0.500000  1
  O  O6  1  0.182913  0.177019  0.566331  1
  O  O7  1  0.569720  0.564033  0.199681  1
  O  O8  1  0.569626  0.163383  0.199973  1
  O  O9  1  0.183186  0.571305  0.565314  1
  O  O10  1  0.169682  0.564004  0.199327  1
  O  O11  1  0.576511  0.176943  0.566698  1
  O  O12  1  0.822981  0.817087  0.433669  1
  O  O13  1  0.435967  0.430280  0.800319  1
  O  O14  1  0.435996  0.830318  0.800673  1
  O  O15  1  0.823057  0.423489  0.433302  1
  O  O16  1  0.836617  0.430374  0.800027  1
  O  O17  1  0.428695  0.816814  0.434686  1
