# generated using pymatgen
data_Ho3Er5(Si3Ir)4
_symmetry_space_group_name_H-M   'P 1'
_cell_length_a   8.15195900
_cell_length_b   8.15195948
_cell_length_c   7.85841200
_cell_angle_alpha   90.00000000
_cell_angle_beta   90.00000000
_cell_angle_gamma   120.01794593
_symmetry_Int_Tables_number   1
_chemical_formula_structural   Ho3Er5(Si3Ir)4
_chemical_formula_sum   'Ho3 Er5 Si12 Ir4'
_cell_volume   452.17949122
_cell_formula_units_Z   1
loop_
 _symmetry_equiv_pos_site_id
 _symmetry_equiv_pos_as_xyz
  1  'x, y, z'
loop_
 _atom_site_type_symbol
 _atom_site_label
 _atom_site_symmetry_multiplicity
 _atom_site_fract_x
 _atom_site_fract_y
 _atom_site_fract_z
 _atom_site_occupancy
  Ho  Ho0  1  0.000075  0.999925  0.250000  1
  Ho  Ho1  1  0.999974  0.000026  0.750000  1
  Ho  Ho2  1  0.490437  0.509563  0.250000  1
  Er  Er3  1  0.490607  0.981318  0.250000  1
  Er  Er4  1  0.018682  0.509393  0.250000  1
  Er  Er5  1  0.509557  0.490443  0.750000  1
  Er  Er6  1  0.980758  0.490309  0.750000  1
  Er  Er7  1  0.509691  0.019242  0.750000  1
  Si  Si8  1  0.833287  0.166713  0.500010  1
  Si  Si9  1  0.833217  0.666389  0.500202  1
  Si  Si10  1  0.333611  0.166783  0.500202  1
  Si  Si11  1  0.833287  0.166713  0.999990  1
  Si  Si12  1  0.833217  0.666389  0.999798  1
  Si  Si13  1  0.333611  0.166783  0.999798  1
  Si  Si14  1  0.166869  0.833131  0.000025  1
  Si  Si15  1  0.666244  0.833173  0.999649  1
  Si  Si16  1  0.166827  0.333756  0.999649  1
  Si  Si17  1  0.166869  0.833131  0.499975  1
  Si  Si18  1  0.666244  0.833173  0.500351  1
  Si  Si19  1  0.166827  0.333756  0.500351  1
  Ir  Ir20  1  0.666850  0.333150  0.466700  1
  Ir  Ir21  1  0.666850  0.333150  0.033300  1
  Ir  Ir22  1  0.333204  0.666796  0.964850  1
  Ir  Ir23  1  0.333204  0.666796  0.535150  1
