# generated using pymatgen
data_DyLu4(Sc5Bi4)3
_symmetry_space_group_name_H-M   'P 1'
_cell_length_a   7.87332900
_cell_length_b   9.08205700
_cell_length_c   11.55448931
_cell_angle_alpha   90.00000000
_cell_angle_beta   89.98736680
_cell_angle_gamma   90.00000000
_symmetry_Int_Tables_number   1
_chemical_formula_structural   DyLu4(Sc5Bi4)3
_chemical_formula_sum   'Dy1 Lu4 Sc15 Bi12'
_cell_volume   826.21555538
_cell_formula_units_Z   1
loop_
 _symmetry_equiv_pos_site_id
 _symmetry_equiv_pos_as_xyz
  1  'x, y, z'
loop_
 _atom_site_type_symbol
 _atom_site_label
 _atom_site_symmetry_multiplicity
 _atom_site_fract_x
 _atom_site_fract_y
 _atom_site_fract_z
 _atom_site_occupancy
  Dy  Dy0  1  0.815360  0.750000  0.219031  1
  Lu  Lu1  1  0.850878  0.250000  0.219229  1
  Lu  Lu2  1  0.187198  0.250000  0.780511  1
  Lu  Lu3  1  0.316219  0.750000  0.281734  1
  Lu  Lu4  1  0.685371  0.250000  0.717596  1
  Sc  Sc5  1  0.019377  0.250000  0.511684  1
  Sc  Sc6  1  0.980433  0.750000  0.490352  1
  Sc  Sc7  1  0.479400  0.750000  0.009797  1
  Sc  Sc8  1  0.518622  0.250000  0.988086  1
  Sc  Sc9  1  0.351320  0.250000  0.280192  1
  Sc  Sc10  1  0.648665  0.750000  0.720093  1
  Sc  Sc11  1  0.148819  0.750000  0.779822  1
  Sc  Sc12  1  0.193663  0.067217  0.060321  1
  Sc  Sc13  1  0.805703  0.932688  0.938657  1
  Sc  Sc14  1  0.305913  0.933003  0.561924  1
  Sc  Sc15  1  0.805703  0.567312  0.938657  1
  Sc  Sc16  1  0.693480  0.066126  0.441018  1
  Sc  Sc17  1  0.193663  0.432783  0.060321  1
  Sc  Sc18  1  0.693480  0.433874  0.441018  1
  Sc  Sc19  1  0.305913  0.566997  0.561924  1
  Bi  Bi20  1  0.403045  0.250000  0.535370  1
  Bi  Bi21  1  0.595451  0.750000  0.465679  1
  Bi  Bi22  1  0.097487  0.750000  0.033840  1
  Bi  Bi23  1  0.903515  0.250000  0.959565  1
  Bi  Bi24  1  0.069077  0.006174  0.330334  1
  Bi  Bi25  1  0.935168  0.991939  0.672754  1
  Bi  Bi26  1  0.435496  0.992029  0.826974  1
  Bi  Bi27  1  0.935168  0.508061  0.672754  1
  Bi  Bi28  1  0.560921  0.007398  0.171728  1
  Bi  Bi29  1  0.069077  0.493826  0.330334  1
  Bi  Bi30  1  0.560921  0.492602  0.171728  1
  Bi  Bi31  1  0.435496  0.507971  0.826974  1
