# generated using pymatgen
data_SmDy5(CoSn6)2
_symmetry_space_group_name_H-M   'P 1'
_cell_length_a   8.48485608
_cell_length_b   8.48485750
_cell_length_c   13.15015622
_cell_angle_alpha   89.97126413
_cell_angle_beta   90.02873641
_cell_angle_gamma   148.76822093
_symmetry_Int_Tables_number   1
_chemical_formula_structural   SmDy5(CoSn6)2
_chemical_formula_sum   'Sm1 Dy5 Co2 Sn12'
_cell_volume   490.87372248
_cell_formula_units_Z   1
loop_
 _symmetry_equiv_pos_site_id
 _symmetry_equiv_pos_as_xyz
  1  'x, y, z'
loop_
 _atom_site_type_symbol
 _atom_site_label
 _atom_site_symmetry_multiplicity
 _atom_site_fract_x
 _atom_site_fract_y
 _atom_site_fract_z
 _atom_site_occupancy
  Sm  Sm0  1  0.900394  0.099606  0.406640  1
  Dy  Dy1  1  0.899151  0.100849  0.092777  1
  Dy  Dy2  1  0.101009  0.898991  0.594231  1
  Dy  Dy3  1  0.900076  0.099924  0.751136  1
  Dy  Dy4  1  0.100465  0.899535  0.906537  1
  Dy  Dy5  1  0.100109  0.899891  0.248971  1
  Co  Co6  1  0.298941  0.701059  0.249518  1
  Co  Co7  1  0.700576  0.299424  0.750387  1
  Sn  Sn8  1  0.754950  0.245050  0.571912  1
  Sn  Sn9  1  0.428441  0.571559  0.578191  1
  Sn  Sn10  1  0.572872  0.427128  0.423584  1
  Sn  Sn11  1  0.733810  0.266190  0.249425  1
  Sn  Sn12  1  0.265612  0.734388  0.750160  1
  Sn  Sn13  1  0.244485  0.755515  0.070865  1
  Sn  Sn14  1  0.243918  0.756082  0.428590  1
  Sn  Sn15  1  0.572551  0.427449  0.075443  1
  Sn  Sn16  1  0.453823  0.546177  0.247835  1
  Sn  Sn17  1  0.546430  0.453570  0.750735  1
  Sn  Sn18  1  0.755193  0.244807  0.928854  1
  Sn  Sn19  1  0.427197  0.572803  0.924209  1
