# generated using pymatgen
data_Tm6Zn16Cu7S
_symmetry_space_group_name_H-M   'P 1'
_cell_length_a   8.84731341
_cell_length_b   8.84731361
_cell_length_c   8.84731300
_cell_angle_alpha   59.99999855
_cell_angle_beta   59.99999780
_cell_angle_gamma   59.99999496
_symmetry_Int_Tables_number   1
_chemical_formula_structural   Tm6Zn16Cu7S
_chemical_formula_sum   'Tm6 Zn16 Cu7 S1'
_cell_volume   489.68770492
_cell_formula_units_Z   1
loop_
 _symmetry_equiv_pos_site_id
 _symmetry_equiv_pos_as_xyz
  1  'x, y, z'
loop_
 _atom_site_type_symbol
 _atom_site_label
 _atom_site_symmetry_multiplicity
 _atom_site_fract_x
 _atom_site_fract_y
 _atom_site_fract_z
 _atom_site_occupancy
  Tm  Tm0  1  0.712862  0.287138  0.287138  1
  Tm  Tm1  1  0.287138  0.712862  0.712862  1
  Tm  Tm2  1  0.287138  0.712862  0.287138  1
  Tm  Tm3  1  0.712862  0.287138  0.712862  1
  Tm  Tm4  1  0.287138  0.287138  0.712862  1
  Tm  Tm5  1  0.712862  0.712862  0.287138  1
  Zn  Zn6  1  0.121591  0.121591  0.121591  1
  Zn  Zn7  1  0.878409  0.878409  0.878409  1
  Zn  Zn8  1  0.121591  0.121591  0.635225  1
  Zn  Zn9  1  0.121591  0.635225  0.121591  1
  Zn  Zn10  1  0.878409  0.878409  0.364775  1
  Zn  Zn11  1  0.878409  0.364775  0.878409  1
  Zn  Zn12  1  0.635225  0.121591  0.121591  1
  Zn  Zn13  1  0.364775  0.878409  0.878409  1
  Zn  Zn14  1  0.329490  0.329490  0.329490  1
  Zn  Zn15  1  0.670510  0.670510  0.670510  1
  Zn  Zn16  1  0.329490  0.329490  0.011532  1
  Zn  Zn17  1  0.329490  0.011532  0.329490  1
  Zn  Zn18  1  0.670510  0.670510  0.988468  1
  Zn  Zn19  1  0.670510  0.988468  0.670510  1
  Zn  Zn20  1  0.011532  0.329490  0.329490  1
  Zn  Zn21  1  0.988468  0.670510  0.670510  1
  Cu  Cu22  1  0.500000  0.000000  0.000000  1
  Cu  Cu23  1  0.000000  0.500000  0.500000  1
  Cu  Cu24  1  0.000000  0.500000  0.000000  1
  Cu  Cu25  1  0.500000  0.000000  0.500000  1
  Cu  Cu26  1  0.000000  0.000000  0.500000  1
  Cu  Cu27  1  0.500000  0.500000  0.000000  1
  Cu  Cu28  1  0.000000  0.000000  0.000000  1
  S  S29  1  0.500000  0.500000  0.500000  1
