# generated using pymatgen
data_Nd6Al24Ni3PdRu4
_symmetry_space_group_name_H-M   'P 1'
_cell_length_a   8.82234379
_cell_length_b   8.89822696
_cell_length_c   9.59179512
_cell_angle_alpha   89.85523805
_cell_angle_beta   90.10526859
_cell_angle_gamma   119.64096121
_symmetry_Int_Tables_number   1
_chemical_formula_structural   Nd6Al24Ni3PdRu4
_chemical_formula_sum   'Nd6 Al24 Ni3 Pd1 Ru4'
_cell_volume   654.44988218
_cell_formula_units_Z   1
loop_
 _symmetry_equiv_pos_site_id
 _symmetry_equiv_pos_as_xyz
  1  'x, y, z'
loop_
 _atom_site_type_symbol
 _atom_site_label
 _atom_site_symmetry_multiplicity
 _atom_site_fract_x
 _atom_site_fract_y
 _atom_site_fract_z
 _atom_site_occupancy
  Nd  Nd0  1  0.189827  0.380504  0.249022  1
  Nd  Nd1  1  0.810173  0.619496  0.750978  1
  Nd  Nd2  1  0.618821  0.810804  0.249064  1
  Nd  Nd3  1  0.381179  0.189196  0.750936  1
  Nd  Nd4  1  0.191986  0.809995  0.248731  1
  Nd  Nd5  1  0.808014  0.190005  0.751269  1
  Al  Al6  1  0.332911  0.666132  0.020768  1
  Al  Al7  1  0.667089  0.333868  0.979232  1
  Al  Al8  1  0.670772  0.331371  0.521309  1
  Al  Al9  1  0.329228  0.668629  0.478691  1
  Al  Al10  1  0.159193  0.325742  0.574209  1
  Al  Al11  1  0.840807  0.674258  0.425791  1
  Al  Al12  1  0.673764  0.841500  0.576209  1
  Al  Al13  1  0.836476  0.672687  0.073100  1
  Al  Al14  1  0.326236  0.158500  0.423791  1
  Al  Al15  1  0.163524  0.327313  0.926900  1
  Al  Al16  1  0.165301  0.837793  0.576147  1
  Al  Al17  1  0.327843  0.162232  0.075159  1
  Al  Al18  1  0.834699  0.162207  0.423853  1
  Al  Al19  1  0.672157  0.837768  0.924841  1
  Al  Al20  1  0.834454  0.162740  0.075593  1
  Al  Al21  1  0.165546  0.837260  0.924407  1
  Al  Al22  1  0.563210  0.125618  0.249671  1
  Al  Al23  1  0.436790  0.874382  0.750329  1
  Al  Al24  1  0.876510  0.437925  0.249750  1
  Al  Al25  1  0.123490  0.562075  0.750250  1
  Al  Al26  1  0.562831  0.437020  0.244410  1
  Al  Al27  1  0.437169  0.562980  0.755590  1
  Al  Al28  1  0.002469  0.004714  0.249795  1
  Al  Al29  1  0.997531  0.995286  0.750205  1
  Ni  Ni30  1  0.000000  0.500000  0.000000  1
  Ni  Ni31  1  0.500000  0.500000  0.000000  1
  Ni  Ni32  1  0.000000  0.500000  0.500000  1
  Pd  Pd33  1  0.500000  0.500000  0.500000  1
  Ru  Ru34  1  0.500000  0.000000  0.000000  1
  Ru  Ru35  1  0.500000  0.000000  0.500000  1
  Ru  Ru36  1  0.000000  0.000000  0.000000  1
  Ru  Ru37  1  0.000000  0.000000  0.500000  1
