# generated using pymatgen
data_Yb4InHgPd10
_symmetry_space_group_name_H-M   'P 1'
_cell_length_a   4.25953700
_cell_length_b   5.79182024
_cell_length_c   11.49565926
_cell_angle_alpha   90.91996157
_cell_angle_beta   90.00000000
_cell_angle_gamma   90.00000000
_symmetry_Int_Tables_number   1
_chemical_formula_structural   Yb4InHgPd10
_chemical_formula_sum   'Yb4 In1 Hg1 Pd10'
_cell_volume   283.56679028
_cell_formula_units_Z   1
loop_
 _symmetry_equiv_pos_site_id
 _symmetry_equiv_pos_as_xyz
  1  'x, y, z'
loop_
 _atom_site_type_symbol
 _atom_site_label
 _atom_site_symmetry_multiplicity
 _atom_site_fract_x
 _atom_site_fract_y
 _atom_site_fract_z
 _atom_site_occupancy
  Yb  Yb0  1  0.500000  0.308586  0.861537  1
  Yb  Yb1  1  0.500000  0.796020  0.634661  1
  Yb  Yb2  1  0.500000  0.691414  0.138463  1
  Yb  Yb3  1  0.500000  0.203980  0.365339  1
  In  In4  1  0.000000  0.000000  0.000000  1
  Hg  Hg5  1  0.000000  0.500000  0.500000  1
  Pd  Pd6  1  0.500000  0.717754  0.380080  1
  Pd  Pd7  1  0.500000  0.282246  0.619920  1
  Pd  Pd8  1  0.000000  0.051921  0.752759  1
  Pd  Pd9  1  0.500000  0.796567  0.885123  1
  Pd  Pd10  1  0.000000  0.446689  0.248154  1
  Pd  Pd11  1  0.000000  0.948079  0.247241  1
  Pd  Pd12  1  0.000000  0.553311  0.751846  1
  Pd  Pd13  1  0.000000  0.500000  0.000000  1
  Pd  Pd14  1  0.000000  0.000000  0.500000  1
  Pd  Pd15  1  0.500000  0.203433  0.114877  1
