# generated using pymatgen
data_Tb8Y11LuPb16
_symmetry_space_group_name_H-M   'P 1'
_cell_length_a   8.22378800
_cell_length_b   8.31091395
_cell_length_c   15.67370400
_cell_angle_alpha   90.00000000
_cell_angle_beta   90.00000000
_cell_angle_gamma   90.02734866
_symmetry_Int_Tables_number   1
_chemical_formula_structural   Tb8Y11LuPb16
_chemical_formula_sum   'Tb8 Y11 Lu1 Pb16'
_cell_volume   1071.25357198
_cell_formula_units_Z   1
loop_
 _symmetry_equiv_pos_site_id
 _symmetry_equiv_pos_as_xyz
  1  'x, y, z'
loop_
 _atom_site_type_symbol
 _atom_site_label
 _atom_site_symmetry_multiplicity
 _atom_site_fract_x
 _atom_site_fract_y
 _atom_site_fract_z
 _atom_site_occupancy
  Tb  Tb0  1  0.534221  0.323444  0.899879  1
  Tb  Tb1  1  0.034225  0.176506  0.600066  1
  Tb  Tb2  1  0.465548  0.676873  0.400001  1
  Tb  Tb3  1  0.966045  0.823662  0.100082  1
  Tb  Tb4  1  0.465548  0.676873  0.099999  1
  Tb  Tb5  1  0.966045  0.823662  0.399918  1
  Tb  Tb6  1  0.534221  0.323444  0.600121  1
  Tb  Tb7  1  0.034225  0.176506  0.899934  1
  Y  Y8  1  0.376783  0.840737  0.879415  1
  Y  Y9  1  0.876496  0.658935  0.620493  1
  Y  Y10  1  0.623242  0.159225  0.379325  1
  Y  Y11  1  0.123392  0.340994  0.120569  1
  Y  Y12  1  0.623242  0.159225  0.120675  1
  Y  Y13  1  0.123392  0.340994  0.379431  1
  Y  Y14  1  0.376783  0.840737  0.620585  1
  Y  Y15  1  0.876496  0.658935  0.879507  1
  Y  Y16  1  0.208219  0.503803  0.750000  1
  Y  Y17  1  0.708367  0.995911  0.750000  1
  Y  Y18  1  0.791670  0.496079  0.250000  1
  Lu  Lu19  1  0.291228  0.004116  0.250000  1
  Pb  Pb20  1  0.281692  0.033335  0.043163  1
  Pb  Pb21  1  0.781698  0.466467  0.457428  1
  Pb  Pb22  1  0.718365  0.966418  0.542724  1
  Pb  Pb23  1  0.218188  0.533427  0.957266  1
  Pb  Pb24  1  0.718365  0.966418  0.957276  1
  Pb  Pb25  1  0.218188  0.533427  0.542734  1
  Pb  Pb26  1  0.281692  0.033335  0.456837  1
  Pb  Pb27  1  0.781698  0.466467  0.042572  1
  Pb  Pb28  1  0.571981  0.625885  0.750000  1
  Pb  Pb29  1  0.072089  0.874056  0.750000  1
  Pb  Pb30  1  0.427587  0.373234  0.250000  1
  Pb  Pb31  1  0.929378  0.125261  0.250000  1
  Pb  Pb32  1  0.345604  0.152082  0.750000  1
  Pb  Pb33  1  0.845645  0.347624  0.750000  1
  Pb  Pb34  1  0.653546  0.847997  0.250000  1
  Pb  Pb35  1  0.154902  0.653906  0.250000  1
