# generated using pymatgen
data_Tb2Dy10Co5Sn
_symmetry_space_group_name_H-M   'P 1'
_cell_length_a   8.28895430
_cell_length_b   8.28895331
_cell_length_c   8.28895360
_cell_angle_alpha   107.03246480
_cell_angle_beta   110.66516689
_cell_angle_gamma   110.74322273
_symmetry_Int_Tables_number   1
_chemical_formula_structural   Tb2Dy10Co5Sn
_chemical_formula_sum   'Tb2 Dy10 Co5 Sn1'
_cell_volume   437.81403280
_cell_formula_units_Z   1
loop_
 _symmetry_equiv_pos_site_id
 _symmetry_equiv_pos_as_xyz
  1  'x, y, z'
loop_
 _atom_site_type_symbol
 _atom_site_label
 _atom_site_symmetry_multiplicity
 _atom_site_fract_x
 _atom_site_fract_y
 _atom_site_fract_z
 _atom_site_occupancy
  Tb  Tb0  1  0.478793  0.292519  0.186273  1
  Tb  Tb1  1  0.106246  0.292519  0.813727  1
  Dy  Dy2  1  0.893617  0.708023  0.185593  1
  Dy  Dy3  1  0.522430  0.708023  0.814407  1
  Dy  Dy4  1  0.306526  0.620713  0.314187  1
  Dy  Dy5  1  0.306526  0.992339  0.685813  1
  Dy  Dy6  1  0.693244  0.379760  0.686515  1
  Dy  Dy7  1  0.693244  0.006728  0.313485  1
  Dy  Dy8  1  0.192058  0.207806  0.400019  1
  Dy  Dy9  1  0.807788  0.792039  0.599981  1
  Dy  Dy10  1  0.192058  0.792039  0.984250  1
  Dy  Dy11  1  0.807788  0.207806  0.015750  1
  Co  Co12  1  0.500705  0.612786  0.112080  1
  Co  Co13  1  0.500705  0.388625  0.887920  1
  Co  Co14  1  0.376898  0.999569  0.377329  1
  Co  Co15  1  0.622240  0.999569  0.622671  1
  Co  Co16  1  0.999085  0.999085  0.000000  1
  Sn  Sn17  1  0.000051  0.500051  0.500000  1
