# generated using pymatgen
data_Tb3Tm13Tl5InCo2
_symmetry_space_group_name_H-M   'P 1'
_cell_length_a   10.21589232
_cell_length_b   10.21586882
_cell_length_c   7.04224330
_cell_angle_alpha   89.97158533
_cell_angle_beta   90.02848939
_cell_angle_gamma   119.92793725
_symmetry_Int_Tables_number   1
_chemical_formula_structural   Tb3Tm13Tl5InCo2
_chemical_formula_sum   'Tb3 Tm13 Tl5 In1 Co2'
_cell_volume   636.95405356
_cell_formula_units_Z   1
loop_
 _symmetry_equiv_pos_site_id
 _symmetry_equiv_pos_as_xyz
  1  'x, y, z'
loop_
 _atom_site_type_symbol
 _atom_site_label
 _atom_site_symmetry_multiplicity
 _atom_site_fract_x
 _atom_site_fract_y
 _atom_site_fract_z
 _atom_site_occupancy
  Tb  Tb0  1  0.534844  0.071236  0.512565  1
  Tb  Tb1  1  0.928763  0.465155  0.512565  1
  Tb  Tb2  1  0.536019  0.463980  0.513796  1
  Tm  Tm3  1  0.462241  0.924632  0.015440  1
  Tm  Tm4  1  0.075368  0.537759  0.015440  1
  Tm  Tm5  1  0.462012  0.537988  0.015095  1
  Tm  Tm6  1  0.178230  0.357274  0.717878  1
  Tm  Tm7  1  0.642726  0.821770  0.717878  1
  Tm  Tm8  1  0.178677  0.821323  0.719555  1
  Tm  Tm9  1  0.821131  0.642993  0.213789  1
  Tm  Tm10  1  0.357006  0.178869  0.213789  1
  Tm  Tm11  1  0.821764  0.178235  0.213517  1
  Tm  Tm12  1  0.666713  0.333287  0.907460  1
  Tm  Tm13  1  0.333105  0.666896  0.406483  1
  Tm  Tm14  1  0.000843  0.999157  0.498509  1
  Tm  Tm15  1  0.000881  0.999119  0.000675  1
  Tl  Tl16  1  0.837402  0.674969  0.766143  1
  Tl  Tl17  1  0.325032  0.162598  0.766142  1
  Tl  Tl18  1  0.837282  0.162718  0.765880  1
  Tl  Tl19  1  0.163184  0.326354  0.265492  1
  Tl  Tl20  1  0.673646  0.836817  0.265492  1
  In  In21  1  0.163012  0.836988  0.263984  1
  Co  Co22  1  0.666754  0.333246  0.283593  1
  Co  Co23  1  0.333365  0.666634  0.786848  1
