# generated using pymatgen
data_YTh7Ti8(Si4Mo)4
_symmetry_space_group_name_H-M   'P 1'
_cell_length_a   6.93240603
_cell_length_b   7.17325508
_cell_length_c   13.47522126
_cell_angle_alpha   89.89443300
_cell_angle_beta   89.85562113
_cell_angle_gamma   89.99860709
_symmetry_Int_Tables_number   1
_chemical_formula_structural   YTh7Ti8(Si4Mo)4
_chemical_formula_sum   'Y1 Th7 Ti8 Si16 Mo4'
_cell_volume   670.09141658
_cell_formula_units_Z   1
loop_
 _symmetry_equiv_pos_site_id
 _symmetry_equiv_pos_as_xyz
  1  'x, y, z'
loop_
 _atom_site_type_symbol
 _atom_site_label
 _atom_site_symmetry_multiplicity
 _atom_site_fract_x
 _atom_site_fract_y
 _atom_site_fract_z
 _atom_site_occupancy
  Y  Y0  1  0.999000  0.169723  0.097898  1
  Th  Th1  1  0.501027  0.332995  0.096739  1
  Th  Th2  1  0.000886  0.167919  0.402282  1
  Th  Th3  1  0.500167  0.668084  0.597421  1
  Th  Th4  1  0.998956  0.830417  0.904036  1
  Th  Th5  1  0.498724  0.668393  0.904845  1
  Th  Th6  1  0.000875  0.831189  0.597411  1
  Th  Th7  1  0.499565  0.331157  0.401122  1
  Ti  Ti8  1  0.835314  0.327104  0.625721  1
  Ti  Ti9  1  0.335618  0.173431  0.875316  1
  Ti  Ti10  1  0.166955  0.673419  0.124775  1
  Ti  Ti11  1  0.666547  0.828963  0.373192  1
  Ti  Ti12  1  0.162747  0.673115  0.372535  1
  Ti  Ti13  1  0.662659  0.825929  0.124678  1
  Ti  Ti14  1  0.834808  0.325199  0.875438  1
  Ti  Ti15  1  0.337863  0.172915  0.625814  1
  Si  Si16  1  0.659688  0.045596  0.544437  1
  Si  Si17  1  0.157137  0.452378  0.958046  1
  Si  Si18  1  0.334871  0.959170  0.045971  1
  Si  Si19  1  0.840569  0.545476  0.454747  1
  Si  Si20  1  0.341757  0.953220  0.454297  1
  Si  Si21  1  0.844800  0.539844  0.045902  1
  Si  Si22  1  0.659120  0.044755  0.957426  1
  Si  Si23  1  0.159164  0.454129  0.544382  1
  Si  Si24  1  0.540741  0.361605  0.751032  1
  Si  Si25  1  0.041839  0.138371  0.750510  1
  Si  Si26  1  0.458150  0.639558  0.249617  1
  Si  Si27  1  0.959938  0.864989  0.246988  1
  Si  Si28  1  0.806774  0.607632  0.750984  1
  Si  Si29  1  0.307243  0.892141  0.751088  1
  Si  Si30  1  0.189197  0.387892  0.246844  1
  Si  Si31  1  0.697762  0.109844  0.246994  1
  Mo  Mo32  1  0.665705  0.010484  0.751639  1
  Mo  Mo33  1  0.166113  0.489036  0.750482  1
  Mo  Mo34  1  0.335032  0.991539  0.249370  1
  Mo  Mo35  1  0.832687  0.512388  0.250023  1
