# generated using pymatgen
data_Tm12Fe3HgAu
_symmetry_space_group_name_H-M   'P 1'
_cell_length_a   8.15201403
_cell_length_b   8.15201383
_cell_length_c   8.15201451
_cell_angle_alpha   109.28177788
_cell_angle_beta   107.98548270
_cell_angle_gamma   111.16222571
_symmetry_Int_Tables_number   1
_chemical_formula_structural   Tm12Fe3HgAu
_chemical_formula_sum   'Tm12 Fe3 Hg1 Au1'
_cell_volume   416.71028910
_cell_formula_units_Z   1
loop_
 _symmetry_equiv_pos_site_id
 _symmetry_equiv_pos_as_xyz
  1  'x, y, z'
loop_
 _atom_site_type_symbol
 _atom_site_label
 _atom_site_symmetry_multiplicity
 _atom_site_fract_x
 _atom_site_fract_y
 _atom_site_fract_z
 _atom_site_occupancy
  Tm  Tm0  1  0.189580  0.438984  0.249405  1
  Tm  Tm1  1  0.810420  0.561016  0.750595  1
  Tm  Tm2  1  0.189580  0.940175  0.750595  1
  Tm  Tm3  1  0.953820  0.187415  0.766404  1
  Tm  Tm4  1  0.810420  0.059825  0.249405  1
  Tm  Tm5  1  0.046180  0.812585  0.233596  1
  Tm  Tm6  1  0.421011  0.187415  0.233596  1
  Tm  Tm7  1  0.578989  0.812585  0.766404  1
  Tm  Tm8  1  0.309206  0.309809  0.619014  1
  Tm  Tm9  1  0.690794  0.690191  0.380986  1
  Tm  Tm10  1  0.690794  0.309809  0.000604  1
  Tm  Tm11  1  0.309206  0.690191  0.999396  1
  Fe  Fe12  1  0.380824  0.380824  0.000000  1
  Fe  Fe13  1  0.619176  0.619176  0.000000  1
  Fe  Fe14  1  0.000000  0.000000  0.000000  1
  Hg  Hg15  1  0.500000  0.000000  0.500000  1
  Au  Au16  1  0.000000  0.500000  0.500000  1
