# generated using pymatgen
data_Tm8LuSc(SiSb)4
_symmetry_space_group_name_H-M   'P 1'
_cell_length_a   8.38370129
_cell_length_b   8.38370138
_cell_length_c   7.72198366
_cell_angle_alpha   89.97616172
_cell_angle_beta   89.97616830
_cell_angle_gamma   125.37450478
_symmetry_Int_Tables_number   1
_chemical_formula_structural   Tm8LuSc(SiSb)4
_chemical_formula_sum   'Tm8 Lu1 Sc1 Si4 Sb4'
_cell_volume   442.55094293
_cell_formula_units_Z   1
loop_
 _symmetry_equiv_pos_site_id
 _symmetry_equiv_pos_as_xyz
  1  'x, y, z'
loop_
 _atom_site_type_symbol
 _atom_site_label
 _atom_site_symmetry_multiplicity
 _atom_site_fract_x
 _atom_site_fract_y
 _atom_site_fract_z
 _atom_site_occupancy
  Tm  Tm0  1  0.539843  0.789801  0.166435  1
  Tm  Tm1  1  0.292021  0.041243  0.335657  1
  Tm  Tm2  1  0.210199  0.460157  0.833565  1
  Tm  Tm3  1  0.958757  0.707979  0.664343  1
  Tm  Tm4  1  0.707979  0.958757  0.664343  1
  Tm  Tm5  1  0.460157  0.210199  0.833565  1
  Tm  Tm6  1  0.789801  0.539843  0.166435  1
  Tm  Tm7  1  0.041243  0.292021  0.335657  1
  Lu  Lu8  1  0.000000  0.000000  0.000000  1
  Sc  Sc9  1  0.500000  0.500000  0.500000  1
  Si  Si10  1  0.632591  0.632591  0.866291  1
  Si  Si11  1  0.134405  0.134405  0.631317  1
  Si  Si12  1  0.865595  0.865595  0.368683  1
  Si  Si13  1  0.367409  0.367409  0.133709  1
  Sb  Sb14  1  0.295812  0.704188  0.500000  1
  Sb  Sb15  1  0.205832  0.794168  0.000000  1
  Sb  Sb16  1  0.704188  0.295812  0.500000  1
  Sb  Sb17  1  0.794168  0.205832  0.000000  1
