# generated using pymatgen
data_Y2Ho14Tl6CoRh
_symmetry_space_group_name_H-M   'P 1'
_cell_length_a   10.32186100
_cell_length_b   10.32186275
_cell_length_c   7.11460200
_cell_angle_alpha   90.00000000
_cell_angle_beta   90.00000000
_cell_angle_gamma   120.00000399
_symmetry_Int_Tables_number   1
_chemical_formula_structural   Y2Ho14Tl6CoRh
_chemical_formula_sum   'Y2 Ho14 Tl6 Co1 Rh1'
_cell_volume   656.44343714
_cell_formula_units_Z   1
loop_
 _symmetry_equiv_pos_site_id
 _symmetry_equiv_pos_as_xyz
  1  'x, y, z'
loop_
 _atom_site_type_symbol
 _atom_site_label
 _atom_site_symmetry_multiplicity
 _atom_site_fract_x
 _atom_site_fract_y
 _atom_site_fract_z
 _atom_site_occupancy
  Y  Y0  1  0.000000  0.000000  0.495263  1
  Y  Y1  1  0.000000  0.000000  0.998594  1
  Ho  Ho2  1  0.465483  0.534517  0.480318  1
  Ho  Ho3  1  0.069033  0.534517  0.480318  1
  Ho  Ho4  1  0.465483  0.930967  0.480318  1
  Ho  Ho5  1  0.537574  0.462426  0.981041  1
  Ho  Ho6  1  0.924851  0.462426  0.981041  1
  Ho  Ho7  1  0.537574  0.075149  0.981041  1
  Ho  Ho8  1  0.821318  0.178682  0.277422  1
  Ho  Ho9  1  0.357364  0.178682  0.277422  1
  Ho  Ho10  1  0.821318  0.642636  0.277422  1
  Ho  Ho11  1  0.176453  0.823547  0.779491  1
  Ho  Ho12  1  0.647093  0.823547  0.779491  1
  Ho  Ho13  1  0.176453  0.352907  0.779491  1
  Ho  Ho14  1  0.333333  0.666667  0.099450  1
  Ho  Ho15  1  0.666667  0.333333  0.589235  1
  Tl  Tl16  1  0.162795  0.837205  0.232533  1
  Tl  Tl17  1  0.674411  0.837205  0.232533  1
  Tl  Tl18  1  0.162795  0.325589  0.232533  1
  Tl  Tl19  1  0.836233  0.163767  0.730049  1
  Tl  Tl20  1  0.327535  0.163767  0.730049  1
  Tl  Tl21  1  0.836233  0.672465  0.730049  1
  Co  Co22  1  0.666667  0.333333  0.208694  1
  Rh  Rh23  1  0.333333  0.666667  0.710750  1
