# generated using pymatgen
data_La3ThSi7
_symmetry_space_group_name_H-M   'P 1'
_cell_length_a   8.14378357
_cell_length_b   8.14378362
_cell_length_c   8.65933987
_cell_angle_alpha   90.13997162
_cell_angle_beta   89.86002913
_cell_angle_gamma   120.45542936
_symmetry_Int_Tables_number   1
_chemical_formula_structural   La3ThSi7
_chemical_formula_sum   'La6 Th2 Si14'
_cell_volume   495.05645641
_cell_formula_units_Z   2
loop_
 _symmetry_equiv_pos_site_id
 _symmetry_equiv_pos_as_xyz
  1  'x, y, z'
loop_
 _atom_site_type_symbol
 _atom_site_label
 _atom_site_symmetry_multiplicity
 _atom_site_fract_x
 _atom_site_fract_y
 _atom_site_fract_z
 _atom_site_occupancy
  La  La0  1  0.252595  0.252595  0.000000  1
  La  La1  1  0.747405  0.747405  0.000000  1
  La  La2  1  0.744612  0.744612  0.500000  1
  La  La3  1  0.255388  0.255388  0.500000  1
  La  La4  1  0.251831  0.748169  0.496135  1
  La  La5  1  0.748169  0.251831  0.503865  1
  Th  Th6  1  0.748046  0.251954  0.995864  1
  Th  Th7  1  0.251954  0.748046  0.004136  1
  Si  Si8  1  0.069363  0.392589  0.246529  1
  Si  Si9  1  0.930637  0.607411  0.753471  1
  Si  Si10  1  0.583317  0.416683  0.248178  1
  Si  Si11  1  0.416683  0.583317  0.751822  1
  Si  Si12  1  0.412429  0.587571  0.246698  1
  Si  Si13  1  0.587571  0.412429  0.753302  1
  Si  Si14  1  0.075791  0.924209  0.248450  1
  Si  Si15  1  0.924209  0.075791  0.751550  1
  Si  Si16  1  0.607411  0.930637  0.246529  1
  Si  Si17  1  0.392589  0.069363  0.753471  1
  Si  Si18  1  0.923660  0.582614  0.246060  1
  Si  Si19  1  0.076340  0.417386  0.753940  1
  Si  Si20  1  0.417386  0.076340  0.246060  1
  Si  Si21  1  0.582614  0.923660  0.753940  1
