# generated using pymatgen
data_Tb2(P2Pd7)3
_symmetry_space_group_name_H-M   'P 1'
_cell_length_a   8.64506260
_cell_length_b   8.64506333
_cell_length_c   8.64506300
_cell_angle_alpha   60.00000511
_cell_angle_beta   60.00000229
_cell_angle_gamma   60.00000213
_symmetry_Int_Tables_number   1
_chemical_formula_structural   Tb2(P2Pd7)3
_chemical_formula_sum   'Tb2 P6 Pd21'
_cell_volume   456.86671378
_cell_formula_units_Z   1
loop_
 _symmetry_equiv_pos_site_id
 _symmetry_equiv_pos_as_xyz
  1  'x, y, z'
loop_
 _atom_site_type_symbol
 _atom_site_label
 _atom_site_symmetry_multiplicity
 _atom_site_fract_x
 _atom_site_fract_y
 _atom_site_fract_z
 _atom_site_occupancy
  Tb  Tb0  1  0.250000  0.250000  0.250000  1
  Tb  Tb1  1  0.750000  0.750000  0.750000  1
  P  P2  1  0.739378  0.260622  0.260622  1
  P  P3  1  0.260622  0.739378  0.739378  1
  P  P4  1  0.260622  0.739378  0.260622  1
  P  P5  1  0.739378  0.260622  0.739378  1
  P  P6  1  0.260622  0.260622  0.739378  1
  P  P7  1  0.739378  0.739378  0.260622  1
  Pd  Pd8  1  0.000000  0.000000  0.000000  1
  Pd  Pd9  1  0.385119  0.385119  0.385119  1
  Pd  Pd10  1  0.614881  0.614881  0.614881  1
  Pd  Pd11  1  0.385119  0.385119  0.844642  1
  Pd  Pd12  1  0.385119  0.844642  0.385119  1
  Pd  Pd13  1  0.614881  0.614881  0.155358  1
  Pd  Pd14  1  0.614881  0.155358  0.614881  1
  Pd  Pd15  1  0.844642  0.385119  0.385119  1
  Pd  Pd16  1  0.155358  0.614881  0.614881  1
  Pd  Pd17  1  0.345031  0.000000  0.000000  1
  Pd  Pd18  1  0.654969  0.000000  0.000000  1
  Pd  Pd19  1  0.000000  0.345031  0.654969  1
  Pd  Pd20  1  0.000000  0.654969  0.345031  1
  Pd  Pd21  1  0.000000  0.345031  0.000000  1
  Pd  Pd22  1  0.654969  0.000000  0.345031  1
  Pd  Pd23  1  0.000000  0.654969  0.000000  1
  Pd  Pd24  1  0.345031  0.000000  0.654969  1
  Pd  Pd25  1  0.000000  0.000000  0.345031  1
  Pd  Pd26  1  0.000000  0.000000  0.654969  1
  Pd  Pd27  1  0.654969  0.345031  0.000000  1
  Pd  Pd28  1  0.345031  0.654969  0.000000  1
