# generated using pymatgen
data_LaYbPr3Ir2
_symmetry_space_group_name_H-M   'P 1'
_cell_length_a   9.00791527
_cell_length_b   9.00791602
_cell_length_c   7.41658143
_cell_angle_alpha   84.04013700
_cell_angle_beta   84.04013448
_cell_angle_gamma   43.73749916
_symmetry_Int_Tables_number   1
_chemical_formula_structural   LaYbPr3Ir2
_chemical_formula_sum   'La2 Yb2 Pr6 Ir4'
_cell_volume   413.44563496
_cell_formula_units_Z   2
loop_
 _symmetry_equiv_pos_site_id
 _symmetry_equiv_pos_as_xyz
  1  'x, y, z'
loop_
 _atom_site_type_symbol
 _atom_site_label
 _atom_site_symmetry_multiplicity
 _atom_site_fract_x
 _atom_site_fract_y
 _atom_site_fract_z
 _atom_site_occupancy
  La  La0  1  0.014707  0.801899  0.912614  1
  La  La1  1  0.198101  0.985293  0.587386  1
  Yb  Yb2  1  0.982623  0.199123  0.085245  1
  Yb  Yb3  1  0.800877  0.017377  0.414755  1
  Pr  Pr4  1  0.345886  0.214085  0.820529  1
  Pr  Pr5  1  0.785915  0.654114  0.679471  1
  Pr  Pr6  1  0.653176  0.782862  0.182445  1
  Pr  Pr7  1  0.217138  0.346824  0.317555  1
  Pr  Pr8  1  0.569492  0.430508  0.750000  1
  Pr  Pr9  1  0.437331  0.562669  0.250000  1
  Ir  Ir10  1  0.175842  0.602708  0.576972  1
  Ir  Ir11  1  0.397292  0.824158  0.923028  1
  Ir  Ir12  1  0.824271  0.402651  0.429104  1
  Ir  Ir13  1  0.597349  0.175729  0.070896  1
