# generated using pymatgen
data_Y18Er2Cd5InNi2
_symmetry_space_group_name_H-M   'P 1'
_cell_length_a   9.68492218
_cell_length_b   9.68492238
_cell_length_c   9.75947800
_cell_angle_alpha   90.00000000
_cell_angle_beta   90.00000000
_cell_angle_gamma   120.12339793
_symmetry_Int_Tables_number   1
_chemical_formula_structural   Y18Er2Cd5InNi2
_chemical_formula_sum   'Y18 Er2 Cd5 In1 Ni2'
_cell_volume   791.78658275
_cell_formula_units_Z   1
loop_
 _symmetry_equiv_pos_site_id
 _symmetry_equiv_pos_as_xyz
  1  'x, y, z'
loop_
 _atom_site_type_symbol
 _atom_site_label
 _atom_site_symmetry_multiplicity
 _atom_site_fract_x
 _atom_site_fract_y
 _atom_site_fract_z
 _atom_site_occupancy
  Y  Y0  1  0.542688  0.457312  0.250000  1
  Y  Y1  1  0.540160  0.087471  0.250000  1
  Y  Y2  1  0.912529  0.459840  0.250000  1
  Y  Y3  1  0.456044  0.543956  0.750000  1
  Y  Y4  1  0.456916  0.912959  0.750000  1
  Y  Y5  1  0.087041  0.543084  0.750000  1
  Y  Y6  1  0.209684  0.790316  0.437331  1
  Y  Y7  1  0.208948  0.418347  0.436424  1
  Y  Y8  1  0.581653  0.791052  0.436424  1
  Y  Y9  1  0.790531  0.209469  0.562799  1
  Y  Y10  1  0.790078  0.580649  0.564129  1
  Y  Y11  1  0.419351  0.209922  0.564129  1
  Y  Y12  1  0.790531  0.209469  0.937201  1
  Y  Y13  1  0.790078  0.580649  0.935871  1
  Y  Y14  1  0.419351  0.209922  0.935871  1
  Y  Y15  1  0.209684  0.790316  0.062669  1
  Y  Y16  1  0.208948  0.418347  0.063576  1
  Y  Y17  1  0.581653  0.791052  0.063576  1
  Er  Er18  1  0.001846  0.998154  0.501608  1
  Er  Er19  1  0.001846  0.998154  0.998392  1
  Cd  Cd20  1  0.885605  0.770669  0.250000  1
  Cd  Cd21  1  0.229331  0.114395  0.250000  1
  Cd  Cd22  1  0.115985  0.884015  0.750000  1
  Cd  Cd23  1  0.114367  0.229847  0.750000  1
  Cd  Cd24  1  0.770153  0.885633  0.750000  1
  In  In25  1  0.884924  0.115076  0.250000  1
  Ni  Ni26  1  0.332896  0.667104  0.250000  1
  Ni  Ni27  1  0.667183  0.332817  0.750000  1
