# generated using pymatgen
data_U2CoC3
_symmetry_space_group_name_H-M   'P 1'
_cell_length_a   3.52211100
_cell_length_b   6.39415300
_cell_length_c   13.04084300
_cell_angle_alpha   90.00000000
_cell_angle_beta   90.00000000
_cell_angle_gamma   90.00000000
_symmetry_Int_Tables_number   1
_chemical_formula_structural   U2CoC3
_chemical_formula_sum   'U8 Co4 C12'
_cell_volume   293.69173782
_cell_formula_units_Z   4
loop_
 _symmetry_equiv_pos_site_id
 _symmetry_equiv_pos_as_xyz
  1  'x, y, z'
loop_
 _atom_site_type_symbol
 _atom_site_label
 _atom_site_symmetry_multiplicity
 _atom_site_fract_x
 _atom_site_fract_y
 _atom_site_fract_z
 _atom_site_occupancy
  U  U0  1  0.250000  0.748318  0.022422  1
  U  U1  1  0.750000  0.251682  0.977578  1
  U  U2  1  0.750000  0.751682  0.522422  1
  U  U3  1  0.250000  0.248318  0.477578  1
  U  U4  1  0.250000  0.626220  0.287950  1
  U  U5  1  0.750000  0.373780  0.712050  1
  U  U6  1  0.750000  0.873780  0.787950  1
  U  U7  1  0.250000  0.126220  0.212050  1
  Co  Co8  1  0.250000  0.508864  0.843507  1
  Co  Co9  1  0.750000  0.491136  0.156493  1
  Co  Co10  1  0.750000  0.991136  0.343507  1
  Co  Co11  1  0.250000  0.008864  0.656493  1
  C  C12  1  0.250000  0.679927  0.676942  1
  C  C13  1  0.750000  0.320073  0.323058  1
  C  C14  1  0.750000  0.820073  0.176942  1
  C  C15  1  0.250000  0.179927  0.823058  1
  C  C16  1  0.250000  0.521617  0.597217  1
  C  C17  1  0.750000  0.478383  0.402783  1
  C  C18  1  0.750000  0.978383  0.097217  1
  C  C19  1  0.250000  0.021617  0.902783  1
  C  C20  1  0.250000  0.897160  0.405539  1
  C  C21  1  0.750000  0.102840  0.594461  1
  C  C22  1  0.750000  0.602840  0.905539  1
  C  C23  1  0.250000  0.397160  0.094461  1
