# generated using pymatgen
data_Pr3Au4
_symmetry_space_group_name_H-M   'P 1'
_cell_length_a   8.35017772
_cell_length_b   8.35017753
_cell_length_c   8.35017799
_cell_angle_alpha   113.95384997
_cell_angle_beta   113.95384069
_cell_angle_gamma   113.95384156
_symmetry_Int_Tables_number   1
_chemical_formula_structural   Pr3Au4
_chemical_formula_sum   'Pr6 Au8'
_cell_volume   354.93615270
_cell_formula_units_Z   2
loop_
 _symmetry_equiv_pos_site_id
 _symmetry_equiv_pos_as_xyz
  1  'x, y, z'
loop_
 _atom_site_type_symbol
 _atom_site_label
 _atom_site_symmetry_multiplicity
 _atom_site_fract_x
 _atom_site_fract_y
 _atom_site_fract_z
 _atom_site_occupancy
  Pr  Pr0  1  0.399230  0.017299  0.272809  1
  Pr  Pr1  1  0.017299  0.272809  0.399230  1
  Pr  Pr2  1  0.272809  0.399230  0.017299  1
  Pr  Pr3  1  0.600770  0.982701  0.727191  1
  Pr  Pr4  1  0.982701  0.727191  0.600770  1
  Pr  Pr5  1  0.727191  0.600770  0.982701  1
  Au  Au6  1  0.000000  0.000000  0.000000  1
  Au  Au7  1  0.500000  0.500000  0.500000  1
  Au  Au8  1  0.229295  0.068923  0.560552  1
  Au  Au9  1  0.068923  0.560552  0.229295  1
  Au  Au10  1  0.560552  0.229295  0.068923  1
  Au  Au11  1  0.770705  0.931077  0.439448  1
  Au  Au12  1  0.931077  0.439448  0.770705  1
  Au  Au13  1  0.439448  0.770705  0.931077  1
