# generated using pymatgen
data_Li3La3CdGe4
_symmetry_space_group_name_H-M   'P 1'
_cell_length_a   4.53923179
_cell_length_b   7.11096362
_cell_length_c   8.58243189
_cell_angle_alpha   113.73673424
_cell_angle_beta   105.33421602
_cell_angle_gamma   89.99999763
_symmetry_Int_Tables_number   1
_chemical_formula_structural   Li3La3CdGe4
_chemical_formula_sum   'Li3 La3 Cd1 Ge4'
_cell_volume   242.77892268
_cell_formula_units_Z   1
loop_
 _symmetry_equiv_pos_site_id
 _symmetry_equiv_pos_as_xyz
  1  'x, y, z'
loop_
 _atom_site_type_symbol
 _atom_site_label
 _atom_site_symmetry_multiplicity
 _atom_site_fract_x
 _atom_site_fract_y
 _atom_site_fract_z
 _atom_site_occupancy
  Li  Li0  1  0.329407  0.018379  0.658816  1
  Li  Li1  1  0.329185  0.643068  0.658372  1
  Li  Li2  1  0.669933  0.364112  0.339864  1
  La  La3  1  0.999982  0.000404  0.999965  1
  La  La4  1  0.130043  0.615818  0.260085  1
  La  La5  1  0.871844  0.372730  0.743690  1
  Cd  Cd6  1  0.669665  0.979480  0.339328  1
  Ge  Ge7  1  0.496090  0.675815  0.992179  1
  Ge  Ge8  1  0.500056  0.315993  0.000112  1
  Ge  Ge9  1  0.787439  0.782246  0.574878  1
  Ge  Ge10  1  0.216355  0.231955  0.432711  1
