# generated using pymatgen
data_Lu4Sc4CuPt3
_symmetry_space_group_name_H-M   'P 1'
_cell_length_a   4.57815600
_cell_length_b   6.87110744
_cell_length_c   8.32971286
_cell_angle_alpha   91.08967365
_cell_angle_beta   90.00000000
_cell_angle_gamma   90.00000000
_symmetry_Int_Tables_number   1
_chemical_formula_structural   Lu4Sc4CuPt3
_chemical_formula_sum   'Lu4 Sc4 Cu1 Pt3'
_cell_volume   261.98040594
_cell_formula_units_Z   1
loop_
 _symmetry_equiv_pos_site_id
 _symmetry_equiv_pos_as_xyz
  1  'x, y, z'
loop_
 _atom_site_type_symbol
 _atom_site_label
 _atom_site_symmetry_multiplicity
 _atom_site_fract_x
 _atom_site_fract_y
 _atom_site_fract_z
 _atom_site_occupancy
  Lu  Lu0  1  0.250000  0.518612  0.176422  1
  Lu  Lu1  1  0.750000  0.473233  0.821219  1
  Lu  Lu2  1  0.750000  0.983642  0.673197  1
  Lu  Lu3  1  0.250000  0.017113  0.325821  1
  Sc  Sc4  1  0.250000  0.648920  0.574312  1
  Sc  Sc5  1  0.750000  0.357825  0.427141  1
  Sc  Sc6  1  0.750000  0.855063  0.073063  1
  Sc  Sc7  1  0.250000  0.139409  0.929979  1
  Cu  Cu8  1  0.250000  0.752507  0.895429  1
  Pt  Pt9  1  0.750000  0.250471  0.100563  1
  Pt  Pt10  1  0.750000  0.747908  0.396405  1
  Pt  Pt11  1  0.250000  0.255295  0.606450  1
