# generated using pymatgen
data_K3Mo2N5
_symmetry_space_group_name_H-M   'P 1'
_cell_length_a   10.39425372
_cell_length_b   10.39405632
_cell_length_c   10.39429911
_cell_angle_alpha   102.18470370
_cell_angle_beta   102.18443142
_cell_angle_gamma   125.30147425
_symmetry_Int_Tables_number   1
_chemical_formula_structural   K3Mo2N5
_chemical_formula_sum   'K12 Mo8 N20'
_cell_volume   814.04871755
_cell_formula_units_Z   4
loop_
 _symmetry_equiv_pos_site_id
 _symmetry_equiv_pos_as_xyz
  1  'x, y, z'
loop_
 _atom_site_type_symbol
 _atom_site_label
 _atom_site_symmetry_multiplicity
 _atom_site_fract_x
 _atom_site_fract_y
 _atom_site_fract_z
 _atom_site_occupancy
  K  K0  1  0.868870  0.553524  0.881372  1
  K  K1  1  0.672144  0.987493  0.118627  1
  K  K2  1  0.803517  0.422144  0.184654  1
  K  K3  1  0.237497  0.618873  0.815358  1
  K  K4  1  0.506832  0.703190  0.357162  1
  K  K5  1  0.346021  0.149671  0.642837  1
  K  K6  1  0.953188  0.096022  0.696348  1
  K  K7  1  0.399672  0.256835  0.303641  1
  K  K8  1  0.951094  0.951097  0.000004  1
  K  K9  1  0.201099  0.701099  0.500000  1
  K  K10  1  0.739183  0.239180  0.500002  1
  K  K11  1  0.489160  0.489164  0.999996  1
  Mo  Mo12  1  0.627540  0.059125  0.796688  1
  Mo  Mo13  1  0.262446  0.830865  0.203317  1
  Mo  Mo14  1  0.309130  0.012455  0.931589  1
  Mo  Mo15  1  0.080858  0.377538  0.068419  1
  Mo  Mo16  1  0.932298  0.749412  0.630626  1
  Mo  Mo17  1  0.118791  0.301665  0.369373  1
  Mo  Mo18  1  0.999418  0.868793  0.317124  1
  Mo  Mo19  1  0.551662  0.682288  0.682876  1
  N  N20  1  0.644842  0.203073  0.723300  1
  N  N21  1  0.479780  0.921561  0.276709  1
  N  N22  1  0.453073  0.229795  0.058226  1
  N  N23  1  0.171540  0.394826  0.941770  1
  N  N24  1  0.851516  0.710052  0.138192  1
  N  N25  1  0.571885  0.713341  0.861800  1
  N  N26  1  0.960073  0.321878  0.358540  1
  N  N27  1  0.963340  0.601526  0.641459  1
  N  N28  1  0.837267  0.182609  0.964374  1
  N  N29  1  0.218257  0.872917  0.035641  1
  N  N30  1  0.432610  0.968246  0.845344  1
  N  N31  1  0.122913  0.587274  0.154655  1
  N  N32  1  0.930972  0.773967  0.452400  1
  N  N33  1  0.321570  0.478570  0.547585  1
  N  N34  1  0.023973  0.071567  0.342997  1
  N  N35  1  0.728571  0.680974  0.656995  1
  N  N36  1  0.125266  0.976345  0.785797  1
  N  N37  1  0.190535  0.339455  0.214205  1
  N  N38  1  0.226330  0.940533  0.351077  1
  N  N39  1  0.589469  0.875259  0.648923  1
