# generated using pymatgen
data_Ba3Gd(BO3)3
_symmetry_space_group_name_H-M   'P 1'
_cell_length_a   8.26719877
_cell_length_b   8.26719984
_cell_length_c   8.26719925
_cell_angle_alpha   105.53875858
_cell_angle_beta   105.53875100
_cell_angle_gamma   105.53875221
_symmetry_Int_Tables_number   1
_chemical_formula_structural   Ba3Gd(BO3)3
_chemical_formula_sum   'Ba6 Gd2 B6 O18'
_cell_volume   488.11107464
_cell_formula_units_Z   2
loop_
 _symmetry_equiv_pos_site_id
 _symmetry_equiv_pos_as_xyz
  1  'x, y, z'
loop_
 _atom_site_type_symbol
 _atom_site_label
 _atom_site_symmetry_multiplicity
 _atom_site_fract_x
 _atom_site_fract_y
 _atom_site_fract_z
 _atom_site_occupancy
  Ba  Ba0  1  0.350658  0.734373  0.842952  1
  Ba  Ba1  1  0.842952  0.350658  0.734373  1
  Ba  Ba2  1  0.734373  0.842952  0.350658  1
  Ba  Ba3  1  0.649342  0.265627  0.157048  1
  Ba  Ba4  1  0.157048  0.649342  0.265627  1
  Ba  Ba5  1  0.265627  0.157048  0.649342  1
  Gd  Gd6  1  0.500000  0.500000  0.500000  1
  Gd  Gd7  1  0.000000  0.000000  0.000000  1
  B  B8  1  0.709868  0.622046  0.957719  1
  B  B9  1  0.957719  0.709868  0.622046  1
  B  B10  1  0.622046  0.957719  0.709868  1
  B  B11  1  0.042281  0.290132  0.377954  1
  B  B12  1  0.377954  0.042281  0.290132  1
  B  B13  1  0.290132  0.377954  0.042281  1
  O  O14  1  0.062197  0.806193  0.549526  1
  O  O15  1  0.549526  0.062197  0.806193  1
  O  O16  1  0.427636  0.491460  0.209209  1
  O  O17  1  0.491460  0.209209  0.427636  1
  O  O18  1  0.209209  0.427636  0.491460  1
  O  O19  1  0.790791  0.572364  0.508540  1
  O  O20  1  0.572364  0.508540  0.790791  1
  O  O21  1  0.508540  0.790791  0.572364  1
  O  O22  1  0.258145  0.192938  0.983446  1
  O  O23  1  0.192938  0.983446  0.258145  1
  O  O24  1  0.983446  0.258145  0.192938  1
  O  O25  1  0.741855  0.807062  0.016554  1
  O  O26  1  0.807062  0.016554  0.741855  1
  O  O27  1  0.016554  0.741855  0.807062  1
  O  O28  1  0.193807  0.450474  0.937803  1
  O  O29  1  0.450474  0.937803  0.193807  1
  O  O30  1  0.937803  0.193807  0.450474  1
  O  O31  1  0.806193  0.549526  0.062197  1
