# generated using pymatgen
data_YbAg3(Ru2O7)2
_symmetry_space_group_name_H-M   'P 1'
_cell_length_a   7.24669442
_cell_length_b   7.15240069
_cell_length_c   7.15240100
_cell_angle_alpha   60.00000318
_cell_angle_beta   60.42951003
_cell_angle_gamma   60.42951261
_symmetry_Int_Tables_number   1
_chemical_formula_structural   YbAg3(Ru2O7)2
_chemical_formula_sum   'Yb1 Ag3 Ru4 O14'
_cell_volume   263.82613851
_cell_formula_units_Z   1
loop_
 _symmetry_equiv_pos_site_id
 _symmetry_equiv_pos_as_xyz
  1  'x, y, z'
loop_
 _atom_site_type_symbol
 _atom_site_label
 _atom_site_symmetry_multiplicity
 _atom_site_fract_x
 _atom_site_fract_y
 _atom_site_fract_z
 _atom_site_occupancy
  Yb  Yb0  1  0.625000  0.125000  0.125000  1
  Ag  Ag1  1  0.125000  0.125000  0.125000  1
  Ag  Ag2  1  0.125000  0.125000  0.625000  1
  Ag  Ag3  1  0.125000  0.625000  0.125000  1
  Ru  Ru4  1  0.625000  0.625000  0.625000  1
  Ru  Ru5  1  0.125000  0.625000  0.625000  1
  Ru  Ru6  1  0.625000  0.625000  0.125000  1
  Ru  Ru7  1  0.625000  0.125000  0.625000  1
  O  O8  1  0.020393  0.993202  0.993202  1
  O  O9  1  0.229607  0.256798  0.256798  1
  O  O10  1  0.309813  0.307465  0.691361  1
  O  O11  1  0.556244  0.549488  0.947134  1
  O  O12  1  0.693756  0.302866  0.700512  1
  O  O13  1  0.693756  0.302866  0.302866  1
  O  O14  1  0.309813  0.691361  0.691361  1
  O  O15  1  0.309813  0.691361  0.307465  1
  O  O16  1  0.693756  0.700512  0.302866  1
  O  O17  1  0.940187  0.558639  0.558639  1
  O  O18  1  0.556244  0.947134  0.947134  1
  O  O19  1  0.940187  0.942535  0.558639  1
  O  O20  1  0.940187  0.558639  0.942535  1
  O  O21  1  0.556244  0.947134  0.549488  1
