# generated using pymatgen
data_Li6YTm2In3
_symmetry_space_group_name_H-M   'P 1'
_cell_length_a   4.82741500
_cell_length_b   6.82338600
_cell_length_c   14.47075500
_cell_angle_alpha   90.00000000
_cell_angle_beta   90.00000000
_cell_angle_gamma   90.00000000
_symmetry_Int_Tables_number   1
_chemical_formula_structural   Li6YTm2In3
_chemical_formula_sum   'Li12 Y2 Tm4 In6'
_cell_volume   476.65677065
_cell_formula_units_Z   2
loop_
 _symmetry_equiv_pos_site_id
 _symmetry_equiv_pos_as_xyz
  1  'x, y, z'
loop_
 _atom_site_type_symbol
 _atom_site_label
 _atom_site_symmetry_multiplicity
 _atom_site_fract_x
 _atom_site_fract_y
 _atom_site_fract_z
 _atom_site_occupancy
  Li  Li0  1  0.500073  0.249981  0.000286  1
  Li  Li1  1  0.500073  0.750019  0.000286  1
  Li  Li2  1  0.000488  0.249511  0.166736  1
  Li  Li3  1  0.000488  0.750488  0.166736  1
  Li  Li4  1  0.500574  0.250393  0.333285  1
  Li  Li5  1  0.500574  0.749606  0.333285  1
  Li  Li6  1  0.000027  0.250016  0.499626  1
  Li  Li7  1  0.000027  0.749983  0.499626  1
  Li  Li8  1  0.499470  0.250826  0.666415  1
  Li  Li9  1  0.499470  0.749173  0.666415  1
  Li  Li10  1  0.999498  0.249233  0.833602  1
  Li  Li11  1  0.999498  0.750766  0.833602  1
  Y  Y12  1  0.999340  0.000000  0.666916  1
  Y  Y13  1  0.499316  0.500000  0.833126  1
  Tm  Tm14  1  0.000009  0.000000  0.999756  1
  Tm  Tm15  1  0.500637  0.500000  0.166673  1
  Tm  Tm16  1  0.000615  0.000000  0.333385  1
  Tm  Tm17  1  0.500066  0.500000  0.500125  1
  In  In18  1  0.000239  0.500000  0.000536  1
  In  In19  1  0.500146  0.000000  0.166676  1
  In  In20  1  0.000696  0.500000  0.333396  1
  In  In21  1  0.500141  0.000000  0.499555  1
  In  In22  1  0.999193  0.500000  0.666043  1
  In  In23  1  0.499339  0.000000  0.833911  1
