# generated using pymatgen
data_Dy3(Sn2Rh)2
_symmetry_space_group_name_H-M   'P 1'
_cell_length_a   7.53464600
_cell_length_b   7.53464627
_cell_length_c   4.20564100
_cell_angle_alpha   90.00000000
_cell_angle_beta   90.00000000
_cell_angle_gamma   120.00000878
_symmetry_Int_Tables_number   1
_chemical_formula_structural   Dy3(Sn2Rh)2
_chemical_formula_sum   'Dy3 Sn4 Rh2'
_cell_volume   206.77046862
_cell_formula_units_Z   1
loop_
 _symmetry_equiv_pos_site_id
 _symmetry_equiv_pos_as_xyz
  1  'x, y, z'
loop_
 _atom_site_type_symbol
 _atom_site_label
 _atom_site_symmetry_multiplicity
 _atom_site_fract_x
 _atom_site_fract_y
 _atom_site_fract_z
 _atom_site_occupancy
  Dy  Dy0  1  0.058762  0.310182  0.500000  1
  Dy  Dy1  1  0.689818  0.748579  0.500000  1
  Dy  Dy2  1  0.251421  0.941238  0.500000  1
  Sn  Sn3  1  0.684290  0.094069  0.000000  1
  Sn  Sn4  1  0.905931  0.590222  0.000000  1
  Sn  Sn5  1  0.409778  0.315710  0.000000  1
  Sn  Sn6  1  0.333333  0.666667  0.000000  1
  Rh  Rh7  1  0.666667  0.333333  0.500000  1
  Rh  Rh8  1  0.000000  0.000000  0.000000  1
