# generated using pymatgen
data_Dy3YAg4
_symmetry_space_group_name_H-M   'P 1'
_cell_length_a   6.31466120
_cell_length_b   6.31466278
_cell_length_c   10.39186200
_cell_angle_alpha   90.00000000
_cell_angle_beta   90.00000000
_cell_angle_gamma   110.71599435
_symmetry_Int_Tables_number   1
_chemical_formula_structural   Dy3YAg4
_chemical_formula_sum   'Dy6 Y2 Ag8'
_cell_volume   387.58375505
_cell_formula_units_Z   2
loop_
 _symmetry_equiv_pos_site_id
 _symmetry_equiv_pos_as_xyz
  1  'x, y, z'
loop_
 _atom_site_type_symbol
 _atom_site_label
 _atom_site_symmetry_multiplicity
 _atom_site_fract_x
 _atom_site_fract_y
 _atom_site_fract_z
 _atom_site_occupancy
  Dy  Dy0  1  0.500859  0.500859  0.250000  1
  Dy  Dy1  1  0.499141  0.499141  0.750000  1
  Dy  Dy2  1  0.251255  0.748745  0.500000  1
  Dy  Dy3  1  0.251255  0.748745  0.000000  1
  Dy  Dy4  1  0.748745  0.251255  0.500000  1
  Dy  Dy5  1  0.748745  0.251255  0.000000  1
  Y  Y6  1  0.997464  0.997464  0.250000  1
  Y  Y7  1  0.002536  0.002536  0.750000  1
  Ag  Ag8  1  0.248208  0.248208  0.001199  1
  Ag  Ag9  1  0.751792  0.751792  0.998801  1
  Ag  Ag10  1  0.248208  0.248208  0.498801  1
  Ag  Ag11  1  0.751792  0.751792  0.501199  1
  Ag  Ag12  1  0.497618  0.000959  0.250000  1
  Ag  Ag13  1  0.999041  0.502382  0.750000  1
  Ag  Ag14  1  0.502382  0.999041  0.750000  1
  Ag  Ag15  1  0.000959  0.497618  0.250000  1
