# generated using pymatgen
data_Tb7Dy3Cd3Os
_symmetry_space_group_name_H-M   'P 1'
_cell_length_a   9.63441000
_cell_length_b   9.63440930
_cell_length_c   9.90443200
_cell_angle_alpha   90.00000000
_cell_angle_beta   90.00000000
_cell_angle_gamma   120.00000241
_symmetry_Int_Tables_number   1
_chemical_formula_structural   Tb7Dy3Cd3Os
_chemical_formula_sum   'Tb14 Dy6 Cd6 Os2'
_cell_volume   796.17843890
_cell_formula_units_Z   2
loop_
 _symmetry_equiv_pos_site_id
 _symmetry_equiv_pos_as_xyz
  1  'x, y, z'
loop_
 _atom_site_type_symbol
 _atom_site_label
 _atom_site_symmetry_multiplicity
 _atom_site_fract_x
 _atom_site_fract_y
 _atom_site_fract_z
 _atom_site_occupancy
  Tb  Tb0  1  0.000000  0.000000  0.500000  1
  Tb  Tb1  1  0.000000  0.000000  0.000000  1
  Tb  Tb2  1  0.790114  0.209886  0.940143  1
  Tb  Tb3  1  0.790114  0.580230  0.940143  1
  Tb  Tb4  1  0.419770  0.209886  0.940143  1
  Tb  Tb5  1  0.209886  0.790114  0.059857  1
  Tb  Tb6  1  0.209886  0.419770  0.059857  1
  Tb  Tb7  1  0.580230  0.790114  0.059857  1
  Tb  Tb8  1  0.539914  0.460086  0.250561  1
  Tb  Tb9  1  0.539914  0.079829  0.250561  1
  Tb  Tb10  1  0.920171  0.460086  0.250561  1
  Tb  Tb11  1  0.460086  0.539914  0.749439  1
  Tb  Tb12  1  0.460086  0.920171  0.749439  1
  Tb  Tb13  1  0.079829  0.539914  0.749439  1
  Dy  Dy14  1  0.209981  0.790019  0.440532  1
  Dy  Dy15  1  0.209981  0.419962  0.440532  1
  Dy  Dy16  1  0.580038  0.790019  0.440532  1
  Dy  Dy17  1  0.790019  0.209981  0.559468  1
  Dy  Dy18  1  0.790019  0.580038  0.559468  1
  Dy  Dy19  1  0.419962  0.209981  0.559468  1
  Cd  Cd20  1  0.885640  0.114360  0.249982  1
  Cd  Cd21  1  0.885640  0.771282  0.249982  1
  Cd  Cd22  1  0.228718  0.114360  0.249982  1
  Cd  Cd23  1  0.114360  0.885640  0.750018  1
  Cd  Cd24  1  0.114360  0.228718  0.750018  1
  Cd  Cd25  1  0.771282  0.885640  0.750018  1
  Os  Os26  1  0.333333  0.666667  0.250430  1
  Os  Os27  1  0.666667  0.333333  0.749570  1
