# generated using pymatgen
data_La3Nd5(SiBr6)2
_symmetry_space_group_name_H-M   'P 1'
_cell_length_a   4.24778900
_cell_length_b   13.80925110
_cell_length_c   14.66432895
_cell_angle_alpha   90.17461404
_cell_angle_beta   90.00000000
_cell_angle_gamma   90.00000000
_symmetry_Int_Tables_number   1
_chemical_formula_structural   La3Nd5(SiBr6)2
_chemical_formula_sum   'La3 Nd5 Si2 Br12'
_cell_volume   860.18772342
_cell_formula_units_Z   1
loop_
 _symmetry_equiv_pos_site_id
 _symmetry_equiv_pos_as_xyz
  1  'x, y, z'
loop_
 _atom_site_type_symbol
 _atom_site_label
 _atom_site_symmetry_multiplicity
 _atom_site_fract_x
 _atom_site_fract_y
 _atom_site_fract_z
 _atom_site_occupancy
  La  La0  1  0.500000  0.120693  0.338222  1
  La  La1  1  0.500000  0.879305  0.661797  1
  La  La2  1  0.500000  0.620589  0.161814  1
  Nd  Nd3  1  0.500000  0.380955  0.840500  1
  Nd  Nd4  1  0.000000  0.119437  0.579204  1
  Nd  Nd5  1  0.000000  0.881790  0.421759  1
  Nd  Nd6  1  0.000000  0.617401  0.920495  1
  Nd  Nd7  1  0.000000  0.380744  0.076986  1
  Si  Si8  1  0.500000  0.000364  0.500267  1
  Si  Si9  1  0.500000  0.499882  0.999815  1
  Br  Br10  1  0.500000  0.245143  0.160504  1
  Br  Br11  1  0.500000  0.754755  0.839358  1
  Br  Br12  1  0.500000  0.744641  0.338987  1
  Br  Br13  1  0.500000  0.255987  0.662470  1
  Br  Br14  1  0.000000  0.255314  0.413870  1
  Br  Br15  1  0.000000  0.744653  0.586109  1
  Br  Br16  1  0.000000  0.754963  0.086153  1
  Br  Br17  1  0.000000  0.247272  0.910679  1
  Br  Br18  1  0.000000  0.998964  0.244396  1
  Br  Br19  1  0.000000  0.000885  0.755679  1
  Br  Br20  1  0.000000  0.499208  0.255059  1
  Br  Br21  1  0.000000  0.497056  0.745879  1
