# generated using pymatgen
data_NdEu3MnW3O14
_symmetry_space_group_name_H-M   'P 1'
_cell_length_a   7.58400990
_cell_length_b   7.44506381
_cell_length_c   7.58401168
_cell_angle_alpha   59.07233819
_cell_angle_beta   59.79773397
_cell_angle_gamma   59.07233878
_symmetry_Int_Tables_number   1
_chemical_formula_structural   NdEu3MnW3O14
_chemical_formula_sum   'Nd1 Eu3 Mn1 W3 O14'
_cell_volume   298.03570886
_cell_formula_units_Z   1
loop_
 _symmetry_equiv_pos_site_id
 _symmetry_equiv_pos_as_xyz
  1  'x, y, z'
loop_
 _atom_site_type_symbol
 _atom_site_label
 _atom_site_symmetry_multiplicity
 _atom_site_fract_x
 _atom_site_fract_y
 _atom_site_fract_z
 _atom_site_occupancy
  Nd  Nd0  1  0.125000  0.125000  0.125000  1
  Eu  Eu1  1  0.125000  0.625000  0.125000  1
  Eu  Eu2  1  0.125000  0.125000  0.625000  1
  Eu  Eu3  1  0.625000  0.125000  0.125000  1
  Mn  Mn4  1  0.625000  0.125000  0.625000  1
  W  W5  1  0.625000  0.625000  0.625000  1
  W  W6  1  0.125000  0.625000  0.625000  1
  W  W7  1  0.625000  0.625000  0.125000  1
  O  O8  1  0.299928  0.687918  0.710616  1
  O  O9  1  0.537939  0.945832  0.973904  1
  O  O10  1  0.710616  0.687918  0.299928  1
  O  O11  1  0.276096  0.304168  0.712061  1
  O  O12  1  0.999051  0.002324  0.999051  1
  O  O13  1  0.298819  0.690722  0.298819  1
  O  O14  1  0.708128  0.305522  0.708128  1
  O  O15  1  0.951181  0.559278  0.951181  1
  O  O16  1  0.539384  0.562082  0.950072  1
  O  O17  1  0.973904  0.945832  0.537939  1
  O  O18  1  0.250949  0.247676  0.250949  1
  O  O19  1  0.541872  0.944478  0.541872  1
  O  O20  1  0.712061  0.304168  0.276096  1
  O  O21  1  0.950072  0.562082  0.539384  1
