# generated using pymatgen
data_TaMn2SnRu4
_symmetry_space_group_name_H-M   'P 1'
_cell_length_a   6.23425000
_cell_length_b   4.39909300
_cell_length_c   8.81725400
_cell_angle_alpha   90.00000000
_cell_angle_beta   89.99993075
_cell_angle_gamma   90.00000000
_symmetry_Int_Tables_number   1
_chemical_formula_structural   TaMn2SnRu4
_chemical_formula_sum   'Ta2 Mn4 Sn2 Ru8'
_cell_volume   241.81359245
_cell_formula_units_Z   2
loop_
 _symmetry_equiv_pos_site_id
 _symmetry_equiv_pos_as_xyz
  1  'x, y, z'
loop_
 _atom_site_type_symbol
 _atom_site_label
 _atom_site_symmetry_multiplicity
 _atom_site_fract_x
 _atom_site_fract_y
 _atom_site_fract_z
 _atom_site_occupancy
  Ta  Ta0  1  0.750004  0.249999  0.626533  1
  Ta  Ta1  1  0.250008  0.749999  0.873475  1
  Mn  Mn2  1  0.250001  0.249999  0.124598  1
  Mn  Mn3  1  0.749993  0.749999  0.375413  1
  Mn  Mn4  1  0.250008  0.249999  0.626312  1
  Mn  Mn5  1  0.750003  0.749999  0.873695  1
  Sn  Sn6  1  0.749995  0.249999  0.126555  1
  Sn  Sn7  1  0.249997  0.749999  0.373431  1
  Ru  Ru8  1  0.005583  0.749999  0.116566  1
  Ru  Ru9  1  0.494409  0.749999  0.116571  1
  Ru  Ru10  1  0.994473  0.249999  0.383418  1
  Ru  Ru11  1  0.505519  0.249999  0.383422  1
  Ru  Ru12  1  0.503026  0.749999  0.628570  1
  Ru  Ru13  1  0.996977  0.749999  0.628575  1
  Ru  Ru14  1  0.496922  0.249999  0.871431  1
  Ru  Ru15  1  0.003082  0.249999  0.871430  1
