# generated using pymatgen
data_LuTh3Al17GaIr6
_symmetry_space_group_name_H-M   'P 1'
_cell_length_a   7.62547718
_cell_length_b   7.63512102
_cell_length_c   9.50191500
_cell_angle_alpha   90.00000000
_cell_angle_beta   90.00000000
_cell_angle_gamma   119.43281339
_symmetry_Int_Tables_number   1
_chemical_formula_structural   LuTh3Al17GaIr6
_chemical_formula_sum   'Lu1 Th3 Al17 Ga1 Ir6'
_cell_volume   481.81309848
_cell_formula_units_Z   1
loop_
 _symmetry_equiv_pos_site_id
 _symmetry_equiv_pos_as_xyz
  1  'x, y, z'
loop_
 _atom_site_type_symbol
 _atom_site_label
 _atom_site_symmetry_multiplicity
 _atom_site_fract_x
 _atom_site_fract_y
 _atom_site_fract_z
 _atom_site_occupancy
  Lu  Lu0  1  0.327928  0.005907  0.750000  1
  Th  Th1  1  0.994931  0.672940  0.250000  1
  Th  Th2  1  0.003401  0.328715  0.750000  1
  Th  Th3  1  0.671659  0.993892  0.250000  1
  Al  Al4  1  0.870427  0.869071  0.750000  1
  Al  Al5  1  0.006026  0.336141  0.074485  1
  Al  Al6  1  0.001133  0.670074  0.921642  1
  Al  Al7  1  0.001133  0.670074  0.578358  1
  Al  Al8  1  0.335720  0.004463  0.432495  1
  Al  Al9  1  0.006026  0.336141  0.425515  1
  Al  Al10  1  0.658448  0.995392  0.578274  1
  Al  Al11  1  0.658448  0.995392  0.921726  1
  Al  Al12  1  0.335720  0.004463  0.067505  1
  Al  Al13  1  0.336153  0.332169  0.555494  1
  Al  Al14  1  0.663016  0.662814  0.455416  1
  Al  Al15  1  0.663016  0.662814  0.044584  1
  Al  Al16  1  0.336153  0.332169  0.944506  1
  Al  Al17  1  0.341085  0.544436  0.250000  1
  Al  Al18  1  0.656113  0.449543  0.750000  1
  Al  Al19  1  0.544275  0.337224  0.250000  1
  Al  Al20  1  0.452652  0.662595  0.750000  1
  Ga  Ga21  1  0.138985  0.135665  0.250000  1
  Ir  Ir22  1  0.673253  0.327976  0.999754  1
  Ir  Ir23  1  0.327036  0.671209  0.000153  1
  Ir  Ir24  1  0.327036  0.671209  0.499847  1
  Ir  Ir25  1  0.673253  0.327976  0.500246  1
  Ir  Ir26  1  0.998486  0.999770  0.997609  1
  Ir  Ir27  1  0.998486  0.999770  0.502391  1
