# generated using pymatgen
data_TmCrFe4P3
_symmetry_space_group_name_H-M   'P 1'
_cell_length_a   3.64735400
_cell_length_b   10.32627300
_cell_length_c   11.82888000
_cell_angle_alpha   90.00000000
_cell_angle_beta   90.00000000
_cell_angle_gamma   90.00000000
_symmetry_Int_Tables_number   1
_chemical_formula_structural   TmCrFe4P3
_chemical_formula_sum   'Tm4 Cr4 Fe16 P12'
_cell_volume   445.51788695
_cell_formula_units_Z   4
loop_
 _symmetry_equiv_pos_site_id
 _symmetry_equiv_pos_as_xyz
  1  'x, y, z'
loop_
 _atom_site_type_symbol
 _atom_site_label
 _atom_site_symmetry_multiplicity
 _atom_site_fract_x
 _atom_site_fract_y
 _atom_site_fract_z
 _atom_site_occupancy
  Tm  Tm0  1  0.250000  0.580411  0.704883  1
  Tm  Tm1  1  0.250000  0.919589  0.204883  1
  Tm  Tm2  1  0.750000  0.419589  0.295117  1
  Tm  Tm3  1  0.750000  0.080411  0.795117  1
  Cr  Cr4  1  0.250000  0.703010  0.989806  1
  Cr  Cr5  1  0.250000  0.796990  0.489806  1
  Cr  Cr6  1  0.750000  0.296990  0.010194  1
  Cr  Cr7  1  0.750000  0.203010  0.510194  1
  Fe  Fe8  1  0.250000  0.405458  0.489796  1
  Fe  Fe9  1  0.250000  0.094542  0.989796  1
  Fe  Fe10  1  0.750000  0.594542  0.510204  1
  Fe  Fe11  1  0.750000  0.905458  0.010204  1
  Fe  Fe12  1  0.250000  0.219044  0.174607  1
  Fe  Fe13  1  0.250000  0.280956  0.674607  1
  Fe  Fe14  1  0.750000  0.780956  0.825393  1
  Fe  Fe15  1  0.750000  0.719044  0.325393  1
  Fe  Fe16  1  0.250000  0.874257  0.702482  1
  Fe  Fe17  1  0.250000  0.625743  0.202482  1
  Fe  Fe18  1  0.750000  0.125743  0.297518  1
  Fe  Fe19  1  0.750000  0.374257  0.797518  1
  Fe  Fe20  1  0.250000  0.463233  0.932128  1
  Fe  Fe21  1  0.250000  0.036767  0.432128  1
  Fe  Fe22  1  0.750000  0.536767  0.067872  1
  Fe  Fe23  1  0.750000  0.963233  0.567872  1
  P  P24  1  0.250000  0.423904  0.113415  1
  P  P25  1  0.250000  0.076096  0.613415  1
  P  P26  1  0.750000  0.576096  0.886585  1
  P  P27  1  0.750000  0.923904  0.386585  1
  P  P28  1  0.250000  0.264127  0.868854  1
  P  P29  1  0.250000  0.235873  0.368854  1
  P  P30  1  0.750000  0.735873  0.131146  1
  P  P31  1  0.750000  0.764127  0.631146  1
  P  P32  1  0.250000  0.596842  0.394117  1
  P  P33  1  0.250000  0.903158  0.894117  1
  P  P34  1  0.750000  0.403158  0.605883  1
  P  P35  1  0.750000  0.096842  0.105883  1
