# generated using pymatgen
data_NbAuF10
_symmetry_space_group_name_H-M   'P 1'
_cell_length_a   5.83651159
_cell_length_b   7.59572190
_cell_length_c   9.97822315
_cell_angle_alpha   87.78543548
_cell_angle_beta   106.19276730
_cell_angle_gamma   99.39767790
_symmetry_Int_Tables_number   1
_chemical_formula_structural   NbAuF10
_chemical_formula_sum   'Nb2 Au2 F20'
_cell_volume   419.09829184
_cell_formula_units_Z   2
loop_
 _symmetry_equiv_pos_site_id
 _symmetry_equiv_pos_as_xyz
  1  'x, y, z'
loop_
 _atom_site_type_symbol
 _atom_site_label
 _atom_site_symmetry_multiplicity
 _atom_site_fract_x
 _atom_site_fract_y
 _atom_site_fract_z
 _atom_site_occupancy
  Nb  Nb0  1  0.334279  0.378970  0.218481  1
  Nb  Nb1  1  0.665721  0.621030  0.781519  1
  Au  Au2  1  0.962079  0.753895  0.312410  1
  Au  Au3  1  0.037921  0.246105  0.687590  1
  F  F4  1  0.025675  0.248633  0.167272  1
  F  F5  1  0.974325  0.751367  0.832728  1
  F  F6  1  0.495698  0.220916  0.158352  1
  F  F7  1  0.504302  0.779084  0.841648  1
  F  F8  1  0.116222  0.215353  0.889421  1
  F  F9  1  0.883778  0.784647  0.110579  1
  F  F10  1  0.958337  0.279161  0.486736  1
  F  F11  1  0.041663  0.720839  0.513264  1
  F  F12  1  0.770598  0.055724  0.663026  1
  F  F13  1  0.229402  0.944276  0.336974  1
  F  F14  1  0.247994  0.082861  0.674971  1
  F  F15  1  0.752006  0.917139  0.325029  1
  F  F16  1  0.310733  0.450248  0.708780  1
  F  F17  1  0.689267  0.549752  0.291220  1
  F  F18  1  0.816453  0.420181  0.695027  1
  F  F19  1  0.183547  0.579819  0.304973  1
  F  F20  1  0.690721  0.450475  0.924762  1
  F  F21  1  0.309279  0.549525  0.075238  1
  F  F22  1  0.573267  0.666190  0.589612  1
  F  F23  1  0.426733  0.333810  0.410388  1
