# generated using pymatgen
data_LuHf2Be2Ir5
_symmetry_space_group_name_H-M   'P 1'
_cell_length_a   9.59024000
_cell_length_b   9.59193800
_cell_length_c   3.30367600
_cell_angle_alpha   90.00000000
_cell_angle_beta   90.00000000
_cell_angle_gamma   90.00000000
_symmetry_Int_Tables_number   1
_chemical_formula_structural   LuHf2Be2Ir5
_chemical_formula_sum   'Lu2 Hf4 Be4 Ir10'
_cell_volume   303.90181022
_cell_formula_units_Z   2
loop_
 _symmetry_equiv_pos_site_id
 _symmetry_equiv_pos_as_xyz
  1  'x, y, z'
loop_
 _atom_site_type_symbol
 _atom_site_label
 _atom_site_symmetry_multiplicity
 _atom_site_fract_x
 _atom_site_fract_y
 _atom_site_fract_z
 _atom_site_occupancy
  Lu  Lu0  1  0.175241  0.674860  0.000000  1
  Lu  Lu1  1  0.324759  0.174860  0.000000  1
  Hf  Hf2  1  0.825990  0.324753  0.000000  1
  Hf  Hf3  1  0.498718  0.499041  0.000000  1
  Hf  Hf4  1  0.674010  0.824753  0.000000  1
  Hf  Hf5  1  0.001282  0.999041  0.000000  1
  Be  Be6  1  0.382227  0.880390  0.000000  1
  Be  Be7  1  0.117773  0.380390  0.000000  1
  Be  Be8  1  0.877853  0.619422  0.000000  1
  Be  Be9  1  0.622147  0.119422  0.000000  1
  Ir  Ir10  1  0.219656  0.930850  0.500000  1
  Ir  Ir11  1  0.921285  0.784174  0.500000  1
  Ir  Ir12  1  0.437048  0.718168  0.500000  1
  Ir  Ir13  1  0.578715  0.284174  0.500000  1
  Ir  Ir14  1  0.714128  0.571375  0.500000  1
  Ir  Ir15  1  0.280344  0.430850  0.500000  1
  Ir  Ir16  1  0.062952  0.218168  0.500000  1
  Ir  Ir17  1  0.992322  0.496968  0.500000  1
  Ir  Ir18  1  0.507678  0.996968  0.500000  1
  Ir  Ir19  1  0.785872  0.071375  0.500000  1
