# generated using pymatgen
data_Ho4Al24Pt8Rh
_symmetry_space_group_name_H-M   'P 1'
_cell_length_a   7.51754068
_cell_length_b   7.53905011
_cell_length_c   13.16465165
_cell_angle_alpha   84.62054745
_cell_angle_beta   79.11689422
_cell_angle_gamma   59.92007110
_symmetry_Int_Tables_number   1
_chemical_formula_structural   Ho4Al24Pt8Rh
_chemical_formula_sum   'Ho4 Al24 Pt8 Rh1'
_cell_volume   634.01524958
_cell_formula_units_Z   1
loop_
 _symmetry_equiv_pos_site_id
 _symmetry_equiv_pos_as_xyz
  1  'x, y, z'
loop_
 _atom_site_type_symbol
 _atom_site_label
 _atom_site_symmetry_multiplicity
 _atom_site_fract_x
 _atom_site_fract_y
 _atom_site_fract_z
 _atom_site_occupancy
  Ho  Ho0  1  0.394396  0.167909  0.808659  1
  Ho  Ho1  1  0.605604  0.832091  0.191341  1
  Ho  Ho2  1  0.733202  0.498413  0.808690  1
  Ho  Ho3  1  0.266798  0.501587  0.191310  1
  Al  Al4  1  0.687240  0.830208  0.945539  1
  Al  Al5  1  0.312760  0.169792  0.054461  1
  Al  Al6  1  0.146559  0.832090  0.561692  1
  Al  Al7  1  0.853441  0.167910  0.438308  1
  Al  Al8  1  0.480125  0.166661  0.558957  1
  Al  Al9  1  0.519875  0.833339  0.441043  1
  Al  Al10  1  0.217224  0.165426  0.327655  1
  Al  Al11  1  0.782776  0.834574  0.672345  1
  Al  Al12  1  0.435946  0.507222  0.672232  1
  Al  Al13  1  0.564054  0.492778  0.327768  1
  Al  Al14  1  0.109277  0.160194  0.670194  1
  Al  Al15  1  0.890723  0.839806  0.329806  1
  Al  Al16  1  0.349291  0.499060  0.945658  1
  Al  Al17  1  0.650709  0.500940  0.054342  1
  Al  Al18  1  0.015318  0.172184  0.954407  1
  Al  Al19  1  0.984682  0.827816  0.045593  1
  Al  Al20  1  0.186574  0.499382  0.441109  1
  Al  Al21  1  0.813426  0.500618  0.558891  1
  Al  Al22  1  0.734778  0.163941  0.182861  1
  Al  Al23  1  0.265222  0.836059  0.817139  1
  Al  Al24  1  0.060819  0.628110  0.818125  1
  Al  Al25  1  0.939181  0.371890  0.181875  1
  Al  Al26  1  0.855934  0.041206  0.816769  1
  Al  Al27  1  0.144066  0.958794  0.183231  1
  Pt  Pt28  1  0.119989  0.491976  0.638870  1
  Pt  Pt29  1  0.880011  0.508024  0.361130  1
  Pt  Pt30  1  0.656839  0.171573  0.999836  1
  Pt  Pt31  1  0.343161  0.828427  0.000164  1
  Pt  Pt32  1  0.537412  0.166799  0.361269  1
  Pt  Pt33  1  0.462588  0.833201  0.638731  1
  Pt  Pt34  1  0.778415  0.175315  0.637450  1
  Pt  Pt35  1  0.221585  0.824685  0.362550  1
  Rh  Rh36  1  0.000000  0.500000  0.000000  1
