# generated using pymatgen
data_Zr4Al4NiMo3
_symmetry_space_group_name_H-M   'P 1'
_cell_length_a   5.23852230
_cell_length_b   5.23852314
_cell_length_c   8.77113500
_cell_angle_alpha   90.00000000
_cell_angle_beta   90.00000000
_cell_angle_gamma   119.00547142
_symmetry_Int_Tables_number   1
_chemical_formula_structural   Zr4Al4NiMo3
_chemical_formula_sum   'Zr4 Al4 Ni1 Mo3'
_cell_volume   210.50854354
_cell_formula_units_Z   1
loop_
 _symmetry_equiv_pos_site_id
 _symmetry_equiv_pos_as_xyz
  1  'x, y, z'
loop_
 _atom_site_type_symbol
 _atom_site_label
 _atom_site_symmetry_multiplicity
 _atom_site_fract_x
 _atom_site_fract_y
 _atom_site_fract_z
 _atom_site_occupancy
  Zr  Zr0  1  0.334267  0.665733  0.183934  1
  Zr  Zr1  1  0.664966  0.335034  0.313601  1
  Zr  Zr2  1  0.664966  0.335034  0.686399  1
  Zr  Zr3  1  0.334267  0.665733  0.816066  1
  Al  Al4  1  0.993388  0.006612  0.240098  1
  Al  Al5  1  0.993388  0.006612  0.759902  1
  Al  Al6  1  0.836910  0.646266  0.000000  1
  Al  Al7  1  0.353734  0.163090  0.000000  1
  Ni  Ni8  1  0.836651  0.163349  0.000000  1
  Mo  Mo9  1  0.165326  0.342648  0.500000  1
  Mo  Mo10  1  0.657352  0.834674  0.500000  1
  Mo  Mo11  1  0.164938  0.835062  0.500000  1
