# generated using pymatgen
data_Er3ScGa2Pt3
_symmetry_space_group_name_H-M   'P 1'
_cell_length_a   7.19111204
_cell_length_b   7.19111119
_cell_length_c   4.11281700
_cell_angle_alpha   90.00000000
_cell_angle_beta   90.00000000
_cell_angle_gamma   120.14566722
_symmetry_Int_Tables_number   1
_chemical_formula_structural   Er3ScGa2Pt3
_chemical_formula_sum   'Er3 Sc1 Ga2 Pt3'
_cell_volume   183.91736195
_cell_formula_units_Z   1
loop_
 _symmetry_equiv_pos_site_id
 _symmetry_equiv_pos_as_xyz
  1  'x, y, z'
loop_
 _atom_site_type_symbol
 _atom_site_label
 _atom_site_symmetry_multiplicity
 _atom_site_fract_x
 _atom_site_fract_y
 _atom_site_fract_z
 _atom_site_occupancy
  Er  Er0  1  0.391545  0.391545  0.500000  1
  Er  Er1  1  0.582573  0.012090  0.500000  1
  Er  Er2  1  0.012090  0.582573  0.500000  1
  Sc  Sc3  1  0.763385  0.763385  0.000000  1
  Ga  Ga4  1  0.248064  0.997239  0.000000  1
  Ga  Ga5  1  0.997239  0.248064  0.000000  1
  Pt  Pt6  1  0.667018  0.337927  0.000000  1
  Pt  Pt7  1  0.337927  0.667018  0.000000  1
  Pt  Pt8  1  0.000162  0.000162  0.500000  1
