# generated using pymatgen
data_Tb3HoAl18MoPd5
_symmetry_space_group_name_H-M   'P 1'
_cell_length_a   7.63887433
_cell_length_b   7.64126538
_cell_length_c   9.55757932
_cell_angle_alpha   89.69076550
_cell_angle_beta   89.66526250
_cell_angle_gamma   118.96709095
_symmetry_Int_Tables_number   1
_chemical_formula_structural   Tb3HoAl18MoPd5
_chemical_formula_sum   'Tb3 Ho1 Al18 Mo1 Pd5'
_cell_volume   488.06018760
_cell_formula_units_Z   1
loop_
 _symmetry_equiv_pos_site_id
 _symmetry_equiv_pos_as_xyz
  1  'x, y, z'
loop_
 _atom_site_type_symbol
 _atom_site_label
 _atom_site_symmetry_multiplicity
 _atom_site_fract_x
 _atom_site_fract_y
 _atom_site_fract_z
 _atom_site_occupancy
  Tb  Tb0  1  0.995258  0.676723  0.247900  1
  Tb  Tb1  1  0.004987  0.323248  0.752049  1
  Tb  Tb2  1  0.676541  0.995074  0.247985  1
  Ho  Ho3  1  0.322791  0.004894  0.752353  1
  Al  Al4  1  0.133885  0.133807  0.248395  1
  Al  Al5  1  0.866674  0.866333  0.751539  1
  Al  Al6  1  0.002620  0.334162  0.075926  1
  Al  Al7  1  0.998037  0.666392  0.923653  1
  Al  Al8  1  0.998495  0.661884  0.578592  1
  Al  Al9  1  0.338452  0.001854  0.422141  1
  Al  Al10  1  0.001907  0.338562  0.421771  1
  Al  Al11  1  0.660990  0.998093  0.578609  1
  Al  Al12  1  0.665336  0.997446  0.923728  1
  Al  Al13  1  0.334224  0.002585  0.075425  1
  Al  Al14  1  0.333824  0.333407  0.555056  1
  Al  Al15  1  0.666191  0.666186  0.445455  1
  Al  Al16  1  0.667833  0.667817  0.052567  1
  Al  Al17  1  0.332226  0.331716  0.946952  1
  Al  Al18  1  0.342039  0.549729  0.250143  1
  Al  Al19  1  0.657596  0.449735  0.749857  1
  Al  Al20  1  0.549715  0.341925  0.250162  1
  Al  Al21  1  0.450088  0.658279  0.749855  1
  Mo  Mo22  1  0.000301  0.000091  0.999668  1
  Pd  Pd23  1  0.672163  0.327802  0.999930  1
  Pd  Pd24  1  0.327808  0.672234  0.999916  1
  Pd  Pd25  1  0.327953  0.672151  0.500108  1
  Pd  Pd26  1  0.671929  0.327852  0.500110  1
  Pd  Pd27  1  0.000140  0.000019  0.500155  1
