# generated using pymatgen
data_Y9Tm11Pb16
_symmetry_space_group_name_H-M   'P 1'
_cell_length_a   8.15528842
_cell_length_b   8.24622522
_cell_length_c   15.54643371
_cell_angle_alpha   90.01912819
_cell_angle_beta   90.08434867
_cell_angle_gamma   90.04946877
_symmetry_Int_Tables_number   1
_chemical_formula_structural   Y9Tm11Pb16
_chemical_formula_sum   'Y9 Tm11 Pb16'
_cell_volume   1045.50145061
_cell_formula_units_Z   1
loop_
 _symmetry_equiv_pos_site_id
 _symmetry_equiv_pos_as_xyz
  1  'x, y, z'
loop_
 _atom_site_type_symbol
 _atom_site_label
 _atom_site_symmetry_multiplicity
 _atom_site_fract_x
 _atom_site_fract_y
 _atom_site_fract_z
 _atom_site_occupancy
  Y  Y0  1  0.129372  0.341805  0.621334  1
  Y  Y1  1  0.470912  0.678102  0.597641  1
  Y  Y2  1  0.972177  0.822024  0.903207  1
  Y  Y3  1  0.528359  0.322431  0.097118  1
  Y  Y4  1  0.029776  0.176875  0.401555  1
  Y  Y5  1  0.528447  0.322851  0.402222  1
  Y  Y6  1  0.027771  0.177581  0.097171  1
  Y  Y7  1  0.472054  0.677650  0.903046  1
  Y  Y8  1  0.970920  0.822675  0.597505  1
  Tm  Tm9  1  0.629797  0.158048  0.622352  1
  Tm  Tm10  1  0.130274  0.342421  0.878176  1
  Tm  Tm11  1  0.369460  0.842563  0.122075  1
  Tm  Tm12  1  0.869752  0.657670  0.377951  1
  Tm  Tm13  1  0.370842  0.842085  0.377203  1
  Tm  Tm14  1  0.870020  0.657667  0.122260  1
  Tm  Tm15  1  0.630120  0.157578  0.878365  1
  Tm  Tm16  1  0.797628  0.494967  0.750200  1
  Tm  Tm17  1  0.298239  0.004710  0.750320  1
  Tm  Tm18  1  0.202243  0.505461  0.249846  1
  Tm  Tm19  1  0.702146  0.995169  0.250115  1
  Pb  Pb20  1  0.712330  0.962488  0.457294  1
  Pb  Pb21  1  0.211461  0.538491  0.042623  1
  Pb  Pb22  1  0.288662  0.038651  0.957603  1
  Pb  Pb23  1  0.785666  0.462691  0.542313  1
  Pb  Pb24  1  0.288900  0.035729  0.542233  1
  Pb  Pb25  1  0.788777  0.461525  0.957552  1
  Pb  Pb26  1  0.711462  0.961153  0.042819  1
  Pb  Pb27  1  0.211969  0.539280  0.456293  1
  Pb  Pb28  1  0.435813  0.374746  0.750909  1
  Pb  Pb29  1  0.934957  0.124286  0.750790  1
  Pb  Pb30  1  0.564652  0.625223  0.249512  1
  Pb  Pb31  1  0.064479  0.874667  0.250051  1
  Pb  Pb32  1  0.659409  0.845618  0.750524  1
  Pb  Pb33  1  0.159246  0.654835  0.750464  1
  Pb  Pb34  1  0.340982  0.154680  0.249548  1
  Pb  Pb35  1  0.840927  0.345608  0.249809  1
