# generated using pymatgen
data_La7PrZn8PdRh7
_symmetry_space_group_name_H-M   'P 1'
_cell_length_a   4.06243900
_cell_length_b   7.45518869
_cell_length_c   16.74682006
_cell_angle_alpha   90.13956939
_cell_angle_beta   90.00000000
_cell_angle_gamma   90.00000000
_symmetry_Int_Tables_number   1
_chemical_formula_structural   La7PrZn8PdRh7
_chemical_formula_sum   'La7 Pr1 Zn8 Pd1 Rh7'
_cell_volume   507.19686206
_cell_formula_units_Z   1
loop_
 _symmetry_equiv_pos_site_id
 _symmetry_equiv_pos_as_xyz
  1  'x, y, z'
loop_
 _atom_site_type_symbol
 _atom_site_label
 _atom_site_symmetry_multiplicity
 _atom_site_fract_x
 _atom_site_fract_y
 _atom_site_fract_z
 _atom_site_occupancy
  La  La0  1  0.750000  0.452255  0.215657  1
  La  La1  1  0.750000  0.951311  0.283403  1
  La  La2  1  0.750000  0.828281  0.059910  1
  La  La3  1  0.250000  0.044048  0.720231  1
  La  La4  1  0.250000  0.171418  0.941095  1
  La  La5  1  0.250000  0.549110  0.784634  1
  La  La6  1  0.250000  0.674602  0.558899  1
  Pr  Pr7  1  0.750000  0.331506  0.435664  1
  Zn  Zn8  1  0.250000  0.998390  0.437950  1
  Zn  Zn9  1  0.750000  0.501972  0.940518  1
  Zn  Zn10  1  0.750000  0.001377  0.559124  1
  Zn  Zn11  1  0.250000  0.623958  0.350381  1
  Zn  Zn12  1  0.750000  0.377018  0.652579  1
  Zn  Zn13  1  0.750000  0.873452  0.851735  1
  Zn  Zn14  1  0.250000  0.498472  0.059335  1
  Zn  Zn15  1  0.250000  0.126099  0.149799  1
  Pd  Pd16  1  0.250000  0.241291  0.566867  1
  Rh  Rh17  1  0.750000  0.258120  0.065284  1
  Rh  Rh18  1  0.250000  0.243654  0.313671  1
  Rh  Rh19  1  0.750000  0.253466  0.812822  1
  Rh  Rh20  1  0.250000  0.742700  0.934639  1
  Rh  Rh21  1  0.750000  0.754897  0.684761  1
  Rh  Rh22  1  0.750000  0.756602  0.435255  1
  Rh  Rh23  1  0.250000  0.746002  0.185786  1
