# generated using pymatgen
data_Sc12Ni2OsBr16
_symmetry_space_group_name_H-M   'P 1'
_cell_length_a   8.83593399
_cell_length_b   11.15373463
_cell_length_c   11.79537759
_cell_angle_alpha   117.21275817
_cell_angle_beta   101.48422062
_cell_angle_gamma   101.12259594
_symmetry_Int_Tables_number   1
_chemical_formula_structural   Sc12Ni2OsBr16
_chemical_formula_sum   'Sc12 Ni2 Os1 Br16'
_cell_volume   957.82731276
_cell_formula_units_Z   1
loop_
 _symmetry_equiv_pos_site_id
 _symmetry_equiv_pos_as_xyz
  1  'x, y, z'
loop_
 _atom_site_type_symbol
 _atom_site_label
 _atom_site_symmetry_multiplicity
 _atom_site_fract_x
 _atom_site_fract_y
 _atom_site_fract_z
 _atom_site_occupancy
  Sc  Sc0  1  0.081548  0.260209  0.352932  1
  Sc  Sc1  1  0.918452  0.739791  0.647068  1
  Sc  Sc2  1  0.780571  0.537095  0.322882  1
  Sc  Sc3  1  0.219429  0.462905  0.677118  1
  Sc  Sc4  1  0.277881  0.740168  0.647308  1
  Sc  Sc5  1  0.722119  0.259832  0.352692  1
  Sc  Sc6  1  0.140031  0.536823  0.323411  1
  Sc  Sc7  1  0.859969  0.463177  0.676589  1
  Sc  Sc8  1  0.402031  0.353118  0.265944  1
  Sc  Sc9  1  0.597969  0.646882  0.734056  1
  Sc  Sc10  1  0.457030  0.301304  0.520998  1
  Sc  Sc11  1  0.542970  0.698696  0.479002  1
  Ni  Ni12  1  0.346529  0.500020  0.499436  1
  Ni  Ni13  1  0.653472  0.499980  0.500564  1
  Os  Os14  1  0.000000  0.500000  0.500000  1
  Br  Br15  1  0.398523  0.741357  0.883915  1
  Br  Br16  1  0.601477  0.258643  0.116085  1
  Br  Br17  1  0.190140  0.968589  0.784691  1
  Br  Br18  1  0.809860  0.031411  0.215309  1
  Br  Br19  1  0.338165  0.094277  0.250723  1
  Br  Br20  1  0.661835  0.905723  0.749277  1
  Br  Br21  1  0.555346  0.438048  0.798737  1
  Br  Br22  1  0.444654  0.561952  0.201263  1
  Br  Br23  1  0.311028  0.827153  0.462858  1
  Br  Br24  1  0.688972  0.172847  0.537142  1
  Br  Br25  1  0.169057  0.170965  0.532967  1
  Br  Br26  1  0.830943  0.829035  0.467033  1
  Br  Br27  1  0.926324  0.577200  0.159187  1
  Br  Br28  1  0.073676  0.422800  0.840813  1
  Br  Br29  1  0.921744  0.739924  0.883957  1
  Br  Br30  1  0.078256  0.260076  0.116043  1
