# generated using pymatgen
data_DyTm7Sc11Si16Ru
_symmetry_space_group_name_H-M   'P 1'
_cell_length_a   6.95698202
_cell_length_b   7.31943922
_cell_length_c   13.81558263
_cell_angle_alpha   90.03462086
_cell_angle_beta   90.00192436
_cell_angle_gamma   90.12388050
_symmetry_Int_Tables_number   1
_chemical_formula_structural   DyTm7Sc11Si16Ru
_chemical_formula_sum   'Dy1 Tm7 Sc11 Si16 Ru1'
_cell_volume   703.50437066
_cell_formula_units_Z   1
loop_
 _symmetry_equiv_pos_site_id
 _symmetry_equiv_pos_as_xyz
  1  'x, y, z'
loop_
 _atom_site_type_symbol
 _atom_site_label
 _atom_site_symmetry_multiplicity
 _atom_site_fract_x
 _atom_site_fract_y
 _atom_site_fract_z
 _atom_site_occupancy
  Dy  Dy0  1  0.011740  0.178122  0.092476  1
  Tm  Tm1  1  0.992642  0.817050  0.901254  1
  Tm  Tm2  1  0.489529  0.674027  0.902854  1
  Tm  Tm3  1  0.992539  0.817033  0.598400  1
  Tm  Tm4  1  0.510583  0.323101  0.094144  1
  Tm  Tm5  1  0.011931  0.179178  0.406812  1
  Tm  Tm6  1  0.510791  0.322679  0.406116  1
  Tm  Tm7  1  0.489366  0.673853  0.596816  1
  Sc  Sc8  1  0.840864  0.495561  0.250290  1
  Sc  Sc9  1  0.342053  0.003700  0.250342  1
  Sc  Sc10  1  0.656776  0.994907  0.749972  1
  Sc  Sc11  1  0.325592  0.177041  0.627328  1
  Sc  Sc12  1  0.671684  0.824742  0.374573  1
  Sc  Sc13  1  0.172676  0.673869  0.376700  1
  Sc  Sc14  1  0.671823  0.824416  0.125788  1
  Sc  Sc15  1  0.826450  0.330864  0.628651  1
  Sc  Sc16  1  0.325856  0.176789  0.872435  1
  Sc  Sc17  1  0.826028  0.331357  0.871203  1
  Sc  Sc18  1  0.172720  0.673529  0.123585  1
  Si  Si19  1  0.028170  0.111952  0.749939  1
  Si  Si20  1  0.972939  0.886970  0.250419  1
  Si  Si21  1  0.469399  0.612888  0.250130  1
  Si  Si22  1  0.515121  0.398156  0.749904  1
  Si  Si23  1  0.284284  0.859194  0.749990  1
  Si  Si24  1  0.715577  0.131245  0.250782  1
  Si  Si25  1  0.215823  0.369787  0.250710  1
  Si  Si26  1  0.794628  0.631659  0.749889  1
  Si  Si27  1  0.158558  0.465998  0.546853  1
  Si  Si28  1  0.841924  0.535402  0.463534  1
  Si  Si29  1  0.343647  0.965195  0.463290  1
  Si  Si30  1  0.841552  0.536784  0.036083  1
  Si  Si31  1  0.660204  0.034300  0.539768  1
  Si  Si32  1  0.158683  0.467101  0.952698  1
  Si  Si33  1  0.659724  0.034139  0.960056  1
  Si  Si34  1  0.345523  0.964187  0.036388  1
  Ru  Ru35  1  0.152593  0.503224  0.749829  1
