# generated using pymatgen
data_Ba5Mo2N7
_symmetry_space_group_name_H-M   'P 1'
_cell_length_a   6.84531160
_cell_length_b   9.74836663
_cell_length_c   9.82798253
_cell_angle_alpha   114.72676788
_cell_angle_beta   97.48337964
_cell_angle_gamma   90.30932779
_symmetry_Int_Tables_number   1
_chemical_formula_structural   Ba5Mo2N7
_chemical_formula_sum   'Ba10 Mo4 N14'
_cell_volume   589.31571230
_cell_formula_units_Z   2
loop_
 _symmetry_equiv_pos_site_id
 _symmetry_equiv_pos_as_xyz
  1  'x, y, z'
loop_
 _atom_site_type_symbol
 _atom_site_label
 _atom_site_symmetry_multiplicity
 _atom_site_fract_x
 _atom_site_fract_y
 _atom_site_fract_z
 _atom_site_occupancy
  Ba  Ba0  1  0.860402  0.588038  0.332637  1
  Ba  Ba1  1  0.269074  0.988246  0.567647  1
  Ba  Ba2  1  0.705269  0.413945  0.848448  1
  Ba  Ba3  1  0.294731  0.586055  0.151552  1
  Ba  Ba4  1  0.402502  0.787765  0.915666  1
  Ba  Ba5  1  0.597498  0.212235  0.084334  1
  Ba  Ba6  1  0.139598  0.411962  0.667363  1
  Ba  Ba7  1  0.888452  0.841386  0.766770  1
  Ba  Ba8  1  0.111548  0.158614  0.233230  1
  Ba  Ba9  1  0.730926  0.011754  0.432353  1
  Mo  Mo10  1  0.575607  0.362586  0.475569  1
  Mo  Mo11  1  0.424393  0.637414  0.524431  1
  Mo  Mo12  1  0.119404  0.215682  0.906574  1
  Mo  Mo13  1  0.880596  0.784318  0.093426  1
  N  N14  1  0.552132  0.554939  0.667280  1
  N  N15  1  0.447868  0.445061  0.332720  1
  N  N16  1  0.173088  0.694177  0.568061  1
  N  N17  1  0.826912  0.305823  0.431939  1
  N  N18  1  0.420027  0.204664  0.472522  1
  N  N19  1  0.579973  0.795336  0.527478  1
  N  N20  1  0.954329  0.144272  0.716661  1
  N  N21  1  0.045671  0.855728  0.283339  1
  N  N22  1  0.227808  0.056535  0.948500  1
  N  N23  1  0.772192  0.943465  0.051500  1
  N  N24  1  0.337554  0.329912  0.898433  1
  N  N25  1  0.979919  0.336601  0.064779  1
  N  N26  1  0.020081  0.663399  0.935221  1
  N  N27  1  0.662446  0.670088  0.101567  1
