# generated using pymatgen
data_NdY4Lu3Au4
_symmetry_space_group_name_H-M   'P 1'
_cell_length_a   4.92536200
_cell_length_b   7.22711636
_cell_length_c   8.88917944
_cell_angle_alpha   89.31339895
_cell_angle_beta   90.00000000
_cell_angle_gamma   90.00000000
_symmetry_Int_Tables_number   1
_chemical_formula_structural   NdY4Lu3Au4
_chemical_formula_sum   'Nd1 Y4 Lu3 Au4'
_cell_volume   316.39797261
_cell_formula_units_Z   1
loop_
 _symmetry_equiv_pos_site_id
 _symmetry_equiv_pos_as_xyz
  1  'x, y, z'
loop_
 _atom_site_type_symbol
 _atom_site_label
 _atom_site_symmetry_multiplicity
 _atom_site_fract_x
 _atom_site_fract_y
 _atom_site_fract_z
 _atom_site_occupancy
  Nd  Nd0  1  0.250000  0.989683  0.326838  1
  Y  Y1  1  0.750000  0.650034  0.416981  1
  Y  Y2  1  0.250000  0.481619  0.173441  1
  Y  Y3  1  0.750000  0.516272  0.820004  1
  Y  Y4  1  0.750000  0.015126  0.680467  1
  Lu  Lu5  1  0.250000  0.853623  0.923805  1
  Lu  Lu6  1  0.250000  0.352047  0.580284  1
  Lu  Lu7  1  0.750000  0.148079  0.076128  1
  Au  Au8  1  0.250000  0.247477  0.899256  1
  Au  Au9  1  0.250000  0.743831  0.612220  1
  Au  Au10  1  0.750000  0.751643  0.090012  1
  Au  Au11  1  0.750000  0.250565  0.400564  1
