# generated using pymatgen
data_Ce2PaRu3
_symmetry_space_group_name_H-M   'P 1'
_cell_length_a   5.28204878
_cell_length_b   5.28204816
_cell_length_c   5.28204849
_cell_angle_alpha   67.63989861
_cell_angle_beta   67.63989682
_cell_angle_gamma   67.63989462
_symmetry_Int_Tables_number   1
_chemical_formula_structural   Ce2PaRu3
_chemical_formula_sum   'Ce2 Pa1 Ru3'
_cell_volume   121.16063322
_cell_formula_units_Z   1
loop_
 _symmetry_equiv_pos_site_id
 _symmetry_equiv_pos_as_xyz
  1  'x, y, z'
loop_
 _atom_site_type_symbol
 _atom_site_label
 _atom_site_symmetry_multiplicity
 _atom_site_fract_x
 _atom_site_fract_y
 _atom_site_fract_z
 _atom_site_occupancy
  Ce  Ce0  1  0.620410  0.620410  0.620410  1
  Ce  Ce1  1  0.379590  0.379590  0.379590  1
  Pa  Pa2  1  0.000000  0.000000  0.000000  1
  Ru  Ru3  1  0.000000  0.500000  0.000000  1
  Ru  Ru4  1  0.500000  0.000000  0.000000  1
  Ru  Ru5  1  0.000000  0.000000  0.500000  1
