# generated using pymatgen
data_Ta3Mn6Si2W
_symmetry_space_group_name_H-M   'P 1'
_cell_length_a   4.85161700
_cell_length_b   4.85161626
_cell_length_c   7.82777600
_cell_angle_alpha   90.00000000
_cell_angle_beta   90.00000000
_cell_angle_gamma   119.99999826
_symmetry_Int_Tables_number   1
_chemical_formula_structural   Ta3Mn6Si2W
_chemical_formula_sum   'Ta3 Mn6 Si2 W1'
_cell_volume   159.56659595
_cell_formula_units_Z   1
loop_
 _symmetry_equiv_pos_site_id
 _symmetry_equiv_pos_as_xyz
  1  'x, y, z'
loop_
 _atom_site_type_symbol
 _atom_site_label
 _atom_site_symmetry_multiplicity
 _atom_site_fract_x
 _atom_site_fract_y
 _atom_site_fract_z
 _atom_site_occupancy
  Ta  Ta0  1  0.666667  0.333333  0.560097  1
  Ta  Ta1  1  0.666667  0.333333  0.936293  1
  Ta  Ta2  1  0.333333  0.666667  0.065569  1
  Mn  Mn3  1  0.828875  0.171125  0.251170  1
  Mn  Mn4  1  0.828875  0.657750  0.251170  1
  Mn  Mn5  1  0.342250  0.171125  0.251170  1
  Mn  Mn6  1  0.171241  0.828759  0.748684  1
  Mn  Mn7  1  0.171241  0.342481  0.748684  1
  Mn  Mn8  1  0.657519  0.828759  0.748684  1
  Si  Si9  1  0.000000  0.000000  0.499957  1
  Si  Si10  1  0.000000  0.000000  0.000498  1
  W  W11  1  0.333333  0.666667  0.438026  1
