# generated using pymatgen
data_TbCe2Sn3IrRh2
_symmetry_space_group_name_H-M   'P 1'
_cell_length_a   7.51939220
_cell_length_b   7.52409791
_cell_length_c   4.02453600
_cell_angle_alpha   90.00000000
_cell_angle_beta   90.00000000
_cell_angle_gamma   120.35910344
_symmetry_Int_Tables_number   1
_chemical_formula_structural   TbCe2Sn3IrRh2
_chemical_formula_sum   'Tb1 Ce2 Sn3 Ir1 Rh2'
_cell_volume   196.47201546
_cell_formula_units_Z   1
loop_
 _symmetry_equiv_pos_site_id
 _symmetry_equiv_pos_as_xyz
  1  'x, y, z'
loop_
 _atom_site_type_symbol
 _atom_site_label
 _atom_site_symmetry_multiplicity
 _atom_site_fract_x
 _atom_site_fract_y
 _atom_site_fract_z
 _atom_site_occupancy
  Tb  Tb0  1  0.590749  0.592239  0.500000  1
  Ce  Ce1  1  0.413416  0.998876  0.500000  1
  Ce  Ce2  1  0.001315  0.414365  0.500000  1
  Sn  Sn3  1  0.745367  0.994537  0.000000  1
  Sn  Sn4  1  0.993121  0.744748  0.000000  1
  Sn  Sn5  1  0.260363  0.259652  0.000000  1
  Ir  Ir6  1  0.323772  0.668331  0.000000  1
  Rh  Rh7  1  0.668260  0.323759  0.000000  1
  Rh  Rh8  1  0.003637  0.003491  0.500000  1
