# generated using pymatgen
data_Nd3Ti(P3Rh4)2
_symmetry_space_group_name_H-M   'P 1'
_cell_length_a   3.96878600
_cell_length_b   11.29947600
_cell_length_c   12.98834200
_cell_angle_alpha   90.00000000
_cell_angle_beta   90.00000000
_cell_angle_gamma   90.00000000
_symmetry_Int_Tables_number   1
_chemical_formula_structural   Nd3Ti(P3Rh4)2
_chemical_formula_sum   'Nd6 Ti2 P12 Rh16'
_cell_volume   582.46482266
_cell_formula_units_Z   2
loop_
 _symmetry_equiv_pos_site_id
 _symmetry_equiv_pos_as_xyz
  1  'x, y, z'
loop_
 _atom_site_type_symbol
 _atom_site_label
 _atom_site_symmetry_multiplicity
 _atom_site_fract_x
 _atom_site_fract_y
 _atom_site_fract_z
 _atom_site_occupancy
  Nd  Nd0  1  0.000000  0.500000  0.520259  1
  Nd  Nd1  1  0.500000  0.000000  0.479741  1
  Nd  Nd2  1  0.500000  0.818752  0.202215  1
  Nd  Nd3  1  0.500000  0.181248  0.202215  1
  Nd  Nd4  1  0.000000  0.681248  0.797785  1
  Nd  Nd5  1  0.000000  0.318752  0.797785  1
  Ti  Ti6  1  0.500000  0.500000  0.155646  1
  Ti  Ti7  1  0.000000  0.000000  0.844354  1
  P  P8  1  0.500000  0.500000  0.881528  1
  P  P9  1  0.000000  0.000000  0.118472  1
  P  P10  1  0.500000  0.500000  0.346442  1
  P  P11  1  0.000000  0.000000  0.653558  1
  P  P12  1  0.500000  0.310525  0.615606  1
  P  P13  1  0.500000  0.689475  0.615606  1
  P  P14  1  0.000000  0.189475  0.384394  1
  P  P15  1  0.000000  0.810525  0.384394  1
  P  P16  1  0.500000  0.846637  0.889705  1
  P  P17  1  0.500000  0.153363  0.889705  1
  P  P18  1  0.000000  0.653363  0.110295  1
  P  P19  1  0.000000  0.346637  0.110295  1
  Rh  Rh20  1  0.500000  0.500000  0.700625  1
  Rh  Rh21  1  0.000000  0.000000  0.299375  1
  Rh  Rh22  1  0.000000  0.500000  0.987389  1
  Rh  Rh23  1  0.500000  0.000000  0.012611  1
  Rh  Rh24  1  0.500000  0.332281  0.992997  1
  Rh  Rh25  1  0.500000  0.667719  0.992997  1
  Rh  Rh26  1  0.000000  0.167719  0.007003  1
  Rh  Rh27  1  0.000000  0.832281  0.007003  1
  Rh  Rh28  1  0.500000  0.291897  0.431259  1
  Rh  Rh29  1  0.500000  0.708103  0.431259  1
  Rh  Rh30  1  0.000000  0.208103  0.568741  1
  Rh  Rh31  1  0.000000  0.791897  0.568741  1
  Rh  Rh32  1  0.500000  0.876104  0.708418  1
  Rh  Rh33  1  0.500000  0.123896  0.708418  1
  Rh  Rh34  1  0.000000  0.623896  0.291582  1
  Rh  Rh35  1  0.000000  0.376104  0.291582  1
