# generated using pymatgen
data_Nb12Zn11PtC4
_symmetry_space_group_name_H-M   'P 1'
_cell_length_a   8.37381542
_cell_length_b   8.37381570
_cell_length_c   8.37381543
_cell_angle_alpha   59.62952059
_cell_angle_beta   59.62951977
_cell_angle_gamma   59.62952166
_symmetry_Int_Tables_number   1
_chemical_formula_structural   Nb12Zn11PtC4
_chemical_formula_sum   'Nb12 Zn11 Pt1 C4'
_cell_volume   411.70235000
_cell_formula_units_Z   1
loop_
 _symmetry_equiv_pos_site_id
 _symmetry_equiv_pos_as_xyz
  1  'x, y, z'
loop_
 _atom_site_type_symbol
 _atom_site_label
 _atom_site_symmetry_multiplicity
 _atom_site_fract_x
 _atom_site_fract_y
 _atom_site_fract_z
 _atom_site_occupancy
  Nb  Nb0  1  0.816747  0.816747  0.188288  1
  Nb  Nb1  1  0.181149  0.181149  0.818195  1
  Nb  Nb2  1  0.816747  0.188288  0.816747  1
  Nb  Nb3  1  0.181149  0.818195  0.181149  1
  Nb  Nb4  1  0.188288  0.816747  0.816747  1
  Nb  Nb5  1  0.818195  0.181149  0.181149  1
  Nb  Nb6  1  0.433253  0.433253  0.061712  1
  Nb  Nb7  1  0.068851  0.068851  0.431805  1
  Nb  Nb8  1  0.433253  0.061712  0.433253  1
  Nb  Nb9  1  0.068851  0.431805  0.068851  1
  Nb  Nb10  1  0.061712  0.433253  0.433253  1
  Nb  Nb11  1  0.431805  0.068851  0.068851  1
  Zn  Zn12  1  0.125000  0.625000  0.625000  1
  Zn  Zn13  1  0.625000  0.125000  0.625000  1
  Zn  Zn14  1  0.625000  0.625000  0.125000  1
  Zn  Zn15  1  0.747359  0.415607  0.415607  1
  Zn  Zn16  1  0.415607  0.747359  0.415607  1
  Zn  Zn17  1  0.415607  0.415607  0.747359  1
  Zn  Zn18  1  0.414877  0.414877  0.414877  1
  Zn  Zn19  1  0.502641  0.834393  0.834393  1
  Zn  Zn20  1  0.834393  0.502641  0.834393  1
  Zn  Zn21  1  0.834393  0.834393  0.502641  1
  Zn  Zn22  1  0.835123  0.835123  0.835123  1
  Pt  Pt23  1  0.625000  0.625000  0.625000  1
  C  C24  1  0.625000  0.125000  0.125000  1
  C  C25  1  0.125000  0.625000  0.125000  1
  C  C26  1  0.125000  0.125000  0.625000  1
  C  C27  1  0.125000  0.125000  0.125000  1
