# generated using pymatgen
data_Ho4P3S
_symmetry_space_group_name_H-M   'P 1'
_cell_length_a   7.94913701
_cell_length_b   3.97468100
_cell_length_c   5.57294700
_cell_angle_alpha   90.00002725
_cell_angle_beta   89.99737406
_cell_angle_gamma   89.99930085
_symmetry_Int_Tables_number   1
_chemical_formula_structural   Ho4P3S
_chemical_formula_sum   'Ho4 P3 S1'
_cell_volume   176.07884202
_cell_formula_units_Z   1
loop_
 _symmetry_equiv_pos_site_id
 _symmetry_equiv_pos_as_xyz
  1  'x, y, z'
loop_
 _atom_site_type_symbol
 _atom_site_label
 _atom_site_symmetry_multiplicity
 _atom_site_fract_x
 _atom_site_fract_y
 _atom_site_fract_z
 _atom_site_occupancy
  Ho  Ho0  1  0.118492  0.750002  0.249797  1
  Ho  Ho1  1  0.631109  0.749998  0.250208  1
  Ho  Ho2  1  0.375205  0.249999  0.749822  1
  Ho  Ho3  1  0.875170  0.249997  0.750184  1
  P  P4  1  0.874845  0.249998  0.250176  1
  P  P5  1  0.128373  0.749997  0.749801  1
  P  P6  1  0.621993  0.750002  0.750194  1
  S  S7  1  0.374814  0.250000  0.249819  1
