# generated using pymatgen
data_LaYbTaIr3
_symmetry_space_group_name_H-M   'P 1'
_cell_length_a   5.28702616
_cell_length_b   5.28702409
_cell_length_c   5.28702488
_cell_angle_alpha   65.94752617
_cell_angle_beta   65.94753630
_cell_angle_gamma   65.94752132
_symmetry_Int_Tables_number   1
_chemical_formula_structural   LaYbTaIr3
_chemical_formula_sum   'La1 Yb1 Ta1 Ir3'
_cell_volume   117.95725953
_cell_formula_units_Z   1
loop_
 _symmetry_equiv_pos_site_id
 _symmetry_equiv_pos_as_xyz
  1  'x, y, z'
loop_
 _atom_site_type_symbol
 _atom_site_label
 _atom_site_symmetry_multiplicity
 _atom_site_fract_x
 _atom_site_fract_y
 _atom_site_fract_z
 _atom_site_occupancy
  La  La0  1  0.248165  0.248165  0.248165  1
  Yb  Yb1  1  0.998031  0.998031  0.998031  1
  Ta  Ta2  1  0.624888  0.624888  0.624888  1
  Ir  Ir3  1  0.627700  0.627700  0.123518  1
  Ir  Ir4  1  0.627700  0.123518  0.627700  1
  Ir  Ir5  1  0.123518  0.627700  0.627700  1
