# generated using pymatgen
data_Dy6Co17TcP12
_symmetry_space_group_name_H-M   'P 1'
_cell_length_a   3.70062600
_cell_length_b   10.51840100
_cell_length_c   12.20871100
_cell_angle_alpha   90.00000000
_cell_angle_beta   90.00000000
_cell_angle_gamma   90.00000000
_symmetry_Int_Tables_number   1
_chemical_formula_structural   Dy6Co17TcP12
_chemical_formula_sum   'Dy6 Co17 Tc1 P12'
_cell_volume   475.22002506
_cell_formula_units_Z   1
loop_
 _symmetry_equiv_pos_site_id
 _symmetry_equiv_pos_as_xyz
  1  'x, y, z'
loop_
 _atom_site_type_symbol
 _atom_site_label
 _atom_site_symmetry_multiplicity
 _atom_site_fract_x
 _atom_site_fract_y
 _atom_site_fract_z
 _atom_site_occupancy
  Dy  Dy0  1  0.000000  0.500000  0.523850  1
  Dy  Dy1  1  0.500000  0.000000  0.478127  1
  Dy  Dy2  1  0.500000  0.817474  0.206715  1
  Dy  Dy3  1  0.500000  0.182526  0.206715  1
  Dy  Dy4  1  0.000000  0.682959  0.794859  1
  Dy  Dy5  1  0.000000  0.317041  0.794859  1
  Co  Co6  1  0.000000  0.000000  0.840160  1
  Co  Co7  1  0.500000  0.500000  0.703117  1
  Co  Co8  1  0.000000  0.000000  0.296297  1
  Co  Co9  1  0.000000  0.500000  0.987422  1
  Co  Co10  1  0.500000  0.000000  0.014659  1
  Co  Co11  1  0.500000  0.331961  0.991140  1
  Co  Co12  1  0.500000  0.668039  0.991140  1
  Co  Co13  1  0.000000  0.166398  0.005710  1
  Co  Co14  1  0.000000  0.833602  0.005710  1
  Co  Co15  1  0.500000  0.296768  0.430699  1
  Co  Co16  1  0.500000  0.703232  0.430699  1
  Co  Co17  1  0.000000  0.203185  0.569040  1
  Co  Co18  1  0.000000  0.796815  0.569040  1
  Co  Co19  1  0.500000  0.879210  0.709117  1
  Co  Co20  1  0.500000  0.120790  0.709117  1
  Co  Co21  1  0.000000  0.620664  0.291791  1
  Co  Co22  1  0.000000  0.379336  0.291791  1
  Tc  Tc23  1  0.500000  0.500000  0.156651  1
  P  P24  1  0.500000  0.500000  0.881534  1
  P  P25  1  0.000000  0.000000  0.117246  1
  P  P26  1  0.500000  0.500000  0.348794  1
  P  P27  1  0.000000  0.000000  0.656061  1
  P  P28  1  0.500000  0.310902  0.616379  1
  P  P29  1  0.500000  0.689098  0.616379  1
  P  P30  1  0.000000  0.188623  0.384315  1
  P  P31  1  0.000000  0.811377  0.384315  1
  P  P32  1  0.500000  0.849559  0.892180  1
  P  P33  1  0.500000  0.150441  0.892180  1
  P  P34  1  0.000000  0.655598  0.106094  1
  P  P35  1  0.000000  0.344402  0.106094  1
