# generated using pymatgen
data_EuYPPt8
_symmetry_space_group_name_H-M   'P 1'
_cell_length_a   9.18487155
_cell_length_b   9.13758812
_cell_length_c   4.32001200
_cell_angle_alpha   90.00000000
_cell_angle_beta   90.00000000
_cell_angle_gamma   145.59235561
_symmetry_Int_Tables_number   1
_chemical_formula_structural   EuYPPt8
_chemical_formula_sum   'Eu1 Y1 P1 Pt8'
_cell_volume   204.87893805
_cell_formula_units_Z   1
loop_
 _symmetry_equiv_pos_site_id
 _symmetry_equiv_pos_as_xyz
  1  'x, y, z'
loop_
 _atom_site_type_symbol
 _atom_site_label
 _atom_site_symmetry_multiplicity
 _atom_site_fract_x
 _atom_site_fract_y
 _atom_site_fract_z
 _atom_site_occupancy
  Eu  Eu0  1  0.374056  0.615414  0.500000  1
  Y  Y1  1  0.624349  0.372328  0.500000  1
  P  P2  1  0.220699  0.225131  0.000000  1
  Pt  Pt3  1  0.113781  0.895646  0.000000  1
  Pt  Pt4  1  0.884794  0.106759  0.000000  1
  Pt  Pt5  1  0.488493  0.988552  0.000000  1
  Pt  Pt6  1  0.979984  0.490363  0.000000  1
  Pt  Pt7  1  0.194111  0.794206  0.500000  1
  Pt  Pt8  1  0.788761  0.195150  0.500000  1
  Pt  Pt9  1  0.007536  0.006370  0.500000  1
  Pt  Pt10  1  0.637032  0.623680  0.000000  1
