# generated using pymatgen
data_MgSc5(TaRu2)6
_symmetry_space_group_name_H-M   'P 1'
_cell_length_a   4.49623300
_cell_length_b   6.32749700
_cell_length_c   13.53151700
_cell_angle_alpha   90.00000000
_cell_angle_beta   90.00025446
_cell_angle_gamma   90.00000000
_symmetry_Int_Tables_number   1
_chemical_formula_structural   MgSc5(TaRu2)6
_chemical_formula_sum   'Mg1 Sc5 Ta6 Ru12'
_cell_volume   384.97031658
_cell_formula_units_Z   1
loop_
 _symmetry_equiv_pos_site_id
 _symmetry_equiv_pos_as_xyz
  1  'x, y, z'
loop_
 _atom_site_type_symbol
 _atom_site_label
 _atom_site_symmetry_multiplicity
 _atom_site_fract_x
 _atom_site_fract_y
 _atom_site_fract_z
 _atom_site_occupancy
  Mg  Mg0  1  0.500110  0.499999  0.833335  1
  Sc  Sc1  1  0.000002  0.000000  0.999264  1
  Sc  Sc2  1  0.499886  0.499999  0.165649  1
  Sc  Sc3  1  0.999905  0.000000  0.333336  1
  Sc  Sc4  1  0.500002  0.499999  0.500999  1
  Sc  Sc5  1  0.000132  0.000000  0.667409  1
  Ta  Ta6  1  0.999985  0.499999  0.995128  1
  Ta  Ta7  1  0.499894  0.000000  0.166351  1
  Ta  Ta8  1  0.999896  0.499999  0.333320  1
  Ta  Ta9  1  0.500003  0.000000  0.500326  1
  Ta  Ta10  1  0.000114  0.499999  0.671544  1
  Ta  Ta11  1  0.500097  0.000000  0.833323  1
  Ru  Ru12  1  0.499994  0.249561  0.000073  1
  Ru  Ru13  1  0.499994  0.750438  0.000073  1
  Ru  Ru14  1  0.999873  0.250348  0.166529  1
  Ru  Ru15  1  0.999873  0.749651  0.166529  1
  Ru  Ru16  1  0.499899  0.250880  0.333368  1
  Ru  Ru17  1  0.499899  0.749120  0.333368  1
  Ru  Ru18  1  0.999998  0.250283  0.500105  1
  Ru  Ru19  1  0.999998  0.749717  0.500105  1
  Ru  Ru20  1  0.500118  0.249603  0.666560  1
  Ru  Ru21  1  0.500118  0.750397  0.666560  1
  Ru  Ru22  1  0.000099  0.248827  0.833372  1
  Ru  Ru23  1  0.000099  0.751172  0.833372  1
