# generated using pymatgen
data_TiNb(VSi)2
_symmetry_space_group_name_H-M   'P 1'
_cell_length_a   3.35516300
_cell_length_b   6.59676637
_cell_length_c   7.93882012
_cell_angle_alpha   90.30950562
_cell_angle_beta   90.00000000
_cell_angle_gamma   90.00000000
_symmetry_Int_Tables_number   1
_chemical_formula_structural   TiNb(VSi)2
_chemical_formula_sum   'Ti2 Nb2 V4 Si4'
_cell_volume   175.70913987
_cell_formula_units_Z   2
loop_
 _symmetry_equiv_pos_site_id
 _symmetry_equiv_pos_as_xyz
  1  'x, y, z'
loop_
 _atom_site_type_symbol
 _atom_site_label
 _atom_site_symmetry_multiplicity
 _atom_site_fract_x
 _atom_site_fract_y
 _atom_site_fract_z
 _atom_site_occupancy
  Ti  Ti0  1  0.750000  0.951249  0.668079  1
  Ti  Ti1  1  0.250000  0.048751  0.331921  1
  Nb  Nb2  1  0.250000  0.548168  0.167192  1
  Nb  Nb3  1  0.750000  0.451832  0.832808  1
  V  V4  1  0.250000  0.625820  0.560739  1
  V  V5  1  0.750000  0.374180  0.439261  1
  V  V6  1  0.750000  0.871493  0.060964  1
  V  V7  1  0.250000  0.128507  0.939036  1
  Si  Si8  1  0.250000  0.755198  0.858356  1
  Si  Si9  1  0.750000  0.244802  0.141644  1
  Si  Si10  1  0.750000  0.752675  0.362806  1
  Si  Si11  1  0.250000  0.247325  0.637194  1
