# generated using pymatgen
data_Nb3Ga2N
_symmetry_space_group_name_H-M   'P 1'
_cell_length_a   7.06618100
_cell_length_b   7.06618100
_cell_length_c   7.06618100
_cell_angle_alpha   90.00000000
_cell_angle_beta   90.00000000
_cell_angle_gamma   90.00000000
_symmetry_Int_Tables_number   1
_chemical_formula_structural   Nb3Ga2N
_chemical_formula_sum   'Nb12 Ga8 N4'
_cell_volume   352.82087529
_cell_formula_units_Z   4
loop_
 _symmetry_equiv_pos_site_id
 _symmetry_equiv_pos_as_xyz
  1  'x, y, z'
loop_
 _atom_site_type_symbol
 _atom_site_label
 _atom_site_symmetry_multiplicity
 _atom_site_fract_x
 _atom_site_fract_y
 _atom_site_fract_z
 _atom_site_occupancy
  Nb  Nb0  1  0.794570  0.955430  0.375000  1
  Nb  Nb1  1  0.705430  0.044570  0.875000  1
  Nb  Nb2  1  0.205430  0.455430  0.125000  1
  Nb  Nb3  1  0.294570  0.544570  0.625000  1
  Nb  Nb4  1  0.955430  0.375000  0.794570  1
  Nb  Nb5  1  0.044570  0.875000  0.705430  1
  Nb  Nb6  1  0.455430  0.125000  0.205430  1
  Nb  Nb7  1  0.544570  0.625000  0.294570  1
  Nb  Nb8  1  0.375000  0.794570  0.955430  1
  Nb  Nb9  1  0.875000  0.705430  0.044570  1
  Nb  Nb10  1  0.125000  0.205430  0.455430  1
  Nb  Nb11  1  0.625000  0.294570  0.544570  1
  Ga  Ga12  1  0.180506  0.819494  0.319494  1
  Ga  Ga13  1  0.319494  0.180506  0.819494  1
  Ga  Ga14  1  0.819494  0.319494  0.180506  1
  Ga  Ga15  1  0.680506  0.680506  0.680506  1
  Ga  Ga16  1  0.569494  0.430506  0.930506  1
  Ga  Ga17  1  0.430506  0.930506  0.569494  1
  Ga  Ga18  1  0.930506  0.569494  0.430506  1
  Ga  Ga19  1  0.069494  0.069494  0.069494  1
  N  N20  1  0.875000  0.125000  0.625000  1
  N  N21  1  0.625000  0.875000  0.125000  1
  N  N22  1  0.125000  0.625000  0.875000  1
  N  N23  1  0.375000  0.375000  0.375000  1
