# generated using pymatgen
data_TbYb3(MnB4)4
_symmetry_space_group_name_H-M   'P 1'
_cell_length_a   3.37018000
_cell_length_b   5.90230343
_cell_length_c   11.41129184
_cell_angle_alpha   90.04384246
_cell_angle_beta   90.00000000
_cell_angle_gamma   90.00000000
_symmetry_Int_Tables_number   1
_chemical_formula_structural   TbYb3(MnB4)4
_chemical_formula_sum   'Tb1 Yb3 Mn4 B16'
_cell_volume   226.99135353
_cell_formula_units_Z   1
loop_
 _symmetry_equiv_pos_site_id
 _symmetry_equiv_pos_as_xyz
  1  'x, y, z'
loop_
 _atom_site_type_symbol
 _atom_site_label
 _atom_site_symmetry_multiplicity
 _atom_site_fract_x
 _atom_site_fract_y
 _atom_site_fract_z
 _atom_site_occupancy
  Tb  Tb0  1  0.000000  0.874639  0.848847  1
  Yb  Yb1  1  0.000000  0.625126  0.348635  1
  Yb  Yb2  1  0.000000  0.375386  0.650229  1
  Yb  Yb3  1  0.000000  0.125323  0.151797  1
  Mn  Mn4  1  0.000000  0.623216  0.079693  1
  Mn  Mn5  1  0.000000  0.377623  0.919675  1
  Mn  Mn6  1  0.000000  0.123680  0.419788  1
  Mn  Mn7  1  0.000000  0.876807  0.580294  1
  B  B8  1  0.500000  0.778251  0.183353  1
  B  B9  1  0.500000  0.221737  0.816899  1
  B  B10  1  0.500000  0.279818  0.316774  1
  B  B11  1  0.500000  0.720126  0.682057  1
  B  B12  1  0.500000  0.860913  0.033455  1
  B  B13  1  0.500000  0.139047  0.968080  1
  B  B14  1  0.500000  0.362253  0.467386  1
  B  B15  1  0.500000  0.637792  0.532366  1
  B  B16  1  0.500000  0.885918  0.453713  1
  B  B17  1  0.500000  0.113162  0.546948  1
  B  B18  1  0.500000  0.386667  0.047293  1
  B  B19  1  0.500000  0.611691  0.953759  1
  B  B20  1  0.500000  0.975082  0.309132  1
  B  B21  1  0.500000  0.025231  0.690038  1
  B  B22  1  0.500000  0.476153  0.190889  1
  B  B23  1  0.500000  0.524358  0.808901  1
