# generated using pymatgen
data_Yb4Ga18(CoPd)3
_symmetry_space_group_name_H-M   'P 1'
_cell_length_a   7.46603289
_cell_length_b   7.46603238
_cell_length_c   9.54811511
_cell_angle_alpha   89.96167712
_cell_angle_beta   89.96167888
_cell_angle_gamma   118.83931082
_symmetry_Int_Tables_number   1
_chemical_formula_structural   Yb4Ga18(CoPd)3
_chemical_formula_sum   'Yb4 Ga18 Co3 Pd3'
_cell_volume   466.21819356
_cell_formula_units_Z   1
loop_
 _symmetry_equiv_pos_site_id
 _symmetry_equiv_pos_as_xyz
  1  'x, y, z'
loop_
 _atom_site_type_symbol
 _atom_site_label
 _atom_site_symmetry_multiplicity
 _atom_site_fract_x
 _atom_site_fract_y
 _atom_site_fract_z
 _atom_site_occupancy
  Yb  Yb0  1  0.315800  0.994682  0.249847  1
  Yb  Yb1  1  0.005318  0.684200  0.750153  1
  Yb  Yb2  1  0.675542  0.993116  0.748722  1
  Yb  Yb3  1  0.006884  0.324458  0.251278  1
  Ga  Ga4  1  0.349191  0.016998  0.922422  1
  Ga  Ga5  1  0.983002  0.650809  0.077578  1
  Ga  Ga6  1  0.347401  0.000165  0.574517  1
  Ga  Ga7  1  0.999835  0.652599  0.425483  1
  Ga  Ga8  1  0.663111  0.012773  0.078384  1
  Ga  Ga9  1  0.987227  0.336889  0.921616  1
  Ga  Ga10  1  0.654014  0.003474  0.425184  1
  Ga  Ga11  1  0.996526  0.345986  0.574816  1
  Ga  Ga12  1  0.663154  0.655392  0.934762  1
  Ga  Ga13  1  0.344608  0.336846  0.065238  1
  Ga  Ga14  1  0.660887  0.658734  0.556569  1
  Ga  Ga15  1  0.341266  0.339113  0.443431  1
  Ga  Ga16  1  0.139351  0.141904  0.749493  1
  Ga  Ga17  1  0.858096  0.860649  0.250507  1
  Ga  Ga18  1  0.448505  0.663093  0.258593  1
  Ga  Ga19  1  0.336907  0.551495  0.741407  1
  Ga  Ga20  1  0.566998  0.338277  0.747540  1
  Ga  Ga21  1  0.661723  0.433002  0.252460  1
  Co  Co22  1  0.328987  0.671013  0.500000  1
  Co  Co23  1  0.669113  0.330887  0.000000  1
  Co  Co24  1  0.670681  0.329319  0.500000  1
  Pd  Pd25  1  0.998991  0.001009  0.000000  1
  Pd  Pd26  1  0.999911  0.000089  0.500000  1
  Pd  Pd27  1  0.326972  0.673028  0.000000  1
