# generated using pymatgen
data_NaPr5HoCoBr12
_symmetry_space_group_name_H-M   'P 1'
_cell_length_a   9.46294516
_cell_length_b   9.53434669
_cell_length_c   9.43288064
_cell_angle_alpha   107.33035041
_cell_angle_beta   107.21406438
_cell_angle_gamma   106.75367141
_symmetry_Int_Tables_number   1
_chemical_formula_structural   NaPr5HoCoBr12
_chemical_formula_sum   'Na1 Pr5 Ho1 Co1 Br12'
_cell_volume   706.82786155
_cell_formula_units_Z   1
loop_
 _symmetry_equiv_pos_site_id
 _symmetry_equiv_pos_as_xyz
  1  'x, y, z'
loop_
 _atom_site_type_symbol
 _atom_site_label
 _atom_site_symmetry_multiplicity
 _atom_site_fract_x
 _atom_site_fract_y
 _atom_site_fract_z
 _atom_site_occupancy
  Na  Na0  1  0.499954  0.500541  0.499627  1
  Pr  Pr1  1  0.311135  0.029129  0.107471  1
  Pr  Pr2  1  0.031373  0.110110  0.313848  1
  Pr  Pr3  1  0.970336  0.895242  0.688007  1
  Pr  Pr4  1  0.689120  0.970849  0.892615  1
  Pr  Pr5  1  0.886950  0.671852  0.968228  1
  Ho  Ho6  1  0.110574  0.317973  0.032012  1
  Co  Co7  1  0.000864  0.000906  0.001491  1
  Br  Br8  1  0.220655  0.675673  0.072836  1
  Br  Br9  1  0.441691  0.373737  0.147091  1
  Br  Br10  1  0.683866  0.074976  0.224133  1
  Br  Br11  1  0.926867  0.780770  0.317569  1
  Br  Br12  1  0.152362  0.454327  0.361805  1
  Br  Br13  1  0.377012  0.156127  0.459056  1
  Br  Br14  1  0.623237  0.844627  0.541401  1
  Br  Br15  1  0.846470  0.545906  0.623369  1
  Br  Br16  1  0.076392  0.228636  0.697166  1
  Br  Br17  1  0.316402  0.925625  0.776367  1
  Br  Br18  1  0.543323  0.627033  0.845820  1
  Br  Br19  1  0.791419  0.315964  0.930092  1
