# generated using pymatgen
data_Ta6MnAl4RhC2
_symmetry_space_group_name_H-M   'P 1'
_cell_length_a   8.26628150
_cell_length_b   8.26639909
_cell_length_c   8.29398300
_cell_angle_alpha   59.89001385
_cell_angle_beta   59.88947991
_cell_angle_gamma   59.77535770
_symmetry_Int_Tables_number   1
_chemical_formula_structural   Ta6MnAl4RhC2
_chemical_formula_sum   'Ta12 Mn2 Al8 Rh2 C4'
_cell_volume   399.40055165
_cell_formula_units_Z   2
loop_
 _symmetry_equiv_pos_site_id
 _symmetry_equiv_pos_as_xyz
  1  'x, y, z'
loop_
 _atom_site_type_symbol
 _atom_site_label
 _atom_site_symmetry_multiplicity
 _atom_site_fract_x
 _atom_site_fract_y
 _atom_site_fract_z
 _atom_site_occupancy
  Ta  Ta0  1  0.554662  0.940866  0.563856  1
  Ta  Ta1  1  0.309136  0.695340  0.686139  1
  Ta  Ta2  1  0.695334  0.309145  0.309386  1
  Ta  Ta3  1  0.309147  0.695335  0.309388  1
  Ta  Ta4  1  0.687467  0.687473  0.312529  1
  Ta  Ta5  1  0.305729  0.305729  0.694274  1
  Ta  Ta6  1  0.562533  0.562527  0.937471  1
  Ta  Ta7  1  0.940864  0.554660  0.563861  1
  Ta  Ta8  1  0.554666  0.940855  0.940614  1
  Ta  Ta9  1  0.944271  0.944271  0.555726  1
  Ta  Ta10  1  0.695338  0.309134  0.686144  1
  Ta  Ta11  1  0.940853  0.554665  0.940612  1
  Mn  Mn12  1  0.125000  0.125000  0.125000  1
  Mn  Mn13  1  0.125000  0.125000  0.625000  1
  Al  Al14  1  0.918233  0.918232  0.912847  1
  Al  Al15  1  0.004304  0.329007  0.333366  1
  Al  Al16  1  0.329008  0.004301  0.333368  1
  Al  Al17  1  0.331787  0.331787  0.999292  1
  Al  Al18  1  0.920992  0.245699  0.916632  1
  Al  Al19  1  0.918213  0.918213  0.250708  1
  Al  Al20  1  0.245696  0.920993  0.916634  1
  Al  Al21  1  0.331767  0.331768  0.337153  1
  Rh  Rh22  1  0.625000  0.125000  0.125000  1
  Rh  Rh23  1  0.125000  0.625000  0.125000  1
  C  C24  1  0.625000  0.625000  0.625000  1
  C  C25  1  0.125000  0.625000  0.625000  1
  C  C26  1  0.625000  0.125000  0.625000  1
  C  C27  1  0.625000  0.625000  0.125000  1
