# generated using pymatgen
data_Nd16Y4Sn11Bi5
_symmetry_space_group_name_H-M   'P 1'
_cell_length_a   8.41856135
_cell_length_b   8.42468759
_cell_length_c   15.99945300
_cell_angle_alpha   90.11019567
_cell_angle_beta   90.37191032
_cell_angle_gamma   89.89478365
_symmetry_Int_Tables_number   1
_chemical_formula_structural   Nd16Y4Sn11Bi5
_chemical_formula_sum   'Nd16 Y4 Sn11 Bi5'
_cell_volume   1134.71330347
_cell_formula_units_Z   1
loop_
 _symmetry_equiv_pos_site_id
 _symmetry_equiv_pos_as_xyz
  1  'x, y, z'
loop_
 _atom_site_type_symbol
 _atom_site_label
 _atom_site_symmetry_multiplicity
 _atom_site_fract_x
 _atom_site_fract_y
 _atom_site_fract_z
 _atom_site_occupancy
  Nd  Nd0  1  0.392345  0.838263  0.880082  1
  Nd  Nd1  1  0.891926  0.660856  0.619563  1
  Nd  Nd2  1  0.607908  0.159969  0.379903  1
  Nd  Nd3  1  0.104519  0.337559  0.119432  1
  Nd  Nd4  1  0.609869  0.164894  0.120085  1
  Nd  Nd5  1  0.113805  0.336284  0.382049  1
  Nd  Nd6  1  0.384538  0.838036  0.618714  1
  Nd  Nd7  1  0.888807  0.658996  0.881129  1
  Nd  Nd8  1  0.560053  0.333951  0.890914  1
  Nd  Nd9  1  0.057498  0.173463  0.607120  1
  Nd  Nd10  1  0.443173  0.673307  0.393356  1
  Nd  Nd11  1  0.943052  0.824304  0.110179  1
  Nd  Nd12  1  0.450307  0.666458  0.109004  1
  Nd  Nd13  1  0.958624  0.828016  0.394406  1
  Nd  Nd14  1  0.540992  0.329100  0.604989  1
  Nd  Nd15  1  0.052179  0.174151  0.890962  1
  Y  Y16  1  0.221567  0.500049  0.745945  1
  Y  Y17  1  0.721947  0.002407  0.748719  1
  Y  Y18  1  0.778409  0.499546  0.248304  1
  Y  Y19  1  0.278333  0.998088  0.253540  1
  Sn  Sn20  1  0.226656  0.525093  0.546492  1
  Sn  Sn21  1  0.273696  0.024014  0.453546  1
  Sn  Sn22  1  0.768977  0.480213  0.047807  1
  Sn  Sn23  1  0.588235  0.627437  0.748734  1
  Sn  Sn24  1  0.087554  0.874181  0.751510  1
  Sn  Sn25  1  0.410194  0.373165  0.250138  1
  Sn  Sn26  1  0.911701  0.124844  0.251015  1
  Sn  Sn27  1  0.357136  0.143923  0.750971  1
  Sn  Sn28  1  0.855360  0.357300  0.748053  1
  Sn  Sn29  1  0.644931  0.856267  0.251405  1
  Sn  Sn30  1  0.144821  0.640344  0.250209  1
  Bi  Bi31  1  0.266536  0.014785  0.048439  1
  Bi  Bi32  1  0.768998  0.479895  0.452511  1
  Bi  Bi33  1  0.730613  0.980526  0.546955  1
  Bi  Bi34  1  0.232503  0.517832  0.951832  1
  Bi  Bi35  1  0.732235  0.982483  0.951990  1
