# generated using pymatgen
data_Zr7ScTi4(VSi2)8
_symmetry_space_group_name_H-M   'P 1'
_cell_length_a   6.69406459
_cell_length_b   6.70008705
_cell_length_c   12.40054912
_cell_angle_alpha   89.96208994
_cell_angle_beta   90.02616105
_cell_angle_gamma   89.98244545
_symmetry_Int_Tables_number   1
_chemical_formula_structural   Zr7ScTi4(VSi2)8
_chemical_formula_sum   'Zr7 Sc1 Ti4 V8 Si16'
_cell_volume   556.17453477
_cell_formula_units_Z   1
loop_
 _symmetry_equiv_pos_site_id
 _symmetry_equiv_pos_as_xyz
  1  'x, y, z'
loop_
 _atom_site_type_symbol
 _atom_site_label
 _atom_site_symmetry_multiplicity
 _atom_site_fract_x
 _atom_site_fract_y
 _atom_site_fract_z
 _atom_site_occupancy
  Zr  Zr0  1  0.002110  0.661361  0.030086  1
  Zr  Zr1  1  0.838640  0.501968  0.280200  1
  Zr  Zr2  1  0.161125  0.497331  0.780151  1
  Zr  Zr3  1  0.502033  0.838314  0.719269  1
  Zr  Zr4  1  0.498071  0.160903  0.219604  1
  Zr  Zr5  1  0.996977  0.339861  0.530346  1
  Zr  Zr6  1  0.661423  0.001897  0.969865  1
  Sc  Sc7  1  0.337665  0.998656  0.470648  1
  Ti  Ti8  1  0.333034  0.333285  0.000085  1
  Ti  Ti9  1  0.166790  0.833690  0.250158  1
  Ti  Ti10  1  0.833674  0.166287  0.749767  1
  Ti  Ti11  1  0.667990  0.665222  0.499859  1
  V  V12  1  0.004905  0.159265  0.127344  1
  V  V13  1  0.341973  0.506149  0.376599  1
  V  V14  1  0.659011  0.494601  0.877339  1
  V  V15  1  0.505433  0.341390  0.623029  1
  V  V16  1  0.494616  0.658888  0.122929  1
  V  V17  1  0.994289  0.840030  0.627529  1
  V  V18  1  0.158956  0.005516  0.872779  1
  V  V19  1  0.842263  0.995093  0.372400  1
  Si  Si20  1  0.290205  0.958395  0.062267  1
  Si  Si21  1  0.540118  0.792758  0.313645  1
  Si  Si22  1  0.458562  0.209205  0.812210  1
  Si  Si23  1  0.790750  0.540979  0.687478  1
  Si  Si24  1  0.209256  0.458352  0.187786  1
  Si  Si25  1  0.707252  0.040600  0.561520  1
  Si  Si26  1  0.958425  0.290232  0.937510  1
  Si  Si27  1  0.042804  0.710544  0.437608  1
  Si  Si28  1  0.707218  0.373426  0.072063  1
  Si  Si29  1  0.128598  0.206560  0.322517  1
  Si  Si30  1  0.873739  0.792758  0.821803  1
  Si  Si31  1  0.207280  0.126122  0.678152  1
  Si  Si32  1  0.792571  0.873219  0.178320  1
  Si  Si33  1  0.293633  0.627612  0.571149  1
  Si  Si34  1  0.373369  0.707499  0.927852  1
  Si  Si35  1  0.625240  0.292030  0.428136  1
