# generated using pymatgen
data_Er6Al24FeCo7
_symmetry_space_group_name_H-M   'P 1'
_cell_length_a   8.64279900
_cell_length_b   8.64279832
_cell_length_c   9.26792500
_cell_angle_alpha   90.00000000
_cell_angle_beta   90.00000000
_cell_angle_gamma   119.99999877
_symmetry_Int_Tables_number   1
_chemical_formula_structural   Er6Al24FeCo7
_chemical_formula_sum   'Er6 Al24 Fe1 Co7'
_cell_volume   599.54521293
_cell_formula_units_Z   1
loop_
 _symmetry_equiv_pos_site_id
 _symmetry_equiv_pos_as_xyz
  1  'x, y, z'
loop_
 _atom_site_type_symbol
 _atom_site_label
 _atom_site_symmetry_multiplicity
 _atom_site_fract_x
 _atom_site_fract_y
 _atom_site_fract_z
 _atom_site_occupancy
  Er  Er0  1  0.194587  0.389174  0.249754  1
  Er  Er1  1  0.805413  0.610826  0.750246  1
  Er  Er2  1  0.610826  0.805413  0.249754  1
  Er  Er3  1  0.389174  0.194587  0.750246  1
  Er  Er4  1  0.194587  0.805413  0.249754  1
  Er  Er5  1  0.805413  0.194587  0.750246  1
  Al  Al6  1  0.333333  0.666667  0.018777  1
  Al  Al7  1  0.666667  0.333333  0.981223  1
  Al  Al8  1  0.666667  0.333333  0.518976  1
  Al  Al9  1  0.333333  0.666667  0.481024  1
  Al  Al10  1  0.162655  0.325311  0.575942  1
  Al  Al11  1  0.837345  0.674689  0.424058  1
  Al  Al12  1  0.674689  0.837345  0.575942  1
  Al  Al13  1  0.838231  0.676460  0.075588  1
  Al  Al14  1  0.325311  0.162655  0.424058  1
  Al  Al15  1  0.161769  0.323540  0.924412  1
  Al  Al16  1  0.162655  0.837345  0.575942  1
  Al  Al17  1  0.323540  0.161769  0.075588  1
  Al  Al18  1  0.837345  0.162655  0.424058  1
  Al  Al19  1  0.676460  0.838231  0.924412  1
  Al  Al20  1  0.838231  0.161769  0.075588  1
  Al  Al21  1  0.161769  0.838231  0.924412  1
  Al  Al22  1  0.559376  0.118752  0.249805  1
  Al  Al23  1  0.440624  0.881248  0.750195  1
  Al  Al24  1  0.881248  0.440624  0.249805  1
  Al  Al25  1  0.118752  0.559376  0.750195  1
  Al  Al26  1  0.559376  0.440624  0.249805  1
  Al  Al27  1  0.440624  0.559376  0.750195  1
  Al  Al28  1  0.000000  0.000000  0.249767  1
  Al  Al29  1  0.000000  0.000000  0.750233  1
  Fe  Fe30  1  0.000000  0.000000  0.000000  1
  Co  Co31  1  0.500000  0.000000  0.000000  1
  Co  Co32  1  0.000000  0.500000  0.000000  1
  Co  Co33  1  0.500000  0.000000  0.500000  1
  Co  Co34  1  0.500000  0.500000  0.000000  1
  Co  Co35  1  0.000000  0.500000  0.500000  1
  Co  Co36  1  0.500000  0.500000  0.500000  1
  Co  Co37  1  0.000000  0.000000  0.500000  1
