# generated using pymatgen
data_La3Tb2NdOsI10
_symmetry_space_group_name_H-M   'P 1'
_cell_length_a   8.03654891
_cell_length_b   10.08167060
_cell_length_c   9.97571244
_cell_angle_alpha   107.01655735
_cell_angle_beta   96.40435715
_cell_angle_gamma   105.90204657
_symmetry_Int_Tables_number   1
_chemical_formula_structural   La3Tb2NdOsI10
_chemical_formula_sum   'La3 Tb2 Nd1 Os1 I10'
_cell_volume   726.95584010
_cell_formula_units_Z   1
loop_
 _symmetry_equiv_pos_site_id
 _symmetry_equiv_pos_as_xyz
  1  'x, y, z'
loop_
 _atom_site_type_symbol
 _atom_site_label
 _atom_site_symmetry_multiplicity
 _atom_site_fract_x
 _atom_site_fract_y
 _atom_site_fract_z
 _atom_site_occupancy
  La  La0  1  0.135714  0.862453  0.321833  1
  La  La1  1  0.388284  0.957940  0.728980  1
  La  La2  1  0.617046  0.044291  0.272817  1
  Tb  Tb3  1  0.532163  0.712882  0.415039  1
  Tb  Tb4  1  0.850828  0.128346  0.669368  1
  Nd  Nd5  1  0.472261  0.295716  0.590957  1
  Os  Os6  1  0.500876  0.999410  0.499270  1
  I  I7  1  0.418994  0.629304  0.674112  1
  I  I8  1  0.585101  0.377540  0.323119  1
  I  I9  1  0.276526  0.258830  0.844339  1
  I  I10  1  0.698948  0.731807  0.152293  1
  I  I11  1  0.860375  0.448652  0.772871  1
  I  I12  1  0.158746  0.540514  0.231799  1
  I  I13  1  0.046589  0.184420  0.418041  1
  I  I14  1  0.242374  0.915069  0.038138  1
  I  I15  1  0.768855  0.090118  0.953977  1
  I  I16  1  0.946318  0.822710  0.593048  1
