# generated using pymatgen
data_Ta5Be(B2Ru5)2
_symmetry_space_group_name_H-M   'P 1'
_cell_length_a   9.28486500
_cell_length_b   9.28486500
_cell_length_c   3.00983500
_cell_angle_alpha   90.00000000
_cell_angle_beta   90.00000000
_cell_angle_gamma   90.00000000
_symmetry_Int_Tables_number   1
_chemical_formula_structural   Ta5Be(B2Ru5)2
_chemical_formula_sum   'Ta5 Be1 B4 Ru10'
_cell_volume   259.47401695
_cell_formula_units_Z   1
loop_
 _symmetry_equiv_pos_site_id
 _symmetry_equiv_pos_as_xyz
  1  'x, y, z'
loop_
 _atom_site_type_symbol
 _atom_site_label
 _atom_site_symmetry_multiplicity
 _atom_site_fract_x
 _atom_site_fract_y
 _atom_site_fract_z
 _atom_site_occupancy
  Ta  Ta0  1  0.818127  0.673366  0.000000  1
  Ta  Ta1  1  0.181873  0.326634  0.000000  1
  Ta  Ta2  1  0.326634  0.818127  0.000000  1
  Ta  Ta3  1  0.673366  0.181873  0.000000  1
  Ta  Ta4  1  0.000000  0.000000  0.000000  1
  Be  Be5  1  0.500000  0.500000  0.000000  1
  B  B6  1  0.613827  0.865162  0.000000  1
  B  B7  1  0.386173  0.134838  0.000000  1
  B  B8  1  0.134838  0.613827  0.000000  1
  B  B9  1  0.865162  0.386173  0.000000  1
  Ru  Ru10  1  0.564477  0.706944  0.500000  1
  Ru  Ru11  1  0.435523  0.293056  0.500000  1
  Ru  Ru12  1  0.074868  0.779912  0.500000  1
  Ru  Ru13  1  0.925132  0.220088  0.500000  1
  Ru  Ru14  1  0.293056  0.564477  0.500000  1
  Ru  Ru15  1  0.706944  0.435523  0.500000  1
  Ru  Ru16  1  0.220088  0.074868  0.500000  1
  Ru  Ru17  1  0.779912  0.925132  0.500000  1
  Ru  Ru18  1  0.500000  0.000000  0.500000  1
  Ru  Ru19  1  0.000000  0.500000  0.500000  1
