# generated using pymatgen
data_Hf4TaTi(NbP2)2
_symmetry_space_group_name_H-M   'P 1'
_cell_length_a   3.52023100
_cell_length_b   6.84967575
_cell_length_c   8.29392706
_cell_angle_alpha   89.75431137
_cell_angle_beta   90.00000000
_cell_angle_gamma   90.00000000
_symmetry_Int_Tables_number   1
_chemical_formula_structural   Hf4TaTi(NbP2)2
_chemical_formula_sum   'Hf4 Ta1 Ti1 Nb2 P4'
_cell_volume   199.98498744
_cell_formula_units_Z   1
loop_
 _symmetry_equiv_pos_site_id
 _symmetry_equiv_pos_as_xyz
  1  'x, y, z'
loop_
 _atom_site_type_symbol
 _atom_site_label
 _atom_site_symmetry_multiplicity
 _atom_site_fract_x
 _atom_site_fract_y
 _atom_site_fract_z
 _atom_site_occupancy
  Hf  Hf0  1  0.250000  0.032695  0.666505  1
  Hf  Hf1  1  0.250000  0.533029  0.831373  1
  Hf  Hf2  1  0.750000  0.468236  0.168868  1
  Hf  Hf3  1  0.750000  0.967082  0.333401  1
  Ta  Ta4  1  0.750000  0.858417  0.940154  1
  Ti  Ti5  1  0.250000  0.637977  0.440028  1
  Nb  Nb6  1  0.750000  0.362007  0.559879  1
  Nb  Nb7  1  0.250000  0.140404  0.060585  1
  P  P8  1  0.250000  0.264576  0.357843  1
  P  P9  1  0.250000  0.761692  0.147816  1
  P  P10  1  0.750000  0.737810  0.638055  1
  P  P11  1  0.750000  0.236077  0.855497  1
