# generated using pymatgen
data_Ho3PaZn2Ir3
_symmetry_space_group_name_H-M   'P 1'
_cell_length_a   7.47226556
_cell_length_b   7.35358326
_cell_length_c   3.88543700
_cell_angle_alpha   90.00000000
_cell_angle_beta   90.00000000
_cell_angle_gamma   119.47595907
_symmetry_Int_Tables_number   1
_chemical_formula_structural   Ho3PaZn2Ir3
_chemical_formula_sum   'Ho3 Pa1 Zn2 Ir3'
_cell_volume   185.86217191
_cell_formula_units_Z   1
loop_
 _symmetry_equiv_pos_site_id
 _symmetry_equiv_pos_as_xyz
  1  'x, y, z'
loop_
 _atom_site_type_symbol
 _atom_site_label
 _atom_site_symmetry_multiplicity
 _atom_site_fract_x
 _atom_site_fract_y
 _atom_site_fract_z
 _atom_site_occupancy
  Ho  Ho0  1  0.552583  0.587369  0.000000  1
  Ho  Ho1  1  0.447417  0.034786  0.000000  1
  Ho  Ho2  1  0.000000  0.367803  0.000000  1
  Pa  Pa3  1  0.000000  0.742208  0.500000  1
  Zn  Zn4  1  0.260987  0.252594  0.500000  1
  Zn  Zn5  1  0.739013  0.991608  0.500000  1
  Ir  Ir6  1  0.000000  0.992988  0.000000  1
  Ir  Ir7  1  0.684198  0.357420  0.500000  1
  Ir  Ir8  1  0.315802  0.673223  0.500000  1
