# generated using pymatgen
data_Lu16Tl4Ni3Ru
_symmetry_space_group_name_H-M   'P 1'
_cell_length_a   9.37570013
_cell_length_b   9.37570080
_cell_length_c   9.37570100
_cell_angle_alpha   59.83957791
_cell_angle_beta   59.83957551
_cell_angle_gamma   59.83957662
_symmetry_Int_Tables_number   1
_chemical_formula_structural   Lu16Tl4Ni3Ru
_chemical_formula_sum   'Lu16 Tl4 Ni3 Ru1'
_cell_volume   580.64690035
_cell_formula_units_Z   1
loop_
 _symmetry_equiv_pos_site_id
 _symmetry_equiv_pos_as_xyz
  1  'x, y, z'
loop_
 _atom_site_type_symbol
 _atom_site_label
 _atom_site_symmetry_multiplicity
 _atom_site_fract_x
 _atom_site_fract_y
 _atom_site_fract_z
 _atom_site_occupancy
  Lu  Lu0  1  0.347983  0.347983  0.347983  1
  Lu  Lu1  1  0.349305  0.349305  0.956029  1
  Lu  Lu2  1  0.349305  0.956029  0.349305  1
  Lu  Lu3  1  0.956029  0.349305  0.349305  1
  Lu  Lu4  1  0.811802  0.187306  0.187306  1
  Lu  Lu5  1  0.186696  0.811854  0.811854  1
  Lu  Lu6  1  0.187306  0.811802  0.187306  1
  Lu  Lu7  1  0.811854  0.186696  0.811854  1
  Lu  Lu8  1  0.187306  0.187306  0.811802  1
  Lu  Lu9  1  0.811854  0.811854  0.186696  1
  Lu  Lu10  1  0.937431  0.562347  0.562347  1
  Lu  Lu11  1  0.556904  0.940083  0.940083  1
  Lu  Lu12  1  0.562347  0.937431  0.562347  1
  Lu  Lu13  1  0.940083  0.556904  0.940083  1
  Lu  Lu14  1  0.562347  0.562347  0.937431  1
  Lu  Lu15  1  0.940083  0.940083  0.556904  1
  Tl  Tl16  1  0.585614  0.585614  0.585614  1
  Tl  Tl17  1  0.585258  0.585258  0.242722  1
  Tl  Tl18  1  0.585258  0.242722  0.585258  1
  Tl  Tl19  1  0.242722  0.585258  0.585258  1
  Ni  Ni20  1  0.142237  0.142237  0.575408  1
  Ni  Ni21  1  0.142237  0.575408  0.142237  1
  Ni  Ni22  1  0.575408  0.142237  0.142237  1
  Ru  Ru23  1  0.142628  0.142628  0.142628  1
