# generated using pymatgen
data_RbLa4Tl7Br20
_symmetry_space_group_name_H-M   'P 1'
_cell_length_a   8.83718042
_cell_length_b   9.26471067
_cell_length_c   14.06282000
_cell_angle_alpha   89.93466282
_cell_angle_beta   89.93091190
_cell_angle_gamma   90.23898216
_symmetry_Int_Tables_number   1
_chemical_formula_structural   RbLa4Tl7Br20
_chemical_formula_sum   'Rb1 La4 Tl7 Br20'
_cell_volume   1151.36658844
_cell_formula_units_Z   1
loop_
 _symmetry_equiv_pos_site_id
 _symmetry_equiv_pos_as_xyz
  1  'x, y, z'
loop_
 _atom_site_type_symbol
 _atom_site_label
 _atom_site_symmetry_multiplicity
 _atom_site_fract_x
 _atom_site_fract_y
 _atom_site_fract_z
 _atom_site_occupancy
  Rb  Rb0  1  0.944076  0.003862  0.827643  1
  La  La1  1  0.926679  0.749448  0.505142  1
  La  La2  1  0.073587  0.250599  0.494465  1
  La  La3  1  0.426439  0.250271  0.994865  1
  La  La4  1  0.573496  0.749375  0.005556  1
  Tl  Tl5  1  0.055353  0.996995  0.172750  1
  Tl  Tl6  1  0.444394  0.996859  0.672332  1
  Tl  Tl7  1  0.055294  0.502961  0.172339  1
  Tl  Tl8  1  0.555422  0.003059  0.327476  1
  Tl  Tl9  1  0.944596  0.497545  0.827362  1
  Tl  Tl10  1  0.555310  0.497050  0.327446  1
  Tl  Tl11  1  0.444431  0.503183  0.672713  1
  Br  Br12  1  0.123572  0.747743  0.679375  1
  Br  Br13  1  0.877873  0.249952  0.319458  1
  Br  Br14  1  0.621300  0.251110  0.819281  1
  Br  Br15  1  0.377769  0.749707  0.180677  1
  Br  Br16  1  0.833758  0.044837  0.575409  1
  Br  Br17  1  0.165457  0.955433  0.423834  1
  Br  Br18  1  0.335459  0.954221  0.924192  1
  Br  Br19  1  0.165792  0.545716  0.423988  1
  Br  Br20  1  0.665560  0.045499  0.076014  1
  Br  Br21  1  0.834037  0.454274  0.576217  1
  Br  Br22  1  0.665057  0.454558  0.075976  1
  Br  Br23  1  0.334737  0.545083  0.923611  1
  Br  Br24  1  0.581537  0.749416  0.508743  1
  Br  Br25  1  0.418518  0.250489  0.491228  1
  Br  Br26  1  0.082795  0.251462  0.992319  1
  Br  Br27  1  0.917911  0.748661  0.010253  1
  Br  Br28  1  0.657372  0.748712  0.797972  1
  Br  Br29  1  0.340906  0.249762  0.202151  1
  Br  Br30  1  0.160369  0.252509  0.701118  1
  Br  Br31  1  0.841141  0.749652  0.298093  1
