# generated using pymatgen
data_La3PrHg2RhAu3
_symmetry_space_group_name_H-M   'P 1'
_cell_length_a   8.16457269
_cell_length_b   8.14009471
_cell_length_c   3.91983700
_cell_angle_alpha   90.00000000
_cell_angle_beta   90.00000000
_cell_angle_gamma   90.78287006
_symmetry_Int_Tables_number   1
_chemical_formula_structural   La3PrHg2RhAu3
_chemical_formula_sum   'La3 Pr1 Hg2 Rh1 Au3'
_cell_volume   260.48959711
_cell_formula_units_Z   1
loop_
 _symmetry_equiv_pos_site_id
 _symmetry_equiv_pos_as_xyz
  1  'x, y, z'
loop_
 _atom_site_type_symbol
 _atom_site_label
 _atom_site_symmetry_multiplicity
 _atom_site_fract_x
 _atom_site_fract_y
 _atom_site_fract_z
 _atom_site_occupancy
  La  La0  1  0.692749  0.191179  0.500000  1
  La  La1  1  0.819717  0.655750  0.500000  1
  La  La2  1  0.326467  0.826901  0.500000  1
  Pr  Pr3  1  0.157130  0.318409  0.500000  1
  Hg  Hg4  1  0.001212  0.003470  0.000000  1
  Hg  Hg5  1  0.501458  0.498681  0.000000  1
  Rh  Rh6  1  0.867524  0.375672  0.000000  1
  Au  Au7  1  0.124032  0.619356  0.000000  1
  Au  Au8  1  0.630161  0.880016  0.000000  1
  Au  Au9  1  0.379549  0.130564  0.000000  1
