# generated using pymatgen
data_SrPr3Mn4(PtO5)4
_symmetry_space_group_name_H-M   'P 1'
_cell_length_a   6.09752000
_cell_length_b   7.65124509
_cell_length_c   8.89179625
_cell_angle_alpha   89.79557307
_cell_angle_beta   90.00000000
_cell_angle_gamma   90.00000000
_symmetry_Int_Tables_number   1
_chemical_formula_structural   SrPr3Mn4(PtO5)4
_chemical_formula_sum   'Sr1 Pr3 Mn4 Pt4 O20'
_cell_volume   414.83184251
_cell_formula_units_Z   1
loop_
 _symmetry_equiv_pos_site_id
 _symmetry_equiv_pos_as_xyz
  1  'x, y, z'
loop_
 _atom_site_type_symbol
 _atom_site_label
 _atom_site_symmetry_multiplicity
 _atom_site_fract_x
 _atom_site_fract_y
 _atom_site_fract_z
 _atom_site_occupancy
  Sr  Sr0  1  0.000000  0.360911  0.670182  1
  Pr  Pr1  1  0.000000  0.632411  0.333126  1
  Pr  Pr2  1  0.000000  0.860865  0.829550  1
  Pr  Pr3  1  0.000000  0.136522  0.169417  1
  Mn  Mn4  1  0.500000  0.081262  0.850626  1
  Mn  Mn5  1  0.500000  0.916823  0.148665  1
  Mn  Mn6  1  0.500000  0.585012  0.648456  1
  Mn  Mn7  1  0.500000  0.419909  0.351170  1
  Pt  Pt8  1  0.254267  0.501219  0.999831  1
  Pt  Pt9  1  0.745587  0.998770  0.499599  1
  Pt  Pt10  1  0.745733  0.501219  0.999831  1
  Pt  Pt11  1  0.254413  0.998770  0.499599  1
  O  O12  1  0.246261  0.899429  0.286020  1
  O  O13  1  0.249674  0.089838  0.714171  1
  O  O14  1  0.754586  0.397882  0.213205  1
  O  O15  1  0.747562  0.608298  0.789150  1
  O  O16  1  0.750326  0.089838  0.714171  1
  O  O17  1  0.753739  0.899429  0.286020  1
  O  O18  1  0.252438  0.608298  0.789150  1
  O  O19  1  0.245414  0.397882  0.213205  1
  O  O20  1  0.500000  0.343845  0.934767  1
  O  O21  1  0.500000  0.656536  0.065717  1
  O  O22  1  0.500000  0.843488  0.563181  1
  O  O23  1  0.500000  0.156848  0.435109  1
  O  O24  1  0.282005  0.000784  0.001411  1
  O  O25  1  0.712703  0.508278  0.495152  1
  O  O26  1  0.717995  0.000784  0.001411  1
  O  O27  1  0.287297  0.508278  0.495152  1
  O  O28  1  0.000000  0.159428  0.440559  1
  O  O29  1  0.000000  0.833765  0.555655  1
  O  O30  1  0.000000  0.665226  0.058191  1
  O  O31  1  0.000000  0.338155  0.948552  1
