# generated using pymatgen
data_HoTmTa2(SnPt)4
_symmetry_space_group_name_H-M   'P 1'
_cell_length_a   6.44066200
_cell_length_b   4.53522100
_cell_length_c   9.09619051
_cell_angle_alpha   90.00000000
_cell_angle_beta   90.01871009
_cell_angle_gamma   90.00000000
_symmetry_Int_Tables_number   1
_chemical_formula_structural   HoTmTa2(SnPt)4
_chemical_formula_sum   'Ho1 Tm1 Ta2 Sn4 Pt4'
_cell_volume   265.69812382
_cell_formula_units_Z   1
loop_
 _symmetry_equiv_pos_site_id
 _symmetry_equiv_pos_as_xyz
  1  'x, y, z'
loop_
 _atom_site_type_symbol
 _atom_site_label
 _atom_site_symmetry_multiplicity
 _atom_site_fract_x
 _atom_site_fract_y
 _atom_site_fract_z
 _atom_site_occupancy
  Ho  Ho0  1  0.004390  0.000000  0.376686  1
  Tm  Tm1  1  0.504775  0.500000  0.623145  1
  Ta  Ta2  1  0.496700  0.500000  0.122394  1
  Ta  Ta3  1  0.996681  0.000000  0.877596  1
  Sn  Sn4  1  0.984782  0.500000  0.126065  1
  Sn  Sn5  1  0.511587  0.000000  0.373372  1
  Sn  Sn6  1  0.011879  0.500000  0.627581  1
  Sn  Sn7  1  0.484546  0.000000  0.873076  1
  Pt  Pt8  1  0.734615  0.000000  0.110319  1
  Pt  Pt9  1  0.268575  0.500000  0.356436  1
  Pt  Pt10  1  0.765986  0.000000  0.644308  1
  Pt  Pt11  1  0.235481  0.500000  0.889020  1
