# generated using pymatgen
data_Hf9GaMo4
_symmetry_space_group_name_H-M   'P 1'
_cell_length_a   8.67131000
_cell_length_b   8.67130936
_cell_length_c   8.72174100
_cell_angle_alpha   90.00000000
_cell_angle_beta   90.00000000
_cell_angle_gamma   120.00000246
_symmetry_Int_Tables_number   1
_chemical_formula_structural   Hf9GaMo4
_chemical_formula_sum   'Hf18 Ga2 Mo8'
_cell_volume   567.94097091
_cell_formula_units_Z   2
loop_
 _symmetry_equiv_pos_site_id
 _symmetry_equiv_pos_as_xyz
  1  'x, y, z'
loop_
 _atom_site_type_symbol
 _atom_site_label
 _atom_site_symmetry_multiplicity
 _atom_site_fract_x
 _atom_site_fract_y
 _atom_site_fract_z
 _atom_site_occupancy
  Hf  Hf0  1  0.196773  0.803227  0.454908  1
  Hf  Hf1  1  0.196773  0.393545  0.454908  1
  Hf  Hf2  1  0.606455  0.803227  0.454908  1
  Hf  Hf3  1  0.803227  0.196773  0.545092  1
  Hf  Hf4  1  0.803227  0.606455  0.545092  1
  Hf  Hf5  1  0.393545  0.196773  0.545092  1
  Hf  Hf6  1  0.803227  0.196773  0.954908  1
  Hf  Hf7  1  0.803227  0.606455  0.954908  1
  Hf  Hf8  1  0.393545  0.196773  0.954908  1
  Hf  Hf9  1  0.196773  0.803227  0.045092  1
  Hf  Hf10  1  0.196773  0.393545  0.045092  1
  Hf  Hf11  1  0.606455  0.803227  0.045092  1
  Hf  Hf12  1  0.539157  0.460843  0.250000  1
  Hf  Hf13  1  0.539157  0.078314  0.250000  1
  Hf  Hf14  1  0.921686  0.460843  0.250000  1
  Hf  Hf15  1  0.460843  0.539157  0.750000  1
  Hf  Hf16  1  0.460843  0.921686  0.750000  1
  Hf  Hf17  1  0.078314  0.539157  0.750000  1
  Ga  Ga18  1  0.333333  0.666667  0.250000  1
  Ga  Ga19  1  0.666667  0.333333  0.750000  1
  Mo  Mo20  1  0.889159  0.110841  0.250000  1
  Mo  Mo21  1  0.889159  0.778317  0.250000  1
  Mo  Mo22  1  0.221683  0.110841  0.250000  1
  Mo  Mo23  1  0.110841  0.889159  0.750000  1
  Mo  Mo24  1  0.110841  0.221683  0.750000  1
  Mo  Mo25  1  0.778317  0.889159  0.750000  1
  Mo  Mo26  1  0.000000  0.000000  0.500000  1
  Mo  Mo27  1  0.000000  0.000000  0.000000  1
