# generated using pymatgen
data_YTm5Al14(Si5Ru4)2
_symmetry_space_group_name_H-M   'P 1'
_cell_length_a   8.64336020
_cell_length_b   8.65019814
_cell_length_c   9.30475700
_cell_angle_alpha   90.00000000
_cell_angle_beta   90.00000000
_cell_angle_gamma   119.95810019
_symmetry_Int_Tables_number   1
_chemical_formula_structural   YTm5Al14(Si5Ru4)2
_chemical_formula_sum   'Y1 Tm5 Al14 Si10 Ru8'
_cell_volume   602.73657143
_cell_formula_units_Z   1
loop_
 _symmetry_equiv_pos_site_id
 _symmetry_equiv_pos_as_xyz
  1  'x, y, z'
loop_
 _atom_site_type_symbol
 _atom_site_label
 _atom_site_symmetry_multiplicity
 _atom_site_fract_x
 _atom_site_fract_y
 _atom_site_fract_z
 _atom_site_occupancy
  Y  Y0  1  0.809919  0.192096  0.750000  1
  Tm  Tm1  1  0.191293  0.804133  0.250000  1
  Tm  Tm2  1  0.386572  0.194267  0.750000  1
  Tm  Tm3  1  0.612633  0.804055  0.250000  1
  Tm  Tm4  1  0.805936  0.612139  0.750000  1
  Tm  Tm5  1  0.194452  0.389075  0.250000  1
  Al  Al6  1  0.835262  0.163294  0.418062  1
  Al  Al7  1  0.164687  0.834792  0.581332  1
  Al  Al8  1  0.327222  0.162967  0.418545  1
  Al  Al9  1  0.164687  0.834792  0.918668  1
  Al  Al10  1  0.668260  0.833456  0.580733  1
  Al  Al11  1  0.835262  0.163294  0.081938  1
  Al  Al12  1  0.836153  0.672393  0.418344  1
  Al  Al13  1  0.668260  0.833456  0.919267  1
  Al  Al14  1  0.166785  0.332539  0.579890  1
  Al  Al15  1  0.327222  0.162967  0.081455  1
  Al  Al16  1  0.166785  0.332539  0.920110  1
  Al  Al17  1  0.836153  0.672393  0.081656  1
  Al  Al18  1  0.563985  0.128836  0.250000  1
  Al  Al19  1  0.000367  0.000399  0.250000  1
  Si  Si20  1  0.665393  0.331214  0.958902  1
  Si  Si21  1  0.334024  0.668540  0.043155  1
  Si  Si22  1  0.334024  0.668540  0.456845  1
  Si  Si23  1  0.665393  0.331214  0.541098  1
  Si  Si24  1  0.438999  0.562449  0.750000  1
  Si  Si25  1  0.564008  0.438536  0.250000  1
  Si  Si26  1  0.125833  0.564755  0.750000  1
  Si  Si27  1  0.874807  0.439031  0.250000  1
  Si  Si28  1  0.435483  0.873529  0.750000  1
  Si  Si29  1  0.003090  0.995657  0.750000  1
  Ru  Ru30  1  0.500055  0.500689  0.999312  1
  Ru  Ru31  1  0.001349  0.501816  0.999717  1
  Ru  Ru32  1  0.500055  0.500689  0.500688  1
  Ru  Ru33  1  0.498209  0.998041  0.993911  1
  Ru  Ru34  1  0.001349  0.501816  0.500283  1
  Ru  Ru35  1  0.498209  0.998041  0.506089  1
  Ru  Ru36  1  0.998912  0.000779  0.992634  1
  Ru  Ru37  1  0.998912  0.000779  0.507366  1
