# generated using pymatgen
data_Tm5Ge3P9Ir10Rh9
_symmetry_space_group_name_H-M   'P 1'
_cell_length_a   12.79893500
_cell_length_b   12.79893438
_cell_length_c   3.94400500
_cell_angle_alpha   90.00000000
_cell_angle_beta   90.00000000
_cell_angle_gamma   119.99999385
_symmetry_Int_Tables_number   1
_chemical_formula_structural   Tm5Ge3P9Ir10Rh9
_chemical_formula_sum   'Tm5 Ge3 P9 Ir10 Rh9'
_cell_volume   559.52018858
_cell_formula_units_Z   1
loop_
 _symmetry_equiv_pos_site_id
 _symmetry_equiv_pos_as_xyz
  1  'x, y, z'
loop_
 _atom_site_type_symbol
 _atom_site_label
 _atom_site_symmetry_multiplicity
 _atom_site_fract_x
 _atom_site_fract_y
 _atom_site_fract_z
 _atom_site_occupancy
  Tm  Tm0  1  0.333333  0.666667  0.500000  1
  Tm  Tm1  1  0.666667  0.333333  0.500000  1
  Tm  Tm2  1  0.180220  0.180220  0.000000  1
  Tm  Tm3  1  0.819780  0.000000  0.000000  1
  Tm  Tm4  1  0.000000  0.819780  0.000000  1
  Ge  Ge5  1  0.360598  0.360598  0.500000  1
  Ge  Ge6  1  0.639402  0.000000  0.500000  1
  Ge  Ge7  1  0.000000  0.639402  0.500000  1
  P  P8  1  0.313968  0.830970  0.000000  1
  P  P9  1  0.169030  0.482997  0.000000  1
  P  P10  1  0.517003  0.686032  0.000000  1
  P  P11  1  0.830970  0.313968  0.000000  1
  P  P12  1  0.482997  0.169030  0.000000  1
  P  P13  1  0.686032  0.517003  0.000000  1
  P  P14  1  0.820542  0.820542  0.500000  1
  P  P15  1  0.179458  0.000000  0.500000  1
  P  P16  1  0.000000  0.179458  0.500000  1
  Ir  Ir17  1  0.137149  0.642619  0.000000  1
  Ir  Ir18  1  0.357381  0.494530  0.000000  1
  Ir  Ir19  1  0.505470  0.862851  0.000000  1
  Ir  Ir20  1  0.642619  0.137149  0.000000  1
  Ir  Ir21  1  0.494530  0.357381  0.000000  1
  Ir  Ir22  1  0.862851  0.505470  0.000000  1
  Ir  Ir23  1  0.717942  0.717942  0.000000  1
  Ir  Ir24  1  0.282058  0.000000  0.000000  1
  Ir  Ir25  1  0.000000  0.282058  0.000000  1
  Ir  Ir26  1  0.000000  0.000000  0.500000  1
  Rh  Rh27  1  0.200215  0.825182  0.500000  1
  Rh  Rh28  1  0.174818  0.375034  0.500000  1
  Rh  Rh29  1  0.624966  0.799785  0.500000  1
  Rh  Rh30  1  0.825182  0.200215  0.500000  1
  Rh  Rh31  1  0.375034  0.174818  0.500000  1
  Rh  Rh32  1  0.799785  0.624966  0.500000  1
  Rh  Rh33  1  0.550028  0.550028  0.500000  1
  Rh  Rh34  1  0.449972  0.000000  0.500000  1
  Rh  Rh35  1  0.000000  0.449972  0.500000  1
