# generated using pymatgen
data_Ho4TmCo(P2Ru3)6
_symmetry_space_group_name_H-M   'P 1'
_cell_length_a   12.46947529
_cell_length_b   12.47411124
_cell_length_c   3.96404800
_cell_angle_alpha   90.00000000
_cell_angle_beta   90.00000000
_cell_angle_gamma   120.01230253
_symmetry_Int_Tables_number   1
_chemical_formula_structural   Ho4TmCo(P2Ru3)6
_chemical_formula_sum   'Ho4 Tm1 Co1 P12 Ru18'
_cell_volume   533.91666372
_cell_formula_units_Z   1
loop_
 _symmetry_equiv_pos_site_id
 _symmetry_equiv_pos_as_xyz
  1  'x, y, z'
loop_
 _atom_site_type_symbol
 _atom_site_label
 _atom_site_symmetry_multiplicity
 _atom_site_fract_x
 _atom_site_fract_y
 _atom_site_fract_z
 _atom_site_occupancy
  Ho  Ho0  1  0.666680  0.333347  0.000000  1
  Ho  Ho1  1  0.333320  0.666668  0.000000  1
  Ho  Ho2  1  0.182607  0.182599  0.500000  1
  Ho  Ho3  1  0.817393  0.999993  0.500000  1
  Tm  Tm4  1  0.000000  0.817361  0.500000  1
  Co  Co5  1  0.000000  0.999662  0.000000  1
  P  P6  1  0.372627  0.372614  0.000000  1
  P  P7  1  0.627373  0.999987  0.000000  1
  P  P8  1  0.000000  0.627528  0.000000  1
  P  P9  1  0.830694  0.306922  0.500000  1
  P  P10  1  0.693121  0.523832  0.500000  1
  P  P11  1  0.476095  0.169263  0.500000  1
  P  P12  1  0.306879  0.830709  0.500000  1
  P  P13  1  0.523905  0.693167  0.500000  1
  P  P14  1  0.169306  0.476227  0.500000  1
  P  P15  1  0.823742  0.823446  0.000000  1
  P  P16  1  0.176258  0.999704  0.000000  1
  P  P17  1  0.000000  0.176521  0.000000  1
  Ru  Ru18  1  0.815999  0.190619  0.000000  1
  Ru  Ru19  1  0.809933  0.625856  0.000000  1
  Ru  Ru20  1  0.374589  0.183937  0.000000  1
  Ru  Ru21  1  0.190067  0.815924  0.000000  1
  Ru  Ru22  1  0.625411  0.809348  0.000000  1
  Ru  Ru23  1  0.184001  0.374620  0.000000  1
  Ru  Ru24  1  0.556146  0.556108  0.000000  1
  Ru  Ru25  1  0.443854  0.999962  0.000000  1
  Ru  Ru26  1  0.000000  0.443954  0.000000  1
  Ru  Ru27  1  0.634886  0.126347  0.500000  1
  Ru  Ru28  1  0.873650  0.508663  0.500000  1
  Ru  Ru29  1  0.491406  0.365075  0.500000  1
  Ru  Ru30  1  0.126350  0.635012  0.500000  1
  Ru  Ru31  1  0.508594  0.873667  0.500000  1
  Ru  Ru32  1  0.365114  0.491461  0.500000  1
  Ru  Ru33  1  0.721538  0.721290  0.500000  1
  Ru  Ru34  1  0.278462  0.999751  0.500000  1
  Ru  Ru35  1  0.000000  0.278855  0.500000  1
