# generated using pymatgen
data_Tb3Nd5Hf12Si15Au
_symmetry_space_group_name_H-M   'P 1'
_cell_length_a   7.34337822
_cell_length_b   7.40429787
_cell_length_c   13.55945423
_cell_angle_alpha   90.04337835
_cell_angle_beta   89.88209993
_cell_angle_gamma   89.93467655
_symmetry_Int_Tables_number   1
_chemical_formula_structural   Tb3Nd5Hf12Si15Au
_chemical_formula_sum   'Tb3 Nd5 Hf12 Si15 Au1'
_cell_volume   737.25998179
_cell_formula_units_Z   1
loop_
 _symmetry_equiv_pos_site_id
 _symmetry_equiv_pos_as_xyz
  1  'x, y, z'
loop_
 _atom_site_type_symbol
 _atom_site_label
 _atom_site_symmetry_multiplicity
 _atom_site_fract_x
 _atom_site_fract_y
 _atom_site_fract_z
 _atom_site_occupancy
  Tb  Tb0  1  0.498029  0.152670  0.537886  1
  Tb  Tb1  1  0.343164  0.999407  0.784716  1
  Tb  Tb2  1  0.660607  0.996212  0.284410  1
  Nd  Nd3  1  0.990620  0.344969  0.215285  1
  Nd  Nd4  1  0.006291  0.656521  0.714885  1
  Nd  Nd5  1  0.155751  0.496670  0.466391  1
  Nd  Nd6  1  0.505708  0.841957  0.033225  1
  Nd  Nd7  1  0.842500  0.504086  0.964588  1
  Hf  Hf8  1  0.175202  0.175839  0.998994  1
  Hf  Hf9  1  0.824560  0.826203  0.500625  1
  Hf  Hf10  1  0.326697  0.682212  0.249341  1
  Hf  Hf11  1  0.674625  0.323444  0.749939  1
  Hf  Hf12  1  0.148118  0.996266  0.375126  1
  Hf  Hf13  1  0.850302  0.005900  0.873354  1
  Hf  Hf14  1  0.505050  0.651216  0.624325  1
  Hf  Hf15  1  0.349123  0.493388  0.874667  1
  Hf  Hf16  1  0.494196  0.348179  0.121663  1
  Hf  Hf17  1  0.652569  0.512114  0.381253  1
  Hf  Hf18  1  0.994241  0.149333  0.626494  1
  Hf  Hf19  1  0.003664  0.848607  0.124304  1
  Si  Si20  1  0.631515  0.707763  0.815485  1
  Si  Si21  1  0.207140  0.868535  0.566648  1
  Si  Si22  1  0.136621  0.798626  0.932231  1
  Si  Si23  1  0.795197  0.133866  0.064983  1
  Si  Si24  1  0.858804  0.197194  0.436167  1
  Si  Si25  1  0.299205  0.360678  0.683804  1
  Si  Si26  1  0.702692  0.638368  0.185362  1
  Si  Si27  1  0.290352  0.045714  0.182678  1
  Si  Si28  1  0.704691  0.952610  0.685592  1
  Si  Si29  1  0.450794  0.796303  0.435517  1
  Si  Si30  1  0.208694  0.550780  0.063947  1
  Si  Si31  1  0.547284  0.206561  0.933490  1
  Si  Si32  1  0.788940  0.446162  0.566680  1
  Si  Si33  1  0.051422  0.290265  0.814530  1
  Si  Si34  1  0.949163  0.710147  0.313990  1
  Au  Au35  1  0.376470  0.291236  0.317424  1
