# generated using pymatgen
data_Y12Co6Bi
_symmetry_space_group_name_H-M   'P 1'
_cell_length_a   8.45351548
_cell_length_b   8.45351601
_cell_length_c   8.45351600
_cell_angle_alpha   109.47121581
_cell_angle_beta   109.47121709
_cell_angle_gamma   109.47122629
_symmetry_Int_Tables_number   1
_chemical_formula_structural   Y12Co6Bi
_chemical_formula_sum   'Y12 Co6 Bi1'
_cell_volume   465.03991920
_cell_formula_units_Z   1
loop_
 _symmetry_equiv_pos_site_id
 _symmetry_equiv_pos_as_xyz
  1  'x, y, z'
loop_
 _atom_site_type_symbol
 _atom_site_label
 _atom_site_symmetry_multiplicity
 _atom_site_fract_x
 _atom_site_fract_y
 _atom_site_fract_z
 _atom_site_occupancy
  Y  Y0  1  0.693706  0.196016  0.889723  1
  Y  Y1  1  0.803984  0.497690  0.693706  1
  Y  Y2  1  0.502310  0.306294  0.196016  1
  Y  Y3  1  0.803984  0.110277  0.306294  1
  Y  Y4  1  0.497690  0.693706  0.803984  1
  Y  Y5  1  0.196016  0.502310  0.306294  1
  Y  Y6  1  0.110277  0.306294  0.803984  1
  Y  Y7  1  0.889723  0.693706  0.196016  1
  Y  Y8  1  0.196016  0.889723  0.693706  1
  Y  Y9  1  0.693706  0.803984  0.497690  1
  Y  Y10  1  0.306294  0.196016  0.502310  1
  Y  Y11  1  0.306294  0.803984  0.110277  1
  Co  Co12  1  0.611674  0.111674  0.500000  1
  Co  Co13  1  0.888326  0.500000  0.388326  1
  Co  Co14  1  0.500000  0.388326  0.888326  1
  Co  Co15  1  0.111674  0.500000  0.611674  1
  Co  Co16  1  0.500000  0.611674  0.111674  1
  Co  Co17  1  0.388326  0.888326  0.500000  1
  Bi  Bi18  1  0.000000  0.000000  0.000000  1
