# generated using pymatgen
data_Tc2TeSeF24
_symmetry_space_group_name_H-M   'P 1'
_cell_length_a   5.19562675
_cell_length_b   9.29360000
_cell_length_c   10.06543805
_cell_angle_alpha   90.00000000
_cell_angle_beta   94.22395835
_cell_angle_gamma   90.00000000
_symmetry_Int_Tables_number   1
_chemical_formula_structural   Tc2TeSeF24
_chemical_formula_sum   'Tc2 Te1 Se1 F24'
_cell_volume   484.70036819
_cell_formula_units_Z   1
loop_
 _symmetry_equiv_pos_site_id
 _symmetry_equiv_pos_as_xyz
  1  'x, y, z'
loop_
 _atom_site_type_symbol
 _atom_site_label
 _atom_site_symmetry_multiplicity
 _atom_site_fract_x
 _atom_site_fract_y
 _atom_site_fract_z
 _atom_site_occupancy
  Tc  Tc0  1  0.418453  0.250000  0.871339  1
  Tc  Tc1  1  0.581027  0.750000  0.127887  1
  Te  Te2  1  0.086962  0.250000  0.371578  1
  Se  Se3  1  0.914003  0.750000  0.629301  1
  F  F4  1  0.167252  0.750000  0.525979  1
  F  F5  1  0.813238  0.250000  0.481437  1
  F  F6  1  0.719838  0.250000  0.984114  1
  F  F7  1  0.278077  0.750000  0.016315  1
  F  F8  1  0.660458  0.750000  0.732637  1
  F  F9  1  0.360214  0.250000  0.261147  1
  F  F10  1  0.116035  0.250000  0.758888  1
  F  F11  1  0.884714  0.750000  0.238981  1
  F  F12  1  0.758913  0.617851  0.530873  1
  F  F13  1  0.251823  0.391816  0.477709  1
  F  F14  1  0.281258  0.391082  0.975967  1
  F  F15  1  0.251823  0.108184  0.477709  1
  F  F16  1  0.716068  0.608973  0.022778  1
  F  F17  1  0.758913  0.882149  0.530873  1
  F  F18  1  0.716068  0.891027  0.022778  1
  F  F19  1  0.281258  0.108918  0.975967  1
  F  F20  1  0.068342  0.617806  0.727794  1
  F  F21  1  0.923031  0.392140  0.265335  1
  F  F22  1  0.554462  0.391198  0.766740  1
  F  F23  1  0.923031  0.107860  0.265335  1
  F  F24  1  0.445968  0.609053  0.233001  1
  F  F25  1  0.068342  0.882194  0.727794  1
  F  F26  1  0.445968  0.890947  0.233001  1
  F  F27  1  0.554462  0.108802  0.766740  1
