# generated using pymatgen
data_CaZn5(AsO4)4
_symmetry_space_group_name_H-M   'P 1'
_cell_length_a   8.92936397
_cell_length_b   5.35857786
_cell_length_c   9.13949559
_cell_angle_alpha   60.57078823
_cell_angle_beta   89.68660631
_cell_angle_gamma   89.64743404
_symmetry_Int_Tables_number   1
_chemical_formula_structural   CaZn5(AsO4)4
_chemical_formula_sum   'Ca1 Zn5 As4 O16'
_cell_volume   380.87483184
_cell_formula_units_Z   1
loop_
 _symmetry_equiv_pos_site_id
 _symmetry_equiv_pos_as_xyz
  1  'x, y, z'
loop_
 _atom_site_type_symbol
 _atom_site_label
 _atom_site_symmetry_multiplicity
 _atom_site_fract_x
 _atom_site_fract_y
 _atom_site_fract_z
 _atom_site_occupancy
  Ca  Ca0  1  0.000000  0.500000  0.500000  1
  Zn  Zn1  1  0.135722  0.458013  0.114169  1
  Zn  Zn2  1  0.633253  0.513459  0.388775  1
  Zn  Zn3  1  0.864278  0.541987  0.885831  1
  Zn  Zn4  1  0.366747  0.486541  0.611225  1
  Zn  Zn5  1  0.500000  0.500000  0.000000  1
  As  As6  1  0.313518  0.842614  0.188586  1
  As  As7  1  0.792497  0.155918  0.292696  1
  As  As8  1  0.686482  0.157386  0.811414  1
  As  As9  1  0.207503  0.844082  0.707304  1
  O  O10  1  0.075854  0.690894  0.868341  1
  O  O11  1  0.570657  0.309843  0.636909  1
  O  O12  1  0.924146  0.309106  0.131659  1
  O  O13  1  0.429343  0.690157  0.363091  1
  O  O14  1  0.209728  0.202205  0.645494  1
  O  O15  1  0.698611  0.796284  0.876595  1
  O  O16  1  0.790272  0.797795  0.354506  1
  O  O17  1  0.301389  0.203716  0.123405  1
  O  O18  1  0.156787  0.795934  0.542941  1
  O  O19  1  0.627484  0.214125  0.970665  1
  O  O20  1  0.141713  0.666985  0.244804  1
  O  O21  1  0.622468  0.339177  0.235348  1
  O  O22  1  0.858287  0.333015  0.755196  1
  O  O23  1  0.377532  0.660823  0.764652  1
  O  O24  1  0.372516  0.785875  0.029335  1
  O  O25  1  0.843213  0.204066  0.457059  1
