# generated using pymatgen
data_Ce2TaBiF15
_symmetry_space_group_name_H-M   'P 1'
_cell_length_a   8.55394273
_cell_length_b   8.55394444
_cell_length_c   8.60947800
_cell_angle_alpha   79.67152962
_cell_angle_beta   79.67152073
_cell_angle_gamma   99.53031421
_symmetry_Int_Tables_number   1
_chemical_formula_structural   Ce2TaBiF15
_chemical_formula_sum   'Ce4 Ta2 Bi2 F30'
_cell_volume   596.84763905
_cell_formula_units_Z   2
loop_
 _symmetry_equiv_pos_site_id
 _symmetry_equiv_pos_as_xyz
  1  'x, y, z'
loop_
 _atom_site_type_symbol
 _atom_site_label
 _atom_site_symmetry_multiplicity
 _atom_site_fract_x
 _atom_site_fract_y
 _atom_site_fract_z
 _atom_site_occupancy
  Ce  Ce0  1  0.749904  0.676201  0.672464  1
  Ce  Ce1  1  0.323799  0.250096  0.827536  1
  Ce  Ce2  1  0.250096  0.323799  0.327536  1
  Ce  Ce3  1  0.676201  0.749904  0.172464  1
  Ta  Ta4  1  0.751607  0.248393  0.250000  1
  Ta  Ta5  1  0.248393  0.751607  0.750000  1
  Bi  Bi6  1  0.174865  0.825135  0.250000  1
  Bi  Bi7  1  0.825135  0.174865  0.750000  1
  F  F8  1  0.470350  0.529650  0.250000  1
  F  F9  1  0.756373  0.966674  0.969129  1
  F  F10  1  0.033326  0.243627  0.530871  1
  F  F11  1  0.243627  0.033326  0.030871  1
  F  F12  1  0.966674  0.756373  0.469129  1
  F  F13  1  0.529650  0.470350  0.750000  1
  F  F14  1  0.218094  0.519722  0.772570  1
  F  F15  1  0.233720  0.720089  0.979160  1
  F  F16  1  0.017370  0.733869  0.781314  1
  F  F17  1  0.733869  0.017370  0.281314  1
  F  F18  1  0.720089  0.233720  0.479160  1
  F  F19  1  0.519722  0.218094  0.272570  1
  F  F20  1  0.781907  0.480278  0.227430  1
  F  F21  1  0.766280  0.279911  0.020840  1
  F  F22  1  0.982630  0.266131  0.218686  1
  F  F23  1  0.266131  0.982630  0.718686  1
  F  F24  1  0.279911  0.766280  0.520840  1
  F  F25  1  0.480278  0.781906  0.727430  1
  F  F26  1  0.544142  0.144201  0.809677  1
  F  F27  1  0.196284  0.052404  0.352722  1
  F  F28  1  0.647040  0.691576  0.445519  1
  F  F29  1  0.691576  0.647040  0.945519  1
  F  F30  1  0.052404  0.196284  0.852722  1
  F  F31  1  0.144201  0.544142  0.309677  1
  F  F32  1  0.455858  0.855799  0.190323  1
  F  F33  1  0.803716  0.947596  0.647278  1
  F  F34  1  0.352960  0.308424  0.554481  1
  F  F35  1  0.308424  0.352960  0.054481  1
  F  F36  1  0.947596  0.803716  0.147278  1
  F  F37  1  0.855799  0.455858  0.690323  1
