# generated using pymatgen
data_Pa2MnCo3
_symmetry_space_group_name_H-M   'P 1'
_cell_length_a   5.10600399
_cell_length_b   5.10600375
_cell_length_c   4.94713293
_cell_angle_alpha   58.93187441
_cell_angle_beta   58.93188066
_cell_angle_gamma   60.00000526
_symmetry_Int_Tables_number   1
_chemical_formula_structural   Pa2MnCo3
_chemical_formula_sum   'Pa2 Mn1 Co3'
_cell_volume   89.70101018
_cell_formula_units_Z   1
loop_
 _symmetry_equiv_pos_site_id
 _symmetry_equiv_pos_as_xyz
  1  'x, y, z'
loop_
 _atom_site_type_symbol
 _atom_site_label
 _atom_site_symmetry_multiplicity
 _atom_site_fract_x
 _atom_site_fract_y
 _atom_site_fract_z
 _atom_site_occupancy
  Pa  Pa0  1  0.750625  0.750625  0.748124  1
  Pa  Pa1  1  0.499375  0.499375  0.501876  1
  Mn  Mn2  1  0.125000  0.125000  0.625000  1
  Co  Co3  1  0.125000  0.625000  0.125000  1
  Co  Co4  1  0.625000  0.125000  0.125000  1
  Co  Co5  1  0.125000  0.125000  0.125000  1
