# generated using pymatgen
data_NdSiGeRh3
_symmetry_space_group_name_H-M   'P 1'
_cell_length_a   6.75857530
_cell_length_b   6.75271637
_cell_length_c   6.75857546
_cell_angle_alpha   130.55059644
_cell_angle_beta   113.83115440
_cell_angle_gamma   86.92488513
_symmetry_Int_Tables_number   1
_chemical_formula_structural   NdSiGeRh3
_chemical_formula_sum   'Nd2 Si2 Ge2 Rh6'
_cell_volume   204.46474418
_cell_formula_units_Z   2
loop_
 _symmetry_equiv_pos_site_id
 _symmetry_equiv_pos_as_xyz
  1  'x, y, z'
loop_
 _atom_site_type_symbol
 _atom_site_label
 _atom_site_symmetry_multiplicity
 _atom_site_fract_x
 _atom_site_fract_y
 _atom_site_fract_z
 _atom_site_occupancy
  Nd  Nd0  1  0.750949  0.039832  0.288882  1
  Nd  Nd1  1  0.249051  0.960168  0.711118  1
  Si  Si2  1  0.081165  0.282449  0.201284  1
  Si  Si3  1  0.918835  0.717551  0.798716  1
  Ge  Ge4  1  0.578761  0.376488  0.797728  1
  Ge  Ge5  1  0.421239  0.623512  0.202272  1
  Rh  Rh6  1  0.207879  0.500000  0.707879  1
  Rh  Rh7  1  0.729682  0.000000  0.729682  1
  Rh  Rh8  1  0.792121  0.500000  0.292121  1
  Rh  Rh9  1  0.270318  0.000000  0.270318  1
  Rh  Rh10  1  0.500000  0.500000  0.500000  1
  Rh  Rh11  1  0.000000  0.500000  0.000000  1
