# generated using pymatgen
data_YbHo3TaOs7
_symmetry_space_group_name_H-M   'P 1'
_cell_length_a   5.44664800
_cell_length_b   5.44664704
_cell_length_c   8.60800800
_cell_angle_alpha   90.00000000
_cell_angle_beta   90.00000000
_cell_angle_gamma   119.99999370
_symmetry_Int_Tables_number   1
_chemical_formula_structural   YbHo3TaOs7
_chemical_formula_sum   'Yb1 Ho3 Ta1 Os7'
_cell_volume   221.15250483
_cell_formula_units_Z   1
loop_
 _symmetry_equiv_pos_site_id
 _symmetry_equiv_pos_as_xyz
  1  'x, y, z'
loop_
 _atom_site_type_symbol
 _atom_site_label
 _atom_site_symmetry_multiplicity
 _atom_site_fract_x
 _atom_site_fract_y
 _atom_site_fract_z
 _atom_site_occupancy
  Yb  Yb0  1  0.333333  0.666667  0.061491  1
  Ho  Ho1  1  0.333333  0.666667  0.422185  1
  Ho  Ho2  1  0.666667  0.333333  0.571493  1
  Ho  Ho3  1  0.666667  0.333333  0.941407  1
  Ta  Ta4  1  0.000000  0.000000  0.503095  1
  Os  Os5  1  0.000000  0.000000  0.999096  1
  Os  Os6  1  0.827248  0.172752  0.250237  1
  Os  Os7  1  0.827248  0.654496  0.250237  1
  Os  Os8  1  0.345504  0.172752  0.250237  1
  Os  Os9  1  0.174343  0.825657  0.750174  1
  Os  Os10  1  0.174343  0.348686  0.750174  1
  Os  Os11  1  0.651314  0.825657  0.750174  1
