# generated using pymatgen
data_Ce4Ir3PdPb2
_symmetry_space_group_name_H-M   'P 1'
_cell_length_a   7.87880825
_cell_length_b   7.87880825
_cell_length_c   3.69651700
_cell_angle_alpha   90.00000000
_cell_angle_beta   90.00000000
_cell_angle_gamma   89.46693583
_symmetry_Int_Tables_number   1
_chemical_formula_structural   Ce4Ir3PdPb2
_chemical_formula_sum   'Ce4 Ir3 Pd1 Pb2'
_cell_volume   229.45365139
_cell_formula_units_Z   1
loop_
 _symmetry_equiv_pos_site_id
 _symmetry_equiv_pos_as_xyz
  1  'x, y, z'
loop_
 _atom_site_type_symbol
 _atom_site_label
 _atom_site_symmetry_multiplicity
 _atom_site_fract_x
 _atom_site_fract_y
 _atom_site_fract_z
 _atom_site_occupancy
  Ce  Ce0  1  0.658965  0.158965  0.500000  1
  Ce  Ce1  1  0.182149  0.333691  0.500000  1
  Ce  Ce2  1  0.833691  0.682149  0.500000  1
  Ce  Ce3  1  0.326334  0.826334  0.500000  1
  Ir  Ir4  1  0.367382  0.131199  0.000000  1
  Ir  Ir5  1  0.126424  0.626424  0.000000  1
  Ir  Ir6  1  0.631199  0.867382  0.000000  1
  Pd  Pd7  1  0.867689  0.367689  0.000000  1
  Pb  Pb8  1  0.000490  0.005677  0.000000  1
  Pb  Pb9  1  0.505677  0.500490  0.000000  1
