# generated using pymatgen
data_AlV12Ga4Ni3N4
_symmetry_space_group_name_H-M   'P 1'
_cell_length_a   6.52054952
_cell_length_b   6.52566704
_cell_length_c   6.52247020
_cell_angle_alpha   90.14664573
_cell_angle_beta   90.25037532
_cell_angle_gamma   90.20396985
_symmetry_Int_Tables_number   1
_chemical_formula_structural   AlV12Ga4Ni3N4
_chemical_formula_sum   'Al1 V12 Ga4 Ni3 N4'
_cell_volume   277.53187737
_cell_formula_units_Z   1
loop_
 _symmetry_equiv_pos_site_id
 _symmetry_equiv_pos_as_xyz
  1  'x, y, z'
loop_
 _atom_site_type_symbol
 _atom_site_label
 _atom_site_symmetry_multiplicity
 _atom_site_fract_x
 _atom_site_fract_y
 _atom_site_fract_z
 _atom_site_occupancy
  Al  Al0  1  0.570032  0.416243  0.935171  1
  V  V1  1  0.791074  0.962527  0.374681  1
  V  V2  1  0.710195  0.041700  0.874774  1
  V  V3  1  0.209415  0.459636  0.124140  1
  V  V4  1  0.288734  0.539164  0.625363  1
  V  V5  1  0.962771  0.374186  0.790783  1
  V  V6  1  0.041850  0.874819  0.709082  1
  V  V7  1  0.459506  0.124753  0.210439  1
  V  V8  1  0.538840  0.624579  0.288627  1
  V  V9  1  0.375253  0.790903  0.962539  1
  V  V10  1  0.874391  0.709861  0.041507  1
  V  V11  1  0.124772  0.209544  0.459924  1
  V  V12  1  0.625280  0.289067  0.539156  1
  Ga  Ga13  1  0.678255  0.677626  0.678996  1
  Ga  Ga14  1  0.417658  0.935548  0.569976  1
  Ga  Ga15  1  0.935103  0.569458  0.417375  1
  Ga  Ga16  1  0.073546  0.073695  0.073302  1
  Ni  Ni17  1  0.177067  0.823268  0.319461  1
  Ni  Ni18  1  0.320703  0.178497  0.823857  1
  Ni  Ni19  1  0.821784  0.319794  0.175866  1
  N  N20  1  0.878084  0.125582  0.625210  1
  N  N21  1  0.625372  0.878232  0.126230  1
  N  N22  1  0.125413  0.625956  0.877861  1
  N  N23  1  0.374901  0.375360  0.375680  1
