# generated using pymatgen
data_Tb8GaSBr12
_symmetry_space_group_name_H-M   'P 1'
_cell_length_a   4.03814100
_cell_length_b   13.23339048
_cell_length_c   13.99552350
_cell_angle_alpha   90.03077478
_cell_angle_beta   90.00000000
_cell_angle_gamma   90.00000000
_symmetry_Int_Tables_number   1
_chemical_formula_structural   Tb8GaSBr12
_chemical_formula_sum   'Tb8 Ga1 S1 Br12'
_cell_volume   747.89682901
_cell_formula_units_Z   1
loop_
 _symmetry_equiv_pos_site_id
 _symmetry_equiv_pos_as_xyz
  1  'x, y, z'
loop_
 _atom_site_type_symbol
 _atom_site_label
 _atom_site_symmetry_multiplicity
 _atom_site_fract_x
 _atom_site_fract_y
 _atom_site_fract_z
 _atom_site_occupancy
  Tb  Tb0  1  0.500000  0.121116  0.338232  1
  Tb  Tb1  1  0.500000  0.878884  0.661768  1
  Tb  Tb2  1  0.500000  0.614401  0.153111  1
  Tb  Tb3  1  0.500000  0.385599  0.846889  1
  Tb  Tb4  1  0.000000  0.123069  0.582504  1
  Tb  Tb5  1  0.000000  0.876931  0.417496  1
  Tb  Tb6  1  0.000000  0.610454  0.926466  1
  Tb  Tb7  1  0.000000  0.389546  0.073534  1
  Ga  Ga8  1  0.500000  0.000000  0.500000  1
  S  S9  1  0.500000  0.500000  0.000000  1
  Br  Br10  1  0.500000  0.251861  0.157855  1
  Br  Br11  1  0.500000  0.748139  0.842145  1
  Br  Br12  1  0.500000  0.739160  0.331914  1
  Br  Br13  1  0.500000  0.260840  0.668086  1
  Br  Br14  1  0.000000  0.258659  0.411421  1
  Br  Br15  1  0.000000  0.741341  0.588579  1
  Br  Br16  1  0.000000  0.753420  0.086390  1
  Br  Br17  1  0.000000  0.246580  0.913610  1
  Br  Br18  1  0.000000  0.002908  0.239221  1
  Br  Br19  1  0.000000  0.997092  0.760779  1
  Br  Br20  1  0.000000  0.500843  0.254167  1
  Br  Br21  1  0.000000  0.499157  0.745833  1
