# generated using pymatgen
data_Eu2HoAl3Si2Pd
_symmetry_space_group_name_H-M   'P 1'
_cell_length_a   7.03444192
_cell_length_b   7.03444130
_cell_length_c   4.37219600
_cell_angle_alpha   90.00000000
_cell_angle_beta   90.00000000
_cell_angle_gamma   120.10443304
_symmetry_Int_Tables_number   1
_chemical_formula_structural   Eu2HoAl3Si2Pd
_chemical_formula_sum   'Eu2 Ho1 Al3 Si2 Pd1'
_cell_volume   187.16796830
_cell_formula_units_Z   1
loop_
 _symmetry_equiv_pos_site_id
 _symmetry_equiv_pos_as_xyz
  1  'x, y, z'
loop_
 _atom_site_type_symbol
 _atom_site_label
 _atom_site_symmetry_multiplicity
 _atom_site_fract_x
 _atom_site_fract_y
 _atom_site_fract_z
 _atom_site_occupancy
  Eu  Eu0  1  0.424705  0.001947  0.000000  1
  Eu  Eu1  1  0.001947  0.424704  0.000000  1
  Ho  Ho2  1  0.580746  0.580746  0.000000  1
  Al  Al3  1  0.763898  0.996581  0.499999  1
  Al  Al4  1  0.238222  0.238222  0.499999  1
  Al  Al5  1  0.996581  0.763897  0.499999  1
  Si  Si6  1  0.662910  0.342096  0.499999  1
  Si  Si7  1  0.342096  0.662910  0.499999  1
  Pd  Pd8  1  0.988894  0.988894  0.000000  1
