# generated using pymatgen
data_HfNb6InSe12
_symmetry_space_group_name_H-M   'P 1'
_cell_length_a   6.06409100
_cell_length_b   6.06409311
_cell_length_c   14.50455600
_cell_angle_alpha   90.00000000
_cell_angle_beta   90.00000000
_cell_angle_gamma   119.99999397
_symmetry_Int_Tables_number   1
_chemical_formula_structural   HfNb6InSe12
_chemical_formula_sum   'Hf1 Nb6 In1 Se12'
_cell_volume   461.91989494
_cell_formula_units_Z   1
loop_
 _symmetry_equiv_pos_site_id
 _symmetry_equiv_pos_as_xyz
  1  'x, y, z'
loop_
 _atom_site_type_symbol
 _atom_site_label
 _atom_site_symmetry_multiplicity
 _atom_site_fract_x
 _atom_site_fract_y
 _atom_site_fract_z
 _atom_site_occupancy
  Hf  Hf0  1  0.666667  0.333333  0.750000  1
  Nb  Nb1  1  0.000000  0.000000  0.521663  1
  Nb  Nb2  1  0.000000  0.000000  0.978337  1
  Nb  Nb3  1  0.333333  0.666667  0.978177  1
  Nb  Nb4  1  0.666667  0.333333  0.976105  1
  Nb  Nb5  1  0.666667  0.333333  0.523895  1
  Nb  Nb6  1  0.333333  0.666667  0.521823  1
  In  In7  1  0.333333  0.666667  0.250000  1
  Se  Se8  1  0.334910  0.331892  0.407485  1
  Se  Se9  1  0.668108  0.003019  0.407485  1
  Se  Se10  1  0.996981  0.665090  0.407485  1
  Se  Se11  1  0.323918  0.333529  0.638562  1
  Se  Se12  1  0.009611  0.676082  0.638562  1
  Se  Se13  1  0.666471  0.990389  0.638562  1
  Se  Se14  1  0.666471  0.676082  0.861438  1
  Se  Se15  1  0.323918  0.990389  0.861438  1
  Se  Se16  1  0.009611  0.333529  0.861438  1
  Se  Se17  1  0.668108  0.665090  0.092515  1
  Se  Se18  1  0.996981  0.331892  0.092515  1
  Se  Se19  1  0.334910  0.003019  0.092515  1
