# generated using pymatgen
data_Sc5Ti(B2Rh5)2
_symmetry_space_group_name_H-M   'P 1'
_cell_length_a   9.43270300
_cell_length_b   9.43270300
_cell_length_c   3.12986200
_cell_angle_alpha   90.00000000
_cell_angle_beta   90.00000000
_cell_angle_gamma   90.00000000
_symmetry_Int_Tables_number   1
_chemical_formula_structural   Sc5Ti(B2Rh5)2
_chemical_formula_sum   'Sc5 Ti1 B4 Rh10'
_cell_volume   278.48224415
_cell_formula_units_Z   1
loop_
 _symmetry_equiv_pos_site_id
 _symmetry_equiv_pos_as_xyz
  1  'x, y, z'
loop_
 _atom_site_type_symbol
 _atom_site_label
 _atom_site_symmetry_multiplicity
 _atom_site_fract_x
 _atom_site_fract_y
 _atom_site_fract_z
 _atom_site_occupancy
  Sc  Sc0  1  0.825925  0.324979  0.000000  1
  Sc  Sc1  1  0.324979  0.174075  0.000000  1
  Sc  Sc2  1  0.675021  0.825925  0.000000  1
  Sc  Sc3  1  0.174075  0.675021  0.000000  1
  Sc  Sc4  1  0.500000  0.500000  0.000000  1
  Ti  Ti5  1  0.000000  0.000000  0.000000  1
  B  B6  1  0.621950  0.120859  0.000000  1
  B  B7  1  0.120859  0.378050  0.000000  1
  B  B8  1  0.879141  0.621950  0.000000  1
  B  B9  1  0.378050  0.879141  0.000000  1
  Rh  Rh10  1  0.068287  0.216566  0.500000  1
  Rh  Rh11  1  0.216566  0.931713  0.500000  1
  Rh  Rh12  1  0.783434  0.068287  0.500000  1
  Rh  Rh13  1  0.931713  0.783434  0.500000  1
  Rh  Rh14  1  0.424781  0.722990  0.500000  1
  Rh  Rh15  1  0.575219  0.277010  0.500000  1
  Rh  Rh16  1  0.722990  0.575219  0.500000  1
  Rh  Rh17  1  0.277010  0.424781  0.500000  1
  Rh  Rh18  1  0.500000  0.000000  0.500000  1
  Rh  Rh19  1  0.000000  0.500000  0.500000  1
