# generated using pymatgen
data_LaY6Sn23Rh6
_symmetry_space_group_name_H-M   'P 1'
_cell_length_a   9.89294100
_cell_length_b   9.89294242
_cell_length_c   10.13359900
_cell_angle_alpha   90.00000000
_cell_angle_beta   90.00000000
_cell_angle_gamma   120.00000528
_symmetry_Int_Tables_number   1
_chemical_formula_structural   LaY6Sn23Rh6
_chemical_formula_sum   'La1 Y6 Sn23 Rh6'
_cell_volume   858.90518355
_cell_formula_units_Z   1
loop_
 _symmetry_equiv_pos_site_id
 _symmetry_equiv_pos_as_xyz
  1  'x, y, z'
loop_
 _atom_site_type_symbol
 _atom_site_label
 _atom_site_symmetry_multiplicity
 _atom_site_fract_x
 _atom_site_fract_y
 _atom_site_fract_z
 _atom_site_occupancy
  La  La0  1  0.000000  0.000000  0.000000  1
  Y  Y1  1  0.043508  0.521754  0.307912  1
  Y  Y2  1  0.478246  0.956492  0.307912  1
  Y  Y3  1  0.478246  0.521754  0.307912  1
  Y  Y4  1  0.956492  0.478246  0.692088  1
  Y  Y5  1  0.521754  0.043508  0.692088  1
  Y  Y6  1  0.521754  0.478246  0.692088  1
  Sn  Sn7  1  0.000000  0.000000  0.500000  1
  Sn  Sn8  1  0.119630  0.880370  0.281507  1
  Sn  Sn9  1  0.760739  0.880370  0.281507  1
  Sn  Sn10  1  0.119630  0.239261  0.281507  1
  Sn  Sn11  1  0.880370  0.119630  0.718493  1
  Sn  Sn12  1  0.239261  0.119630  0.718493  1
  Sn  Sn13  1  0.880370  0.760739  0.718493  1
  Sn  Sn14  1  0.352566  0.000000  0.000000  1
  Sn  Sn15  1  0.647434  0.647434  0.000000  1
  Sn  Sn16  1  0.000000  0.352566  0.000000  1
  Sn  Sn17  1  0.352566  0.352566  0.000000  1
  Sn  Sn18  1  0.000000  0.647434  0.000000  1
  Sn  Sn19  1  0.647434  0.000000  0.000000  1
  Sn  Sn20  1  0.778513  0.557026  0.454764  1
  Sn  Sn21  1  0.778513  0.221487  0.454764  1
  Sn  Sn22  1  0.442974  0.221487  0.454764  1
  Sn  Sn23  1  0.221487  0.442974  0.545236  1
  Sn  Sn24  1  0.221487  0.778513  0.545236  1
  Sn  Sn25  1  0.557026  0.778513  0.545236  1
  Sn  Sn26  1  0.666667  0.333333  0.180155  1
  Sn  Sn27  1  0.333333  0.666667  0.819845  1
  Sn  Sn28  1  0.666667  0.333333  0.882293  1
  Sn  Sn29  1  0.333333  0.666667  0.117707  1
  Rh  Rh30  1  0.169044  0.830956  0.801320  1
  Rh  Rh31  1  0.661911  0.830956  0.801320  1
  Rh  Rh32  1  0.169044  0.338089  0.801320  1
  Rh  Rh33  1  0.830956  0.169044  0.198680  1
  Rh  Rh34  1  0.338089  0.169044  0.198680  1
  Rh  Rh35  1  0.830956  0.661911  0.198680  1
