# generated using pymatgen
data_Ba3CdRu2O9
_symmetry_space_group_name_H-M   'P 1'
_cell_length_a   5.96585900
_cell_length_b   5.96585873
_cell_length_c   14.82619600
_cell_angle_alpha   90.00000000
_cell_angle_beta   90.00000000
_cell_angle_gamma   119.99998488
_symmetry_Int_Tables_number   1
_chemical_formula_structural   Ba3CdRu2O9
_chemical_formula_sum   'Ba6 Cd2 Ru4 O18'
_cell_volume   456.98967164
_cell_formula_units_Z   2
loop_
 _symmetry_equiv_pos_site_id
 _symmetry_equiv_pos_as_xyz
  1  'x, y, z'
loop_
 _atom_site_type_symbol
 _atom_site_label
 _atom_site_symmetry_multiplicity
 _atom_site_fract_x
 _atom_site_fract_y
 _atom_site_fract_z
 _atom_site_occupancy
  Ba  Ba0  1  0.666667  0.333333  0.093696  1
  Ba  Ba1  1  0.333333  0.666667  0.593696  1
  Ba  Ba2  1  0.333333  0.666667  0.906304  1
  Ba  Ba3  1  0.666667  0.333333  0.406304  1
  Ba  Ba4  1  0.000000  0.000000  0.250000  1
  Ba  Ba5  1  0.000000  0.000000  0.750000  1
  Cd  Cd6  1  0.000000  0.000000  0.000000  1
  Cd  Cd7  1  0.000000  0.000000  0.500000  1
  Ru  Ru8  1  0.333333  0.666667  0.157198  1
  Ru  Ru9  1  0.666667  0.333333  0.657198  1
  Ru  Ru10  1  0.666667  0.333333  0.842802  1
  Ru  Ru11  1  0.333333  0.666667  0.342802  1
  O  O12  1  0.175570  0.351142  0.089617  1
  O  O13  1  0.824430  0.175570  0.589617  1
  O  O14  1  0.351142  0.175570  0.589617  1
  O  O15  1  0.648858  0.824430  0.089617  1
  O  O16  1  0.175570  0.824430  0.089617  1
  O  O17  1  0.824430  0.648858  0.910383  1
  O  O18  1  0.824430  0.175570  0.910383  1
  O  O19  1  0.824430  0.648858  0.589617  1
  O  O20  1  0.351142  0.175570  0.910383  1
  O  O21  1  0.648858  0.824430  0.410383  1
  O  O22  1  0.175570  0.351142  0.410383  1
  O  O23  1  0.175570  0.824430  0.410383  1
  O  O24  1  0.033469  0.516735  0.250000  1
  O  O25  1  0.516735  0.033469  0.750000  1
  O  O26  1  0.516735  0.483265  0.750000  1
  O  O27  1  0.483265  0.516735  0.250000  1
  O  O28  1  0.483265  0.966531  0.250000  1
  O  O29  1  0.966531  0.483265  0.750000  1
