# generated using pymatgen
data_CaPrDy5IrBr12
_symmetry_space_group_name_H-M   'P 1'
_cell_length_a   9.38724564
_cell_length_b   9.32422292
_cell_length_c   9.39634917
_cell_angle_alpha   106.80244258
_cell_angle_beta   106.67538777
_cell_angle_gamma   107.54885050
_symmetry_Int_Tables_number   1
_chemical_formula_structural   CaPrDy5IrBr12
_chemical_formula_sum   'Ca1 Pr1 Dy5 Ir1 Br12'
_cell_volume   684.74271736
_cell_formula_units_Z   1
loop_
 _symmetry_equiv_pos_site_id
 _symmetry_equiv_pos_as_xyz
  1  'x, y, z'
loop_
 _atom_site_type_symbol
 _atom_site_label
 _atom_site_symmetry_multiplicity
 _atom_site_fract_x
 _atom_site_fract_y
 _atom_site_fract_z
 _atom_site_occupancy
  Ca  Ca0  1  0.499831  0.500628  0.499317  1
  Pr  Pr1  1  0.894102  0.685707  0.975684  1
  Dy  Dy2  1  0.103684  0.304607  0.025114  1
  Dy  Dy3  1  0.314886  0.026587  0.105584  1
  Dy  Dy4  1  0.026360  0.108038  0.314594  1
  Dy  Dy5  1  0.974912  0.896810  0.687275  1
  Dy  Dy6  1  0.685664  0.973547  0.894177  1
  Ir  Ir7  1  0.000508  0.000354  0.001295  1
  Br  Br8  1  0.228379  0.683176  0.075892  1
  Br  Br9  1  0.454691  0.376056  0.158438  1
  Br  Br10  1  0.680851  0.072353  0.215240  1
  Br  Br11  1  0.930007  0.790523  0.330521  1
  Br  Br12  1  0.158695  0.455435  0.374331  1
  Br  Br13  1  0.374894  0.157773  0.454517  1
  Br  Br14  1  0.625288  0.843495  0.545874  1
  Br  Br15  1  0.839251  0.543858  0.613394  1
  Br  Br16  1  0.073046  0.217878  0.682349  1
  Br  Br17  1  0.319249  0.928375  0.785097  1
  Br  Br18  1  0.532624  0.624192  0.834560  1
  Br  Br19  1  0.783084  0.310610  0.926752  1
