# generated using pymatgen
data_Tb3Dy6Th3Ru4
_symmetry_space_group_name_H-M   'P 1'
_cell_length_a   6.36940820
_cell_length_b   7.23394795
_cell_length_c   9.54593232
_cell_angle_alpha   89.99741537
_cell_angle_beta   90.06017956
_cell_angle_gamma   90.67451781
_symmetry_Int_Tables_number   1
_chemical_formula_structural   Tb3Dy6Th3Ru4
_chemical_formula_sum   'Tb3 Dy6 Th3 Ru4'
_cell_volume   439.80734460
_cell_formula_units_Z   1
loop_
 _symmetry_equiv_pos_site_id
 _symmetry_equiv_pos_as_xyz
  1  'x, y, z'
loop_
 _atom_site_type_symbol
 _atom_site_label
 _atom_site_symmetry_multiplicity
 _atom_site_fract_x
 _atom_site_fract_y
 _atom_site_fract_z
 _atom_site_occupancy
  Tb  Tb0  1  0.333977  0.677305  0.064129  1
  Tb  Tb1  1  0.164809  0.176074  0.434812  1
  Tb  Tb2  1  0.361375  0.962917  0.749987  1
  Dy  Dy3  1  0.669068  0.323877  0.566946  1
  Dy  Dy4  1  0.829962  0.823221  0.931270  1
  Dy  Dy5  1  0.669207  0.323636  0.933054  1
  Dy  Dy6  1  0.829792  0.823057  0.568767  1
  Dy  Dy7  1  0.334153  0.677137  0.435853  1
  Dy  Dy8  1  0.164646  0.175921  0.065221  1
  Th  Th9  1  0.848098  0.548103  0.250053  1
  Th  Th10  1  0.649376  0.045813  0.249936  1
  Th  Th11  1  0.152064  0.451955  0.749995  1
  Ru  Ru12  1  0.031881  0.871895  0.250019  1
  Ru  Ru13  1  0.469486  0.370130  0.249972  1
  Ru  Ru14  1  0.961853  0.132592  0.750260  1
  Ru  Ru15  1  0.530252  0.616365  0.749725  1
