# generated using pymatgen
data_Er4Ga6Ir2Pd5
_symmetry_space_group_name_H-M   'P 1'
_cell_length_a   7.37875668
_cell_length_b   7.38311946
_cell_length_c   7.37875700
_cell_angle_alpha   109.71845212
_cell_angle_beta   108.95371162
_cell_angle_gamma   109.71845816
_symmetry_Int_Tables_number   1
_chemical_formula_structural   Er4Ga6Ir2Pd5
_chemical_formula_sum   'Er4 Ga6 Ir2 Pd5'
_cell_volume   309.51986402
_cell_formula_units_Z   1
loop_
 _symmetry_equiv_pos_site_id
 _symmetry_equiv_pos_as_xyz
  1  'x, y, z'
loop_
 _atom_site_type_symbol
 _atom_site_label
 _atom_site_symmetry_multiplicity
 _atom_site_fract_x
 _atom_site_fract_y
 _atom_site_fract_z
 _atom_site_occupancy
  Er  Er0  1  0.996536  0.993072  0.496536  1
  Er  Er1  1  0.010682  0.507788  0.010682  1
  Er  Er2  1  0.496536  0.993072  0.996536  1
  Er  Er3  1  0.497106  0.507788  0.497106  1
  Ga  Ga4  1  0.678548  0.679443  0.000895  1
  Ga  Ga5  1  0.319828  0.998751  0.319828  1
  Ga  Ga6  1  0.001432  0.322852  0.321420  1
  Ga  Ga7  1  0.321420  0.322852  0.001432  1
  Ga  Ga8  1  0.678923  0.998751  0.678923  1
  Ga  Ga9  1  0.000895  0.679443  0.678548  1
  Ir  Ir10  1  0.249780  0.751372  0.501591  1
  Ir  Ir11  1  0.501591  0.751372  0.249780  1
  Pd  Pd12  1  0.749951  0.251587  0.501635  1
  Pd  Pd13  1  0.748320  0.496640  0.248320  1
  Pd  Pd14  1  0.501635  0.251587  0.749951  1
  Pd  Pd15  1  0.248320  0.496640  0.748320  1
  Pd  Pd16  1  0.998495  0.996991  0.998495  1
