# generated using pymatgen
data_Ti18ReSi16Mo
_symmetry_space_group_name_H-M   'P 1'
_cell_length_a   6.66950272
_cell_length_b   6.66835148
_cell_length_c   12.17862290
_cell_angle_alpha   90.04302422
_cell_angle_beta   90.13539534
_cell_angle_gamma   89.99515486
_symmetry_Int_Tables_number   1
_chemical_formula_structural   Ti18ReSi16Mo
_chemical_formula_sum   'Ti18 Re1 Si16 Mo1'
_cell_volume   541.63757245
_cell_formula_units_Z   1
loop_
 _symmetry_equiv_pos_site_id
 _symmetry_equiv_pos_as_xyz
  1  'x, y, z'
loop_
 _atom_site_type_symbol
 _atom_site_label
 _atom_site_symmetry_multiplicity
 _atom_site_fract_x
 _atom_site_fract_y
 _atom_site_fract_z
 _atom_site_occupancy
  Ti  Ti0  1  0.996073  0.148642  0.622974  1
  Ti  Ti1  1  0.351803  0.497265  0.872939  1
  Ti  Ti2  1  0.650517  0.505744  0.370762  1
  Ti  Ti3  1  0.495170  0.350160  0.129547  1
  Ti  Ti4  1  0.503785  0.648478  0.626366  1
  Ti  Ti5  1  0.003928  0.850614  0.120548  1
  Ti  Ti6  1  0.148246  0.997771  0.377662  1
  Ti  Ti7  1  0.849853  0.005637  0.879263  1
  Ti  Ti8  1  0.999717  0.340460  0.222239  1
  Ti  Ti9  1  0.154795  0.502121  0.470527  1
  Ti  Ti10  1  0.839158  0.499473  0.971738  1
  Ti  Ti11  1  0.500908  0.157029  0.529306  1
  Ti  Ti12  1  0.499446  0.841206  0.027686  1
  Ti  Ti13  1  0.999197  0.656896  0.720160  1
  Ti  Ti14  1  0.345136  0.001835  0.779746  1
  Ti  Ti15  1  0.661261  0.999991  0.278700  1
  Ti  Ti16  1  0.670485  0.328767  0.750834  1
  Ti  Ti17  1  0.829527  0.828533  0.498629  1
  Re  Re18  1  0.327863  0.671253  0.248584  1
  Si  Si19  1  0.044913  0.302622  0.814701  1
  Si  Si20  1  0.197494  0.543441  0.064518  1
  Si  Si21  1  0.802036  0.455422  0.564674  1
  Si  Si22  1  0.542548  0.198062  0.935959  1
  Si  Si23  1  0.454421  0.801747  0.434404  1
  Si  Si24  1  0.959271  0.698106  0.313935  1
  Si  Si25  1  0.303495  0.040544  0.186471  1
  Si  Si26  1  0.698103  0.955174  0.685344  1
  Si  Si27  1  0.294190  0.358480  0.674081  1
  Si  Si28  1  0.141502  0.794645  0.921967  1
  Si  Si29  1  0.856700  0.205691  0.424799  1
  Si  Si30  1  0.793833  0.142313  0.077500  1
  Si  Si31  1  0.205817  0.858226  0.575950  1
  Si  Si32  1  0.705409  0.641776  0.172091  1
  Si  Si33  1  0.358748  0.295494  0.328358  1
  Si  Si34  1  0.642959  0.705677  0.825236  1
  Mo  Mo35  1  0.171693  0.170702  0.001800  1
