# generated using pymatgen
data_Th2Ni16AsH3
_symmetry_space_group_name_H-M   'P 1'
_cell_length_a   6.36680768
_cell_length_b   6.33317171
_cell_length_c   6.33317247
_cell_angle_alpha   82.80926173
_cell_angle_beta   84.48125106
_cell_angle_gamma   84.48125327
_symmetry_Int_Tables_number   1
_chemical_formula_structural   Th2Ni16AsH3
_chemical_formula_sum   'Th2 Ni16 As1 H3'
_cell_volume   251.26701221
_cell_formula_units_Z   1
loop_
 _symmetry_equiv_pos_site_id
 _symmetry_equiv_pos_as_xyz
  1  'x, y, z'
loop_
 _atom_site_type_symbol
 _atom_site_label
 _atom_site_symmetry_multiplicity
 _atom_site_fract_x
 _atom_site_fract_y
 _atom_site_fract_z
 _atom_site_occupancy
  Th  Th0  1  0.668004  0.655188  0.655188  1
  Th  Th1  1  0.331996  0.344812  0.344812  1
  Ni  Ni2  1  0.000000  0.000000  0.500000  1
  Ni  Ni3  1  0.000000  0.500000  0.000000  1
  Ni  Ni4  1  0.708961  0.292225  0.999614  1
  Ni  Ni5  1  0.000000  0.714385  0.285615  1
  Ni  Ni6  1  0.291039  0.000386  0.707775  1
  Ni  Ni7  1  0.000000  0.285615  0.714385  1
  Ni  Ni8  1  0.708961  0.999614  0.292225  1
  Ni  Ni9  1  0.291039  0.707775  0.000386  1
  Ni  Ni10  1  0.342448  0.346516  0.854973  1
  Ni  Ni11  1  0.847574  0.347339  0.347339  1
  Ni  Ni12  1  0.342448  0.854973  0.346516  1
  Ni  Ni13  1  0.657552  0.653484  0.145027  1
  Ni  Ni14  1  0.152426  0.652661  0.652661  1
  Ni  Ni15  1  0.657552  0.145027  0.653484  1
  Ni  Ni16  1  0.915978  0.892399  0.892399  1
  Ni  Ni17  1  0.084022  0.107601  0.107601  1
  As  As18  1  0.500000  0.000000  0.000000  1
  H  H19  1  0.500000  0.500000  0.000000  1
  H  H20  1  0.000000  0.500000  0.500000  1
  H  H21  1  0.500000  0.000000  0.500000  1
