# generated using pymatgen
data_ScU3(Co2Sn)2
_symmetry_space_group_name_H-M   'P 1'
_cell_length_a   7.25955464
_cell_length_b   7.25955464
_cell_length_c   3.37205400
_cell_angle_alpha   90.00000000
_cell_angle_beta   90.00000000
_cell_angle_gamma   87.96327379
_symmetry_Int_Tables_number   1
_chemical_formula_structural   ScU3(Co2Sn)2
_chemical_formula_sum   'Sc1 U3 Co4 Sn2'
_cell_volume   177.59879973
_cell_formula_units_Z   1
loop_
 _symmetry_equiv_pos_site_id
 _symmetry_equiv_pos_as_xyz
  1  'x, y, z'
loop_
 _atom_site_type_symbol
 _atom_site_label
 _atom_site_symmetry_multiplicity
 _atom_site_fract_x
 _atom_site_fract_y
 _atom_site_fract_z
 _atom_site_occupancy
  Sc  Sc0  1  0.331938  0.831938  0.500000  1
  U  U1  1  0.830729  0.673758  0.500000  1
  U  U2  1  0.173758  0.330729  0.500000  1
  U  U3  1  0.667803  0.167803  0.500000  1
  Co  Co4  1  0.376036  0.148005  0.000000  1
  Co  Co5  1  0.856588  0.356588  0.000000  1
  Co  Co6  1  0.105670  0.605670  0.000000  1
  Co  Co7  1  0.648005  0.876036  0.000000  1
  Sn  Sn8  1  0.016969  0.992506  0.000000  1
  Sn  Sn9  1  0.492506  0.516969  0.000000  1
