# generated using pymatgen
data_KRb2In3F12
_symmetry_space_group_name_H-M   'P 1'
_cell_length_a   7.99157836
_cell_length_b   7.99157760
_cell_length_c   13.48714498
_cell_angle_alpha   73.87777739
_cell_angle_beta   73.87777846
_cell_angle_gamma   60.01252399
_symmetry_Int_Tables_number   1
_chemical_formula_structural   KRb2In3F12
_chemical_formula_sum   'K2 Rb4 In6 F24'
_cell_volume   706.65710289
_cell_formula_units_Z   2
loop_
 _symmetry_equiv_pos_site_id
 _symmetry_equiv_pos_as_xyz
  1  'x, y, z'
loop_
 _atom_site_type_symbol
 _atom_site_label
 _atom_site_symmetry_multiplicity
 _atom_site_fract_x
 _atom_site_fract_y
 _atom_site_fract_z
 _atom_site_occupancy
  K  K0  1  0.221651  0.778349  0.750000  1
  K  K1  1  0.778349  0.221651  0.250000  1
  Rb  Rb2  1  0.855294  0.496760  0.718084  1
  Rb  Rb3  1  0.144706  0.503240  0.281916  1
  Rb  Rb4  1  0.503240  0.144706  0.781916  1
  Rb  Rb5  1  0.496760  0.855294  0.218084  1
  In  In6  1  0.500000  0.000000  0.500000  1
  In  In7  1  0.000000  0.500000  0.000000  1
  In  In8  1  0.000000  0.000000  0.500000  1
  In  In9  1  0.000000  0.000000  0.000000  1
  In  In10  1  0.500000  0.500000  0.500000  1
  In  In11  1  0.500000  0.500000  0.000000  1
  F  F12  1  0.877893  0.978387  0.654839  1
  F  F13  1  0.534750  0.867011  0.652635  1
  F  F14  1  0.264656  0.420828  0.052411  1
  F  F15  1  0.692966  0.191988  0.038431  1
  F  F16  1  0.867011  0.534750  0.152635  1
  F  F17  1  0.132989  0.465250  0.847365  1
  F  F18  1  0.465250  0.132989  0.347365  1
  F  F19  1  0.808012  0.307034  0.461569  1
  F  F20  1  0.122107  0.021613  0.345161  1
  F  F21  1  0.579172  0.735344  0.447589  1
  F  F22  1  0.477307  0.529096  0.148426  1
  F  F23  1  0.420828  0.264656  0.552411  1
  F  F24  1  0.529096  0.477307  0.648426  1
  F  F25  1  0.799989  0.941182  0.453342  1
  F  F26  1  0.200011  0.058818  0.546658  1
  F  F27  1  0.522693  0.470904  0.851574  1
  F  F28  1  0.941182  0.799989  0.953342  1
  F  F29  1  0.470904  0.522693  0.351574  1
  F  F30  1  0.735344  0.579172  0.947589  1
  F  F31  1  0.978387  0.877893  0.154839  1
  F  F32  1  0.058818  0.200011  0.046658  1
  F  F33  1  0.307034  0.808012  0.961569  1
  F  F34  1  0.021613  0.122107  0.845161  1
  F  F35  1  0.191988  0.692966  0.538431  1
