# generated using pymatgen
data_Tb4Al4IrPdRh2
_symmetry_space_group_name_H-M   'P 1'
_cell_length_a   4.28872600
_cell_length_b   6.92487759
_cell_length_c   7.94268246
_cell_angle_alpha   90.10739569
_cell_angle_beta   90.00000000
_cell_angle_gamma   90.00000000
_symmetry_Int_Tables_number   1
_chemical_formula_structural   Tb4Al4IrPdRh2
_chemical_formula_sum   'Tb4 Al4 Ir1 Pd1 Rh2'
_cell_volume   235.88853842
_cell_formula_units_Z   1
loop_
 _symmetry_equiv_pos_site_id
 _symmetry_equiv_pos_as_xyz
  1  'x, y, z'
loop_
 _atom_site_type_symbol
 _atom_site_label
 _atom_site_symmetry_multiplicity
 _atom_site_fract_x
 _atom_site_fract_y
 _atom_site_fract_z
 _atom_site_occupancy
  Tb  Tb0  1  0.250000  0.531672  0.815668  1
  Tb  Tb1  1  0.750000  0.459239  0.182212  1
  Tb  Tb2  1  0.250000  0.033876  0.680277  1
  Tb  Tb3  1  0.750000  0.970541  0.322986  1
  Al  Al4  1  0.250000  0.635167  0.439777  1
  Al  Al5  1  0.750000  0.361603  0.561619  1
  Al  Al6  1  0.250000  0.142262  0.063376  1
  Al  Al7  1  0.750000  0.864022  0.935308  1
  Ir  Ir8  1  0.250000  0.265670  0.380028  1
  Pd  Pd9  1  0.250000  0.769710  0.118066  1
  Rh  Rh10  1  0.750000  0.732777  0.617535  1
  Rh  Rh11  1  0.750000  0.233461  0.883149  1
