# generated using pymatgen
data_Cs2Sm2MgMnTe6
_symmetry_space_group_name_H-M   'P 1'
_cell_length_a   8.88754164
_cell_length_b   8.88754116
_cell_length_c   11.96490400
_cell_angle_alpha   90.00000000
_cell_angle_beta   90.00000000
_cell_angle_gamma   149.92940053
_symmetry_Int_Tables_number   1
_chemical_formula_structural   Cs2Sm2MgMnTe6
_chemical_formula_sum   'Cs2 Sm2 Mg1 Mn1 Te6'
_cell_volume   473.55241957
_cell_formula_units_Z   1
loop_
 _symmetry_equiv_pos_site_id
 _symmetry_equiv_pos_as_xyz
  1  'x, y, z'
loop_
 _atom_site_type_symbol
 _atom_site_label
 _atom_site_symmetry_multiplicity
 _atom_site_fract_x
 _atom_site_fract_y
 _atom_site_fract_z
 _atom_site_occupancy
  Cs  Cs0  1  0.246079  0.753922  0.250000  1
  Cs  Cs1  1  0.753414  0.246587  0.750000  1
  Sm  Sm2  1  0.500385  0.499615  0.001995  1
  Sm  Sm3  1  0.500385  0.499615  0.498005  1
  Mg  Mg4  1  0.035029  0.964971  0.750000  1
  Mn  Mn5  1  0.964996  0.035004  0.250000  1
  Te  Te6  1  0.880205  0.119796  0.060989  1
  Te  Te7  1  0.558815  0.441185  0.250000  1
  Te  Te8  1  0.880205  0.119796  0.439010  1
  Te  Te9  1  0.121586  0.878415  0.553915  1
  Te  Te10  1  0.437317  0.562683  0.750000  1
  Te  Te11  1  0.121586  0.878415  0.946085  1
