# generated using pymatgen
data_Cs2NaLuF6
_symmetry_space_group_name_H-M   'P 1'
_cell_length_a   6.46519515
_cell_length_b   6.46519556
_cell_length_c   6.46519600
_cell_angle_alpha   59.99999773
_cell_angle_beta   59.99999567
_cell_angle_gamma   59.99999917
_symmetry_Int_Tables_number   1
_chemical_formula_structural   Cs2NaLuF6
_chemical_formula_sum   'Cs2 Na1 Lu1 F6'
_cell_volume   191.08648768
_cell_formula_units_Z   1
loop_
 _symmetry_equiv_pos_site_id
 _symmetry_equiv_pos_as_xyz
  1  'x, y, z'
loop_
 _atom_site_type_symbol
 _atom_site_label
 _atom_site_symmetry_multiplicity
 _atom_site_fract_x
 _atom_site_fract_y
 _atom_site_fract_z
 _atom_site_occupancy
  Cs  Cs0  1  0.750000  0.750000  0.750000  1
  Cs  Cs1  1  0.250000  0.250000  0.250000  1
  Na  Na2  1  0.500000  0.500000  0.500000  1
  Lu  Lu3  1  0.000000  0.000000  0.000000  1
  F  F4  1  0.766729  0.233271  0.233271  1
  F  F5  1  0.233271  0.233271  0.766729  1
  F  F6  1  0.233271  0.766729  0.766729  1
  F  F7  1  0.233271  0.766729  0.233271  1
  F  F8  1  0.766729  0.233271  0.766729  1
  F  F9  1  0.766729  0.766729  0.233271  1
