# generated using pymatgen
data_Y5PPb3
_symmetry_space_group_name_H-M   'P 1'
_cell_length_a   9.12965000
_cell_length_b   9.12964978
_cell_length_c   6.85811300
_cell_angle_alpha   90.00000000
_cell_angle_beta   90.00000000
_cell_angle_gamma   120.00000803
_symmetry_Int_Tables_number   1
_chemical_formula_structural   Y5PPb3
_chemical_formula_sum   'Y10 P2 Pb6'
_cell_volume   495.04363368
_cell_formula_units_Z   2
loop_
 _symmetry_equiv_pos_site_id
 _symmetry_equiv_pos_as_xyz
  1  'x, y, z'
loop_
 _atom_site_type_symbol
 _atom_site_label
 _atom_site_symmetry_multiplicity
 _atom_site_fract_x
 _atom_site_fract_y
 _atom_site_fract_z
 _atom_site_occupancy
  Y  Y0  1  0.763097  0.763097  0.750000  1
  Y  Y1  1  0.236903  0.000000  0.750000  1
  Y  Y2  1  0.000000  0.236903  0.750000  1
  Y  Y3  1  0.236903  0.236903  0.250000  1
  Y  Y4  1  0.763097  0.000000  0.250000  1
  Y  Y5  1  0.000000  0.763097  0.250000  1
  Y  Y6  1  0.666667  0.333333  0.000000  1
  Y  Y7  1  0.333333  0.666667  0.000000  1
  Y  Y8  1  0.333333  0.666667  0.500000  1
  Y  Y9  1  0.666667  0.333333  0.500000  1
  P  P10  1  0.000000  0.000000  0.000000  1
  P  P11  1  0.000000  0.000000  0.500000  1
  Pb  Pb12  1  0.403120  0.403120  0.750000  1
  Pb  Pb13  1  0.596880  0.000000  0.750000  1
  Pb  Pb14  1  0.000000  0.596880  0.750000  1
  Pb  Pb15  1  0.596880  0.596880  0.250000  1
  Pb  Pb16  1  0.403120  0.000000  0.250000  1
  Pb  Pb17  1  0.000000  0.403120  0.250000  1
