# generated using pymatgen
data_Hf3Cr(Co4As3)2
_symmetry_space_group_name_H-M   'P 1'
_cell_length_a   12.37958805
_cell_length_b   12.41402816
_cell_length_c   3.72162700
_cell_angle_alpha   90.00000000
_cell_angle_beta   90.00000000
_cell_angle_gamma   120.09207549
_symmetry_Int_Tables_number   1
_chemical_formula_structural   Hf3Cr(Co4As3)2
_chemical_formula_sum   'Hf6 Cr2 Co16 As12'
_cell_volume   494.85584236
_cell_formula_units_Z   2
loop_
 _symmetry_equiv_pos_site_id
 _symmetry_equiv_pos_as_xyz
  1  'x, y, z'
loop_
 _atom_site_type_symbol
 _atom_site_label
 _atom_site_symmetry_multiplicity
 _atom_site_fract_x
 _atom_site_fract_y
 _atom_site_fract_z
 _atom_site_occupancy
  Hf  Hf0  1  0.820254  0.818890  0.500000  1
  Hf  Hf1  1  0.000000  0.173341  0.500000  1
  Hf  Hf2  1  0.334767  0.666042  0.000000  1
  Hf  Hf3  1  0.665233  0.331274  0.000000  1
  Hf  Hf4  1  0.000000  0.556564  0.000000  1
  Hf  Hf5  1  0.179746  0.998635  0.500000  1
  Cr  Cr6  1  0.443890  0.443300  0.000000  1
  Cr  Cr7  1  0.556110  0.999411  0.000000  1
  Co  Co8  1  0.624085  0.821968  0.000000  1
  Co  Co9  1  0.375915  0.197883  0.000000  1
  Co  Co10  1  0.000000  0.718136  0.500000  1
  Co  Co11  1  0.283588  0.283851  0.500000  1
  Co  Co12  1  0.873241  0.352804  0.500000  1
  Co  Co13  1  0.716412  0.000263  0.500000  1
  Co  Co14  1  0.819512  0.628093  0.000000  1
  Co  Co15  1  0.180488  0.808581  0.000000  1
  Co  Co16  1  0.357119  0.877069  0.500000  1
  Co  Co17  1  0.126759  0.479563  0.500000  1
  Co  Co18  1  0.642881  0.519951  0.500000  1
  Co  Co19  1  0.000000  0.001387  0.000000  1
  Co  Co20  1  0.518612  0.646807  0.500000  1
  Co  Co21  1  0.481388  0.128195  0.500000  1
  Co  Co22  1  0.199347  0.374783  0.000000  1
  Co  Co23  1  0.800653  0.175435  0.000000  1
  As  As24  1  0.000000  0.344130  0.000000  1
  As  As25  1  0.823406  0.512254  0.500000  1
  As  As26  1  0.681464  0.166474  0.500000  1
  As  As27  1  0.177722  0.175878  0.000000  1
  As  As28  1  0.641818  0.645688  0.000000  1
  As  As29  1  0.822278  0.998156  0.000000  1
  As  As30  1  0.515372  0.833430  0.500000  1
  As  As31  1  0.176594  0.688847  0.500000  1
  As  As32  1  0.358182  0.003869  0.000000  1
  As  As33  1  0.484628  0.318059  0.500000  1
  As  As34  1  0.000000  0.825979  0.000000  1
  As  As35  1  0.318536  0.485009  0.500000  1
