# generated using pymatgen
data_LaYb3(Al3Pt)6
_symmetry_space_group_name_H-M   'P 1'
_cell_length_a   7.65516717
_cell_length_b   7.66169406
_cell_length_c   9.50609300
_cell_angle_alpha   90.00000000
_cell_angle_beta   90.00000000
_cell_angle_gamma   119.62459047
_symmetry_Int_Tables_number   1
_chemical_formula_structural   LaYb3(Al3Pt)6
_chemical_formula_sum   'La1 Yb3 Al18 Pt6'
_cell_volume   484.66611696
_cell_formula_units_Z   1
loop_
 _symmetry_equiv_pos_site_id
 _symmetry_equiv_pos_as_xyz
  1  'x, y, z'
loop_
 _atom_site_type_symbol
 _atom_site_label
 _atom_site_symmetry_multiplicity
 _atom_site_fract_x
 _atom_site_fract_y
 _atom_site_fract_z
 _atom_site_occupancy
  La  La0  1  0.997205  0.669837  0.250000  1
  Yb  Yb1  1  0.002964  0.328292  0.750000  1
  Yb  Yb2  1  0.670448  0.996287  0.250000  1
  Yb  Yb3  1  0.329979  0.004536  0.750000  1
  Al  Al4  1  0.132063  0.132663  0.250000  1
  Al  Al5  1  0.868051  0.869867  0.750000  1
  Al  Al6  1  0.999453  0.331106  0.073852  1
  Al  Al7  1  0.000620  0.665165  0.918832  1
  Al  Al8  1  0.000620  0.665165  0.581168  1
  Al  Al9  1  0.338045  0.003085  0.425782  1
  Al  Al10  1  0.999453  0.331106  0.426148  1
  Al  Al11  1  0.665267  0.000557  0.577368  1
  Al  Al12  1  0.665267  0.000557  0.922632  1
  Al  Al13  1  0.338045  0.003085  0.074218  1
  Al  Al14  1  0.332168  0.332300  0.558490  1
  Al  Al15  1  0.665216  0.667766  0.446347  1
  Al  Al16  1  0.665216  0.667766  0.053653  1
  Al  Al17  1  0.332168  0.332300  0.941510  1
  Al  Al18  1  0.341484  0.545357  0.250000  1
  Al  Al19  1  0.658157  0.453282  0.750000  1
  Al  Al20  1  0.543721  0.339431  0.250000  1
  Al  Al21  1  0.453520  0.659929  0.750000  1
  Pt  Pt22  1  0.671546  0.328355  0.998999  1
  Pt  Pt23  1  0.328482  0.671657  0.999460  1
  Pt  Pt24  1  0.328482  0.671657  0.500540  1
  Pt  Pt25  1  0.671546  0.328355  0.501001  1
  Pt  Pt26  1  0.000406  0.000269  0.999067  1
  Pt  Pt27  1  0.000406  0.000269  0.500933  1
