# generated using pymatgen
data_TbZrTc5(PRh)7
_symmetry_space_group_name_H-M   'P 1'
_cell_length_a   3.92471001
_cell_length_b   9.45000375
_cell_length_c   9.45890149
_cell_angle_alpha   119.59197872
_cell_angle_beta   89.99908308
_cell_angle_gamma   90.00042352
_symmetry_Int_Tables_number   1
_chemical_formula_structural   TbZrTc5(PRh)7
_chemical_formula_sum   'Tb1 Zr1 Tc5 P7 Rh7'
_cell_volume   305.05759587
_cell_formula_units_Z   1
loop_
 _symmetry_equiv_pos_site_id
 _symmetry_equiv_pos_as_xyz
  1  'x, y, z'
loop_
 _atom_site_type_symbol
 _atom_site_label
 _atom_site_symmetry_multiplicity
 _atom_site_fract_x
 _atom_site_fract_y
 _atom_site_fract_z
 _atom_site_occupancy
  Tb  Tb0  1  0.261944  0.669019  0.334385  1
  Zr  Zr1  1  0.762050  0.333565  0.666803  1
  Tc  Tc2  1  0.761898  0.093747  0.869234  1
  Tc  Tc3  1  0.761868  0.129520  0.223361  1
  Tc  Tc4  1  0.761852  0.775780  0.905143  1
  Tc  Tc5  1  0.261863  0.884730  0.159423  1
  Tc  Tc6  1  0.261896  0.841267  0.725103  1
  P  P7  1  0.261632  0.997192  0.997676  1
  P  P8  1  0.761907  0.879319  0.598450  1
  P  P9  1  0.761874  0.402761  0.284903  1
  P  P10  1  0.761816  0.719457  0.122563  1
  P  P11  1  0.262052  0.115309  0.410471  1
  P  P12  1  0.262002  0.587540  0.703192  1
  P  P13  1  0.261926  0.296488  0.882296  1
  Rh  Rh14  1  0.261879  0.274108  0.114755  1
  Rh  Rh15  1  0.761945  0.604644  0.556440  1
  Rh  Rh16  1  0.761888  0.442612  0.050776  1
  Rh  Rh17  1  0.761932  0.949911  0.395239  1
  Rh  Rh18  1  0.261936  0.367199  0.440021  1
  Rh  Rh19  1  0.261879  0.559033  0.925955  1
  Rh  Rh20  1  0.261962  0.076796  0.633815  1
