# generated using pymatgen
data_Hf5GaTe3
_symmetry_space_group_name_H-M   'P 1'
_cell_length_a   3.89891800
_cell_length_b   13.05956000
_cell_length_c   17.85398300
_cell_angle_alpha   90.00000000
_cell_angle_beta   90.00000000
_cell_angle_gamma   90.00000000
_symmetry_Int_Tables_number   1
_chemical_formula_structural   Hf5GaTe3
_chemical_formula_sum   'Hf20 Ga4 Te12'
_cell_volume   909.09184798
_cell_formula_units_Z   4
loop_
 _symmetry_equiv_pos_site_id
 _symmetry_equiv_pos_as_xyz
  1  'x, y, z'
loop_
 _atom_site_type_symbol
 _atom_site_label
 _atom_site_symmetry_multiplicity
 _atom_site_fract_x
 _atom_site_fract_y
 _atom_site_fract_z
 _atom_site_occupancy
  Hf  Hf0  1  0.250000  0.654136  0.249236  1
  Hf  Hf1  1  0.750000  0.345864  0.750764  1
  Hf  Hf2  1  0.750000  0.154136  0.250764  1
  Hf  Hf3  1  0.250000  0.845864  0.749236  1
  Hf  Hf4  1  0.250000  0.571359  0.963144  1
  Hf  Hf5  1  0.750000  0.428641  0.036856  1
  Hf  Hf6  1  0.750000  0.071359  0.536856  1
  Hf  Hf7  1  0.250000  0.928641  0.463144  1
  Hf  Hf8  1  0.750000  0.840231  0.590450  1
  Hf  Hf9  1  0.250000  0.159769  0.409550  1
  Hf  Hf10  1  0.250000  0.340231  0.909550  1
  Hf  Hf11  1  0.750000  0.659769  0.090450  1
  Hf  Hf12  1  0.250000  0.215888  0.619262  1
  Hf  Hf13  1  0.750000  0.784112  0.380738  1
  Hf  Hf14  1  0.750000  0.715888  0.880738  1
  Hf  Hf15  1  0.250000  0.284112  0.119262  1
  Hf  Hf16  1  0.250000  0.558390  0.786888  1
  Hf  Hf17  1  0.750000  0.441610  0.213112  1
  Hf  Hf18  1  0.750000  0.058390  0.713112  1
  Hf  Hf19  1  0.250000  0.941610  0.286888  1
  Ga  Ga20  1  0.250000  0.521469  0.125794  1
  Ga  Ga21  1  0.750000  0.478531  0.874206  1
  Ga  Ga22  1  0.750000  0.021469  0.374206  1
  Ga  Ga23  1  0.250000  0.978531  0.625794  1
  Te  Te24  1  0.250000  0.436405  0.650465  1
  Te  Te25  1  0.750000  0.563595  0.349535  1
  Te  Te26  1  0.750000  0.936405  0.849535  1
  Te  Te27  1  0.250000  0.063595  0.150465  1
  Te  Te28  1  0.750000  0.687691  0.707496  1
  Te  Te29  1  0.250000  0.312309  0.292504  1
  Te  Te30  1  0.250000  0.187691  0.792504  1
  Te  Te31  1  0.750000  0.812309  0.207496  1
  Te  Te32  1  0.250000  0.789416  0.002592  1
  Te  Te33  1  0.750000  0.210584  0.997408  1
  Te  Te34  1  0.750000  0.289416  0.497408  1
  Te  Te35  1  0.250000  0.710584  0.502592  1
