# generated using pymatgen
data_EuY6RuI12
_symmetry_space_group_name_H-M   'P 1'
_cell_length_a   9.84184179
_cell_length_b   9.84184117
_cell_length_c   9.84184114
_cell_angle_alpha   106.85581267
_cell_angle_beta   106.85581204
_cell_angle_gamma   106.85580609
_symmetry_Int_Tables_number   1
_chemical_formula_structural   EuY6RuI12
_chemical_formula_sum   'Eu1 Y6 Ru1 I12'
_cell_volume   797.01854947
_cell_formula_units_Z   1
loop_
 _symmetry_equiv_pos_site_id
 _symmetry_equiv_pos_as_xyz
  1  'x, y, z'
loop_
 _atom_site_type_symbol
 _atom_site_label
 _atom_site_symmetry_multiplicity
 _atom_site_fract_x
 _atom_site_fract_y
 _atom_site_fract_z
 _atom_site_occupancy
  Eu  Eu0  1  0.500000  0.500000  0.500000  1
  Y  Y1  1  0.904524  0.702913  0.976756  1
  Y  Y2  1  0.976756  0.904524  0.702913  1
  Y  Y3  1  0.702913  0.976756  0.904524  1
  Y  Y4  1  0.095476  0.297087  0.023244  1
  Y  Y5  1  0.023244  0.095476  0.297087  1
  Y  Y6  1  0.297087  0.023244  0.095476  1
  Ru  Ru7  1  0.000000  0.000000  0.000000  1
  I  I8  1  0.626150  0.858461  0.546717  1
  I  I9  1  0.546717  0.626150  0.858461  1
  I  I10  1  0.858461  0.546717  0.626150  1
  I  I11  1  0.373850  0.141539  0.453283  1
  I  I12  1  0.453283  0.373850  0.141539  1
  I  I13  1  0.141539  0.453283  0.373850  1
  I  I14  1  0.680090  0.073653  0.222940  1
  I  I15  1  0.222940  0.680090  0.073653  1
  I  I16  1  0.073653  0.222940  0.680090  1
  I  I17  1  0.319910  0.926347  0.777060  1
  I  I18  1  0.777060  0.319910  0.926347  1
  I  I19  1  0.926347  0.777060  0.319910  1
