# generated using pymatgen
data_Rb5Bi2Au
_symmetry_space_group_name_H-M   'P 1'
_cell_length_a   6.41285600
_cell_length_b   6.41285532
_cell_length_c   21.67216000
_cell_angle_alpha   90.00000000
_cell_angle_beta   90.00000000
_cell_angle_gamma   119.99999319
_symmetry_Int_Tables_number   1
_chemical_formula_structural   Rb5Bi2Au
_chemical_formula_sum   'Rb10 Bi4 Au2'
_cell_volume   771.85512086
_cell_formula_units_Z   2
loop_
 _symmetry_equiv_pos_site_id
 _symmetry_equiv_pos_as_xyz
  1  'x, y, z'
loop_
 _atom_site_type_symbol
 _atom_site_label
 _atom_site_symmetry_multiplicity
 _atom_site_fract_x
 _atom_site_fract_y
 _atom_site_fract_z
 _atom_site_occupancy
  Rb  Rb0  1  0.333333  0.666667  0.550065  1
  Rb  Rb1  1  0.666667  0.333333  0.050065  1
  Rb  Rb2  1  0.666667  0.333333  0.449935  1
  Rb  Rb3  1  0.333333  0.666667  0.949935  1
  Rb  Rb4  1  0.000000  0.000000  0.148320  1
  Rb  Rb5  1  0.000000  0.000000  0.648320  1
  Rb  Rb6  1  0.000000  0.000000  0.851680  1
  Rb  Rb7  1  0.000000  0.000000  0.351680  1
  Rb  Rb8  1  0.333333  0.666667  0.750000  1
  Rb  Rb9  1  0.666667  0.333333  0.250000  1
  Bi  Bi10  1  0.333333  0.666667  0.378134  1
  Bi  Bi11  1  0.666667  0.333333  0.878134  1
  Bi  Bi12  1  0.666667  0.333333  0.621866  1
  Bi  Bi13  1  0.333333  0.666667  0.121866  1
  Au  Au14  1  0.333333  0.666667  0.250000  1
  Au  Au15  1  0.666667  0.333333  0.750000  1
