# generated using pymatgen
data_Ba12Fe4O17F2
_symmetry_space_group_name_H-M   'P 1'
_cell_length_a   7.91594250
_cell_length_b   7.91591395
_cell_length_c   10.47144241
_cell_angle_alpha   90.01173438
_cell_angle_beta   90.01133194
_cell_angle_gamma   97.50472948
_symmetry_Int_Tables_number   1
_chemical_formula_structural   Ba12Fe4O17F2
_chemical_formula_sum   'Ba12 Fe4 O17 F2'
_cell_volume   650.54003498
_cell_formula_units_Z   1
loop_
 _symmetry_equiv_pos_site_id
 _symmetry_equiv_pos_as_xyz
  1  'x, y, z'
loop_
 _atom_site_type_symbol
 _atom_site_label
 _atom_site_symmetry_multiplicity
 _atom_site_fract_x
 _atom_site_fract_y
 _atom_site_fract_z
 _atom_site_occupancy
  Ba  Ba0  1  0.750545  0.249457  0.499994  1
  Ba  Ba1  1  0.255130  0.744872  0.999994  1
  Ba  Ba2  1  0.744870  0.255128  0.000006  1
  Ba  Ba3  1  0.249455  0.750543  0.500006  1
  Ba  Ba4  1  0.581648  0.581634  0.246655  1
  Ba  Ba5  1  0.075337  0.075339  0.761775  1
  Ba  Ba6  1  0.418352  0.418366  0.753345  1
  Ba  Ba7  1  0.924663  0.924661  0.238225  1
  Ba  Ba8  1  0.753705  0.753705  0.924153  1
  Ba  Ba9  1  0.255210  0.255204  0.418667  1
  Ba  Ba10  1  0.246295  0.246295  0.075847  1
  Ba  Ba11  1  0.744790  0.744796  0.581333  1
  Fe  Fe12  1  0.501133  0.001601  0.256373  1
  Fe  Fe13  1  0.998326  0.498833  0.743634  1
  Fe  Fe14  1  0.001674  0.501167  0.256366  1
  Fe  Fe15  1  0.498867  0.998399  0.743627  1
  O  O16  1  0.258940  0.963124  0.289951  1
  O  O17  1  0.756278  0.462274  0.763062  1
  O  O18  1  0.537721  0.243682  0.236940  1
  O  O19  1  0.036868  0.741069  0.710043  1
  O  O20  1  0.924245  0.635668  0.391487  1
  O  O21  1  0.424912  0.120154  0.887131  1
  O  O22  1  0.879851  0.575079  0.112879  1
  O  O23  1  0.364326  0.075758  0.608511  1
  O  O24  1  0.243722  0.537726  0.236938  1
  O  O25  1  0.741060  0.036876  0.710049  1
  O  O26  1  0.963132  0.258931  0.289957  1
  O  O27  1  0.462279  0.756318  0.763060  1
  O  O28  1  0.575088  0.879846  0.112869  1
  O  O29  1  0.075755  0.364332  0.608513  1
  O  O30  1  0.635674  0.924242  0.391489  1
  O  O31  1  0.120149  0.424921  0.887121  1
  O  O32  1  0.000000  0.000000  0.000000  1
  F  F33  1  0.500000  0.500000  0.000000  1
  F  F34  1  0.500000  0.500000  0.500000  1
