# generated using pymatgen
data_Dy2NiAs4Rh5
_symmetry_space_group_name_H-M   'P 1'
_cell_length_a   3.98804300
_cell_length_b   11.32326900
_cell_length_c   13.31220000
_cell_angle_alpha   90.00000000
_cell_angle_beta   90.00000000
_cell_angle_gamma   90.00000000
_symmetry_Int_Tables_number   1
_chemical_formula_structural   Dy2NiAs4Rh5
_chemical_formula_sum   'Dy6 Ni3 As12 Rh15'
_cell_volume   601.14811659
_cell_formula_units_Z   3
loop_
 _symmetry_equiv_pos_site_id
 _symmetry_equiv_pos_as_xyz
  1  'x, y, z'
loop_
 _atom_site_type_symbol
 _atom_site_label
 _atom_site_symmetry_multiplicity
 _atom_site_fract_x
 _atom_site_fract_y
 _atom_site_fract_z
 _atom_site_occupancy
  Dy  Dy0  1  0.000000  0.500000  0.521638  1
  Dy  Dy1  1  0.500000  0.000000  0.474248  1
  Dy  Dy2  1  0.500000  0.813303  0.203575  1
  Dy  Dy3  1  0.500000  0.186697  0.203575  1
  Dy  Dy4  1  0.000000  0.689218  0.796975  1
  Dy  Dy5  1  0.000000  0.310782  0.796975  1
  Ni  Ni6  1  0.000000  0.000000  0.299951  1
  Ni  Ni7  1  0.000000  0.500000  0.973105  1
  Ni  Ni8  1  0.500000  0.000000  0.029180  1
  As  As9  1  0.500000  0.500000  0.874620  1
  As  As10  1  0.000000  0.000000  0.133325  1
  As  As11  1  0.500000  0.500000  0.353380  1
  As  As12  1  0.000000  0.000000  0.646355  1
  As  As13  1  0.500000  0.315089  0.616368  1
  As  As14  1  0.500000  0.684911  0.616368  1
  As  As15  1  0.000000  0.175641  0.378173  1
  As  As16  1  0.000000  0.824359  0.378173  1
  As  As17  1  0.500000  0.856908  0.895152  1
  As  As18  1  0.500000  0.143092  0.895152  1
  As  As19  1  0.000000  0.644424  0.106792  1
  As  As20  1  0.000000  0.355576  0.106792  1
  Rh  Rh21  1  0.500000  0.500000  0.170276  1
  Rh  Rh22  1  0.000000  0.000000  0.830983  1
  Rh  Rh23  1  0.500000  0.500000  0.698644  1
  Rh  Rh24  1  0.500000  0.335911  0.994717  1
  Rh  Rh25  1  0.500000  0.664089  0.994717  1
  Rh  Rh26  1  0.000000  0.161501  0.009162  1
  Rh  Rh27  1  0.000000  0.838499  0.009162  1
  Rh  Rh28  1  0.500000  0.296139  0.430744  1
  Rh  Rh29  1  0.500000  0.703861  0.430744  1
  Rh  Rh30  1  0.000000  0.200199  0.564936  1
  Rh  Rh31  1  0.000000  0.799801  0.564936  1
  Rh  Rh32  1  0.500000  0.873594  0.709680  1
  Rh  Rh33  1  0.500000  0.126406  0.709680  1
  Rh  Rh34  1  0.000000  0.628680  0.290874  1
  Rh  Rh35  1  0.000000  0.371320  0.290874  1
