# generated using pymatgen
data_LaNd2In3Ir2Au
_symmetry_space_group_name_H-M   'P 1'
_cell_length_a   7.87917481
_cell_length_b   7.88642705
_cell_length_c   4.01097900
_cell_angle_alpha   90.00000000
_cell_angle_beta   90.00000000
_cell_angle_gamma   120.08222718
_symmetry_Int_Tables_number   1
_chemical_formula_structural   LaNd2In3Ir2Au
_chemical_formula_sum   'La1 Nd2 In3 Ir2 Au1'
_cell_volume   215.66596057
_cell_formula_units_Z   1
loop_
 _symmetry_equiv_pos_site_id
 _symmetry_equiv_pos_as_xyz
  1  'x, y, z'
loop_
 _atom_site_type_symbol
 _atom_site_label
 _atom_site_symmetry_multiplicity
 _atom_site_fract_x
 _atom_site_fract_y
 _atom_site_fract_z
 _atom_site_occupancy
  La  La0  1  0.979042  0.583352  0.500000  1
  Nd  Nd1  1  0.604769  0.020323  0.500000  1
  Nd  Nd2  1  0.414818  0.394761  0.500000  1
  In  In3  1  0.999929  0.248853  0.000000  1
  In  In4  1  0.251749  0.001508  0.000000  1
  In  In5  1  0.747910  0.750087  0.000000  1
  Ir  Ir6  1  0.000161  0.000199  0.500000  1
  Ir  Ir7  1  0.667533  0.334066  0.000000  1
  Au  Au8  1  0.334089  0.666850  0.000000  1
