# generated using pymatgen
data_Pr10Zn4Ru5Rh
_symmetry_space_group_name_H-M   'P 1'
_cell_length_a   8.55074696
_cell_length_b   8.57144838
_cell_length_c   8.57144797
_cell_angle_alpha   109.61031544
_cell_angle_beta   109.45161516
_cell_angle_gamma   109.44954507
_symmetry_Int_Tables_number   1
_chemical_formula_structural   Pr10Zn4Ru5Rh
_chemical_formula_sum   'Pr10 Zn4 Ru5 Rh1'
_cell_volume   483.01915987
_cell_formula_units_Z   1
loop_
 _symmetry_equiv_pos_site_id
 _symmetry_equiv_pos_as_xyz
  1  'x, y, z'
loop_
 _atom_site_type_symbol
 _atom_site_label
 _atom_site_symmetry_multiplicity
 _atom_site_fract_x
 _atom_site_fract_y
 _atom_site_fract_z
 _atom_site_occupancy
  Pr  Pr0  1  0.250000  0.684968  0.434968  1
  Pr  Pr1  1  0.750000  0.813798  0.063798  1
  Pr  Pr2  1  0.437600  0.251472  0.683862  1
  Pr  Pr3  1  0.686890  0.435970  0.251773  1
  Pr  Pr4  1  0.062400  0.746262  0.813873  1
  Pr  Pr5  1  0.813110  0.064883  0.749080  1
  Pr  Pr6  1  0.221018  0.222985  0.223900  1
  Pr  Pr7  1  0.500593  0.000594  0.277690  1
  Pr  Pr8  1  0.278982  0.502881  0.001966  1
  Pr  Pr9  1  0.999407  0.277098  0.500001  1
  Zn  Zn10  1  0.589839  0.590116  0.589776  1
  Zn  Zn11  1  0.500963  0.998221  0.909603  1
  Zn  Zn12  1  0.910161  0.499937  0.000277  1
  Zn  Zn13  1  0.999037  0.908640  0.497258  1
  Ru  Ru14  1  0.750000  0.373300  0.623300  1
  Ru  Ru15  1  0.877064  0.250653  0.127150  1
  Ru  Ru16  1  0.128524  0.879348  0.250824  1
  Ru  Ru17  1  0.622935  0.750085  0.373588  1
  Ru  Ru18  1  0.371476  0.622300  0.750825  1
  Rh  Rh19  1  0.250000  0.126490  0.876490  1
