# generated using pymatgen
data_SmPaNi12P5
_symmetry_space_group_name_H-M   'P 1'
_cell_length_a   3.65685700
_cell_length_b   10.66399922
_cell_length_c   13.06200390
_cell_angle_alpha   71.89517358
_cell_angle_beta   90.00000000
_cell_angle_gamma   90.00000000
_symmetry_Int_Tables_number   1
_chemical_formula_structural   SmPaNi12P5
_chemical_formula_sum   'Sm2 Pa2 Ni24 P10'
_cell_volume   484.15591437
_cell_formula_units_Z   2
loop_
 _symmetry_equiv_pos_site_id
 _symmetry_equiv_pos_as_xyz
  1  'x, y, z'
loop_
 _atom_site_type_symbol
 _atom_site_label
 _atom_site_symmetry_multiplicity
 _atom_site_fract_x
 _atom_site_fract_y
 _atom_site_fract_z
 _atom_site_occupancy
  Sm  Sm0  1  0.250000  0.246149  0.188122  1
  Sm  Sm1  1  0.750000  0.753851  0.811878  1
  Pa  Pa2  1  0.250000  0.279786  0.682084  1
  Pa  Pa3  1  0.750000  0.720214  0.317916  1
  Ni  Ni4  1  0.250000  0.830313  0.145170  1
  Ni  Ni5  1  0.750000  0.169687  0.854830  1
  Ni  Ni6  1  0.250000  0.286373  0.441885  1
  Ni  Ni7  1  0.750000  0.713627  0.558115  1
  Ni  Ni8  1  0.250000  0.067698  0.018943  1
  Ni  Ni9  1  0.750000  0.932302  0.981057  1
  Ni  Ni10  1  0.250000  0.062469  0.445260  1
  Ni  Ni11  1  0.750000  0.937531  0.554740  1
  Ni  Ni12  1  0.250000  0.596904  0.696980  1
  Ni  Ni13  1  0.750000  0.403096  0.303020  1
  Ni  Ni14  1  0.250000  0.584601  0.007586  1
  Ni  Ni15  1  0.750000  0.415399  0.992414  1
  Ni  Ni16  1  0.250000  0.580721  0.507343  1
  Ni  Ni17  1  0.750000  0.419279  0.492657  1
  Ni  Ni18  1  0.250000  0.296821  0.916084  1
  Ni  Ni19  1  0.750000  0.703179  0.083916  1
  Ni  Ni20  1  0.250000  0.996189  0.658993  1
  Ni  Ni21  1  0.750000  0.003811  0.341007  1
  Ni  Ni22  1  0.250000  0.833786  0.434390  1
  Ni  Ni23  1  0.750000  0.166214  0.565610  1
  Ni  Ni24  1  0.250000  0.990870  0.846866  1
  Ni  Ni25  1  0.750000  0.009130  0.153134  1
  Ni  Ni26  1  0.250000  0.569743  0.203478  1
  Ni  Ni27  1  0.750000  0.430257  0.796522  1
  P  P28  1  0.250000  0.510061  0.871294  1
  P  P29  1  0.750000  0.489939  0.128706  1
  P  P30  1  0.250000  0.803562  0.983712  1
  P  P31  1  0.750000  0.196438  0.016288  1
  P  P32  1  0.250000  0.496877  0.376215  1
  P  P33  1  0.750000  0.503123  0.623785  1
  P  P34  1  0.250000  0.813036  0.609937  1
  P  P35  1  0.750000  0.186964  0.390063  1
  P  P36  1  0.250000  0.950886  0.258776  1
  P  P37  1  0.750000  0.049114  0.741224  1
