# generated using pymatgen
data_Tb4Lu4In3Ni
_symmetry_space_group_name_H-M   'P 1'
_cell_length_a   10.27099000
_cell_length_b   10.27099064
_cell_length_c   7.05162000
_cell_angle_alpha   90.00000000
_cell_angle_beta   90.00000000
_cell_angle_gamma   119.99999794
_symmetry_Int_Tables_number   1
_chemical_formula_structural   Tb4Lu4In3Ni
_chemical_formula_sum   'Tb8 Lu8 In6 Ni2'
_cell_volume   644.23480104
_cell_formula_units_Z   2
loop_
 _symmetry_equiv_pos_site_id
 _symmetry_equiv_pos_as_xyz
  1  'x, y, z'
loop_
 _atom_site_type_symbol
 _atom_site_label
 _atom_site_symmetry_multiplicity
 _atom_site_fract_x
 _atom_site_fract_y
 _atom_site_fract_z
 _atom_site_occupancy
  Tb  Tb0  1  0.534538  0.069076  0.788590  1
  Tb  Tb1  1  0.930924  0.465462  0.788590  1
  Tb  Tb2  1  0.534538  0.465462  0.788590  1
  Tb  Tb3  1  0.465462  0.930924  0.288590  1
  Tb  Tb4  1  0.069076  0.534538  0.288590  1
  Tb  Tb5  1  0.465462  0.534538  0.288590  1
  Tb  Tb6  1  0.000000  0.000000  0.770377  1
  Tb  Tb7  1  0.000000  0.000000  0.270377  1
  Lu  Lu8  1  0.822287  0.644575  0.490284  1
  Lu  Lu9  1  0.355425  0.177713  0.490284  1
  Lu  Lu10  1  0.822287  0.177713  0.490284  1
  Lu  Lu11  1  0.177713  0.355425  0.990284  1
  Lu  Lu12  1  0.644575  0.822287  0.990284  1
  Lu  Lu13  1  0.177713  0.822287  0.990284  1
  Lu  Lu14  1  0.666667  0.333333  0.180868  1
  Lu  Lu15  1  0.333333  0.666667  0.680868  1
  In  In16  1  0.836258  0.672518  0.040275  1
  In  In17  1  0.327482  0.163742  0.040275  1
  In  In18  1  0.836258  0.163742  0.040275  1
  In  In19  1  0.163742  0.327482  0.540275  1
  In  In20  1  0.672518  0.836258  0.540275  1
  In  In21  1  0.163742  0.836258  0.540275  1
  Ni  Ni22  1  0.666667  0.333333  0.554345  1
  Ni  Ni23  1  0.333333  0.666667  0.054345  1
