# generated using pymatgen
data_TbAl2CuSi
_symmetry_space_group_name_H-M   'P 1'
_cell_length_a   4.08481458
_cell_length_b   4.08671129
_cell_length_c   5.97912108
_cell_angle_alpha   70.01657031
_cell_angle_beta   70.02623038
_cell_angle_gamma   90.00000196
_symmetry_Int_Tables_number   1
_chemical_formula_structural   TbAl2CuSi
_chemical_formula_sum   'Tb1 Al2 Cu1 Si1'
_cell_volume   87.38696163
_cell_formula_units_Z   1
loop_
 _symmetry_equiv_pos_site_id
 _symmetry_equiv_pos_as_xyz
  1  'x, y, z'
loop_
 _atom_site_type_symbol
 _atom_site_label
 _atom_site_symmetry_multiplicity
 _atom_site_fract_x
 _atom_site_fract_y
 _atom_site_fract_z
 _atom_site_occupancy
  Tb  Tb0  1  0.992845  0.992845  0.014312  1
  Al  Al1  1  0.745792  0.245792  0.508415  1
  Al  Al2  1  0.245846  0.745846  0.508307  1
  Cu  Cu3  1  0.617062  0.617062  0.765878  1
  Si  Si4  1  0.398455  0.398455  0.203088  1
