# generated using pymatgen
data_Y12Ho4MgHg3Rh4
_symmetry_space_group_name_H-M   'P 1'
_cell_length_a   9.62905925
_cell_length_b   9.61784109
_cell_length_c   9.61784100
_cell_angle_alpha   60.00000374
_cell_angle_beta   60.03853522
_cell_angle_gamma   60.03852948
_symmetry_Int_Tables_number   1
_chemical_formula_structural   Y12Ho4MgHg3Rh4
_chemical_formula_sum   'Y12 Ho4 Mg1 Hg3 Rh4'
_cell_volume   630.19761992
_cell_formula_units_Z   1
loop_
 _symmetry_equiv_pos_site_id
 _symmetry_equiv_pos_as_xyz
  1  'x, y, z'
loop_
 _atom_site_type_symbol
 _atom_site_label
 _atom_site_symmetry_multiplicity
 _atom_site_fract_x
 _atom_site_fract_y
 _atom_site_fract_z
 _atom_site_occupancy
  Y  Y0  1  0.059991  0.439957  0.439957  1
  Y  Y1  1  0.436398  0.062827  0.062827  1
  Y  Y2  1  0.436398  0.062827  0.437947  1
  Y  Y3  1  0.059991  0.439957  0.060095  1
  Y  Y4  1  0.436398  0.437947  0.062827  1
  Y  Y5  1  0.059991  0.060095  0.439957  1
  Y  Y6  1  0.184632  0.813974  0.813974  1
  Y  Y7  1  0.812891  0.186424  0.186424  1
  Y  Y8  1  0.812891  0.186424  0.814261  1
  Y  Y9  1  0.184632  0.813974  0.187420  1
  Y  Y10  1  0.812891  0.814261  0.186424  1
  Y  Y11  1  0.184632  0.187420  0.813974  1
  Ho  Ho12  1  0.600895  0.598541  0.598541  1
  Ho  Ho13  1  0.600895  0.598541  0.202025  1
  Ho  Ho14  1  0.600895  0.202025  0.598541  1
  Ho  Ho15  1  0.191749  0.602751  0.602751  1
  Mg  Mg16  1  0.534341  0.821886  0.821886  1
  Hg  Hg17  1  0.831485  0.835905  0.835905  1
  Hg  Hg18  1  0.831485  0.835905  0.496704  1
  Hg  Hg19  1  0.831485  0.496704  0.835905  1
  Rh  Rh20  1  0.391629  0.394746  0.394746  1
  Rh  Rh21  1  0.391629  0.394746  0.818880  1
  Rh  Rh22  1  0.391629  0.818880  0.394746  1
  Rh  Rh23  1  0.820143  0.393286  0.393286  1
