# generated using pymatgen
data_Ba(SiP)2
_symmetry_space_group_name_H-M   'P 1'
_cell_length_a   7.55206900
_cell_length_b   7.55206900
_cell_length_c   8.37623000
_cell_angle_alpha   90.00000000
_cell_angle_beta   90.00000000
_cell_angle_gamma   90.00000000
_symmetry_Int_Tables_number   1
_chemical_formula_structural   Ba(SiP)2
_chemical_formula_sum   'Ba4 Si8 P8'
_cell_volume   477.72777577
_cell_formula_units_Z   4
loop_
 _symmetry_equiv_pos_site_id
 _symmetry_equiv_pos_as_xyz
  1  'x, y, z'
loop_
 _atom_site_type_symbol
 _atom_site_label
 _atom_site_symmetry_multiplicity
 _atom_site_fract_x
 _atom_site_fract_y
 _atom_site_fract_z
 _atom_site_occupancy
  Ba  Ba0  1  0.000000  0.500000  0.525913  1
  Ba  Ba1  1  0.500000  0.000000  0.025913  1
  Ba  Ba2  1  0.000000  0.000000  0.497906  1
  Ba  Ba3  1  0.000000  0.000000  0.997906  1
  Si  Si4  1  0.167214  0.500000  0.110095  1
  Si  Si5  1  0.500000  0.832786  0.610095  1
  Si  Si6  1  0.832786  0.500000  0.110095  1
  Si  Si7  1  0.500000  0.167214  0.610095  1
  Si  Si8  1  0.334974  0.500000  0.866410  1
  Si  Si9  1  0.500000  0.334974  0.366410  1
  Si  Si10  1  0.500000  0.665026  0.366410  1
  Si  Si11  1  0.665026  0.500000  0.866410  1
  P  P12  1  0.761973  0.256689  0.254218  1
  P  P13  1  0.238027  0.743311  0.254218  1
  P  P14  1  0.256689  0.238027  0.754218  1
  P  P15  1  0.743311  0.761973  0.754218  1
  P  P16  1  0.238027  0.256689  0.254218  1
  P  P17  1  0.743311  0.238027  0.754218  1
  P  P18  1  0.256689  0.761973  0.754218  1
  P  P19  1  0.761973  0.743311  0.254218  1
