# generated using pymatgen
data_Y12Ga9Si9Ge2
_symmetry_space_group_name_H-M   'P 1'
_cell_length_a   5.98318975
_cell_length_b   5.98319041
_cell_length_c   18.74213500
_cell_angle_alpha   90.00000000
_cell_angle_beta   90.00000000
_cell_angle_gamma   102.76444273
_symmetry_Int_Tables_number   1
_chemical_formula_structural   Y12Ga9Si9Ge2
_chemical_formula_sum   'Y12 Ga9 Si9 Ge2'
_cell_volume   654.36030310
_cell_formula_units_Z   1
loop_
 _symmetry_equiv_pos_site_id
 _symmetry_equiv_pos_as_xyz
  1  'x, y, z'
loop_
 _atom_site_type_symbol
 _atom_site_label
 _atom_site_symmetry_multiplicity
 _atom_site_fract_x
 _atom_site_fract_y
 _atom_site_fract_z
 _atom_site_occupancy
  Y  Y0  1  0.652520  0.652520  0.000000  1
  Y  Y1  1  0.660538  0.660538  0.500000  1
  Y  Y2  1  0.340568  0.340568  0.250422  1
  Y  Y3  1  0.340568  0.340568  0.749578  1
  Y  Y4  1  0.200602  0.802006  0.128048  1
  Y  Y5  1  0.198924  0.801500  0.625076  1
  Y  Y6  1  0.200602  0.802006  0.871952  1
  Y  Y7  1  0.198924  0.801500  0.374924  1
  Y  Y8  1  0.802006  0.200602  0.128048  1
  Y  Y9  1  0.801500  0.198924  0.625076  1
  Y  Y10  1  0.801500  0.198924  0.374924  1
  Y  Y11  1  0.802006  0.200602  0.871952  1
  Ga  Ga12  1  0.316869  0.316869  0.902678  1
  Ga  Ga13  1  0.322609  0.322609  0.402651  1
  Ga  Ga14  1  0.678517  0.678517  0.347511  1
  Ga  Ga15  1  0.678415  0.678415  0.847356  1
  Ga  Ga16  1  0.316869  0.316869  0.097322  1
  Ga  Ga17  1  0.322609  0.322609  0.597349  1
  Ga  Ga18  1  0.678415  0.678415  0.152644  1
  Ga  Ga19  1  0.678517  0.678517  0.652489  1
  Ga  Ga20  1  0.040011  0.040011  0.000000  1
  Si  Si21  1  0.482524  0.089342  0.500000  1
  Si  Si22  1  0.911796  0.518680  0.250464  1
  Si  Si23  1  0.911796  0.518680  0.749536  1
  Si  Si24  1  0.518680  0.911796  0.250464  1
  Si  Si25  1  0.518680  0.911796  0.749536  1
  Si  Si26  1  0.089342  0.482524  0.500000  1
  Si  Si27  1  0.053551  0.053551  0.500000  1
  Si  Si28  1  0.947695  0.947695  0.250716  1
  Si  Si29  1  0.947695  0.947695  0.749284  1
  Ge  Ge30  1  0.496861  0.088294  0.000000  1
  Ge  Ge31  1  0.088294  0.496861  0.000000  1
