# generated using pymatgen
data_MnI9
_symmetry_space_group_name_H-M   'P 1'
_cell_length_a   10.10986864
_cell_length_b   10.17215487
_cell_length_c   10.08226245
_cell_angle_alpha   94.37687220
_cell_angle_beta   94.37755374
_cell_angle_gamma   94.23960779
_symmetry_Int_Tables_number   1
_chemical_formula_structural   MnI9
_chemical_formula_sum   'Mn2 I18'
_cell_volume   1027.48939074
_cell_formula_units_Z   2
loop_
 _symmetry_equiv_pos_site_id
 _symmetry_equiv_pos_as_xyz
  1  'x, y, z'
loop_
 _atom_site_type_symbol
 _atom_site_label
 _atom_site_symmetry_multiplicity
 _atom_site_fract_x
 _atom_site_fract_y
 _atom_site_fract_z
 _atom_site_occupancy
  Mn  Mn0  1  0.500000  0.500000  0.500000  1
  Mn  Mn1  1  0.000000  0.000000  0.000000  1
  I  I2  1  0.779663  0.477345  0.525386  1
  I  I3  1  0.525169  0.777969  0.476981  1
  I  I4  1  0.477784  0.526140  0.780205  1
  I  I5  1  0.220337  0.522655  0.474614  1
  I  I6  1  0.474831  0.222031  0.523019  1
  I  I7  1  0.522216  0.473860  0.219795  1
  I  I8  1  0.895547  0.366380  0.759360  1
  I  I9  1  0.758933  0.894142  0.367358  1
  I  I10  1  0.367308  0.759374  0.895440  1
  I  I11  1  0.104453  0.633620  0.240640  1
  I  I12  1  0.241067  0.105858  0.632642  1
  I  I13  1  0.632692  0.240626  0.104560  1
  I  I14  1  0.000008  0.966098  0.730031  1
  I  I15  1  0.730752  0.000564  0.965127  1
  I  I16  1  0.965088  0.732515  0.999044  1
  I  I17  1  0.999992  0.033902  0.269969  1
  I  I18  1  0.269248  0.999436  0.034873  1
  I  I19  1  0.034912  0.267485  0.000956  1
