# generated using pymatgen
data_TbNdRh2O7
_symmetry_space_group_name_H-M   'P 1'
_cell_length_a   7.31795833
_cell_length_b   7.34427302
_cell_length_c   7.32241142
_cell_angle_alpha   59.90119916
_cell_angle_beta   59.74757035
_cell_angle_gamma   59.88096912
_symmetry_Int_Tables_number   1
_chemical_formula_structural   TbNdRh2O7
_chemical_formula_sum   'Tb2 Nd2 Rh4 O14'
_cell_volume   277.28620966
_cell_formula_units_Z   2
loop_
 _symmetry_equiv_pos_site_id
 _symmetry_equiv_pos_as_xyz
  1  'x, y, z'
loop_
 _atom_site_type_symbol
 _atom_site_label
 _atom_site_symmetry_multiplicity
 _atom_site_fract_x
 _atom_site_fract_y
 _atom_site_fract_z
 _atom_site_occupancy
  Tb  Tb0  1  0.625000  0.125000  0.125000  1
  Tb  Tb1  1  0.125000  0.125000  0.625000  1
  Nd  Nd2  1  0.125000  0.125000  0.125000  1
  Nd  Nd3  1  0.125000  0.625000  0.125000  1
  Rh  Rh4  1  0.625000  0.625000  0.625000  1
  Rh  Rh5  1  0.125000  0.625000  0.625000  1
  Rh  Rh6  1  0.625000  0.625000  0.125000  1
  Rh  Rh7  1  0.625000  0.125000  0.625000  1
  O  O8  1  0.993791  0.006355  0.993500  1
  O  O9  1  0.256209  0.243645  0.256500  1
  O  O10  1  0.291247  0.290450  0.703393  1
  O  O11  1  0.546387  0.534913  0.958954  1
  O  O12  1  0.708522  0.291579  0.708321  1
  O  O13  1  0.703613  0.290255  0.291046  1
  O  O14  1  0.291247  0.714909  0.703393  1
  O  O15  1  0.290991  0.709014  0.290981  1
  O  O16  1  0.703613  0.715087  0.291046  1
  O  O17  1  0.958753  0.535091  0.546607  1
  O  O18  1  0.546387  0.959745  0.958954  1
  O  O19  1  0.958753  0.959550  0.546607  1
  O  O20  1  0.959009  0.540986  0.959019  1
  O  O21  1  0.541478  0.958421  0.541679  1
