# generated using pymatgen
data_La2Dy4Rh17Au
_symmetry_space_group_name_H-M   'P 1'
_cell_length_a   5.29961200
_cell_length_b   5.30853003
_cell_length_c   17.54995000
_cell_angle_alpha   90.00000000
_cell_angle_beta   90.00000000
_cell_angle_gamma   120.04145995
_symmetry_Int_Tables_number   1
_chemical_formula_structural   La2Dy4Rh17Au
_chemical_formula_sum   'La2 Dy4 Rh17 Au1'
_cell_volume   427.40862139
_cell_formula_units_Z   1
loop_
 _symmetry_equiv_pos_site_id
 _symmetry_equiv_pos_as_xyz
  1  'x, y, z'
loop_
 _atom_site_type_symbol
 _atom_site_label
 _atom_site_symmetry_multiplicity
 _atom_site_fract_x
 _atom_site_fract_y
 _atom_site_fract_z
 _atom_site_occupancy
  La  La0  1  0.333375  0.666611  0.750000  1
  La  La1  1  0.666481  0.333221  0.250000  1
  Dy  Dy2  1  0.333374  0.666680  0.957502  1
  Dy  Dy3  1  0.666698  0.333335  0.040172  1
  Dy  Dy4  1  0.666698  0.333335  0.459828  1
  Dy  Dy5  1  0.333374  0.666680  0.542498  1
  Rh  Rh6  1  0.167207  0.832913  0.378709  1
  Rh  Rh7  1  0.167205  0.334361  0.378744  1
  Rh  Rh8  1  0.665540  0.832765  0.378872  1
  Rh  Rh9  1  0.832772  0.167110  0.624723  1
  Rh  Rh10  1  0.832800  0.665654  0.624527  1
  Rh  Rh11  1  0.334356  0.167158  0.624160  1
  Rh  Rh12  1  0.832772  0.167110  0.875277  1
  Rh  Rh13  1  0.832800  0.665654  0.875473  1
  Rh  Rh14  1  0.334356  0.167158  0.875840  1
  Rh  Rh15  1  0.167207  0.832913  0.121291  1
  Rh  Rh16  1  0.167205  0.334361  0.121256  1
  Rh  Rh17  1  0.665540  0.832765  0.121128  1
  Rh  Rh18  1  0.663920  0.332811  0.750000  1
  Rh  Rh19  1  0.999713  0.999856  0.250000  1
  Rh  Rh20  1  0.003041  0.000714  0.750000  1
  Rh  Rh21  1  0.000136  0.000102  0.500335  1
  Rh  Rh22  1  0.000136  0.000102  0.999665  1
  Au  Au23  1  0.333295  0.666628  0.250000  1
