# generated using pymatgen
data_Er11TmTcRu3
_symmetry_space_group_name_H-M   'P 1'
_cell_length_a   6.24522318
_cell_length_b   7.29777855
_cell_length_c   9.03598624
_cell_angle_alpha   90.00284645
_cell_angle_beta   90.02608629
_cell_angle_gamma   89.97373502
_symmetry_Int_Tables_number   1
_chemical_formula_structural   Er11TmTcRu3
_chemical_formula_sum   'Er11 Tm1 Tc1 Ru3'
_cell_volume   411.82633310
_cell_formula_units_Z   1
loop_
 _symmetry_equiv_pos_site_id
 _symmetry_equiv_pos_as_xyz
  1  'x, y, z'
loop_
 _atom_site_type_symbol
 _atom_site_label
 _atom_site_symmetry_multiplicity
 _atom_site_fract_x
 _atom_site_fract_y
 _atom_site_fract_z
 _atom_site_occupancy
  Er  Er0  1  0.631908  0.040378  0.250088  1
  Er  Er1  1  0.367194  0.957917  0.749941  1
  Er  Er2  1  0.132915  0.458132  0.749911  1
  Er  Er3  1  0.871507  0.541754  0.250113  1
  Er  Er4  1  0.167662  0.176287  0.063925  1
  Er  Er5  1  0.831789  0.823542  0.936489  1
  Er  Er6  1  0.666191  0.324513  0.937379  1
  Er  Er7  1  0.831732  0.823516  0.563489  1
  Er  Er8  1  0.331844  0.676017  0.063572  1
  Er  Er9  1  0.167673  0.176362  0.436101  1
  Er  Er10  1  0.331950  0.675842  0.436469  1
  Tm  Tm11  1  0.666160  0.324656  0.562606  1
  Tc  Tc12  1  0.463220  0.384739  0.250140  1
  Ru  Ru13  1  0.538573  0.616869  0.749908  1
  Ru  Ru14  1  0.962197  0.115468  0.749883  1
  Ru  Ru15  1  0.037485  0.884010  0.249988  1
