# generated using pymatgen
data_YNp(B2Ir3)3
_symmetry_space_group_name_H-M   'P 1'
_cell_length_a   5.65843600
_cell_length_b   5.65843572
_cell_length_c   8.65546200
_cell_angle_alpha   90.00000000
_cell_angle_beta   90.00000000
_cell_angle_gamma   120.00000163
_symmetry_Int_Tables_number   1
_chemical_formula_structural   YNp(B2Ir3)3
_chemical_formula_sum   'Y1 Np1 B6 Ir9'
_cell_volume   240.00134387
_cell_formula_units_Z   1
loop_
 _symmetry_equiv_pos_site_id
 _symmetry_equiv_pos_as_xyz
  1  'x, y, z'
loop_
 _atom_site_type_symbol
 _atom_site_label
 _atom_site_symmetry_multiplicity
 _atom_site_fract_x
 _atom_site_fract_y
 _atom_site_fract_z
 _atom_site_occupancy
  Y  Y0  1  0.000000  0.000000  0.293840  1
  Np  Np1  1  0.000000  0.000000  0.696227  1
  B  B2  1  0.666667  0.333333  0.001777  1
  B  B3  1  0.333333  0.666667  0.001777  1
  B  B4  1  0.666667  0.333333  0.668133  1
  B  B5  1  0.333333  0.666667  0.668133  1
  B  B6  1  0.333333  0.666667  0.331741  1
  B  B7  1  0.666667  0.333333  0.331741  1
  Ir  Ir8  1  0.500000  0.500000  0.836947  1
  Ir  Ir9  1  0.500000  0.000000  0.836947  1
  Ir  Ir10  1  0.000000  0.500000  0.836947  1
  Ir  Ir11  1  0.500000  0.500000  0.164997  1
  Ir  Ir12  1  0.500000  0.000000  0.164997  1
  Ir  Ir13  1  0.000000  0.500000  0.164997  1
  Ir  Ir14  1  0.500000  0.500000  0.500266  1
  Ir  Ir15  1  0.500000  0.000000  0.500266  1
  Ir  Ir16  1  0.000000  0.500000  0.500266  1
