# generated using pymatgen
data_La12InRh7
_symmetry_space_group_name_H-M   'P 1'
_cell_length_a   11.27988723
_cell_length_b   11.27988690
_cell_length_c   11.27988700
_cell_angle_alpha   115.02273874
_cell_angle_beta   115.02273796
_cell_angle_gamma   98.86136788
_symmetry_Int_Tables_number   1
_chemical_formula_structural   La12InRh7
_chemical_formula_sum   'La24 In2 Rh14'
_cell_volume   1077.19797043
_cell_formula_units_Z   2
loop_
 _symmetry_equiv_pos_site_id
 _symmetry_equiv_pos_as_xyz
  1  'x, y, z'
loop_
 _atom_site_type_symbol
 _atom_site_label
 _atom_site_symmetry_multiplicity
 _atom_site_fract_x
 _atom_site_fract_y
 _atom_site_fract_z
 _atom_site_occupancy
  La  La0  1  0.854307  0.718391  0.282104  1
  La  La1  1  0.145693  0.281609  0.717896  1
  La  La2  1  0.436287  0.572203  0.717896  1
  La  La3  1  0.718391  0.436287  0.864084  1
  La  La4  1  0.063713  0.781609  0.135916  1
  La  La5  1  0.563713  0.427797  0.282104  1
  La  La6  1  0.281609  0.563713  0.135916  1
  La  La7  1  0.936287  0.218391  0.864084  1
  La  La8  1  0.572203  0.854307  0.135916  1
  La  La9  1  0.645693  0.927797  0.864084  1
  La  La10  1  0.427797  0.145693  0.864084  1
  La  La11  1  0.354307  0.072203  0.135916  1
  La  La12  1  0.927797  0.063713  0.282104  1
  La  La13  1  0.072203  0.936287  0.717896  1
  La  La14  1  0.781609  0.645693  0.717896  1
  La  La15  1  0.218391  0.354307  0.282104  1
  La  La16  1  0.173503  0.673503  0.847007  1
  La  La17  1  0.826497  0.326497  0.152993  1
  La  La18  1  0.673503  0.826497  0.500000  1
  La  La19  1  0.326497  0.173503  0.500000  1
  La  La20  1  0.136139  0.636139  0.500000  1
  La  La21  1  0.863861  0.363861  0.500000  1
  La  La22  1  0.636139  0.136139  0.500000  1
  La  La23  1  0.363861  0.863861  0.500000  1
  In  In24  1  0.500000  0.500000  0.000000  1
  In  In25  1  0.000000  0.000000  0.000000  1
  Rh  Rh26  1  0.623703  0.123703  0.747406  1
  Rh  Rh27  1  0.376297  0.876297  0.252594  1
  Rh  Rh28  1  0.123703  0.376297  0.500000  1
  Rh  Rh29  1  0.876297  0.623703  0.500000  1
  Rh  Rh30  1  0.363194  0.863194  0.852677  1
  Rh  Rh31  1  0.636806  0.136806  0.147323  1
  Rh  Rh32  1  0.010517  0.510517  0.147323  1
  Rh  Rh33  1  0.863194  0.010517  0.500000  1
  Rh  Rh34  1  0.489483  0.636806  0.500000  1
  Rh  Rh35  1  0.989483  0.489483  0.852677  1
  Rh  Rh36  1  0.136806  0.989483  0.500000  1
  Rh  Rh37  1  0.510517  0.363194  0.500000  1
  Rh  Rh38  1  0.750000  0.750000  0.000000  1
  Rh  Rh39  1  0.250000  0.250000  0.000000  1
