# generated using pymatgen
data_Dy8Hf12Si15Ni
_symmetry_space_group_name_H-M   'P 1'
_cell_length_a   7.26144792
_cell_length_b   7.29390326
_cell_length_c   13.39398310
_cell_angle_alpha   90.19527835
_cell_angle_beta   89.90779857
_cell_angle_gamma   90.13578135
_symmetry_Int_Tables_number   1
_chemical_formula_structural   Dy8Hf12Si15Ni
_chemical_formula_sum   'Dy8 Hf12 Si15 Ni1'
_cell_volume   709.39589958
_cell_formula_units_Z   1
loop_
 _symmetry_equiv_pos_site_id
 _symmetry_equiv_pos_as_xyz
  1  'x, y, z'
loop_
 _atom_site_type_symbol
 _atom_site_label
 _atom_site_symmetry_multiplicity
 _atom_site_fract_x
 _atom_site_fract_y
 _atom_site_fract_z
 _atom_site_occupancy
  Dy  Dy0  1  0.996741  0.347647  0.215481  1
  Dy  Dy1  1  0.005390  0.654119  0.714243  1
  Dy  Dy2  1  0.160116  0.490953  0.461780  1
  Dy  Dy3  1  0.503968  0.844681  0.034889  1
  Dy  Dy4  1  0.843561  0.503555  0.965612  1
  Dy  Dy5  1  0.495956  0.153638  0.537167  1
  Dy  Dy6  1  0.344254  0.996884  0.785520  1
  Dy  Dy7  1  0.657080  0.003053  0.284562  1
  Hf  Hf8  1  0.175016  0.176841  0.999420  1
  Hf  Hf9  1  0.825982  0.822976  0.499695  1
  Hf  Hf10  1  0.323987  0.676709  0.250491  1
  Hf  Hf11  1  0.675500  0.324316  0.750123  1
  Hf  Hf12  1  0.153443  0.006634  0.374136  1
  Hf  Hf13  1  0.851025  0.003936  0.875127  1
  Hf  Hf14  1  0.503714  0.648441  0.624481  1
  Hf  Hf15  1  0.352059  0.496441  0.874802  1
  Hf  Hf16  1  0.493922  0.349931  0.129004  1
  Hf  Hf17  1  0.640279  0.498963  0.376270  1
  Hf  Hf18  1  0.997268  0.147435  0.626013  1
  Hf  Hf19  1  0.000872  0.851197  0.124416  1
  Si  Si20  1  0.638990  0.705131  0.817990  1
  Si  Si21  1  0.204022  0.859872  0.566137  1
  Si  Si22  1  0.138520  0.796108  0.932763  1
  Si  Si23  1  0.795751  0.139476  0.067206  1
  Si  Si24  1  0.859345  0.199928  0.435384  1
  Si  Si25  1  0.295879  0.361197  0.683469  1
  Si  Si26  1  0.704520  0.640888  0.182618  1
  Si  Si27  1  0.291290  0.051709  0.185495  1
  Si  Si28  1  0.705847  0.949738  0.685787  1
  Si  Si29  1  0.449809  0.794803  0.435823  1
  Si  Si30  1  0.205037  0.550756  0.063271  1
  Si  Si31  1  0.548679  0.205692  0.936288  1
  Si  Si32  1  0.795948  0.449519  0.564794  1
  Si  Si33  1  0.048774  0.296105  0.814774  1
  Si  Si34  1  0.949845  0.707326  0.314122  1
  Ni  Ni35  1  0.367608  0.293408  0.310849  1
