# generated using pymatgen
data_Er8Hg2PdPt
_symmetry_space_group_name_H-M   'P 1'
_cell_length_a   9.58301943
_cell_length_b   9.58301948
_cell_length_c   9.57832600
_cell_angle_alpha   60.01619327
_cell_angle_beta   60.01619309
_cell_angle_gamma   60.02744017
_symmetry_Int_Tables_number   1
_chemical_formula_structural   Er8Hg2PdPt
_chemical_formula_sum   'Er16 Hg4 Pd2 Pt2'
_cell_volume   622.26537729
_cell_formula_units_Z   2
loop_
 _symmetry_equiv_pos_site_id
 _symmetry_equiv_pos_as_xyz
  1  'x, y, z'
loop_
 _atom_site_type_symbol
 _atom_site_label
 _atom_site_symmetry_multiplicity
 _atom_site_fract_x
 _atom_site_fract_y
 _atom_site_fract_z
 _atom_site_occupancy
  Er  Er0  1  0.356254  0.356254  0.352153  1
  Er  Er1  1  0.356254  0.356254  0.935339  1
  Er  Er2  1  0.359969  0.929023  0.355504  1
  Er  Er3  1  0.929023  0.359969  0.355504  1
  Er  Er4  1  0.810069  0.189050  0.189205  1
  Er  Er5  1  0.189050  0.810069  0.811677  1
  Er  Er6  1  0.189050  0.810069  0.189205  1
  Er  Er7  1  0.810069  0.189050  0.811677  1
  Er  Er8  1  0.189835  0.189835  0.810165  1
  Er  Er9  1  0.811442  0.811442  0.188558  1
  Er  Er10  1  0.935543  0.565110  0.564294  1
  Er  Er11  1  0.565110  0.935543  0.935053  1
  Er  Er12  1  0.565110  0.935543  0.564294  1
  Er  Er13  1  0.935543  0.565110  0.935053  1
  Er  Er14  1  0.564965  0.564965  0.935035  1
  Er  Er15  1  0.935221  0.935221  0.564779  1
  Hg  Hg16  1  0.586475  0.586475  0.587812  1
  Hg  Hg17  1  0.586475  0.586475  0.239239  1
  Hg  Hg18  1  0.585689  0.239645  0.587334  1
  Hg  Hg19  1  0.239645  0.585689  0.587334  1
  Pd  Pd20  1  0.144668  0.144668  0.146778  1
  Pd  Pd21  1  0.144668  0.144668  0.563884  1
  Pt  Pt22  1  0.142934  0.566937  0.145063  1
  Pt  Pt23  1  0.566937  0.142934  0.145063  1
