# generated using pymatgen
data_Zr6Ti2Al15Os4Rh3
_symmetry_space_group_name_H-M   'P 1'
_cell_length_a   8.81764903
_cell_length_b   8.82525168
_cell_length_c   8.83193320
_cell_angle_alpha   120.07774733
_cell_angle_beta   119.66795834
_cell_angle_gamma   90.04856215
_symmetry_Int_Tables_number   1
_chemical_formula_structural   Zr6Ti2Al15Os4Rh3
_chemical_formula_sum   'Zr6 Ti2 Al15 Os4 Rh3'
_cell_volume   487.63433339
_cell_formula_units_Z   1
loop_
 _symmetry_equiv_pos_site_id
 _symmetry_equiv_pos_as_xyz
  1  'x, y, z'
loop_
 _atom_site_type_symbol
 _atom_site_label
 _atom_site_symmetry_multiplicity
 _atom_site_fract_x
 _atom_site_fract_y
 _atom_site_fract_z
 _atom_site_occupancy
  Zr  Zr0  1  0.782746  0.285131  0.071382  1
  Zr  Zr1  1  0.221332  0.293443  0.504503  1
  Zr  Zr2  1  0.214272  0.714045  0.508800  1
  Zr  Zr3  1  0.223072  0.720605  0.928745  1
  Zr  Zr4  1  0.790725  0.718419  0.499080  1
  Zr  Zr5  1  0.775691  0.276074  0.489841  1
  Ti  Ti6  1  0.376239  0.122986  0.744303  1
  Ti  Ti7  1  0.382922  0.634330  0.258589  1
  Al  Al8  1  0.995217  0.494571  0.500175  1
  Al  Al9  1  0.157222  0.339959  0.177957  1
  Al  Al10  1  0.161106  0.986794  0.824898  1
  Al  Al11  1  0.155683  0.340944  0.817146  1
  Al  Al12  1  0.517539  0.340126  0.179755  1
  Al  Al13  1  0.842038  0.656782  0.815292  1
  Al  Al14  1  0.843425  0.020379  0.181853  1
  Al  Al15  1  0.838529  0.659173  0.175260  1
  Al  Al16  1  0.490259  0.662855  0.826774  1
  Al  Al17  1  0.377585  0.122196  0.257596  1
  Al  Al18  1  0.861902  0.122460  0.741636  1
  Al  Al19  1  0.621526  0.873845  0.254026  1
  Al  Al20  1  0.621349  0.365201  0.745070  1
  Al  Al21  1  0.618473  0.876289  0.739887  1
  Al  Al22  1  0.137947  0.878198  0.260240  1
  Os  Os23  1  0.000947  0.998373  0.501952  1
  Os  Os24  1  0.498971  0.000970  0.999509  1
  Os  Os25  1  0.497125  0.497409  0.999421  1
  Os  Os26  1  0.496570  0.499223  0.497084  1
  Rh  Rh27  1  0.000629  0.500091  0.000875  1
  Rh  Rh28  1  0.999319  0.999868  0.998717  1
  Rh  Rh29  1  0.499637  0.999259  0.499632  1
