# generated using pymatgen
data_Tb3CeSe4
_symmetry_space_group_name_H-M   'P 1'
_cell_length_a   7.15104864
_cell_length_b   7.15104910
_cell_length_c   7.12718598
_cell_angle_alpha   80.64742422
_cell_angle_beta   80.64742513
_cell_angle_gamma   33.67422841
_symmetry_Int_Tables_number   1
_chemical_formula_structural   Tb3CeSe4
_chemical_formula_sum   'Tb3 Ce1 Se4'
_cell_volume   199.15162974
_cell_formula_units_Z   1
loop_
 _symmetry_equiv_pos_site_id
 _symmetry_equiv_pos_as_xyz
  1  'x, y, z'
loop_
 _atom_site_type_symbol
 _atom_site_label
 _atom_site_symmetry_multiplicity
 _atom_site_fract_x
 _atom_site_fract_y
 _atom_site_fract_z
 _atom_site_occupancy
  Tb  Tb0  1  0.749884  0.749884  0.750507  1
  Tb  Tb1  1  0.500000  0.500000  0.500000  1
  Tb  Tb2  1  0.250116  0.250116  0.249493  1
  Ce  Ce3  1  0.000000  0.000000  0.000000  1
  Se  Se4  1  0.371442  0.371442  0.870696  1
  Se  Se5  1  0.126168  0.126168  0.619929  1
  Se  Se6  1  0.873832  0.873832  0.380071  1
  Se  Se7  1  0.628558  0.628558  0.129304  1
