# generated using pymatgen
data_Hf18Mo8PdSe
_symmetry_space_group_name_H-M   'P 1'
_cell_length_a   8.73079300
_cell_length_b   8.73113520
_cell_length_c   8.59644700
_cell_angle_alpha   90.00000000
_cell_angle_beta   90.00000000
_cell_angle_gamma   120.00007074
_symmetry_Int_Tables_number   1
_chemical_formula_structural   Hf18Mo8PdSe
_chemical_formula_sum   'Hf18 Mo8 Pd1 Se1'
_cell_volume   567.51025929
_cell_formula_units_Z   1
loop_
 _symmetry_equiv_pos_site_id
 _symmetry_equiv_pos_as_xyz
  1  'x, y, z'
loop_
 _atom_site_type_symbol
 _atom_site_label
 _atom_site_symmetry_multiplicity
 _atom_site_fract_x
 _atom_site_fract_y
 _atom_site_fract_z
 _atom_site_occupancy
  Hf  Hf0  1  0.196561  0.803440  0.448906  1
  Hf  Hf1  1  0.196563  0.393124  0.448903  1
  Hf  Hf2  1  0.606880  0.803440  0.448910  1
  Hf  Hf3  1  0.805881  0.194116  0.546100  1
  Hf  Hf4  1  0.805883  0.611767  0.546103  1
  Hf  Hf5  1  0.388234  0.194116  0.546097  1
  Hf  Hf6  1  0.805881  0.194116  0.953900  1
  Hf  Hf7  1  0.805883  0.611767  0.953897  1
  Hf  Hf8  1  0.388234  0.194116  0.953903  1
  Hf  Hf9  1  0.196561  0.803440  0.051094  1
  Hf  Hf10  1  0.196563  0.393124  0.051097  1
  Hf  Hf11  1  0.606880  0.803440  0.051090  1
  Hf  Hf12  1  0.543121  0.456875  0.250000  1
  Hf  Hf13  1  0.543121  0.086246  0.250000  1
  Hf  Hf14  1  0.913755  0.456877  0.250000  1
  Hf  Hf15  1  0.455761  0.544250  0.750000  1
  Hf  Hf16  1  0.455758  0.911511  0.750000  1
  Hf  Hf17  1  0.088489  0.544248  0.750000  1
  Mo  Mo18  1  0.888365  0.111635  0.250000  1
  Mo  Mo19  1  0.888366  0.776730  0.250000  1
  Mo  Mo20  1  0.223274  0.111637  0.250000  1
  Mo  Mo21  1  0.110529  0.889466  0.750000  1
  Mo  Mo22  1  0.110528  0.221058  0.750000  1
  Mo  Mo23  1  0.778932  0.889465  0.750000  1
  Mo  Mo24  1  0.999999  0.999997  0.497922  1
  Mo  Mo25  1  0.999999  0.999997  0.002078  1
  Pd  Pd26  1  0.333333  0.666667  0.250000  1
  Se  Se27  1  0.666666  0.333333  0.750000  1
