# generated using pymatgen
data_Ce8Hf12Si15Os
_symmetry_space_group_name_H-M   'P 1'
_cell_length_a   7.30052150
_cell_length_b   7.30672729
_cell_length_c   13.43114400
_cell_angle_alpha   89.88004832
_cell_angle_beta   89.85462023
_cell_angle_gamma   90.01537077
_symmetry_Int_Tables_number   1
_chemical_formula_structural   Ce8Hf12Si15Os
_chemical_formula_sum   'Ce8 Hf12 Si15 Os1'
_cell_volume   716.45253200
_cell_formula_units_Z   1
loop_
 _symmetry_equiv_pos_site_id
 _symmetry_equiv_pos_as_xyz
  1  'x, y, z'
loop_
 _atom_site_type_symbol
 _atom_site_label
 _atom_site_symmetry_multiplicity
 _atom_site_fract_x
 _atom_site_fract_y
 _atom_site_fract_z
 _atom_site_occupancy
  Ce  Ce0  1  0.999105  0.343185  0.215862  1
  Ce  Ce1  1  0.006888  0.657723  0.714340  1
  Ce  Ce2  1  0.166018  0.486007  0.460461  1
  Ce  Ce3  1  0.506839  0.841146  0.033818  1
  Ce  Ce4  1  0.840941  0.505656  0.965797  1
  Ce  Ce5  1  0.492744  0.160468  0.535976  1
  Ce  Ce6  1  0.341939  0.994787  0.785166  1
  Ce  Ce7  1  0.650941  0.011575  0.284912  1
  Hf  Hf8  1  0.173622  0.173593  0.998984  1
  Hf  Hf9  1  0.827269  0.824776  0.500623  1
  Hf  Hf10  1  0.330292  0.675752  0.250241  1
  Hf  Hf11  1  0.674017  0.325999  0.749912  1
  Hf  Hf12  1  0.155243  0.998915  0.375266  1
  Hf  Hf13  1  0.847743  0.002627  0.874787  1
  Hf  Hf14  1  0.504021  0.651357  0.625741  1
  Hf  Hf15  1  0.348874  0.498163  0.873545  1
  Hf  Hf16  1  0.496330  0.345737  0.127633  1
  Hf  Hf17  1  0.647721  0.498158  0.376857  1
  Hf  Hf18  1  0.998799  0.149620  0.626238  1
  Hf  Hf19  1  0.998795  0.846181  0.124328  1
  Si  Si20  1  0.638691  0.703177  0.815701  1
  Si  Si21  1  0.205893  0.862397  0.565461  1
  Si  Si22  1  0.136486  0.795493  0.934553  1
  Si  Si23  1  0.796602  0.136524  0.065034  1
  Si  Si24  1  0.863435  0.199218  0.436890  1
  Si  Si25  1  0.295504  0.364509  0.684720  1
  Si  Si26  1  0.703180  0.639176  0.185765  1
  Si  Si27  1  0.289235  0.043256  0.183274  1
  Si  Si28  1  0.707052  0.952436  0.685310  1
  Si  Si29  1  0.454757  0.795637  0.437544  1
  Si  Si30  1  0.207528  0.550063  0.061694  1
  Si  Si31  1  0.547035  0.207275  0.935361  1
  Si  Si32  1  0.796015  0.451669  0.565733  1
  Si  Si33  1  0.046874  0.294454  0.814934  1
  Si  Si34  1  0.947437  0.710293  0.314153  1
  Os  Os35  1  0.356135  0.302996  0.313383  1
