# generated using pymatgen
data_Tb2Al8SiIr2Ru
_symmetry_space_group_name_H-M   'P 1'
_cell_length_a   7.53667868
_cell_length_b   7.53668114
_cell_length_c   9.41073300
_cell_angle_alpha   90.00000000
_cell_angle_beta   90.00000000
_cell_angle_gamma   119.35694304
_symmetry_Int_Tables_number   1
_chemical_formula_structural   Tb2Al8SiIr2Ru
_chemical_formula_sum   'Tb4 Al16 Si2 Ir4 Ru2'
_cell_volume   465.89932528
_cell_formula_units_Z   2
loop_
 _symmetry_equiv_pos_site_id
 _symmetry_equiv_pos_as_xyz
  1  'x, y, z'
loop_
 _atom_site_type_symbol
 _atom_site_label
 _atom_site_symmetry_multiplicity
 _atom_site_fract_x
 _atom_site_fract_y
 _atom_site_fract_z
 _atom_site_occupancy
  Tb  Tb0  1  0.994916  0.676045  0.250000  1
  Tb  Tb1  1  0.005084  0.323955  0.750000  1
  Tb  Tb2  1  0.676045  0.994916  0.250000  1
  Tb  Tb3  1  0.323955  0.005084  0.750000  1
  Al  Al4  1  0.002287  0.335308  0.075294  1
  Al  Al5  1  0.997713  0.664692  0.924706  1
  Al  Al6  1  0.997713  0.664692  0.575294  1
  Al  Al7  1  0.335308  0.002287  0.424706  1
  Al  Al8  1  0.002287  0.335308  0.424706  1
  Al  Al9  1  0.664692  0.997713  0.575294  1
  Al  Al10  1  0.664692  0.997713  0.924706  1
  Al  Al11  1  0.335308  0.002287  0.075294  1
  Al  Al12  1  0.333727  0.333727  0.551801  1
  Al  Al13  1  0.666273  0.666273  0.448199  1
  Al  Al14  1  0.666273  0.666273  0.051801  1
  Al  Al15  1  0.333727  0.333727  0.948199  1
  Al  Al16  1  0.335630  0.547380  0.250000  1
  Al  Al17  1  0.664370  0.452620  0.750000  1
  Al  Al18  1  0.547380  0.335630  0.250000  1
  Al  Al19  1  0.452620  0.664370  0.750000  1
  Si  Si20  1  0.126738  0.126738  0.250000  1
  Si  Si21  1  0.873262  0.873262  0.750000  1
  Ir  Ir22  1  0.671674  0.328326  0.000000  1
  Ir  Ir23  1  0.328326  0.671674  0.000000  1
  Ir  Ir24  1  0.328326  0.671674  0.500000  1
  Ir  Ir25  1  0.671674  0.328326  0.500000  1
  Ru  Ru26  1  0.000000  0.000000  0.000000  1
  Ru  Ru27  1  0.000000  0.000000  0.500000  1
