# generated using pymatgen
data_ScRe3Si2(B2Ru5)2
_symmetry_space_group_name_H-M   'P 1'
_cell_length_a   9.29711250
_cell_length_b   9.29711250
_cell_length_c   2.87961900
_cell_angle_alpha   90.00000000
_cell_angle_beta   90.00000000
_cell_angle_gamma   91.15286043
_symmetry_Int_Tables_number   1
_chemical_formula_structural   ScRe3Si2(B2Ru5)2
_chemical_formula_sum   'Sc1 Re3 Si2 B4 Ru10'
_cell_volume   248.85323011
_cell_formula_units_Z   1
loop_
 _symmetry_equiv_pos_site_id
 _symmetry_equiv_pos_as_xyz
  1  'x, y, z'
loop_
 _atom_site_type_symbol
 _atom_site_label
 _atom_site_symmetry_multiplicity
 _atom_site_fract_x
 _atom_site_fract_y
 _atom_site_fract_z
 _atom_site_occupancy
  Sc  Sc0  1  0.823979  0.323979  0.000000  1
  Re  Re1  1  0.186172  0.686172  0.000000  1
  Re  Re2  1  0.678546  0.819267  0.000000  1
  Re  Re3  1  0.319267  0.178546  0.000000  1
  Si  Si4  1  0.991968  0.008824  0.000000  1
  Si  Si5  1  0.508824  0.491968  0.000000  1
  B  B6  1  0.362865  0.862865  0.000000  1
  B  B7  1  0.878060  0.624609  0.000000  1
  B  B8  1  0.124609  0.378060  0.000000  1
  B  B9  1  0.620420  0.120420  0.000000  1
  Ru  Ru10  1  0.012206  0.512206  0.500000  1
  Ru  Ru11  1  0.491711  0.991711  0.500000  1
  Ru  Ru12  1  0.293521  0.437212  0.500000  1
  Ru  Ru13  1  0.713274  0.573109  0.500000  1
  Ru  Ru14  1  0.553987  0.280452  0.500000  1
  Ru  Ru15  1  0.447608  0.702210  0.500000  1
  Ru  Ru16  1  0.937212  0.793520  0.500000  1
  Ru  Ru17  1  0.780451  0.053987  0.500000  1
  Ru  Ru18  1  0.202209  0.947608  0.500000  1
  Ru  Ru19  1  0.073109  0.213273  0.500000  1
