# generated using pymatgen
data_RbP2RuRh
_symmetry_space_group_name_H-M   'P 1'
_cell_length_a   7.42561300
_cell_length_b   7.42561260
_cell_length_c   7.42561286
_cell_angle_alpha   148.84405699
_cell_angle_beta   148.84405167
_cell_angle_gamma   44.64089565
_symmetry_Int_Tables_number   1
_chemical_formula_structural   RbP2RuRh
_chemical_formula_sum   'Rb1 P2 Ru1 Rh1'
_cell_volume   109.26529164
_cell_formula_units_Z   1
loop_
 _symmetry_equiv_pos_site_id
 _symmetry_equiv_pos_as_xyz
  1  'x, y, z'
loop_
 _atom_site_type_symbol
 _atom_site_label
 _atom_site_symmetry_multiplicity
 _atom_site_fract_x
 _atom_site_fract_y
 _atom_site_fract_z
 _atom_site_occupancy
  Rb  Rb0  1  0.000000  0.000000  0.000000  1
  P  P1  1  0.338671  0.338671  0.000000  1
  P  P2  1  0.661329  0.661329  0.000000  1
  Ru  Ru3  1  0.250000  0.750000  0.500000  1
  Rh  Rh4  1  0.750000  0.250000  0.500000  1
