# generated using pymatgen
data_Tb3Dy9Co5Sn
_symmetry_space_group_name_H-M   'P 1'
_cell_length_a   8.30011033
_cell_length_b   8.29762955
_cell_length_c   8.29762989
_cell_angle_alpha   106.99611964
_cell_angle_beta   110.77698679
_cell_angle_gamma   110.65562014
_symmetry_Int_Tables_number   1
_chemical_formula_structural   Tb3Dy9Co5Sn
_chemical_formula_sum   'Tb3 Dy9 Co5 Sn1'
_cell_volume   439.37529885
_cell_formula_units_Z   1
loop_
 _symmetry_equiv_pos_site_id
 _symmetry_equiv_pos_as_xyz
  1  'x, y, z'
loop_
 _atom_site_type_symbol
 _atom_site_label
 _atom_site_symmetry_multiplicity
 _atom_site_fract_x
 _atom_site_fract_y
 _atom_site_fract_z
 _atom_site_occupancy
  Tb  Tb0  1  0.480930  0.293765  0.187165  1
  Tb  Tb1  1  0.107002  0.293931  0.813070  1
  Tb  Tb2  1  0.893104  0.706678  0.186427  1
  Dy  Dy3  1  0.519370  0.706452  0.812918  1
  Dy  Dy4  1  0.307042  0.620752  0.314118  1
  Dy  Dy5  1  0.307042  0.992926  0.686290  1
  Dy  Dy6  1  0.693027  0.379382  0.686292  1
  Dy  Dy7  1  0.693027  0.006734  0.313644  1
  Dy  Dy8  1  0.192417  0.206591  0.398587  1
  Dy  Dy9  1  0.808351  0.793527  0.602265  1
  Dy  Dy10  1  0.192417  0.793830  0.985826  1
  Dy  Dy11  1  0.808351  0.206086  0.014825  1
  Co  Co12  1  0.499767  0.612555  0.111726  1
  Co  Co13  1  0.499767  0.388041  0.887212  1
  Co  Co14  1  0.377284  0.999949  0.377334  1
  Co  Co15  1  0.621352  0.999448  0.621905  1
  Co  Co16  1  0.999703  0.999372  0.000332  1
  Sn  Sn17  1  0.000046  0.499981  0.500065  1
