# generated using pymatgen
data_GeS23
_symmetry_space_group_name_H-M   'P 1'
_cell_length_a   5.45556065
_cell_length_b   9.35382023
_cell_length_c   15.89152000
_cell_angle_alpha   82.42591985
_cell_angle_beta   85.98404661
_cell_angle_gamma   91.36398717
_symmetry_Int_Tables_number   1
_chemical_formula_structural   GeS23
_chemical_formula_sum   'Ge1 S23'
_cell_volume   801.45279356
_cell_formula_units_Z   1
loop_
 _symmetry_equiv_pos_site_id
 _symmetry_equiv_pos_as_xyz
  1  'x, y, z'
loop_
 _atom_site_type_symbol
 _atom_site_label
 _atom_site_symmetry_multiplicity
 _atom_site_fract_x
 _atom_site_fract_y
 _atom_site_fract_z
 _atom_site_occupancy
  Ge  Ge0  1  0.744405  0.192809  0.405654  1
  S  S1  1  0.675742  0.951451  0.395835  1
  S  S2  1  0.021718  0.303752  0.099421  1
  S  S3  1  0.722589  0.236599  0.543490  1
  S  S4  1  0.430974  0.885777  0.498509  1
  S  S5  1  0.180238  0.287809  0.979523  1
  S  S6  1  0.813893  0.731547  0.023392  1
  S  S7  1  0.149157  0.189369  0.367846  1
  S  S8  1  0.618764  0.368520  0.303635  1
  S  S9  1  0.860416  0.105769  0.149356  1
  S  S10  1  0.282848  0.862708  0.116330  1
  S  S11  1  0.713755  0.645293  0.634183  1
  S  S12  1  0.252987  0.442051  0.590482  1
  S  S13  1  0.154597  0.899499  0.854936  1
  S  S14  1  0.727195  0.142472  0.882846  1
  S  S15  1  0.066671  0.679640  0.112410  1
  S  S16  1  0.611090  0.856474  0.609538  1
  S  S17  1  0.364308  0.233686  0.594485  1
  S  S18  1  0.970476  0.707934  0.904127  1
  S  S19  1  0.922271  0.331474  0.891240  1
  S  S20  1  0.275951  0.405791  0.353781  1
  S  S21  1  0.123981  0.979134  0.206099  1
  S  S22  1  0.406695  0.526610  0.689369  1
  S  S23  1  0.909278  0.033834  0.793514  1
