# generated using pymatgen
data_Tm2Ni4Rh2C
_symmetry_space_group_name_H-M   'P 1'
_cell_length_a   5.56839045
_cell_length_b   5.56839099
_cell_length_c   5.57949400
_cell_angle_alpha   59.93401919
_cell_angle_beta   59.93401597
_cell_angle_gamma   61.15893387
_symmetry_Int_Tables_number   1
_chemical_formula_structural   Tm2Ni4Rh2C
_chemical_formula_sum   'Tm2 Ni4 Rh2 C1'
_cell_volume   123.24165752
_cell_formula_units_Z   1
loop_
 _symmetry_equiv_pos_site_id
 _symmetry_equiv_pos_as_xyz
  1  'x, y, z'
loop_
 _atom_site_type_symbol
 _atom_site_label
 _atom_site_symmetry_multiplicity
 _atom_site_fract_x
 _atom_site_fract_y
 _atom_site_fract_z
 _atom_site_occupancy
  Tm  Tm0  1  0.251095  0.251095  0.250432  1
  Tm  Tm1  1  0.748905  0.748905  0.752620  1
  Ni  Ni2  1  0.753894  0.246105  0.249450  1
  Ni  Ni3  1  0.246105  0.753894  0.249450  1
  Ni  Ni4  1  0.750544  0.750544  0.250917  1
  Ni  Ni5  1  0.249455  0.249455  0.752006  1
  Rh  Rh6  1  0.754589  0.245410  0.754658  1
  Rh  Rh7  1  0.245410  0.754589  0.754658  1
  C  C8  1  0.500000  0.500000  0.485805  1
