# generated using pymatgen
data_Dy2Ho5Sn23Os6
_symmetry_space_group_name_H-M   'P 1'
_cell_length_a   9.84699623
_cell_length_b   9.84699537
_cell_length_c   10.12088304
_cell_angle_alpha   89.99077520
_cell_angle_beta   90.00922745
_cell_angle_gamma   119.97693455
_symmetry_Int_Tables_number   1
_chemical_formula_structural   Dy2Ho5Sn23Os6
_chemical_formula_sum   'Dy2 Ho5 Sn23 Os6'
_cell_volume   850.07536131
_cell_formula_units_Z   1
loop_
 _symmetry_equiv_pos_site_id
 _symmetry_equiv_pos_as_xyz
  1  'x, y, z'
loop_
 _atom_site_type_symbol
 _atom_site_label
 _atom_site_symmetry_multiplicity
 _atom_site_fract_x
 _atom_site_fract_y
 _atom_site_fract_z
 _atom_site_occupancy
  Dy  Dy0  1  0.999996  0.000004  0.000001  1
  Dy  Dy1  1  0.514789  0.485211  0.697915  1
  Ho  Ho2  1  0.514585  0.029189  0.698103  1
  Ho  Ho3  1  0.970811  0.485415  0.698103  1
  Ho  Ho4  1  0.029160  0.514583  0.301894  1
  Ho  Ho5  1  0.485417  0.970840  0.301894  1
  Ho  Ho6  1  0.485406  0.514594  0.301916  1
  Sn  Sn7  1  0.666666  0.333334  0.175087  1
  Sn  Sn8  1  0.666799  0.333201  0.869805  1
  Sn  Sn9  1  0.333334  0.666666  0.130326  1
  Sn  Sn10  1  0.349844  0.349856  0.000026  1
  Sn  Sn11  1  0.000014  0.650098  0.999998  1
  Sn  Sn12  1  0.650105  0.000044  0.000030  1
  Sn  Sn13  1  0.650144  0.650156  0.000026  1
  Sn  Sn14  1  0.333310  0.666690  0.824945  1
  Sn  Sn15  1  0.439867  0.219886  0.463133  1
  Sn  Sn16  1  0.219947  0.780053  0.536784  1
  Sn  Sn17  1  0.219777  0.439861  0.536706  1
  Sn  Sn18  1  0.560139  0.780223  0.536706  1
  Sn  Sn19  1  0.117831  0.882169  0.275953  1
  Sn  Sn20  1  0.780114  0.560133  0.463133  1
  Sn  Sn21  1  0.780050  0.219950  0.463220  1
  Sn  Sn22  1  0.349902  0.999986  0.999998  1
  Sn  Sn23  1  0.117851  0.235701  0.275936  1
  Sn  Sn24  1  0.764299  0.882149  0.275936  1
  Sn  Sn25  1  0.235602  0.117746  0.724093  1
  Sn  Sn26  1  0.882254  0.764398  0.724093  1
  Sn  Sn27  1  0.882163  0.117837  0.724039  1
  Sn  Sn28  1  0.999994  0.000006  0.499994  1
  Sn  Sn29  1  0.999956  0.349895  0.000030  1
  Os  Os30  1  0.170422  0.829578  0.797651  1
  Os  Os31  1  0.170135  0.340733  0.797707  1
  Os  Os32  1  0.659267  0.829865  0.797707  1
  Os  Os33  1  0.340855  0.170396  0.202366  1
  Os  Os34  1  0.829604  0.659145  0.202366  1
  Os  Os35  1  0.829591  0.170409  0.202381  1
