# generated using pymatgen
data_AcEu(PIr)2
_symmetry_space_group_name_H-M   'P 1'
_cell_length_a   6.40067700
_cell_length_b   6.40620843
_cell_length_c   6.38399447
_cell_angle_alpha   88.80205508
_cell_angle_beta   90.00000000
_cell_angle_gamma   90.00000000
_symmetry_Int_Tables_number   1
_chemical_formula_structural   AcEu(PIr)2
_chemical_formula_sum   'Ac2 Eu2 P4 Ir4'
_cell_volume   261.71254811
_cell_formula_units_Z   2
loop_
 _symmetry_equiv_pos_site_id
 _symmetry_equiv_pos_as_xyz
  1  'x, y, z'
loop_
 _atom_site_type_symbol
 _atom_site_label
 _atom_site_symmetry_multiplicity
 _atom_site_fract_x
 _atom_site_fract_y
 _atom_site_fract_z
 _atom_site_occupancy
  Ac  Ac0  1  0.386809  0.891364  0.614101  1
  Ac  Ac1  1  0.886809  0.608636  0.385899  1
  Eu  Eu2  1  0.600934  0.392508  0.897940  1
  Eu  Eu3  1  0.100934  0.107492  0.102060  1
  P  P4  1  0.671600  0.168004  0.326388  1
  P  P5  1  0.171600  0.331996  0.673612  1
  P  P6  1  0.336496  0.668440  0.162793  1
  P  P7  1  0.836496  0.831560  0.837207  1
  Ir  Ir8  1  0.087647  0.583518  0.915755  1
  Ir  Ir9  1  0.587647  0.916482  0.084245  1
  Ir  Ir10  1  0.916514  0.087335  0.586178  1
  Ir  Ir11  1  0.416514  0.412665  0.413822  1
