# generated using pymatgen
data_BaPa(Al5Cu6)2
_symmetry_space_group_name_H-M   'P 1'
_cell_length_a   10.43186306
_cell_length_b   8.24681273
_cell_length_c   7.93879821
_cell_angle_alpha   80.23395863
_cell_angle_beta   51.17684924
_cell_angle_gamma   48.58919473
_symmetry_Int_Tables_number   1
_chemical_formula_structural   BaPa(Al5Cu6)2
_chemical_formula_sum   'Ba1 Pa1 Al10 Cu12'
_cell_volume   362.27092796
_cell_formula_units_Z   1
loop_
 _symmetry_equiv_pos_site_id
 _symmetry_equiv_pos_as_xyz
  1  'x, y, z'
loop_
 _atom_site_type_symbol
 _atom_site_label
 _atom_site_symmetry_multiplicity
 _atom_site_fract_x
 _atom_site_fract_y
 _atom_site_fract_z
 _atom_site_occupancy
  Ba  Ba0  1  0.000000  0.000000  0.000000  1
  Pa  Pa1  1  0.250000  0.250000  0.250000  1
  Al  Al2  1  0.500000  0.500000  0.500000  1
  Al  Al3  1  0.750000  0.750000  0.750000  1
  Al  Al4  1  0.754727  0.067817  0.829647  1
  Al  Al5  1  0.829647  0.347810  0.754727  1
  Al  Al6  1  0.067817  0.754727  0.347810  1
  Al  Al7  1  0.347810  0.829647  0.067817  1
  Al  Al8  1  0.485640  0.182664  0.423537  1
  Al  Al9  1  0.423537  0.908158  0.485640  1
  Al  Al10  1  0.182664  0.485640  0.908158  1
  Al  Al11  1  0.908158  0.423537  0.182664  1
  Cu  Cu12  1  0.624515  0.127546  0.623127  1
  Cu  Cu13  1  0.623127  0.624812  0.624515  1
  Cu  Cu14  1  0.127546  0.624515  0.624812  1
  Cu  Cu15  1  0.624812  0.623127  0.127546  1
  Cu  Cu16  1  0.482883  0.440717  0.184481  1
  Cu  Cu17  1  0.184481  0.891920  0.482883  1
  Cu  Cu18  1  0.440717  0.482883  0.891920  1
  Cu  Cu19  1  0.891920  0.184481  0.440717  1
  Cu  Cu20  1  0.756338  0.815677  0.066046  1
  Cu  Cu21  1  0.066046  0.361938  0.756338  1
  Cu  Cu22  1  0.815677  0.756338  0.361938  1
  Cu  Cu23  1  0.361938  0.066046  0.815677  1
