# generated using pymatgen
data_Dy2HoTl(SbO4)4
_symmetry_space_group_name_H-M   'P 1'
_cell_length_a   5.39718765
_cell_length_b   7.68343947
_cell_length_c   7.57696095
_cell_angle_alpha   80.63081086
_cell_angle_beta   89.68331979
_cell_angle_gamma   92.26657522
_symmetry_Int_Tables_number   1
_chemical_formula_structural   Dy2HoTl(SbO4)4
_chemical_formula_sum   'Dy2 Ho1 Tl1 Sb4 O16'
_cell_volume   309.75177179
_cell_formula_units_Z   1
loop_
 _symmetry_equiv_pos_site_id
 _symmetry_equiv_pos_as_xyz
  1  'x, y, z'
loop_
 _atom_site_type_symbol
 _atom_site_label
 _atom_site_symmetry_multiplicity
 _atom_site_fract_x
 _atom_site_fract_y
 _atom_site_fract_z
 _atom_site_occupancy
  Dy  Dy0  1  0.261496  0.129530  0.613363  1
  Dy  Dy1  1  0.737951  0.866931  0.387994  1
  Ho  Ho2  1  0.788081  0.840517  0.889694  1
  Tl  Tl3  1  0.219913  0.160693  0.113631  1
  Sb  Sb4  1  0.244563  0.667066  0.194014  1
  Sb  Sb5  1  0.758142  0.335198  0.804911  1
  Sb  Sb6  1  0.726187  0.337040  0.308641  1
  Sb  Sb7  1  0.275647  0.663088  0.692685  1
  O  O8  1  0.086053  0.435324  0.690397  1
  O  O9  1  0.917008  0.565711  0.309858  1
  O  O10  1  0.605452  0.326788  0.561681  1
  O  O11  1  0.391371  0.676168  0.439496  1
  O  O12  1  0.870074  0.328467  0.059618  1
  O  O13  1  0.130434  0.670974  0.939929  1
  O  O14  1  0.409021  0.436898  0.197436  1
  O  O15  1  0.599170  0.567478  0.804255  1
  O  O16  1  0.040637  0.886807  0.170816  1
  O  O17  1  0.939559  0.112668  0.811198  1
  O  O18  1  0.508832  0.111596  0.329435  1
  O  O19  1  0.494006  0.886812  0.677681  1
  O  O20  1  0.454682  0.183711  0.877281  1
  O  O21  1  0.542960  0.812740  0.123130  1
  O  O22  1  0.987569  0.166887  0.384237  1
  O  O23  1  0.011194  0.830910  0.618618  1
