# generated using pymatgen
data_Ho20FeNi2Bi8Os
_symmetry_space_group_name_H-M   'P 1'
_cell_length_a   7.99536922
_cell_length_b   8.94762600
_cell_length_c   12.34451574
_cell_angle_alpha   90.00000000
_cell_angle_beta   89.86652069
_cell_angle_gamma   90.00000000
_symmetry_Int_Tables_number   1
_chemical_formula_structural   Ho20FeNi2Bi8Os
_chemical_formula_sum   'Ho20 Fe1 Ni2 Bi8 Os1'
_cell_volume   883.11899449
_cell_formula_units_Z   1
loop_
 _symmetry_equiv_pos_site_id
 _symmetry_equiv_pos_as_xyz
  1  'x, y, z'
loop_
 _atom_site_type_symbol
 _atom_site_label
 _atom_site_symmetry_multiplicity
 _atom_site_fract_x
 _atom_site_fract_y
 _atom_site_fract_z
 _atom_site_occupancy
  Ho  Ho0  1  0.345652  0.750000  0.701274  1
  Ho  Ho1  1  0.656615  0.250000  0.297771  1
  Ho  Ho2  1  0.843422  0.250000  0.797715  1
  Ho  Ho3  1  0.156744  0.750000  0.207189  1
  Ho  Ho4  1  0.881082  0.750000  0.805041  1
  Ho  Ho5  1  0.117968  0.250000  0.191958  1
  Ho  Ho6  1  0.382473  0.250000  0.691565  1
  Ho  Ho7  1  0.614250  0.750000  0.311251  1
  Ho  Ho8  1  0.676162  0.542678  0.563001  1
  Ho  Ho9  1  0.325114  0.466644  0.437273  1
  Ho  Ho10  1  0.176454  0.459162  0.934669  1
  Ho  Ho11  1  0.325114  0.033356  0.437273  1
  Ho  Ho12  1  0.823336  0.541354  0.063779  1
  Ho  Ho13  1  0.676162  0.957322  0.563001  1
  Ho  Ho14  1  0.823336  0.958646  0.063779  1
  Ho  Ho15  1  0.176454  0.040838  0.934669  1
  Ho  Ho16  1  0.053901  0.750000  0.498295  1
  Ho  Ho17  1  0.951006  0.250000  0.501390  1
  Ho  Ho18  1  0.548026  0.250000  0.001520  1
  Ho  Ho19  1  0.443937  0.750000  0.997411  1
  Fe  Fe20  1  0.430590  0.750000  0.491239  1
  Ni  Ni21  1  0.926623  0.250000  0.010986  1
  Ni  Ni22  1  0.571303  0.250000  0.510103  1
  Bi  Bi23  1  0.572289  0.509116  0.826237  1
  Bi  Bi24  1  0.429470  0.490122  0.173507  1
  Bi  Bi25  1  0.071925  0.489403  0.672148  1
  Bi  Bi26  1  0.429470  0.009878  0.173507  1
  Bi  Bi27  1  0.927262  0.509120  0.327069  1
  Bi  Bi28  1  0.572289  0.990884  0.826237  1
  Bi  Bi29  1  0.927262  0.990880  0.327069  1
  Bi  Bi30  1  0.071925  0.010597  0.672148  1
  Os  Os31  1  0.072386  0.750000  0.989929  1
