# generated using pymatgen
data_Y2HoZr(Al3Ir)6
_symmetry_space_group_name_H-M   'P 1'
_cell_length_a   7.54240524
_cell_length_b   7.53331025
_cell_length_c   9.42459800
_cell_angle_alpha   90.00000000
_cell_angle_beta   90.00000000
_cell_angle_gamma   119.61952458
_symmetry_Int_Tables_number   1
_chemical_formula_structural   Y2HoZr(Al3Ir)6
_chemical_formula_sum   'Y2 Ho1 Zr1 Al18 Ir6'
_cell_volume   465.52338191
_cell_formula_units_Z   1
loop_
 _symmetry_equiv_pos_site_id
 _symmetry_equiv_pos_as_xyz
  1  'x, y, z'
loop_
 _atom_site_type_symbol
 _atom_site_label
 _atom_site_symmetry_multiplicity
 _atom_site_fract_x
 _atom_site_fract_y
 _atom_site_fract_z
 _atom_site_occupancy
  Y  Y0  1  0.005729  0.327859  0.750000  1
  Y  Y1  1  0.329427  0.006501  0.750000  1
  Ho  Ho2  1  0.670667  0.995437  0.250000  1
  Zr  Zr3  1  0.996417  0.671765  0.250000  1
  Al  Al4  1  0.125493  0.123047  0.250000  1
  Al  Al5  1  0.870753  0.869359  0.750000  1
  Al  Al6  1  0.000106  0.337563  0.078610  1
  Al  Al7  1  0.999237  0.665117  0.930451  1
  Al  Al8  1  0.999237  0.665117  0.569549  1
  Al  Al9  1  0.332426  0.998173  0.421242  1
  Al  Al10  1  0.000106  0.337563  0.421390  1
  Al  Al11  1  0.664729  0.998119  0.573753  1
  Al  Al12  1  0.664729  0.998119  0.926247  1
  Al  Al13  1  0.332426  0.998173  0.078758  1
  Al  Al14  1  0.334048  0.334159  0.549885  1
  Al  Al15  1  0.668979  0.667117  0.443109  1
  Al  Al16  1  0.668979  0.667117  0.056891  1
  Al  Al17  1  0.334048  0.334159  0.950115  1
  Al  Al18  1  0.335835  0.549529  0.250000  1
  Al  Al19  1  0.660996  0.452572  0.750000  1
  Al  Al20  1  0.554795  0.343950  0.250000  1
  Al  Al21  1  0.451350  0.659699  0.750000  1
  Ir  Ir22  1  0.672313  0.328126  0.000805  1
  Ir  Ir23  1  0.328159  0.672348  0.001543  1
  Ir  Ir24  1  0.328159  0.672348  0.498457  1
  Ir  Ir25  1  0.672313  0.328126  0.499195  1
  Ir  Ir26  1  0.999274  0.999419  0.000841  1
  Ir  Ir27  1  0.999274  0.999419  0.499159  1
