# generated using pymatgen
data_UP2SeO10
_symmetry_space_group_name_H-M   'P 1'
_cell_length_a   5.70344183
_cell_length_b   5.25890348
_cell_length_c   7.66769803
_cell_angle_alpha   107.34110142
_cell_angle_beta   111.00307946
_cell_angle_gamma   93.62537638
_symmetry_Int_Tables_number   1
_chemical_formula_structural   UP2SeO10
_chemical_formula_sum   'U1 P2 Se1 O10'
_cell_volume   201.17840549
_cell_formula_units_Z   1
loop_
 _symmetry_equiv_pos_site_id
 _symmetry_equiv_pos_as_xyz
  1  'x, y, z'
loop_
 _atom_site_type_symbol
 _atom_site_label
 _atom_site_symmetry_multiplicity
 _atom_site_fract_x
 _atom_site_fract_y
 _atom_site_fract_z
 _atom_site_occupancy
  U  U0  1  0.000000  0.500000  0.000000  1
  P  P1  1  0.332021  0.117827  0.736182  1
  P  P2  1  0.667979  0.882173  0.263818  1
  Se  Se3  1  0.000000  0.500000  0.500000  1
  O  O4  1  0.183799  0.182756  0.875031  1
  O  O5  1  0.311813  0.807131  0.647563  1
  O  O6  1  0.934967  0.575443  0.758379  1
  O  O7  1  0.230025  0.239297  0.567515  1
  O  O8  1  0.769975  0.760703  0.432485  1
  O  O9  1  0.619331  0.240778  0.862221  1
  O  O10  1  0.380669  0.759222  0.137779  1
  O  O11  1  0.065033  0.424557  0.241621  1
  O  O12  1  0.688187  0.192869  0.352437  1
  O  O13  1  0.816201  0.817244  0.124969  1
