# generated using pymatgen
data_DyGa3NiAu
_symmetry_space_group_name_H-M   'P 1'
_cell_length_a   8.00134179
_cell_length_b   8.00134176
_cell_length_c   6.58359600
_cell_angle_alpha   90.00000000
_cell_angle_beta   90.00000000
_cell_angle_gamma   150.57788172
_symmetry_Int_Tables_number   1
_chemical_formula_structural   DyGa3NiAu
_chemical_formula_sum   'Dy2 Ga6 Ni2 Au2'
_cell_volume   207.05349803
_cell_formula_units_Z   2
loop_
 _symmetry_equiv_pos_site_id
 _symmetry_equiv_pos_as_xyz
  1  'x, y, z'
loop_
 _atom_site_type_symbol
 _atom_site_label
 _atom_site_symmetry_multiplicity
 _atom_site_fract_x
 _atom_site_fract_y
 _atom_site_fract_z
 _atom_site_occupancy
  Dy  Dy0  1  0.875364  0.124636  0.250000  1
  Dy  Dy1  1  0.124636  0.875364  0.750000  1
  Ga  Ga2  1  0.314601  0.685399  0.551047  1
  Ga  Ga3  1  0.069985  0.930015  0.250000  1
  Ga  Ga4  1  0.685399  0.314601  0.448953  1
  Ga  Ga5  1  0.685399  0.314601  0.051047  1
  Ga  Ga6  1  0.314601  0.685399  0.948953  1
  Ga  Ga7  1  0.930015  0.069985  0.750000  1
  Ni  Ni8  1  0.775313  0.224687  0.750000  1
  Ni  Ni9  1  0.224687  0.775313  0.250000  1
  Au  Au10  1  0.500000  0.500000  0.000000  1
  Au  Au11  1  0.500000  0.500000  0.500000  1
