# generated using pymatgen
data_Tm12Ga3Tc2
_symmetry_space_group_name_H-M   'P 1'
_cell_length_a   8.26943815
_cell_length_b   8.26965085
_cell_length_c   8.26943892
_cell_angle_alpha   110.25147458
_cell_angle_beta   110.23386262
_cell_angle_gamma   107.93807763
_symmetry_Int_Tables_number   1
_chemical_formula_structural   Tm12Ga3Tc2
_chemical_formula_sum   'Tm12 Ga3 Tc2'
_cell_volume   435.10137734
_cell_formula_units_Z   1
loop_
 _symmetry_equiv_pos_site_id
 _symmetry_equiv_pos_as_xyz
  1  'x, y, z'
loop_
 _atom_site_type_symbol
 _atom_site_label
 _atom_site_symmetry_multiplicity
 _atom_site_fract_x
 _atom_site_fract_y
 _atom_site_fract_z
 _atom_site_occupancy
  Tm  Tm0  1  0.443255  0.188523  0.254762  1
  Tm  Tm1  1  0.556745  0.811477  0.745238  1
  Tm  Tm2  1  0.933762  0.188523  0.745269  1
  Tm  Tm3  1  0.188548  0.933747  0.745200  1
  Tm  Tm4  1  0.066238  0.811477  0.254731  1
  Tm  Tm5  1  0.811452  0.066253  0.254800  1
  Tm  Tm6  1  0.188538  0.443340  0.254802  1
  Tm  Tm7  1  0.811462  0.556660  0.745198  1
  Tm  Tm8  1  0.318826  0.318809  0.637651  1
  Tm  Tm9  1  0.681174  0.681191  0.362349  1
  Tm  Tm10  1  0.318842  0.681191  0.000017  1
  Tm  Tm11  1  0.681158  0.318809  0.999983  1
  Ga  Ga12  1  0.500000  0.000000  0.500000  1
  Ga  Ga13  1  0.000000  0.500000  0.500000  1
  Ga  Ga14  1  0.000000  0.000000  0.000000  1
  Tc  Tc15  1  0.335791  0.335792  0.000002  1
  Tc  Tc16  1  0.664209  0.664208  0.999998  1
