# generated using pymatgen
data_Nb6Co15Si7Ni
_symmetry_space_group_name_H-M   'P 1'
_cell_length_a   7.92014545
_cell_length_b   7.91991068
_cell_length_c   7.92014500
_cell_angle_alpha   59.99901713
_cell_angle_beta   59.99999769
_cell_angle_gamma   59.99901790
_symmetry_Int_Tables_number   1
_chemical_formula_structural   Nb6Co15Si7Ni
_chemical_formula_sum   'Nb6 Co15 Si7 Ni1'
_cell_volume   351.28945935
_cell_formula_units_Z   1
loop_
 _symmetry_equiv_pos_site_id
 _symmetry_equiv_pos_as_xyz
  1  'x, y, z'
loop_
 _atom_site_type_symbol
 _atom_site_label
 _atom_site_symmetry_multiplicity
 _atom_site_fract_x
 _atom_site_fract_y
 _atom_site_fract_z
 _atom_site_occupancy
  Nb  Nb0  1  0.797072  0.795656  0.203636  1
  Nb  Nb1  1  0.796092  0.200264  0.796092  1
  Nb  Nb2  1  0.203636  0.795656  0.203636  1
  Nb  Nb3  1  0.796092  0.200264  0.207552  1
  Nb  Nb4  1  0.203636  0.795656  0.797072  1
  Nb  Nb5  1  0.207552  0.200264  0.796092  1
  Co  Co6  1  0.165010  0.167799  0.502182  1
  Co  Co7  1  0.502182  0.167799  0.165010  1
  Co  Co8  1  0.165010  0.167799  0.165010  1
  Co  Co9  1  0.498818  0.834589  0.833296  1
  Co  Co10  1  0.833296  0.834589  0.833296  1
  Co  Co11  1  0.833296  0.834589  0.498818  1
  Co  Co12  1  0.166419  0.500743  0.166419  1
  Co  Co13  1  0.618605  0.144185  0.618605  1
  Co  Co14  1  0.381235  0.380940  0.856590  1
  Co  Co15  1  0.856590  0.380940  0.381235  1
  Co  Co16  1  0.381235  0.380940  0.381235  1
  Co  Co17  1  0.144680  0.618226  0.618547  1
  Co  Co18  1  0.618547  0.618226  0.618547  1
  Co  Co19  1  0.618547  0.618226  0.144680  1
  Co  Co20  1  0.380610  0.858170  0.380610  1
  Si  Si21  1  0.499755  0.500734  0.499755  1
  Si  Si22  1  0.499589  0.999152  0.499589  1
  Si  Si23  1  0.999628  0.500653  0.999628  1
  Si  Si24  1  0.001670  0.999152  0.499589  1
  Si  Si25  1  0.499589  0.999152  0.001670  1
  Si  Si26  1  0.999628  0.500653  0.500091  1
  Si  Si27  1  0.500091  0.500653  0.999628  1
  Ni  Ni28  1  0.831889  0.504331  0.831889  1
