# generated using pymatgen
data_Tb5Er3(Ge4Mo3)4
_symmetry_space_group_name_H-M   'P 1'
_cell_length_a   6.93385503
_cell_length_b   7.04467715
_cell_length_c   13.12555127
_cell_angle_alpha   90.02173938
_cell_angle_beta   90.00768020
_cell_angle_gamma   89.99162123
_symmetry_Int_Tables_number   1
_chemical_formula_structural   Tb5Er3(Ge4Mo3)4
_chemical_formula_sum   'Tb5 Er3 Ge16 Mo12'
_cell_volume   641.14072621
_cell_formula_units_Z   1
loop_
 _symmetry_equiv_pos_site_id
 _symmetry_equiv_pos_as_xyz
  1  'x, y, z'
loop_
 _atom_site_type_symbol
 _atom_site_label
 _atom_site_symmetry_multiplicity
 _atom_site_fract_x
 _atom_site_fract_y
 _atom_site_fract_z
 _atom_site_occupancy
  Tb  Tb0  1  0.988753  0.830873  0.907647  1
  Tb  Tb1  1  0.988880  0.830985  0.592124  1
  Tb  Tb2  1  0.488895  0.668915  0.907944  1
  Tb  Tb3  1  0.511087  0.330989  0.407908  1
  Tb  Tb4  1  0.011154  0.169107  0.092264  1
  Er  Er5  1  0.011730  0.169623  0.407336  1
  Er  Er6  1  0.511732  0.330482  0.092784  1
  Er  Er7  1  0.488303  0.669596  0.592481  1
  Ge  Ge8  1  0.330415  0.046251  0.548042  1
  Ge  Ge9  1  0.830016  0.452779  0.952026  1
  Ge  Ge10  1  0.668890  0.953855  0.048407  1
  Ge  Ge11  1  0.169563  0.546308  0.451863  1
  Ge  Ge12  1  0.170437  0.546557  0.048469  1
  Ge  Ge13  1  0.670104  0.953045  0.451791  1
  Ge  Ge14  1  0.829872  0.453073  0.548135  1
  Ge  Ge15  1  0.330968  0.047570  0.952002  1
  Ge  Ge16  1  0.812568  0.356371  0.250206  1
  Ge  Ge17  1  0.312607  0.143580  0.249861  1
  Ge  Ge18  1  0.686682  0.856486  0.749516  1
  Ge  Ge19  1  0.188101  0.642896  0.749634  1
  Ge  Ge20  1  0.032341  0.866878  0.250288  1
  Ge  Ge21  1  0.532267  0.633113  0.249787  1
  Ge  Ge22  1  0.467575  0.366950  0.749676  1
  Ge  Ge23  1  0.967638  0.133671  0.749981  1
  Mo  Mo24  1  0.332034  0.843659  0.127291  1
  Mo  Mo25  1  0.831909  0.656287  0.372900  1
  Mo  Mo26  1  0.668009  0.156371  0.627009  1
  Mo  Mo27  1  0.168151  0.343642  0.872836  1
  Mo  Mo28  1  0.168189  0.343684  0.626637  1
  Mo  Mo29  1  0.667643  0.156663  0.872975  1
  Mo  Mo30  1  0.332150  0.005331  0.749871  1
  Mo  Mo31  1  0.831621  0.656002  0.127080  1
  Mo  Mo32  1  0.668083  0.994902  0.250116  1
  Mo  Mo33  1  0.168061  0.505002  0.250024  1
  Mo  Mo34  1  0.831824  0.494753  0.749864  1
  Mo  Mo35  1  0.331747  0.843752  0.373224  1
