# generated using pymatgen
data_TaNb7Co7Si14Os
_symmetry_space_group_name_H-M   'P 1'
_cell_length_a   9.27140273
_cell_length_b   9.27214435
_cell_length_c   9.27322931
_cell_angle_alpha   94.25602227
_cell_angle_beta   94.24178191
_cell_angle_gamma   148.40874250
_symmetry_Int_Tables_number   1
_chemical_formula_structural   TaNb7Co7Si14Os
_chemical_formula_sum   'Ta1 Nb7 Co7 Si14 Os1'
_cell_volume   401.84143350
_cell_formula_units_Z   1
loop_
 _symmetry_equiv_pos_site_id
 _symmetry_equiv_pos_as_xyz
  1  'x, y, z'
loop_
 _atom_site_type_symbol
 _atom_site_label
 _atom_site_symmetry_multiplicity
 _atom_site_fract_x
 _atom_site_fract_y
 _atom_site_fract_z
 _atom_site_occupancy
  Ta  Ta0  1  0.310435  0.500158  0.809757  1
  Nb  Nb1  1  0.690126  0.501261  0.192372  1
  Nb  Nb2  1  0.502024  0.690985  0.191997  1
  Nb  Nb3  1  0.499145  0.310001  0.809774  1
  Nb  Nb4  1  0.133343  0.133528  0.266963  1
  Nb  Nb5  1  0.865786  0.866106  0.731890  1
  Nb  Nb6  1  0.134613  0.867678  0.000263  1
  Nb  Nb7  1  0.865997  0.132647  0.000234  1
  Co  Co8  1  0.103615  0.603573  0.207259  1
  Co  Co9  1  0.900223  0.101138  0.498313  1
  Co  Co10  1  0.598056  0.397123  0.497965  1
  Co  Co11  1  0.600113  0.100070  0.200120  1
  Co  Co12  1  0.899526  0.399271  0.799119  1
  Co  Co13  1  0.099905  0.898443  0.499007  1
  Co  Co14  1  0.399160  0.600599  0.499390  1
  Si  Si15  1  0.291677  0.291399  0.583392  1
  Si  Si16  1  0.708662  0.708629  0.416937  1
  Si  Si17  1  0.282208  0.695475  0.006572  1
  Si  Si18  1  0.724095  0.311004  0.006324  1
  Si  Si19  1  0.080436  0.485447  0.588552  1
  Si  Si20  1  0.900985  0.496495  0.404895  1
  Si  Si21  1  0.503908  0.908526  0.404908  1
  Si  Si22  1  0.507976  0.103162  0.588672  1
  Si  Si23  1  0.249325  0.248901  0.000214  1
  Si  Si24  1  0.750851  0.751250  0.000199  1
  Si  Si25  1  0.296179  0.999711  0.295723  1
  Si  Si26  1  0.714776  0.004854  0.702409  1
  Si  Si27  1  0.987920  0.697718  0.702281  1
  Si  Si28  1  0.999401  0.295948  0.295744  1
  Os  Os29  1  0.399535  0.898900  0.798757  1
