# generated using pymatgen
data_TbHo5C3Cl5
_symmetry_space_group_name_H-M   'P 1'
_cell_length_a   3.64176712
_cell_length_b   8.28131682
_cell_length_c   10.29425154
_cell_angle_alpha   85.47218931
_cell_angle_beta   79.74798866
_cell_angle_gamma   77.31844098
_symmetry_Int_Tables_number   1
_chemical_formula_structural   TbHo5C3Cl5
_chemical_formula_sum   'Tb1 Ho5 C3 Cl5'
_cell_volume   297.79397993
_cell_formula_units_Z   1
loop_
 _symmetry_equiv_pos_site_id
 _symmetry_equiv_pos_as_xyz
  1  'x, y, z'
loop_
 _atom_site_type_symbol
 _atom_site_label
 _atom_site_symmetry_multiplicity
 _atom_site_fract_x
 _atom_site_fract_y
 _atom_site_fract_z
 _atom_site_occupancy
  Tb  Tb0  1  0.431653  0.923962  0.218267  1
  Ho  Ho1  1  0.575083  0.073897  0.777327  1
  Ho  Ho2  1  0.959176  0.428677  0.656024  1
  Ho  Ho3  1  0.683101  0.179684  0.456714  1
  Ho  Ho4  1  0.044868  0.569274  0.344569  1
  Ho  Ho5  1  0.321194  0.818854  0.542659  1
  C  C6  1  0.127906  0.122767  0.624479  1
  C  C7  1  0.877074  0.875413  0.374373  1
  C  C8  1  0.501925  0.499028  0.500471  1
  Cl  Cl9  1  0.754268  0.745272  0.752229  1
  Cl  Cl10  1  0.380511  0.378726  0.863972  1
  Cl  Cl11  1  0.249108  0.254441  0.248210  1
  Cl  Cl12  1  0.626783  0.613550  0.135799  1
  Cl  Cl13  1  0.004572  0.000044  0.994224  1
