# generated using pymatgen
data_Sc20Cd6AsRh
_symmetry_space_group_name_H-M   'P 1'
_cell_length_a   9.01327500
_cell_length_b   9.01327464
_cell_length_c   9.17058000
_cell_angle_alpha   90.00000000
_cell_angle_beta   90.00000000
_cell_angle_gamma   119.99999763
_symmetry_Int_Tables_number   1
_chemical_formula_structural   Sc20Cd6AsRh
_chemical_formula_sum   'Sc20 Cd6 As1 Rh1'
_cell_volume   645.19749480
_cell_formula_units_Z   1
loop_
 _symmetry_equiv_pos_site_id
 _symmetry_equiv_pos_as_xyz
  1  'x, y, z'
loop_
 _atom_site_type_symbol
 _atom_site_label
 _atom_site_symmetry_multiplicity
 _atom_site_fract_x
 _atom_site_fract_y
 _atom_site_fract_z
 _atom_site_occupancy
  Sc  Sc0  1  0.000000  0.000000  0.499045  1
  Sc  Sc1  1  0.000000  0.000000  0.000955  1
  Sc  Sc2  1  0.210248  0.789752  0.443711  1
  Sc  Sc3  1  0.210248  0.420495  0.443711  1
  Sc  Sc4  1  0.579505  0.789752  0.443711  1
  Sc  Sc5  1  0.793978  0.206022  0.548527  1
  Sc  Sc6  1  0.793978  0.587952  0.548527  1
  Sc  Sc7  1  0.412048  0.206022  0.548527  1
  Sc  Sc8  1  0.793978  0.206022  0.951473  1
  Sc  Sc9  1  0.793978  0.587952  0.951473  1
  Sc  Sc10  1  0.412048  0.206022  0.951473  1
  Sc  Sc11  1  0.210248  0.789752  0.056289  1
  Sc  Sc12  1  0.210248  0.420495  0.056289  1
  Sc  Sc13  1  0.579505  0.789752  0.056289  1
  Sc  Sc14  1  0.540873  0.459127  0.250000  1
  Sc  Sc15  1  0.540873  0.081748  0.250000  1
  Sc  Sc16  1  0.918252  0.459127  0.250000  1
  Sc  Sc17  1  0.455935  0.544065  0.750000  1
  Sc  Sc18  1  0.455935  0.911871  0.750000  1
  Sc  Sc19  1  0.088129  0.544065  0.750000  1
  Cd  Cd20  1  0.884221  0.115779  0.250000  1
  Cd  Cd21  1  0.884221  0.768445  0.250000  1
  Cd  Cd22  1  0.231555  0.115779  0.250000  1
  Cd  Cd23  1  0.116234  0.883766  0.750000  1
  Cd  Cd24  1  0.116234  0.232467  0.750000  1
  Cd  Cd25  1  0.767533  0.883766  0.750000  1
  As  As26  1  0.666667  0.333333  0.750000  1
  Rh  Rh27  1  0.333333  0.666667  0.250000  1
