# generated using pymatgen
data_RbTa2PO8
_symmetry_space_group_name_H-M   'P 1'
_cell_length_a   8.50490296
_cell_length_b   8.50490194
_cell_length_c   8.50490293
_cell_angle_alpha   104.21201379
_cell_angle_beta   104.21200933
_cell_angle_gamma   104.21201275
_symmetry_Int_Tables_number   1
_chemical_formula_structural   RbTa2PO8
_chemical_formula_sum   'Rb3 Ta6 P3 O24'
_cell_volume   546.64489629
_cell_formula_units_Z   3
loop_
 _symmetry_equiv_pos_site_id
 _symmetry_equiv_pos_as_xyz
  1  'x, y, z'
loop_
 _atom_site_type_symbol
 _atom_site_label
 _atom_site_symmetry_multiplicity
 _atom_site_fract_x
 _atom_site_fract_y
 _atom_site_fract_z
 _atom_site_occupancy
  Rb  Rb0  1  0.612685  0.320329  0.899876  1
  Rb  Rb1  1  0.899876  0.612685  0.320329  1
  Rb  Rb2  1  0.320329  0.899876  0.612685  1
  Ta  Ta3  1  0.352734  0.036153  0.159423  1
  Ta  Ta4  1  0.036153  0.159423  0.352734  1
  Ta  Ta5  1  0.967582  0.650574  0.841563  1
  Ta  Ta6  1  0.159423  0.352734  0.036153  1
  Ta  Ta7  1  0.650574  0.841563  0.967582  1
  Ta  Ta8  1  0.841563  0.967582  0.650574  1
  P  P9  1  0.724690  0.272511  0.500027  1
  P  P10  1  0.272511  0.500027  0.724690  1
  P  P11  1  0.500027  0.724690  0.272511  1
  O  O12  1  0.971851  0.022429  0.497796  1
  O  O13  1  0.845733  0.999431  0.154180  1
  O  O14  1  0.706715  0.129503  0.584311  1
  O  O15  1  0.207163  0.063940  0.311859  1
  O  O16  1  0.999431  0.154180  0.845733  1
  O  O17  1  0.869186  0.287644  0.418780  1
  O  O18  1  0.554206  0.230919  0.356699  1
  O  O19  1  0.765716  0.444235  0.641762  1
  O  O20  1  0.311859  0.207163  0.063940  1
  O  O21  1  0.287644  0.418780  0.869186  1
  O  O22  1  0.230919  0.356699  0.554206  1
  O  O23  1  0.063940  0.311859  0.207163  1
  O  O24  1  0.022429  0.497796  0.971851  1
  O  O25  1  0.791598  0.684994  0.933586  1
  O  O26  1  0.444235  0.641762  0.765716  1
  O  O27  1  0.129503  0.584311  0.706715  1
  O  O28  1  0.933586  0.791598  0.684994  1
  O  O29  1  0.356699  0.554206  0.230919  1
  O  O30  1  0.641762  0.765716  0.444235  1
  O  O31  1  0.584311  0.706715  0.129503  1
  O  O32  1  0.684994  0.933586  0.791598  1
  O  O33  1  0.418780  0.869186  0.287644  1
  O  O34  1  0.154180  0.845733  0.999431  1
  O  O35  1  0.497796  0.971851  0.022429  1
