# generated using pymatgen
data_Lu6Zr4SnSb5
_symmetry_space_group_name_H-M   'P 1'
_cell_length_a   8.71310962
_cell_length_b   8.71311127
_cell_length_c   5.94371000
_cell_angle_alpha   90.00000000
_cell_angle_beta   90.00000000
_cell_angle_gamma   120.04306073
_symmetry_Int_Tables_number   1
_chemical_formula_structural   Lu6Zr4SnSb5
_chemical_formula_sum   'Lu6 Zr4 Sn1 Sb5'
_cell_volume   390.61244301
_cell_formula_units_Z   1
loop_
 _symmetry_equiv_pos_site_id
 _symmetry_equiv_pos_as_xyz
  1  'x, y, z'
loop_
 _atom_site_type_symbol
 _atom_site_label
 _atom_site_symmetry_multiplicity
 _atom_site_fract_x
 _atom_site_fract_y
 _atom_site_fract_z
 _atom_site_occupancy
  Lu  Lu0  1  0.752333  0.752333  0.750000  1
  Lu  Lu1  1  0.248321  0.001226  0.750000  1
  Lu  Lu2  1  0.001226  0.248321  0.750000  1
  Lu  Lu3  1  0.246727  0.246727  0.250000  1
  Lu  Lu4  1  0.751332  0.999003  0.250000  1
  Lu  Lu5  1  0.999003  0.751332  0.250000  1
  Zr  Zr6  1  0.667142  0.333123  0.000106  1
  Zr  Zr7  1  0.333123  0.667142  0.000106  1
  Zr  Zr8  1  0.333123  0.667142  0.499894  1
  Zr  Zr9  1  0.667142  0.333123  0.499894  1
  Sn  Sn10  1  0.394317  0.394317  0.750000  1
  Sb  Sb11  1  0.608006  0.000215  0.750000  1
  Sb  Sb12  1  0.000215  0.608006  0.750000  1
  Sb  Sb13  1  0.606040  0.606040  0.250000  1
  Sb  Sb14  1  0.391774  0.000175  0.250000  1
  Sb  Sb15  1  0.000175  0.391774  0.250000  1
