# generated using pymatgen
data_Lu3AlGa4Ir
_symmetry_space_group_name_H-M   'P 1'
_cell_length_a   6.83142200
_cell_length_b   6.88149816
_cell_length_c   4.22663700
_cell_angle_alpha   90.00000000
_cell_angle_beta   90.00000000
_cell_angle_gamma   119.75957175
_symmetry_Int_Tables_number   1
_chemical_formula_structural   Lu3AlGa4Ir
_chemical_formula_sum   'Lu3 Al1 Ga4 Ir1'
_cell_volume   172.49113328
_cell_formula_units_Z   1
loop_
 _symmetry_equiv_pos_site_id
 _symmetry_equiv_pos_as_xyz
  1  'x, y, z'
loop_
 _atom_site_type_symbol
 _atom_site_label
 _atom_site_symmetry_multiplicity
 _atom_site_fract_x
 _atom_site_fract_y
 _atom_site_fract_z
 _atom_site_occupancy
  Lu  Lu0  1  0.588355  0.000000  0.500000  1
  Lu  Lu1  1  0.413443  0.414270  0.500000  1
  Lu  Lu2  1  0.999174  0.585730  0.500000  1
  Al  Al3  1  0.229686  0.000000  0.000000  1
  Ga  Ga4  1  0.003514  0.241186  0.000000  1
  Ga  Ga5  1  0.663789  0.329876  0.000000  1
  Ga  Ga6  1  0.333913  0.670124  0.000000  1
  Ga  Ga7  1  0.762328  0.758814  0.000000  1
  Ir  Ir8  1  0.005798  0.000000  0.500000  1
