# generated using pymatgen
data_CeDy4Ho3(ReB6)4
_symmetry_space_group_name_H-M   'P 1'
_cell_length_a   3.69280000
_cell_length_b   9.17758451
_cell_length_c   11.56275700
_cell_angle_alpha   90.05155592
_cell_angle_beta   90.00000000
_cell_angle_gamma   90.00000000
_symmetry_Int_Tables_number   1
_chemical_formula_structural   CeDy4Ho3(ReB6)4
_chemical_formula_sum   'Ce1 Dy4 Ho3 Re4 B24'
_cell_volume   391.87305492
_cell_formula_units_Z   1
loop_
 _symmetry_equiv_pos_site_id
 _symmetry_equiv_pos_as_xyz
  1  'x, y, z'
loop_
 _atom_site_type_symbol
 _atom_site_label
 _atom_site_symmetry_multiplicity
 _atom_site_fract_x
 _atom_site_fract_y
 _atom_site_fract_z
 _atom_site_occupancy
  Ce  Ce0  1  0.000000  0.323276  0.414053  1
  Dy  Dy1  1  0.000000  0.677172  0.586753  1
  Dy  Dy2  1  0.000000  0.823373  0.085471  1
  Dy  Dy3  1  0.000000  0.176102  0.913895  1
  Dy  Dy4  1  0.000000  0.942676  0.369951  1
  Ho  Ho5  1  0.000000  0.056501  0.630593  1
  Ho  Ho6  1  0.000000  0.443279  0.129131  1
  Ho  Ho7  1  0.000000  0.557105  0.870309  1
  Re  Re8  1  0.000000  0.637834  0.321024  1
  Re  Re9  1  0.000000  0.361590  0.678875  1
  Re  Re10  1  0.000000  0.139242  0.179291  1
  Re  Re11  1  0.000000  0.861457  0.820862  1
  B  B12  1  0.500000  0.553909  0.432359  1
  B  B13  1  0.500000  0.446229  0.567929  1
  B  B14  1  0.500000  0.053327  0.066828  1
  B  B15  1  0.500000  0.946688  0.932900  1
  B  B16  1  0.500000  0.749371  0.418344  1
  B  B17  1  0.500000  0.250970  0.582641  1
  B  B18  1  0.500000  0.248931  0.080893  1
  B  B19  1  0.500000  0.750811  0.918466  1
  B  B20  1  0.500000  0.791783  0.265434  1
  B  B21  1  0.500000  0.208101  0.735080  1
  B  B22  1  0.500000  0.291393  0.233701  1
  B  B23  1  0.500000  0.707952  0.765616  1
  B  B24  1  0.500000  0.631410  0.185105  1
  B  B25  1  0.500000  0.369445  0.814607  1
  B  B26  1  0.500000  0.130944  0.313518  1
  B  B27  1  0.500000  0.868983  0.685914  1
  B  B28  1  0.500000  0.982574  0.211420  1
  B  B29  1  0.500000  0.017251  0.788200  1
  B  B30  1  0.500000  0.483807  0.287388  1
  B  B31  1  0.500000  0.517678  0.712823  1
  B  B32  1  0.500000  0.600875  0.027905  1
  B  B33  1  0.500000  0.399489  0.971597  1
  B  B34  1  0.500000  0.099834  0.472410  1
  B  B35  1  0.500000  0.898637  0.528713  1
