# generated using pymatgen
data_Zr7ScSi16(MoW3)3
_symmetry_space_group_name_H-M   'P 1'
_cell_length_a   6.61797834
_cell_length_b   6.78074698
_cell_length_c   12.70431231
_cell_angle_alpha   89.97243084
_cell_angle_beta   90.00387576
_cell_angle_gamma   89.95976767
_symmetry_Int_Tables_number   1
_chemical_formula_structural   Zr7ScSi16(MoW3)3
_chemical_formula_sum   'Zr7 Sc1 Si16 Mo3 W9'
_cell_volume   570.10373130
_cell_formula_units_Z   1
loop_
 _symmetry_equiv_pos_site_id
 _symmetry_equiv_pos_as_xyz
  1  'x, y, z'
loop_
 _atom_site_type_symbol
 _atom_site_label
 _atom_site_symmetry_multiplicity
 _atom_site_fract_x
 _atom_site_fract_y
 _atom_site_fract_z
 _atom_site_occupancy
  Zr  Zr0  1  0.495742  0.671037  0.592567  1
  Zr  Zr1  1  0.995089  0.828292  0.907757  1
  Zr  Zr2  1  0.505566  0.328137  0.092539  1
  Zr  Zr3  1  0.006130  0.172422  0.407185  1
  Zr  Zr4  1  0.505185  0.328476  0.407271  1
  Zr  Zr5  1  0.004127  0.172179  0.093147  1
  Zr  Zr6  1  0.494917  0.672611  0.907172  1
  Sc  Sc7  1  0.994535  0.829217  0.591364  1
  Si  Si8  1  0.668092  0.959141  0.457924  1
  Si  Si9  1  0.167472  0.541549  0.043110  1
  Si  Si10  1  0.332173  0.042248  0.957410  1
  Si  Si11  1  0.833519  0.459560  0.543879  1
  Si  Si12  1  0.331411  0.039903  0.543204  1
  Si  Si13  1  0.833119  0.458057  0.957333  1
  Si  Si14  1  0.666574  0.958288  0.042694  1
  Si  Si15  1  0.166536  0.542275  0.457610  1
  Si  Si16  1  0.465453  0.378917  0.750020  1
  Si  Si17  1  0.966206  0.120222  0.749625  1
  Si  Si18  1  0.533465  0.620195  0.249004  1
  Si  Si19  1  0.035060  0.878923  0.250446  1
  Si  Si20  1  0.700848  0.859252  0.748561  1
  Si  Si21  1  0.197170  0.641878  0.749298  1
  Si  Si22  1  0.300933  0.139652  0.249422  1
  Si  Si23  1  0.800279  0.359600  0.250431  1
  Mo  Mo24  1  0.666780  0.163832  0.623948  1
  Mo  Mo25  1  0.168155  0.336917  0.876098  1
  Mo  Mo26  1  0.331740  0.836338  0.123727  1
  W  W27  1  0.831441  0.663426  0.376052  1
  W  W28  1  0.335129  0.835931  0.375141  1
  W  W29  1  0.832795  0.664328  0.124442  1
  W  W30  1  0.666594  0.163666  0.875085  1
  W  W31  1  0.167032  0.335968  0.624981  1
  W  W32  1  0.833566  0.507035  0.750357  1
  W  W33  1  0.333852  0.992118  0.750153  1
  W  W34  1  0.166126  0.490698  0.250842  1
  W  W35  1  0.667188  0.007713  0.250198  1
