# generated using pymatgen
data_Ca6TbHo(Si3Au)4
_symmetry_space_group_name_H-M   'P 1'
_cell_length_a   8.29222700
_cell_length_b   8.29222655
_cell_length_c   8.37034000
_cell_angle_alpha   90.00000000
_cell_angle_beta   90.00000000
_cell_angle_gamma   119.99999782
_symmetry_Int_Tables_number   1
_chemical_formula_structural   Ca6TbHo(Si3Au)4
_chemical_formula_sum   'Ca6 Tb1 Ho1 Si12 Au4'
_cell_volume   498.44366592
_cell_formula_units_Z   1
loop_
 _symmetry_equiv_pos_site_id
 _symmetry_equiv_pos_as_xyz
  1  'x, y, z'
loop_
 _atom_site_type_symbol
 _atom_site_label
 _atom_site_symmetry_multiplicity
 _atom_site_fract_x
 _atom_site_fract_y
 _atom_site_fract_z
 _atom_site_occupancy
  Ca  Ca0  1  0.501220  0.002439  0.250000  1
  Ca  Ca1  1  0.498694  0.997390  0.750000  1
  Ca  Ca2  1  0.997561  0.498780  0.250000  1
  Ca  Ca3  1  0.002610  0.501306  0.750000  1
  Ca  Ca4  1  0.501220  0.498780  0.250000  1
  Ca  Ca5  1  0.498694  0.501306  0.750000  1
  Tb  Tb6  1  0.000000  0.000000  0.250000  1
  Ho  Ho7  1  0.000000  0.000000  0.750000  1
  Si  Si8  1  0.161606  0.323210  0.001058  1
  Si  Si9  1  0.838384  0.676770  0.997451  1
  Si  Si10  1  0.676790  0.838394  0.001058  1
  Si  Si11  1  0.838384  0.676770  0.502549  1
  Si  Si12  1  0.323230  0.161616  0.997451  1
  Si  Si13  1  0.161606  0.323210  0.498942  1
  Si  Si14  1  0.161606  0.838394  0.001058  1
  Si  Si15  1  0.323230  0.161616  0.502549  1
  Si  Si16  1  0.838384  0.161616  0.997451  1
  Si  Si17  1  0.676790  0.838394  0.498942  1
  Si  Si18  1  0.838384  0.161616  0.502549  1
  Si  Si19  1  0.161606  0.838394  0.498942  1
  Au  Au20  1  0.333333  0.666667  0.003070  1
  Au  Au21  1  0.666667  0.333333  0.996613  1
  Au  Au22  1  0.666667  0.333333  0.503387  1
  Au  Au23  1  0.333333  0.666667  0.496930  1
