# generated using pymatgen
data_Ac(TiAu2)2
_symmetry_space_group_name_H-M   'P 1'
_cell_length_a   5.82446109
_cell_length_b   5.82446027
_cell_length_c   5.82446007
_cell_angle_alpha   102.31331886
_cell_angle_beta   102.31332048
_cell_angle_gamma   124.99360178
_symmetry_Int_Tables_number   1
_chemical_formula_structural   Ac(TiAu2)2
_chemical_formula_sum   'Ac1 Ti2 Au4'
_cell_volume   143.57601134
_cell_formula_units_Z   1
loop_
 _symmetry_equiv_pos_site_id
 _symmetry_equiv_pos_as_xyz
  1  'x, y, z'
loop_
 _atom_site_type_symbol
 _atom_site_label
 _atom_site_symmetry_multiplicity
 _atom_site_fract_x
 _atom_site_fract_y
 _atom_site_fract_z
 _atom_site_occupancy
  Ac  Ac0  1  0.000000  0.000000  0.000000  1
  Ti  Ti1  1  0.250000  0.750000  0.500000  1
  Ti  Ti2  1  0.750000  0.250000  0.500000  1
  Au  Au3  1  0.302832  0.302832  0.605662  1
  Au  Au4  1  0.697168  0.697168  0.394338  1
  Au  Au5  1  0.697168  0.302832  0.000000  1
  Au  Au6  1  0.302832  0.697168  0.000000  1
