# generated using pymatgen
data_Gd3Tm(WN3)4
_symmetry_space_group_name_H-M   'P 1'
_cell_length_a   7.37076300
_cell_length_b   7.37076336
_cell_length_c   6.30461940
_cell_angle_alpha   73.80815626
_cell_angle_beta   73.80815532
_cell_angle_gamma   82.02746321
_symmetry_Int_Tables_number   1
_chemical_formula_structural   Gd3Tm(WN3)4
_chemical_formula_sum   'Gd3 Tm1 W4 N12'
_cell_volume   315.19380729
_cell_formula_units_Z   1
loop_
 _symmetry_equiv_pos_site_id
 _symmetry_equiv_pos_as_xyz
  1  'x, y, z'
loop_
 _atom_site_type_symbol
 _atom_site_label
 _atom_site_symmetry_multiplicity
 _atom_site_fract_x
 _atom_site_fract_y
 _atom_site_fract_z
 _atom_site_occupancy
  Gd  Gd0  1  0.709567  0.290433  0.250000  1
  Gd  Gd1  1  0.089501  0.910499  0.250000  1
  Gd  Gd2  1  0.290532  0.709468  0.750000  1
  Tm  Tm3  1  0.909159  0.090841  0.750000  1
  W  W4  1  0.799524  0.619663  0.770524  1
  W  W5  1  0.200675  0.378701  0.232044  1
  W  W6  1  0.621299  0.799325  0.267956  1
  W  W7  1  0.380337  0.200476  0.729476  1
  N  N8  1  0.215759  0.003898  0.842939  1
  N  N9  1  0.365020  0.347331  0.435209  1
  N  N10  1  0.639725  0.655227  0.561938  1
  N  N11  1  0.625265  0.112494  0.664343  1
  N  N12  1  0.996102  0.784241  0.657061  1
  N  N13  1  0.782060  0.999092  0.146222  1
  N  N14  1  0.112287  0.622668  0.160101  1
  N  N15  1  0.887506  0.374735  0.835657  1
  N  N16  1  0.000908  0.217940  0.353778  1
  N  N17  1  0.344773  0.360275  0.938062  1
  N  N18  1  0.652669  0.634980  0.064791  1
  N  N19  1  0.377332  0.887713  0.339899  1
