# generated using pymatgen
data_Er4Al18ZnIr5
_symmetry_space_group_name_H-M   'P 1'
_cell_length_a   7.57385753
_cell_length_b   7.57385802
_cell_length_c   9.41835159
_cell_angle_alpha   90.03351055
_cell_angle_beta   90.03349945
_cell_angle_gamma   119.55620510
_symmetry_Int_Tables_number   1
_chemical_formula_structural   Er4Al18ZnIr5
_chemical_formula_sum   'Er4 Al18 Zn1 Ir5'
_cell_volume   469.96375129
_cell_formula_units_Z   1
loop_
 _symmetry_equiv_pos_site_id
 _symmetry_equiv_pos_as_xyz
  1  'x, y, z'
loop_
 _atom_site_type_symbol
 _atom_site_label
 _atom_site_symmetry_multiplicity
 _atom_site_fract_x
 _atom_site_fract_y
 _atom_site_fract_z
 _atom_site_occupancy
  Er  Er0  1  0.995093  0.675329  0.749552  1
  Er  Er1  1  0.004907  0.324671  0.250448  1
  Er  Er2  1  0.675329  0.995093  0.749552  1
  Er  Er3  1  0.324671  0.004907  0.250448  1
  Al  Al4  1  0.134987  0.134987  0.755882  1
  Al  Al5  1  0.865013  0.865013  0.244118  1
  Al  Al6  1  0.001703  0.344356  0.580208  1
  Al  Al7  1  0.998297  0.655644  0.419792  1
  Al  Al8  1  0.001184  0.664454  0.072744  1
  Al  Al9  1  0.335546  0.998816  0.927256  1
  Al  Al10  1  0.998816  0.335546  0.927256  1
  Al  Al11  1  0.664454  0.001184  0.072744  1
  Al  Al12  1  0.655644  0.998297  0.419792  1
  Al  Al13  1  0.344356  0.001703  0.580208  1
  Al  Al14  1  0.332386  0.332386  0.051915  1
  Al  Al15  1  0.667614  0.667614  0.948085  1
  Al  Al16  1  0.658808  0.658808  0.558704  1
  Al  Al17  1  0.341192  0.341192  0.441296  1
  Al  Al18  1  0.339584  0.551705  0.751304  1
  Al  Al19  1  0.660416  0.448295  0.248696  1
  Al  Al20  1  0.551705  0.339584  0.751304  1
  Al  Al21  1  0.448295  0.660416  0.248696  1
  Zn  Zn22  1  0.000000  0.000000  0.500000  1
  Ir  Ir23  1  0.672200  0.327800  0.500000  1
  Ir  Ir24  1  0.327800  0.672200  0.500000  1
  Ir  Ir25  1  0.328385  0.671615  0.000000  1
  Ir  Ir26  1  0.671615  0.328385  0.000000  1
  Ir  Ir27  1  0.000000  0.000000  0.000000  1
