# generated using pymatgen
data_Sc12Al2Ni3Ru
_symmetry_space_group_name_H-M   'P 1'
_cell_length_a   7.79555302
_cell_length_b   7.79555369
_cell_length_c   7.79555358
_cell_angle_alpha   111.95971323
_cell_angle_beta   110.63120730
_cell_angle_gamma   105.88420271
_symmetry_Int_Tables_number   1
_chemical_formula_structural   Sc12Al2Ni3Ru
_chemical_formula_sum   'Sc12 Al2 Ni3 Ru1'
_cell_volume   363.57020722
_cell_formula_units_Z   1
loop_
 _symmetry_equiv_pos_site_id
 _symmetry_equiv_pos_as_xyz
  1  'x, y, z'
loop_
 _atom_site_type_symbol
 _atom_site_label
 _atom_site_symmetry_multiplicity
 _atom_site_fract_x
 _atom_site_fract_y
 _atom_site_fract_z
 _atom_site_occupancy
  Sc  Sc0  1  0.047560  0.745733  0.301826  1
  Sc  Sc1  1  0.964406  0.263156  0.701250  1
  Sc  Sc2  1  0.556092  0.254267  0.301826  1
  Sc  Sc3  1  0.438095  0.736844  0.701250  1
  Sc  Sc4  1  0.678098  0.874782  0.199522  1
  Sc  Sc5  1  0.324741  0.521424  0.199522  1
  Sc  Sc6  1  0.324741  0.125218  0.803317  1
  Sc  Sc7  1  0.678098  0.478576  0.803317  1
  Sc  Sc8  1  0.182500  0.220232  0.402733  1
  Sc  Sc9  1  0.813697  0.221044  0.034741  1
  Sc  Sc10  1  0.182500  0.779768  0.962268  1
  Sc  Sc11  1  0.813697  0.778956  0.592653  1
  Al  Al12  1  0.993864  0.500000  0.493864  1
  Al  Al13  1  0.502591  0.000000  0.502591  1
  Ni  Ni14  1  0.340166  0.500000  0.840166  1
  Ni  Ni15  1  0.875218  0.876899  0.998319  1
  Ni  Ni16  1  0.121420  0.123101  0.998319  1
  Ru  Ru17  1  0.662514  0.500000  0.162514  1
