# generated using pymatgen
data_Tm8Lu12Bi11Sb
_symmetry_space_group_name_H-M   'P 1'
_cell_length_a   8.12305642
_cell_length_b   9.37605300
_cell_length_c   11.82963700
_cell_angle_alpha   90.00000000
_cell_angle_beta   89.96604118
_cell_angle_gamma   90.00000000
_symmetry_Int_Tables_number   1
_chemical_formula_structural   Tm8Lu12Bi11Sb
_chemical_formula_sum   'Tm8 Lu12 Bi11 Sb1'
_cell_volume   900.97110945
_cell_formula_units_Z   1
loop_
 _symmetry_equiv_pos_site_id
 _symmetry_equiv_pos_as_xyz
  1  'x, y, z'
loop_
 _atom_site_type_symbol
 _atom_site_label
 _atom_site_symmetry_multiplicity
 _atom_site_fract_x
 _atom_site_fract_y
 _atom_site_fract_z
 _atom_site_occupancy
  Tm  Tm0  1  0.355615  0.250000  0.285754  1
  Tm  Tm1  1  0.645612  0.750000  0.717316  1
  Tm  Tm2  1  0.145338  0.750000  0.781941  1
  Tm  Tm3  1  0.854664  0.250000  0.217761  1
  Tm  Tm4  1  0.189466  0.250000  0.780200  1
  Tm  Tm5  1  0.812200  0.750000  0.217620  1
  Tm  Tm6  1  0.312626  0.750000  0.282462  1
  Tm  Tm7  1  0.682672  0.250000  0.714690  1
  Lu  Lu8  1  0.027832  0.250000  0.511251  1
  Lu  Lu9  1  0.976772  0.750000  0.489352  1
  Lu  Lu10  1  0.475623  0.750000  0.011240  1
  Lu  Lu11  1  0.524853  0.250000  0.988595  1
  Lu  Lu12  1  0.193461  0.066694  0.059996  1
  Lu  Lu13  1  0.806669  0.933676  0.940354  1
  Lu  Lu14  1  0.308119  0.937474  0.559336  1
  Lu  Lu15  1  0.806669  0.566324  0.940354  1
  Lu  Lu16  1  0.690474  0.068745  0.442000  1
  Lu  Lu17  1  0.193461  0.433306  0.059996  1
  Lu  Lu18  1  0.690474  0.431255  0.442000  1
  Lu  Lu19  1  0.308119  0.562526  0.559336  1
  Bi  Bi20  1  0.595216  0.750000  0.457296  1
  Bi  Bi21  1  0.094634  0.750000  0.042523  1
  Bi  Bi22  1  0.906098  0.250000  0.956512  1
  Bi  Bi23  1  0.066348  0.003588  0.326033  1
  Bi  Bi24  1  0.932965  0.996796  0.674059  1
  Bi  Bi25  1  0.433340  0.996085  0.825960  1
  Bi  Bi26  1  0.932965  0.503204  0.674059  1
  Bi  Bi27  1  0.566636  0.004048  0.174248  1
  Bi  Bi28  1  0.066348  0.496412  0.326033  1
  Bi  Bi29  1  0.566636  0.495952  0.174248  1
  Bi  Bi30  1  0.433340  0.503915  0.825960  1
  Sb  Sb31  1  0.404759  0.250000  0.541514  1
