# generated using pymatgen
data_NdErLu3(In2Pt)2
_symmetry_space_group_name_H-M   'P 1'
_cell_length_a   3.62096000
_cell_length_b   8.10689460
_cell_length_c   18.15849517
_cell_angle_alpha   89.79062331
_cell_angle_beta   90.00000000
_cell_angle_gamma   90.00000000
_symmetry_Int_Tables_number   1
_chemical_formula_structural   NdErLu3(In2Pt)2
_chemical_formula_sum   'Nd2 Er2 Lu6 In8 Pt4'
_cell_volume   533.03436457
_cell_formula_units_Z   2
loop_
 _symmetry_equiv_pos_site_id
 _symmetry_equiv_pos_as_xyz
  1  'x, y, z'
loop_
 _atom_site_type_symbol
 _atom_site_label
 _atom_site_symmetry_multiplicity
 _atom_site_fract_x
 _atom_site_fract_y
 _atom_site_fract_z
 _atom_site_occupancy
  Nd  Nd0  1  0.000000  0.000000  0.000000  1
  Nd  Nd1  1  0.000000  0.500000  0.500000  1
  Er  Er2  1  0.000000  0.257318  0.719459  1
  Er  Er3  1  0.000000  0.742682  0.280541  1
  Lu  Lu4  1  0.000000  0.120252  0.412804  1
  Lu  Lu5  1  0.000000  0.879748  0.587196  1
  Lu  Lu6  1  0.000000  0.380207  0.912854  1
  Lu  Lu7  1  0.000000  0.619793  0.087146  1
  Lu  Lu8  1  0.000000  0.243044  0.219919  1
  Lu  Lu9  1  0.000000  0.756956  0.780081  1
  In  In10  1  0.500000  0.420267  0.347981  1
  In  In11  1  0.500000  0.579733  0.652019  1
  In  In12  1  0.500000  0.078061  0.848182  1
  In  In13  1  0.500000  0.921939  0.151818  1
  In  In14  1  0.500000  0.302218  0.067110  1
  In  In15  1  0.500000  0.697782  0.932890  1
  In  In16  1  0.500000  0.197075  0.566641  1
  In  In17  1  0.500000  0.802925  0.433359  1
  Pt  Pt18  1  0.500000  0.028290  0.304083  1
  Pt  Pt19  1  0.500000  0.971710  0.695917  1
  Pt  Pt20  1  0.500000  0.475693  0.804636  1
  Pt  Pt21  1  0.500000  0.524307  0.195364  1
