# generated using pymatgen
data_Lu7Th3(In2Ir)4
_symmetry_space_group_name_H-M   'P 1'
_cell_length_a   3.66566200
_cell_length_b   8.06331915
_cell_length_c   18.12681250
_cell_angle_alpha   90.28201015
_cell_angle_beta   90.00000000
_cell_angle_gamma   90.00000000
_symmetry_Int_Tables_number   1
_chemical_formula_structural   Lu7Th3(In2Ir)4
_chemical_formula_sum   'Lu7 Th3 In8 Ir4'
_cell_volume   535.77500496
_cell_formula_units_Z   1
loop_
 _symmetry_equiv_pos_site_id
 _symmetry_equiv_pos_as_xyz
  1  'x, y, z'
loop_
 _atom_site_type_symbol
 _atom_site_label
 _atom_site_symmetry_multiplicity
 _atom_site_fract_x
 _atom_site_fract_y
 _atom_site_fract_z
 _atom_site_occupancy
  Lu  Lu0  1  0.000000  0.384830  0.413330  1
  Lu  Lu1  1  0.000000  0.115119  0.911901  1
  Lu  Lu2  1  0.000000  0.245403  0.721551  1
  Lu  Lu3  1  0.000000  0.501834  0.998120  1
  Lu  Lu4  1  0.000000  0.258002  0.223870  1
  Lu  Lu5  1  0.000000  0.612340  0.587622  1
  Lu  Lu6  1  0.000000  0.998841  0.499195  1
  Th  Th7  1  0.000000  0.885778  0.085686  1
  Th  Th8  1  0.000000  0.751605  0.280341  1
  Th  Th9  1  0.000000  0.746215  0.776791  1
  In  In10  1  0.500000  0.218449  0.065396  1
  In  In11  1  0.500000  0.418511  0.852002  1
  In  In12  1  0.500000  0.556316  0.146971  1
  In  In13  1  0.500000  0.082767  0.353215  1
  In  In14  1  0.500000  0.931364  0.643873  1
  In  In15  1  0.500000  0.793287  0.933703  1
  In  In16  1  0.500000  0.703209  0.438769  1
  In  In17  1  0.500000  0.293740  0.565957  1
  Ir  Ir18  1  0.500000  0.978515  0.197404  1
  Ir  Ir19  1  0.500000  0.021801  0.802719  1
  Ir  Ir20  1  0.500000  0.523852  0.697153  1
  Ir  Ir21  1  0.500000  0.478222  0.304433  1
