# generated using pymatgen
data_Ta4GeB2Mo
_symmetry_space_group_name_H-M   'P 1'
_cell_length_a   7.29408589
_cell_length_b   7.29408584
_cell_length_c   7.29408590
_cell_angle_alpha   129.57776958
_cell_angle_beta   129.57777040
_cell_angle_gamma   74.08267780
_symmetry_Int_Tables_number   1
_chemical_formula_structural   Ta4GeB2Mo
_chemical_formula_sum   'Ta8 Ge2 B4 Mo2'
_cell_volume   224.80811690
_cell_formula_units_Z   2
loop_
 _symmetry_equiv_pos_site_id
 _symmetry_equiv_pos_as_xyz
  1  'x, y, z'
loop_
 _atom_site_type_symbol
 _atom_site_label
 _atom_site_symmetry_multiplicity
 _atom_site_fract_x
 _atom_site_fract_y
 _atom_site_fract_z
 _atom_site_occupancy
  Ta  Ta0  1  0.528246  0.696706  0.500000  1
  Ta  Ta1  1  0.196706  0.028246  0.500000  1
  Ta  Ta2  1  0.028246  0.528246  0.831540  1
  Ta  Ta3  1  0.696706  0.196706  0.168460  1
  Ta  Ta4  1  0.471754  0.303294  0.500000  1
  Ta  Ta5  1  0.803294  0.971754  0.500000  1
  Ta  Ta6  1  0.971754  0.471754  0.168460  1
  Ta  Ta7  1  0.303294  0.803294  0.831540  1
  Ge  Ge8  1  0.250000  0.250000  0.000000  1
  Ge  Ge9  1  0.750000  0.750000  0.000000  1
  B  B10  1  0.878421  0.621579  0.500000  1
  B  B11  1  0.121579  0.378421  0.500000  1
  B  B12  1  0.378421  0.878421  0.256842  1
  B  B13  1  0.621579  0.121579  0.743158  1
  Mo  Mo14  1  0.500000  0.500000  0.000000  1
  Mo  Mo15  1  0.000000  0.000000  0.000000  1
