# generated using pymatgen
data_YHo7Re(B8Ru)3
_symmetry_space_group_name_H-M   'P 1'
_cell_length_a   3.65842900
_cell_length_b   9.12428772
_cell_length_c   11.50813500
_cell_angle_alpha   90.12892464
_cell_angle_beta   90.00000000
_cell_angle_gamma   90.00000000
_symmetry_Int_Tables_number   1
_chemical_formula_structural   YHo7Re(B8Ru)3
_chemical_formula_sum   'Y1 Ho7 Re1 B24 Ru3'
_cell_volume   384.14700469
_cell_formula_units_Z   1
loop_
 _symmetry_equiv_pos_site_id
 _symmetry_equiv_pos_as_xyz
  1  'x, y, z'
loop_
 _atom_site_type_symbol
 _atom_site_label
 _atom_site_symmetry_multiplicity
 _atom_site_fract_x
 _atom_site_fract_y
 _atom_site_fract_z
 _atom_site_occupancy
  Y  Y0  1  0.000000  0.322711  0.415099  1
  Ho  Ho1  1  0.000000  0.680112  0.588140  1
  Ho  Ho2  1  0.000000  0.822878  0.083481  1
  Ho  Ho3  1  0.000000  0.175946  0.913424  1
  Ho  Ho4  1  0.000000  0.943038  0.370985  1
  Ho  Ho5  1  0.000000  0.056325  0.627753  1
  Ho  Ho6  1  0.000000  0.442647  0.128693  1
  Ho  Ho7  1  0.000000  0.555980  0.872397  1
  Re  Re8  1  0.000000  0.862411  0.821224  1
  B  B9  1  0.500000  0.554384  0.433279  1
  B  B10  1  0.500000  0.446499  0.567365  1
  B  B11  1  0.500000  0.053669  0.067360  1
  B  B12  1  0.500000  0.947139  0.933274  1
  B  B13  1  0.500000  0.748448  0.419499  1
  B  B14  1  0.500000  0.251917  0.580616  1
  B  B15  1  0.500000  0.247952  0.080655  1
  B  B16  1  0.500000  0.751459  0.919370  1
  B  B17  1  0.500000  0.790329  0.265723  1
  B  B18  1  0.500000  0.209198  0.733348  1
  B  B19  1  0.500000  0.290595  0.234021  1
  B  B20  1  0.500000  0.708401  0.765840  1
  B  B21  1  0.500000  0.630975  0.185150  1
  B  B22  1  0.500000  0.368340  0.814457  1
  B  B23  1  0.500000  0.131407  0.314718  1
  B  B24  1  0.500000  0.868820  0.685364  1
  B  B25  1  0.500000  0.983308  0.212387  1
  B  B26  1  0.500000  0.017937  0.787353  1
  B  B27  1  0.500000  0.483493  0.287804  1
  B  B28  1  0.500000  0.516945  0.712665  1
  B  B29  1  0.500000  0.605459  0.029987  1
  B  B30  1  0.500000  0.392497  0.970871  1
  B  B31  1  0.500000  0.107120  0.469885  1
  B  B32  1  0.500000  0.893370  0.528804  1
  Ru  Ru33  1  0.000000  0.637983  0.321073  1
  Ru  Ru34  1  0.000000  0.362483  0.678709  1
  Ru  Ru35  1  0.000000  0.137820  0.179225  1
