# generated using pymatgen
data_Sc8V11Si16Rh
_symmetry_space_group_name_H-M   'P 1'
_cell_length_a   6.63267579
_cell_length_b   6.63267589
_cell_length_c   12.25888613
_cell_angle_alpha   90.12062904
_cell_angle_beta   89.87937088
_cell_angle_gamma   89.62421187
_symmetry_Int_Tables_number   1
_chemical_formula_structural   Sc8V11Si16Rh
_chemical_formula_sum   'Sc8 V11 Si16 Rh1'
_cell_volume   539.28367932
_cell_formula_units_Z   1
loop_
 _symmetry_equiv_pos_site_id
 _symmetry_equiv_pos_as_xyz
  1  'x, y, z'
loop_
 _atom_site_type_symbol
 _atom_site_label
 _atom_site_symmetry_multiplicity
 _atom_site_fract_x
 _atom_site_fract_y
 _atom_site_fract_z
 _atom_site_occupancy
  Sc  Sc0  1  0.999865  0.664238  0.029165  1
  Sc  Sc1  1  0.836671  0.500144  0.279405  1
  Sc  Sc2  1  0.162523  0.498328  0.779073  1
  Sc  Sc3  1  0.500144  0.836671  0.720595  1
  Sc  Sc4  1  0.498328  0.162523  0.220927  1
  Sc  Sc5  1  0.999198  0.337346  0.529681  1
  Sc  Sc6  1  0.664238  0.999865  0.970835  1
  Sc  Sc7  1  0.337346  0.999198  0.470319  1
  V  V8  1  0.170477  0.832880  0.247931  1
  V  V9  1  0.832880  0.170477  0.752069  1
  V  V10  1  0.668776  0.668776  0.500000  1
  V  V11  1  0.999626  0.152900  0.128083  1
  V  V12  1  0.343857  0.505439  0.375249  1
  V  V13  1  0.666288  0.494781  0.874922  1
  V  V14  1  0.505439  0.343857  0.624751  1
  V  V15  1  0.494781  0.666288  0.125078  1
  V  V16  1  0.993146  0.842944  0.626033  1
  V  V17  1  0.152900  0.999626  0.871917  1
  V  V18  1  0.842944  0.993146  0.373967  1
  Si  Si19  1  0.289819  0.960758  0.062578  1
  Si  Si20  1  0.539199  0.794720  0.315674  1
  Si  Si21  1  0.459453  0.205644  0.815348  1
  Si  Si22  1  0.794720  0.539199  0.684326  1
  Si  Si23  1  0.205644  0.459453  0.184652  1
  Si  Si24  1  0.706037  0.040986  0.565787  1
  Si  Si25  1  0.960758  0.289819  0.937422  1
  Si  Si26  1  0.040986  0.706037  0.434213  1
  Si  Si27  1  0.703178  0.374218  0.069893  1
  Si  Si28  1  0.130338  0.202858  0.319767  1
  Si  Si29  1  0.869573  0.795513  0.818525  1
  Si  Si30  1  0.202858  0.130338  0.680233  1
  Si  Si31  1  0.795513  0.869573  0.181475  1
  Si  Si32  1  0.296404  0.629873  0.569450  1
  Si  Si33  1  0.374218  0.703178  0.930107  1
  Si  Si34  1  0.629873  0.296404  0.430550  1
  Rh  Rh35  1  0.332000  0.332000  0.000000  1
