# generated using pymatgen
data_Dy6Tm10MgHg3Ir4
_symmetry_space_group_name_H-M   'P 1'
_cell_length_a   9.54509725
_cell_length_b   9.53739571
_cell_length_c   9.53739800
_cell_angle_alpha   59.99999900
_cell_angle_beta   60.02668605
_cell_angle_gamma   60.02668615
_symmetry_Int_Tables_number   1
_chemical_formula_structural   Dy6Tm10MgHg3Ir4
_chemical_formula_sum   'Dy6 Tm10 Mg1 Hg3 Ir4'
_cell_volume   614.18629895
_cell_formula_units_Z   1
loop_
 _symmetry_equiv_pos_site_id
 _symmetry_equiv_pos_as_xyz
  1  'x, y, z'
loop_
 _atom_site_type_symbol
 _atom_site_label
 _atom_site_symmetry_multiplicity
 _atom_site_fract_x
 _atom_site_fract_y
 _atom_site_fract_z
 _atom_site_occupancy
  Dy  Dy0  1  0.936963  0.562151  0.562151  1
  Dy  Dy1  1  0.561286  0.938079  0.938079  1
  Dy  Dy2  1  0.561286  0.938079  0.562556  1
  Dy  Dy3  1  0.936963  0.562151  0.938735  1
  Dy  Dy4  1  0.561286  0.562556  0.938079  1
  Dy  Dy5  1  0.936963  0.938735  0.562151  1
  Tm  Tm6  1  0.350308  0.348317  0.348317  1
  Tm  Tm7  1  0.350308  0.348317  0.953057  1
  Tm  Tm8  1  0.350308  0.953057  0.348317  1
  Tm  Tm9  1  0.943422  0.352192  0.352192  1
  Tm  Tm10  1  0.810496  0.189406  0.189406  1
  Tm  Tm11  1  0.185535  0.813477  0.813477  1
  Tm  Tm12  1  0.185535  0.813477  0.187511  1
  Tm  Tm13  1  0.810496  0.189406  0.810692  1
  Tm  Tm14  1  0.185535  0.187511  0.813477  1
  Tm  Tm15  1  0.810496  0.810692  0.189406  1
  Mg  Mg16  1  0.285406  0.571532  0.571532  1
  Hg  Hg17  1  0.580724  0.586023  0.586023  1
  Hg  Hg18  1  0.580724  0.586023  0.247229  1
  Hg  Hg19  1  0.580724  0.247229  0.586023  1
  Ir  Ir20  1  0.140346  0.143307  0.143307  1
  Ir  Ir21  1  0.140346  0.143307  0.573040  1
  Ir  Ir22  1  0.140346  0.573040  0.143307  1
  Ir  Ir23  1  0.574195  0.141935  0.141935  1
