# generated using pymatgen
data_La5PrIn10
_symmetry_space_group_name_H-M   'P 1'
_cell_length_a   6.75250700
_cell_length_b   6.75250764
_cell_length_c   10.62904900
_cell_angle_alpha   90.00000000
_cell_angle_beta   90.00000000
_cell_angle_gamma   102.23217174
_symmetry_Int_Tables_number   1
_chemical_formula_structural   La5PrIn10
_chemical_formula_sum   'La5 Pr1 In10'
_cell_volume   473.64301577
_cell_formula_units_Z   1
loop_
 _symmetry_equiv_pos_site_id
 _symmetry_equiv_pos_as_xyz
  1  'x, y, z'
loop_
 _atom_site_type_symbol
 _atom_site_label
 _atom_site_symmetry_multiplicity
 _atom_site_fract_x
 _atom_site_fract_y
 _atom_site_fract_z
 _atom_site_occupancy
  La  La0  1  0.632897  0.632897  0.250000  1
  La  La1  1  0.203775  0.794980  0.500296  1
  La  La2  1  0.203775  0.794980  0.999704  1
  La  La3  1  0.794980  0.203775  0.500296  1
  La  La4  1  0.794980  0.203775  0.999704  1
  Pr  Pr5  1  0.364932  0.364932  0.750000  1
  In  In6  1  0.014076  0.014076  0.250000  1
  In  In7  1  0.987267  0.987267  0.750000  1
  In  In8  1  0.307431  0.307431  0.049860  1
  In  In9  1  0.692364  0.692364  0.942370  1
  In  In10  1  0.307431  0.307431  0.450140  1
  In  In11  1  0.692364  0.692364  0.557630  1
  In  In12  1  0.490944  0.074986  0.250000  1
  In  In13  1  0.932579  0.505220  0.750000  1
  In  In14  1  0.505220  0.932579  0.750000  1
  In  In15  1  0.074986  0.490944  0.250000  1
