# generated using pymatgen
data_Zr4In2Pt3Rh
_symmetry_space_group_name_H-M   'P 1'
_cell_length_a   7.61046533
_cell_length_b   7.61046589
_cell_length_c   6.80044405
_cell_angle_alpha   90.07651422
_cell_angle_beta   90.07651402
_cell_angle_gamma   90.25908790
_symmetry_Int_Tables_number   1
_chemical_formula_structural   Zr4In2Pt3Rh
_chemical_formula_sum   'Zr8 In4 Pt6 Rh2'
_cell_volume   393.87145692
_cell_formula_units_Z   2
loop_
 _symmetry_equiv_pos_site_id
 _symmetry_equiv_pos_as_xyz
  1  'x, y, z'
loop_
 _atom_site_type_symbol
 _atom_site_label
 _atom_site_symmetry_multiplicity
 _atom_site_fract_x
 _atom_site_fract_y
 _atom_site_fract_z
 _atom_site_occupancy
  Zr  Zr0  1  0.158466  0.158466  0.002160  1
  Zr  Zr1  1  0.841534  0.841534  0.997840  1
  Zr  Zr2  1  0.654692  0.345308  0.500000  1
  Zr  Zr3  1  0.345308  0.654692  0.500000  1
  Zr  Zr4  1  0.678713  0.321287  0.000000  1
  Zr  Zr5  1  0.321287  0.678713  0.000000  1
  Zr  Zr6  1  0.816108  0.816108  0.501957  1
  Zr  Zr7  1  0.183892  0.183892  0.498043  1
  In  In8  1  0.499307  0.004316  0.249883  1
  In  In9  1  0.500693  0.995684  0.750117  1
  In  In10  1  0.004316  0.499307  0.249883  1
  In  In11  1  0.995684  0.500693  0.750117  1
  Pt  Pt12  1  0.629554  0.629554  0.224125  1
  Pt  Pt13  1  0.870873  0.129946  0.724266  1
  Pt  Pt14  1  0.870054  0.129127  0.275734  1
  Pt  Pt15  1  0.370446  0.370446  0.775875  1
  Pt  Pt16  1  0.129127  0.870054  0.275734  1
  Pt  Pt17  1  0.129946  0.870873  0.724266  1
  Rh  Rh18  1  0.369083  0.369083  0.225692  1
  Rh  Rh19  1  0.630917  0.630917  0.774308  1
