# generated using pymatgen
data_Y5Rh2
_symmetry_space_group_name_H-M   'P 1'
_cell_length_a   6.46375372
_cell_length_b   7.20098877
_cell_length_c   8.70624815
_cell_angle_alpha   96.83280891
_cell_angle_beta   111.79047875
_cell_angle_gamma   89.99999548
_symmetry_Int_Tables_number   1
_chemical_formula_structural   Y5Rh2
_chemical_formula_sum   'Y10 Rh4'
_cell_volume   373.17942739
_cell_formula_units_Z   2
loop_
 _symmetry_equiv_pos_site_id
 _symmetry_equiv_pos_as_xyz
  1  'x, y, z'
loop_
 _atom_site_type_symbol
 _atom_site_label
 _atom_site_symmetry_multiplicity
 _atom_site_fract_x
 _atom_site_fract_y
 _atom_site_fract_z
 _atom_site_occupancy
  Y  Y0  1  0.981130  0.916966  0.188176  1
  Y  Y1  1  0.792954  0.583034  0.811824  1
  Y  Y2  1  0.018870  0.083034  0.811824  1
  Y  Y3  1  0.207046  0.416966  0.188176  1
  Y  Y4  1  0.647819  0.814051  0.437641  1
  Y  Y5  1  0.210178  0.685949  0.562359  1
  Y  Y6  1  0.352181  0.185949  0.562359  1
  Y  Y7  1  0.789822  0.314051  0.437641  1
  Y  Y8  1  0.425217  0.750000  0.000000  1
  Y  Y9  1  0.574783  0.250000  0.000000  1
  Rh  Rh10  1  0.818790  0.574085  0.221755  1
  Rh  Rh11  1  0.597036  0.925915  0.778245  1
  Rh  Rh12  1  0.181210  0.425915  0.778245  1
  Rh  Rh13  1  0.402964  0.074085  0.221755  1
