# generated using pymatgen
data_K5CaNbAs4
_symmetry_space_group_name_H-M   'P 1'
_cell_length_a   10.41796498
_cell_length_b   10.41796645
_cell_length_c   7.81478378
_cell_angle_alpha   88.14318975
_cell_angle_beta   88.14319100
_cell_angle_gamma   120.47356024
_symmetry_Int_Tables_number   1
_chemical_formula_structural   K5CaNbAs4
_chemical_formula_sum   'K10 Ca2 Nb2 As8'
_cell_volume   729.44758884
_cell_formula_units_Z   2
loop_
 _symmetry_equiv_pos_site_id
 _symmetry_equiv_pos_as_xyz
  1  'x, y, z'
loop_
 _atom_site_type_symbol
 _atom_site_label
 _atom_site_symmetry_multiplicity
 _atom_site_fract_x
 _atom_site_fract_y
 _atom_site_fract_z
 _atom_site_occupancy
  K  K0  1  0.466497  0.526508  0.605785  1
  K  K1  1  0.057186  0.529119  0.609596  1
  K  K2  1  0.526508  0.466497  0.105785  1
  K  K3  1  0.529119  0.057186  0.109596  1
  K  K4  1  0.862421  0.144455  0.789689  1
  K  K5  1  0.288963  0.151256  0.824934  1
  K  K6  1  0.855105  0.714699  0.772694  1
  K  K7  1  0.144455  0.862421  0.289689  1
  K  K8  1  0.714699  0.855105  0.272694  1
  K  K9  1  0.151256  0.288963  0.324934  1
  Ca  Ca10  1  0.462012  0.935367  0.605294  1
  Ca  Ca11  1  0.935367  0.462012  0.105294  1
  Nb  Nb12  1  0.671788  0.329501  0.500096  1
  Nb  Nb13  1  0.329501  0.671788  0.000096  1
  As  As14  1  0.690748  0.342768  0.819916  1
  As  As15  1  0.342768  0.690748  0.319916  1
  As  As16  1  0.195820  0.797928  0.887130  1
  As  As17  1  0.589038  0.805248  0.862799  1
  As  As18  1  0.182212  0.401364  0.929267  1
  As  As19  1  0.797928  0.195820  0.387130  1
  As  As20  1  0.401364  0.182212  0.429267  1
  As  As21  1  0.805248  0.589038  0.362799  1
