# generated using pymatgen
data_CaPrAl20(FeIr)2
_symmetry_space_group_name_H-M   'P 1'
_cell_length_a   6.83603180
_cell_length_b   6.83603243
_cell_length_c   9.11174559
_cell_angle_alpha   89.96717479
_cell_angle_beta   89.96717330
_cell_angle_gamma   97.00025463
_symmetry_Int_Tables_number   1
_chemical_formula_structural   CaPrAl20(FeIr)2
_chemical_formula_sum   'Ca1 Pr1 Al20 Fe2 Ir2'
_cell_volume   422.62976937
_cell_formula_units_Z   1
loop_
 _symmetry_equiv_pos_site_id
 _symmetry_equiv_pos_as_xyz
  1  'x, y, z'
loop_
 _atom_site_type_symbol
 _atom_site_label
 _atom_site_symmetry_multiplicity
 _atom_site_fract_x
 _atom_site_fract_y
 _atom_site_fract_z
 _atom_site_occupancy
  Ca  Ca0  1  0.874866  0.125134  0.750000  1
  Pr  Pr1  1  0.124002  0.875998  0.250000  1
  Al  Al2  1  0.619938  0.372920  0.550220  1
  Al  Al3  1  0.381419  0.625465  0.449104  1
  Al  Al4  1  0.374535  0.618581  0.050896  1
  Al  Al5  1  0.627080  0.380062  0.949780  1
  Al  Al6  1  0.229854  0.223253  0.496700  1
  Al  Al7  1  0.769004  0.778859  0.505449  1
  Al  Al8  1  0.776747  0.770146  0.003300  1
  Al  Al9  1  0.221141  0.230996  0.994551  1
  Al  Al10  1  0.845440  0.164346  0.099822  1
  Al  Al11  1  0.154959  0.834761  0.898686  1
  Al  Al12  1  0.165239  0.845041  0.601314  1
  Al  Al13  1  0.835654  0.154560  0.400178  1
  Al  Al14  1  0.860068  0.585758  0.754562  1
  Al  Al15  1  0.138501  0.411407  0.245503  1
  Al  Al16  1  0.414242  0.139932  0.745438  1
  Al  Al17  1  0.588593  0.861499  0.254497  1
  Al  Al18  1  0.221291  0.479174  0.754495  1
  Al  Al19  1  0.777023  0.517598  0.245173  1
  Al  Al20  1  0.520826  0.778709  0.745505  1
  Al  Al21  1  0.482402  0.222977  0.254827  1
  Fe  Fe22  1  0.999962  0.501690  0.000101  1
  Fe  Fe23  1  0.498310  0.000038  0.499899  1
  Ir  Ir24  1  0.999801  0.500899  0.500383  1
  Ir  Ir25  1  0.499101  0.000199  0.999617  1
