# generated using pymatgen
data_DyHo6Tm9(InIr)4
_symmetry_space_group_name_H-M   'P 1'
_cell_length_a   9.58192866
_cell_length_b   9.58192815
_cell_length_c   9.58740000
_cell_angle_alpha   59.98110082
_cell_angle_beta   59.98110256
_cell_angle_gamma   60.03006156
_symmetry_Int_Tables_number   1
_chemical_formula_structural   DyHo6Tm9(InIr)4
_chemical_formula_sum   'Dy1 Ho6 Tm9 In4 Ir4'
_cell_volume   622.39499569
_cell_formula_units_Z   1
loop_
 _symmetry_equiv_pos_site_id
 _symmetry_equiv_pos_as_xyz
  1  'x, y, z'
loop_
 _atom_site_type_symbol
 _atom_site_label
 _atom_site_symmetry_multiplicity
 _atom_site_fract_x
 _atom_site_fract_y
 _atom_site_fract_z
 _atom_site_occupancy
  Dy  Dy0  1  0.190762  0.190762  0.809238  1
  Ho  Ho1  1  0.059826  0.059826  0.440174  1
  Ho  Ho2  1  0.190823  0.809343  0.809748  1
  Ho  Ho3  1  0.809343  0.190823  0.190085  1
  Ho  Ho4  1  0.809343  0.190823  0.809748  1
  Ho  Ho5  1  0.190823  0.809343  0.190085  1
  Ho  Ho6  1  0.810026  0.810026  0.189974  1
  Tm  Tm7  1  0.598580  0.598580  0.597602  1
  Tm  Tm8  1  0.598580  0.598580  0.205240  1
  Tm  Tm9  1  0.599025  0.204385  0.598295  1
  Tm  Tm10  1  0.204385  0.599025  0.598295  1
  Tm  Tm11  1  0.059205  0.440011  0.440659  1
  Tm  Tm12  1  0.440011  0.059205  0.060125  1
  Tm  Tm13  1  0.440011  0.059205  0.440659  1
  Tm  Tm14  1  0.059205  0.440011  0.060125  1
  Tm  Tm15  1  0.439775  0.439775  0.060225  1
  In  In16  1  0.832785  0.832785  0.833055  1
  In  In17  1  0.832785  0.832785  0.501374  1
  In  In18  1  0.832326  0.502295  0.832689  1
  In  In19  1  0.502295  0.832326  0.832689  1
  Ir  Ir20  1  0.390817  0.390817  0.391151  1
  Ir  Ir21  1  0.390817  0.390817  0.827216  1
  Ir  Ir22  1  0.392291  0.826162  0.390774  1
  Ir  Ir23  1  0.826162  0.392291  0.390774  1
