# generated using pymatgen
data_Tc2Mo2Ir3Ru
_symmetry_space_group_name_H-M   'P 1'
_cell_length_a   5.53435541
_cell_length_b   5.56724245
_cell_length_c   4.40080200
_cell_angle_alpha   90.00000000
_cell_angle_beta   90.00000000
_cell_angle_gamma   119.83332020
_symmetry_Int_Tables_number   1
_chemical_formula_structural   Tc2Mo2Ir3Ru
_chemical_formula_sum   'Tc2 Mo2 Ir3 Ru1'
_cell_volume   117.62418427
_cell_formula_units_Z   1
loop_
 _symmetry_equiv_pos_site_id
 _symmetry_equiv_pos_as_xyz
  1  'x, y, z'
loop_
 _atom_site_type_symbol
 _atom_site_label
 _atom_site_symmetry_multiplicity
 _atom_site_fract_x
 _atom_site_fract_y
 _atom_site_fract_z
 _atom_site_occupancy
  Tc  Tc0  1  0.330926  0.666983  0.750000  1
  Tc  Tc1  1  0.669543  0.332040  0.250000  1
  Mo  Mo2  1  0.164853  0.335256  0.250000  1
  Mo  Mo3  1  0.834125  0.664265  0.750000  1
  Ir  Ir4  1  0.662818  0.828739  0.250000  1
  Ir  Ir5  1  0.165203  0.826614  0.250000  1
  Ir  Ir6  1  0.336232  0.169996  0.750000  1
  Ru  Ru7  1  0.836301  0.176109  0.750000  1
