# generated using pymatgen
data_Na2PaS3
_symmetry_space_group_name_H-M   'P 1'
_cell_length_a   7.02410985
_cell_length_b   7.02411002
_cell_length_c   7.06932524
_cell_angle_alpha   80.32022168
_cell_angle_beta   80.32021732
_cell_angle_gamma   119.81928315
_symmetry_Int_Tables_number   1
_chemical_formula_structural   Na2PaS3
_chemical_formula_sum   'Na4 Pa2 S6'
_cell_volume   285.08238597
_cell_formula_units_Z   2
loop_
 _symmetry_equiv_pos_site_id
 _symmetry_equiv_pos_as_xyz
  1  'x, y, z'
loop_
 _atom_site_type_symbol
 _atom_site_label
 _atom_site_symmetry_multiplicity
 _atom_site_fract_x
 _atom_site_fract_y
 _atom_site_fract_z
 _atom_site_occupancy
  Na  Na0  1  0.000000  0.000000  0.000000  1
  Na  Na1  1  0.500000  0.500000  0.500000  1
  Na  Na2  1  0.839753  0.160247  0.500000  1
  Na  Na3  1  0.160247  0.839753  0.500000  1
  Pa  Pa4  1  0.666555  0.333445  0.000000  1
  Pa  Pa5  1  0.333445  0.666555  0.000000  1
  S  S6  1  0.277332  0.277332  0.231207  1
  S  S7  1  0.432546  0.077200  0.771785  1
  S  S8  1  0.077200  0.432546  0.771785  1
  S  S9  1  0.722668  0.722668  0.768793  1
  S  S10  1  0.567454  0.922800  0.228215  1
  S  S11  1  0.922800  0.567454  0.228215  1
