# generated using pymatgen
data_La2Y10Tc3Ir
_symmetry_space_group_name_H-M   'P 1'
_cell_length_a   6.45500908
_cell_length_b   7.42178356
_cell_length_c   9.33943100
_cell_angle_alpha   90.00000000
_cell_angle_beta   90.00000000
_cell_angle_gamma   89.96155013
_symmetry_Int_Tables_number   1
_chemical_formula_structural   La2Y10Tc3Ir
_chemical_formula_sum   'La2 Y10 Tc3 Ir1'
_cell_volume   447.43037374
_cell_formula_units_Z   1
loop_
 _symmetry_equiv_pos_site_id
 _symmetry_equiv_pos_as_xyz
  1  'x, y, z'
loop_
 _atom_site_type_symbol
 _atom_site_label
 _atom_site_symmetry_multiplicity
 _atom_site_fract_x
 _atom_site_fract_y
 _atom_site_fract_z
 _atom_site_occupancy
  La  La0  1  0.375137  0.946236  0.750000  1
  La  La1  1  0.125733  0.449562  0.750000  1
  Y  Y2  1  0.637799  0.044367  0.250000  1
  Y  Y3  1  0.866278  0.541816  0.250000  1
  Y  Y4  1  0.165578  0.176002  0.067634  1
  Y  Y5  1  0.833109  0.824125  0.936147  1
  Y  Y6  1  0.663366  0.323826  0.937966  1
  Y  Y7  1  0.833109  0.824125  0.563853  1
  Y  Y8  1  0.334583  0.673903  0.068366  1
  Y  Y9  1  0.165578  0.176002  0.432366  1
  Y  Y10  1  0.334583  0.673903  0.431634  1
  Y  Y11  1  0.663366  0.323826  0.562034  1
  Tc  Tc12  1  0.464709  0.383745  0.250000  1
  Tc  Tc13  1  0.518275  0.629014  0.750000  1
  Tc  Tc14  1  0.979225  0.126044  0.750000  1
  Ir  Ir15  1  0.039572  0.883503  0.250000  1
