# generated using pymatgen
data_Sr4CrOsO8
_symmetry_space_group_name_H-M   'P 1'
_cell_length_a   6.92354334
_cell_length_b   6.92354350
_cell_length_c   5.60970300
_cell_angle_alpha   90.00000000
_cell_angle_beta   90.00000000
_cell_angle_gamma   132.19254986
_symmetry_Int_Tables_number   1
_chemical_formula_structural   Sr4CrOsO8
_chemical_formula_sum   'Sr4 Cr1 Os1 O8'
_cell_volume   199.22855051
_cell_formula_units_Z   1
loop_
 _symmetry_equiv_pos_site_id
 _symmetry_equiv_pos_as_xyz
  1  'x, y, z'
loop_
 _atom_site_type_symbol
 _atom_site_label
 _atom_site_symmetry_multiplicity
 _atom_site_fract_x
 _atom_site_fract_y
 _atom_site_fract_z
 _atom_site_occupancy
  Sr  Sr0  1  0.646430  0.353570  0.000000  1
  Sr  Sr1  1  0.144133  0.855867  0.500000  1
  Sr  Sr2  1  0.855867  0.144133  0.500000  1
  Sr  Sr3  1  0.353570  0.646430  0.000000  1
  Cr  Cr4  1  0.000000  0.000000  0.000000  1
  Os  Os5  1  0.500000  0.500000  0.500000  1
  O  O6  1  0.748244  0.748244  0.253573  1
  O  O7  1  0.251756  0.251756  0.746427  1
  O  O8  1  0.251756  0.251756  0.253573  1
  O  O9  1  0.748244  0.748244  0.746427  1
  O  O10  1  0.839050  0.160950  0.000000  1
  O  O11  1  0.340300  0.659700  0.500000  1
  O  O12  1  0.659700  0.340300  0.500000  1
  O  O13  1  0.160950  0.839050  0.000000  1
