# generated using pymatgen
data_PrDy2ThSe6
_symmetry_space_group_name_H-M   'P 1'
_cell_length_a   11.30688000
_cell_length_b   4.13331100
_cell_length_c   10.98237200
_cell_angle_alpha   90.00000000
_cell_angle_beta   90.00000000
_cell_angle_gamma   90.00000000
_symmetry_Int_Tables_number   1
_chemical_formula_structural   PrDy2ThSe6
_chemical_formula_sum   'Pr2 Dy4 Th2 Se12'
_cell_volume   513.25952431
_cell_formula_units_Z   2
loop_
 _symmetry_equiv_pos_site_id
 _symmetry_equiv_pos_as_xyz
  1  'x, y, z'
loop_
 _atom_site_type_symbol
 _atom_site_label
 _atom_site_symmetry_multiplicity
 _atom_site_fract_x
 _atom_site_fract_y
 _atom_site_fract_z
 _atom_site_occupancy
  Pr  Pr0  1  0.697595  0.750000  0.497866  1
  Pr  Pr1  1  0.197595  0.750000  0.002134  1
  Dy  Dy2  1  0.484874  0.250000  0.188395  1
  Dy  Dy3  1  0.984874  0.250000  0.311605  1
  Dy  Dy4  1  0.514083  0.750000  0.812779  1
  Dy  Dy5  1  0.014083  0.750000  0.687221  1
  Th  Th6  1  0.304659  0.250000  0.496814  1
  Th  Th7  1  0.804659  0.250000  0.003186  1
  Se  Se8  1  0.542450  0.250000  0.629955  1
  Se  Se9  1  0.042450  0.250000  0.870045  1
  Se  Se10  1  0.452316  0.750000  0.370115  1
  Se  Se11  1  0.952316  0.750000  0.129885  1
  Se  Se12  1  0.616021  0.750000  0.054301  1
  Se  Se13  1  0.116021  0.750000  0.445699  1
  Se  Se14  1  0.386545  0.250000  0.945711  1
  Se  Se15  1  0.886545  0.250000  0.554289  1
  Se  Se16  1  0.727397  0.250000  0.291922  1
  Se  Se17  1  0.227397  0.250000  0.208078  1
  Se  Se18  1  0.274061  0.750000  0.699829  1
  Se  Se19  1  0.774061  0.750000  0.800171  1
