# generated using pymatgen
data_Sc4C2Cl3
_symmetry_space_group_name_H-M   'P 1'
_cell_length_a   3.42501300
_cell_length_b   9.78507300
_cell_length_c   18.49810200
_cell_angle_alpha   90.00000000
_cell_angle_beta   90.00000000
_cell_angle_gamma   90.00000000
_symmetry_Int_Tables_number   1
_chemical_formula_structural   Sc4C2Cl3
_chemical_formula_sum   'Sc16 C8 Cl12'
_cell_volume   619.94543170
_cell_formula_units_Z   4
loop_
 _symmetry_equiv_pos_site_id
 _symmetry_equiv_pos_as_xyz
  1  'x, y, z'
loop_
 _atom_site_type_symbol
 _atom_site_label
 _atom_site_symmetry_multiplicity
 _atom_site_fract_x
 _atom_site_fract_y
 _atom_site_fract_z
 _atom_site_occupancy
  Sc  Sc0  1  0.250000  0.863461  0.577959  1
  Sc  Sc1  1  0.750000  0.136539  0.422041  1
  Sc  Sc2  1  0.750000  0.636539  0.077959  1
  Sc  Sc3  1  0.250000  0.363461  0.922041  1
  Sc  Sc4  1  0.250000  0.864266  0.743753  1
  Sc  Sc5  1  0.750000  0.135734  0.256247  1
  Sc  Sc6  1  0.750000  0.635734  0.243753  1
  Sc  Sc7  1  0.250000  0.364266  0.756247  1
  Sc  Sc8  1  0.250000  0.871039  0.166655  1
  Sc  Sc9  1  0.750000  0.128961  0.833345  1
  Sc  Sc10  1  0.750000  0.628961  0.666655  1
  Sc  Sc11  1  0.250000  0.371039  0.333345  1
  Sc  Sc12  1  0.250000  0.899568  0.329598  1
  Sc  Sc13  1  0.750000  0.100432  0.670402  1
  Sc  Sc14  1  0.750000  0.600432  0.829598  1
  Sc  Sc15  1  0.250000  0.399568  0.170402  1
  C  C16  1  0.250000  0.614334  0.749930  1
  C  C17  1  0.750000  0.385666  0.250070  1
  C  C18  1  0.750000  0.885666  0.249930  1
  C  C19  1  0.250000  0.114334  0.750070  1
  C  C20  1  0.250000  0.633573  0.154480  1
  C  C21  1  0.750000  0.366427  0.845520  1
  C  C22  1  0.750000  0.866427  0.654480  1
  C  C23  1  0.250000  0.133573  0.345520  1
  Cl  Cl24  1  0.250000  0.614482  0.556484  1
  Cl  Cl25  1  0.750000  0.385518  0.443516  1
  Cl  Cl26  1  0.750000  0.885518  0.056484  1
  Cl  Cl27  1  0.250000  0.114482  0.943516  1
  Cl  Cl28  1  0.250000  0.622781  0.952250  1
  Cl  Cl29  1  0.750000  0.377219  0.047750  1
  Cl  Cl30  1  0.750000  0.877219  0.452250  1
  Cl  Cl31  1  0.250000  0.122781  0.547750  1
  Cl  Cl32  1  0.250000  0.637696  0.353247  1
  Cl  Cl33  1  0.750000  0.362304  0.646753  1
  Cl  Cl34  1  0.750000  0.862304  0.853247  1
  Cl  Cl35  1  0.250000  0.137696  0.146753  1
