# generated using pymatgen
data_Cs6ErSe4
_symmetry_space_group_name_H-M   'P 1'
_cell_length_a   11.76312400
_cell_length_b   11.76312468
_cell_length_c   8.76976800
_cell_angle_alpha   90.00000000
_cell_angle_beta   90.00000000
_cell_angle_gamma   119.99999808
_symmetry_Int_Tables_number   1
_chemical_formula_structural   Cs6ErSe4
_chemical_formula_sum   'Cs12 Er2 Se8'
_cell_volume   1050.90660113
_cell_formula_units_Z   2
loop_
 _symmetry_equiv_pos_site_id
 _symmetry_equiv_pos_as_xyz
  1  'x, y, z'
loop_
 _atom_site_type_symbol
 _atom_site_label
 _atom_site_symmetry_multiplicity
 _atom_site_fract_x
 _atom_site_fract_y
 _atom_site_fract_z
 _atom_site_occupancy
  Cs  Cs0  1  0.130847  0.869153  0.545274  1
  Cs  Cs1  1  0.261694  0.130847  0.045274  1
  Cs  Cs2  1  0.869153  0.738306  0.045274  1
  Cs  Cs3  1  0.130847  0.261694  0.545274  1
  Cs  Cs4  1  0.738306  0.869153  0.545274  1
  Cs  Cs5  1  0.869153  0.130847  0.045274  1
  Cs  Cs6  1  0.532757  0.467243  0.358125  1
  Cs  Cs7  1  0.065514  0.532757  0.858125  1
  Cs  Cs8  1  0.467243  0.934486  0.858125  1
  Cs  Cs9  1  0.532757  0.065514  0.358125  1
  Cs  Cs10  1  0.934486  0.467243  0.358125  1
  Cs  Cs11  1  0.467243  0.532757  0.858125  1
  Er  Er12  1  0.333333  0.666667  0.259616  1
  Er  Er13  1  0.666667  0.333333  0.759616  1
  Se  Se14  1  0.333333  0.666667  0.570254  1
  Se  Se15  1  0.666667  0.333333  0.070254  1
  Se  Se16  1  0.206747  0.793253  0.156544  1
  Se  Se17  1  0.413493  0.206747  0.656544  1
  Se  Se18  1  0.793253  0.586507  0.656544  1
  Se  Se19  1  0.206747  0.413493  0.156544  1
  Se  Se20  1  0.586507  0.793253  0.156544  1
  Se  Se21  1  0.793253  0.206747  0.656544  1
