# generated using pymatgen
data_La7DyLu2Si8O3
_symmetry_space_group_name_H-M   'P 1'
_cell_length_a   10.74459355
_cell_length_b   10.76805919
_cell_length_c   4.51002700
_cell_angle_alpha   90.00000000
_cell_angle_beta   90.00000000
_cell_angle_gamma   120.07228031
_symmetry_Int_Tables_number   1
_chemical_formula_structural   La7DyLu2Si8O3
_chemical_formula_sum   'La7 Dy1 Lu2 Si8 O3'
_cell_volume   451.56515504
_cell_formula_units_Z   1
loop_
 _symmetry_equiv_pos_site_id
 _symmetry_equiv_pos_as_xyz
  1  'x, y, z'
loop_
 _atom_site_type_symbol
 _atom_site_label
 _atom_site_symmetry_multiplicity
 _atom_site_fract_x
 _atom_site_fract_y
 _atom_site_fract_z
 _atom_site_occupancy
  La  La0  1  0.213470  0.789202  0.000000  1
  La  La1  1  0.576094  0.788046  0.000000  1
  La  La2  1  0.786530  0.575733  0.000000  1
  La  La3  1  0.000000  0.000000  0.000000  1
  La  La4  1  0.213470  0.424267  0.000000  1
  La  La5  1  0.423906  0.211954  0.000000  1
  La  La6  1  0.786530  0.210798  0.000000  1
  Dy  Dy7  1  0.000000  0.500000  0.500000  1
  Lu  Lu8  1  0.500000  0.500000  0.500000  1
  Lu  Lu9  1  0.500000  0.000000  0.500000  1
  Si  Si10  1  0.000000  0.776098  0.500000  1
  Si  Si11  1  0.000000  0.223902  0.500000  1
  Si  Si12  1  0.224726  0.224345  0.500000  1
  Si  Si13  1  0.775274  0.999619  0.500000  1
  Si  Si14  1  0.336727  0.668364  0.500000  1
  Si  Si15  1  0.224726  0.000381  0.500000  1
  Si  Si16  1  0.663273  0.331636  0.500000  1
  Si  Si17  1  0.775274  0.775655  0.500000  1
  O  O18  1  0.000000  0.500000  0.000000  1
  O  O19  1  0.500000  0.500000  0.000000  1
  O  O20  1  0.500000  0.000000  0.000000  1
