# generated using pymatgen
data_Lu12Cd2Fe3
_symmetry_space_group_name_H-M   'P 1'
_cell_length_a   8.15105404
_cell_length_b   8.15105481
_cell_length_c   8.15105432
_cell_angle_alpha   108.21039178
_cell_angle_beta   108.21039258
_cell_angle_gamma   112.02342280
_symmetry_Int_Tables_number   1
_chemical_formula_structural   Lu12Cd2Fe3
_chemical_formula_sum   'Lu12 Cd2 Fe3'
_cell_volume   416.26464521
_cell_formula_units_Z   1
loop_
 _symmetry_equiv_pos_site_id
 _symmetry_equiv_pos_as_xyz
  1  'x, y, z'
loop_
 _atom_site_type_symbol
 _atom_site_label
 _atom_site_symmetry_multiplicity
 _atom_site_fract_x
 _atom_site_fract_y
 _atom_site_fract_z
 _atom_site_occupancy
  Lu  Lu0  1  0.307773  0.307773  0.615546  1
  Lu  Lu1  1  0.692227  0.692227  0.384454  1
  Lu  Lu2  1  0.692227  0.307773  0.000000  1
  Lu  Lu3  1  0.307773  0.692227  0.000000  1
  Lu  Lu4  1  0.190859  0.427149  0.236290  1
  Lu  Lu5  1  0.809141  0.572851  0.763710  1
  Lu  Lu6  1  0.190859  0.954568  0.763710  1
  Lu  Lu7  1  0.954568  0.190859  0.763710  1
  Lu  Lu8  1  0.809141  0.045432  0.236290  1
  Lu  Lu9  1  0.045432  0.809141  0.236290  1
  Lu  Lu10  1  0.427149  0.190859  0.236290  1
  Lu  Lu11  1  0.572851  0.809141  0.763710  1
  Cd  Cd12  1  0.000000  0.500000  0.500000  1
  Cd  Cd13  1  0.500000  0.000000  0.500000  1
  Fe  Fe14  1  0.382330  0.382330  0.000000  1
  Fe  Fe15  1  0.617670  0.617670  0.000000  1
  Fe  Fe16  1  0.000000  0.000000  0.000000  1
