# generated using pymatgen
data_ThTe28
_symmetry_space_group_name_H-M   'P 1'
_cell_length_a   12.15394010
_cell_length_b   10.66588678
_cell_length_c   12.66422796
_cell_angle_alpha   114.68993660
_cell_angle_beta   123.35253317
_cell_angle_gamma   88.16123928
_symmetry_Int_Tables_number   1
_chemical_formula_structural   ThTe28
_chemical_formula_sum   'Th1 Te28'
_cell_volume   1202.99547047
_cell_formula_units_Z   1
loop_
 _symmetry_equiv_pos_site_id
 _symmetry_equiv_pos_as_xyz
  1  'x, y, z'
loop_
 _atom_site_type_symbol
 _atom_site_label
 _atom_site_symmetry_multiplicity
 _atom_site_fract_x
 _atom_site_fract_y
 _atom_site_fract_z
 _atom_site_occupancy
  Th  Th0  1  0.500000  0.000000  0.000000  1
  Te  Te1  1  0.233147  0.103025  0.418676  1
  Te  Te2  1  0.592840  0.147977  0.420573  1
  Te  Te3  1  0.273689  0.265628  0.894003  1
  Te  Te4  1  0.917959  0.307395  0.895753  1
  Te  Te5  1  0.199705  0.544054  0.717263  1
  Te  Te6  1  0.806983  0.527272  0.639504  1
  Te  Te7  1  0.407160  0.852023  0.579427  1
  Te  Te8  1  0.766853  0.896975  0.581324  1
  Te  Te9  1  0.082041  0.692605  0.104247  1
  Te  Te10  1  0.726311  0.734372  0.105997  1
  Te  Te11  1  0.193017  0.472728  0.360496  1
  Te  Te12  1  0.800295  0.455946  0.282737  1
  Te  Te13  1  0.762829  0.074173  0.841341  1
  Te  Te14  1  0.224893  0.975678  0.719106  1
  Te  Te15  1  0.811091  0.679305  0.898182  1
  Te  Te16  1  0.365259  0.759767  0.018991  1
  Te  Te17  1  0.516078  0.274993  0.241292  1
  Te  Te18  1  0.042688  0.285808  0.367149  1
  Te  Te19  1  0.775107  0.024322  0.280894  1
  Te  Te20  1  0.237171  0.925827  0.158659  1
  Te  Te21  1  0.634741  0.240233  0.981009  1
  Te  Te22  1  0.188909  0.320695  0.101818  1
  Te  Te23  1  0.957312  0.714192  0.632851  1
  Te  Te24  1  0.483922  0.725007  0.758708  1
  Te  Te25  1  0.041733  0.376268  0.736734  1
  Te  Te26  1  0.492830  0.286106  0.578581  1
  Te  Te27  1  0.507170  0.713894  0.421419  1
  Te  Te28  1  0.958267  0.623732  0.263266  1
