# generated using pymatgen
data_Cs6DySe4F
_symmetry_space_group_name_H-M   'P 1'
_cell_length_a   11.48753800
_cell_length_b   11.48753836
_cell_length_c   8.57187800
_cell_angle_alpha   90.00000000
_cell_angle_beta   90.00000000
_cell_angle_gamma   120.00001047
_symmetry_Int_Tables_number   1
_chemical_formula_structural   Cs6DySe4F
_chemical_formula_sum   'Cs12 Dy2 Se8 F2'
_cell_volume   979.62645072
_cell_formula_units_Z   2
loop_
 _symmetry_equiv_pos_site_id
 _symmetry_equiv_pos_as_xyz
  1  'x, y, z'
loop_
 _atom_site_type_symbol
 _atom_site_label
 _atom_site_symmetry_multiplicity
 _atom_site_fract_x
 _atom_site_fract_y
 _atom_site_fract_z
 _atom_site_occupancy
  Cs  Cs0  1  0.116793  0.883207  0.507030  1
  Cs  Cs1  1  0.766413  0.883207  0.507030  1
  Cs  Cs2  1  0.939681  0.469840  0.315536  1
  Cs  Cs3  1  0.530160  0.469840  0.315536  1
  Cs  Cs4  1  0.883207  0.766413  0.007030  1
  Cs  Cs5  1  0.233587  0.116793  0.007030  1
  Cs  Cs6  1  0.530160  0.060319  0.315536  1
  Cs  Cs7  1  0.116793  0.233587  0.507030  1
  Cs  Cs8  1  0.883207  0.116793  0.007030  1
  Cs  Cs9  1  0.060319  0.530160  0.815536  1
  Cs  Cs10  1  0.469840  0.939681  0.815536  1
  Cs  Cs11  1  0.469840  0.530160  0.815536  1
  Dy  Dy12  1  0.666667  0.333333  0.719809  1
  Dy  Dy13  1  0.333333  0.666667  0.219809  1
  Se  Se14  1  0.408766  0.204384  0.611821  1
  Se  Se15  1  0.591234  0.795616  0.111821  1
  Se  Se16  1  0.666667  0.333333  0.036307  1
  Se  Se17  1  0.795616  0.591234  0.611821  1
  Se  Se18  1  0.204384  0.408766  0.111821  1
  Se  Se19  1  0.333333  0.666667  0.536307  1
  Se  Se20  1  0.204384  0.795616  0.111821  1
  Se  Se21  1  0.795616  0.204384  0.611821  1
  F  F22  1  0.000000  0.000000  0.281324  1
  F  F23  1  0.000000  0.000000  0.781324  1
