# generated using pymatgen
data_NdCu4(AuO4)3
_symmetry_space_group_name_H-M   'P 1'
_cell_length_a   6.56289724
_cell_length_b   6.56289724
_cell_length_c   6.56289800
_cell_angle_alpha   109.47121680
_cell_angle_beta   109.47121682
_cell_angle_gamma   109.47122880
_symmetry_Int_Tables_number   1
_chemical_formula_structural   NdCu4(AuO4)3
_chemical_formula_sum   'Nd1 Cu4 Au3 O12'
_cell_volume   217.60304563
_cell_formula_units_Z   1
loop_
 _symmetry_equiv_pos_site_id
 _symmetry_equiv_pos_as_xyz
  1  'x, y, z'
loop_
 _atom_site_type_symbol
 _atom_site_label
 _atom_site_symmetry_multiplicity
 _atom_site_fract_x
 _atom_site_fract_y
 _atom_site_fract_z
 _atom_site_occupancy
  Nd  Nd0  1  0.000000  0.000000  0.000000  1
  Cu  Cu1  1  0.000000  0.000000  0.500000  1
  Cu  Cu2  1  0.000000  0.500000  0.000000  1
  Cu  Cu3  1  0.500000  0.000000  0.000000  1
  Cu  Cu4  1  0.500000  0.500000  0.500000  1
  Au  Au5  1  0.000000  0.500000  0.500000  1
  Au  Au6  1  0.500000  0.000000  0.500000  1
  Au  Au7  1  0.500000  0.500000  0.000000  1
  O  O8  1  0.296791  0.121435  0.824645  1
  O  O9  1  0.703209  0.878565  0.175355  1
  O  O10  1  0.703209  0.527854  0.824645  1
  O  O11  1  0.472146  0.175355  0.296791  1
  O  O12  1  0.175355  0.296791  0.472146  1
  O  O13  1  0.824645  0.296791  0.121435  1
  O  O14  1  0.878565  0.175355  0.703209  1
  O  O15  1  0.824645  0.703209  0.527854  1
  O  O16  1  0.296791  0.472146  0.175355  1
  O  O17  1  0.527854  0.824645  0.703209  1
  O  O18  1  0.175355  0.703209  0.878565  1
  O  O19  1  0.121435  0.824645  0.296791  1
