# generated using pymatgen
data_NiSn8Rh3
_symmetry_space_group_name_H-M   'P 1'
_cell_length_a   6.91428344
_cell_length_b   6.91428337
_cell_length_c   6.40247605
_cell_angle_alpha   90.00649087
_cell_angle_beta   90.00649410
_cell_angle_gamma   125.38948214
_symmetry_Int_Tables_number   1
_chemical_formula_structural   NiSn8Rh3
_chemical_formula_sum   'Ni1 Sn8 Rh3'
_cell_volume   249.53108273
_cell_formula_units_Z   1
loop_
 _symmetry_equiv_pos_site_id
 _symmetry_equiv_pos_as_xyz
  1  'x, y, z'
loop_
 _atom_site_type_symbol
 _atom_site_label
 _atom_site_symmetry_multiplicity
 _atom_site_fract_x
 _atom_site_fract_y
 _atom_site_fract_z
 _atom_site_occupancy
  Ni  Ni0  1  0.616660  0.383340  0.500000  1
  Sn  Sn1  1  0.661466  0.659527  0.837979  1
  Sn  Sn2  1  0.340473  0.338534  0.162021  1
  Sn  Sn3  1  0.163092  0.160903  0.661481  1
  Sn  Sn4  1  0.839097  0.836908  0.338519  1
  Sn  Sn5  1  0.000274  0.502887  0.748101  1
  Sn  Sn6  1  0.497113  0.999726  0.251899  1
  Sn  Sn7  1  0.505547  0.008333  0.746977  1
  Sn  Sn8  1  0.991667  0.494453  0.253023  1
  Rh  Rh9  1  0.117563  0.882437  0.000000  1
  Rh  Rh10  1  0.386212  0.613788  0.500000  1
  Rh  Rh11  1  0.880837  0.119163  0.000000  1
