# generated using pymatgen
data_K2Fe2F7
_symmetry_space_group_name_H-M   'P 1'
_cell_length_a   7.78550833
_cell_length_b   7.78794415
_cell_length_c   7.78615188
_cell_angle_alpha   120.26487909
_cell_angle_beta   116.66292885
_cell_angle_gamma   92.70604698
_symmetry_Int_Tables_number   1
_chemical_formula_structural   K2Fe2F7
_chemical_formula_sum   'K4 Fe4 F14'
_cell_volume   340.77311101
_cell_formula_units_Z   2
loop_
 _symmetry_equiv_pos_site_id
 _symmetry_equiv_pos_as_xyz
  1  'x, y, z'
loop_
 _atom_site_type_symbol
 _atom_site_label
 _atom_site_symmetry_multiplicity
 _atom_site_fract_x
 _atom_site_fract_y
 _atom_site_fract_z
 _atom_site_occupancy
  K  K0  1  0.111598  0.248968  0.862642  1
  K  K1  1  0.613676  0.751043  0.862633  1
  K  K2  1  0.612025  0.250539  0.862549  1
  K  K3  1  0.612017  0.749471  0.361489  1
  Fe  Fe4  1  0.611987  0.249674  0.362318  1
  Fe  Fe5  1  0.112642  0.750315  0.362318  1
  Fe  Fe6  1  0.112380  0.250061  0.362481  1
  Fe  Fe7  1  0.112372  0.749895  0.862288  1
  F  F8  1  0.487862  0.335142  0.152683  1
  F  F9  1  0.817475  0.664841  0.152670  1
  F  F10  1  0.797924  0.550457  0.618176  1
  F  F11  1  0.067750  0.449606  0.247526  1
  F  F12  1  0.067748  0.820161  0.618351  1
  F  F13  1  0.798212  0.179841  0.247564  1
  F  F14  1  0.426290  0.320620  0.477318  1
  F  F15  1  0.156679  0.679397  0.105697  1
  F  F16  1  0.156680  0.050767  0.477359  1
  F  F17  1  0.426572  0.949156  0.105857  1
  F  F18  1  0.007712  0.999908  0.007800  1
  F  F19  1  0.735567  0.164131  0.571472  1
  F  F20  1  0.407420  0.835905  0.571492  1
  F  F21  1  0.216913  0.500102  0.716815  1
