# generated using pymatgen
data_Tb2Th2BeSi5
_symmetry_space_group_name_H-M   'P 1'
_cell_length_a   3.91192400
_cell_length_b   4.30978134
_cell_length_c   12.35342003
_cell_angle_alpha   100.04589243
_cell_angle_beta   90.00000000
_cell_angle_gamma   90.00000000
_symmetry_Int_Tables_number   1
_chemical_formula_structural   Tb2Th2BeSi5
_chemical_formula_sum   'Tb2 Th2 Be1 Si5'
_cell_volume   205.07977500
_cell_formula_units_Z   1
loop_
 _symmetry_equiv_pos_site_id
 _symmetry_equiv_pos_as_xyz
  1  'x, y, z'
loop_
 _atom_site_type_symbol
 _atom_site_label
 _atom_site_symmetry_multiplicity
 _atom_site_fract_x
 _atom_site_fract_y
 _atom_site_fract_z
 _atom_site_occupancy
  Tb  Tb0  1  0.750000  0.701219  0.402440  1
  Tb  Tb1  1  0.250000  0.298518  0.597034  1
  Th  Th2  1  0.750000  0.430687  0.861373  1
  Th  Th3  1  0.250000  0.570182  0.140364  1
  Be  Be4  1  0.750000  0.023493  0.046985  1
  Si  Si5  1  0.250000  0.980403  0.960806  1
  Si  Si6  1  0.750000  0.114394  0.228788  1
  Si  Si7  1  0.250000  0.882858  0.765716  1
  Si  Si8  1  0.750000  0.822758  0.645516  1
  Si  Si9  1  0.250000  0.175489  0.350977  1
