# generated using pymatgen
data_BaV3AgO9
_symmetry_space_group_name_H-M   'P 1'
_cell_length_a   7.89986507
_cell_length_b   7.89708091
_cell_length_c   8.09189946
_cell_angle_alpha   81.83430625
_cell_angle_beta   80.94382041
_cell_angle_gamma   81.13713770
_symmetry_Int_Tables_number   1
_chemical_formula_structural   BaV3AgO9
_chemical_formula_sum   'Ba2 V6 Ag2 O18'
_cell_volume   488.97292309
_cell_formula_units_Z   2
loop_
 _symmetry_equiv_pos_site_id
 _symmetry_equiv_pos_as_xyz
  1  'x, y, z'
loop_
 _atom_site_type_symbol
 _atom_site_label
 _atom_site_symmetry_multiplicity
 _atom_site_fract_x
 _atom_site_fract_y
 _atom_site_fract_z
 _atom_site_occupancy
  Ba  Ba0  1  0.016179  0.728535  0.649453  1
  Ba  Ba1  1  0.983821  0.271465  0.350547  1
  V  V2  1  0.852256  0.792754  0.257209  1
  V  V3  1  0.147744  0.207246  0.742791  1
  V  V4  1  0.782585  0.340497  0.948883  1
  V  V5  1  0.217415  0.659503  0.051117  1
  V  V6  1  0.595323  0.109890  0.717865  1
  V  V7  1  0.404677  0.890110  0.282135  1
  Ag  Ag8  1  0.457494  0.346581  0.342942  1
  Ag  Ag9  1  0.542506  0.653419  0.657058  1
  O  O10  1  0.048828  0.069081  0.662775  1
  O  O11  1  0.951172  0.930919  0.337225  1
  O  O12  1  0.363511  0.115965  0.774169  1
  O  O13  1  0.636489  0.884035  0.225831  1
  O  O14  1  0.149759  0.382337  0.596241  1
  O  O15  1  0.850241  0.617663  0.403759  1
  O  O16  1  0.014624  0.267012  0.938060  1
  O  O17  1  0.985376  0.732988  0.061940  1
  O  O18  1  0.716232  0.374597  0.151635  1
  O  O19  1  0.283768  0.625403  0.848365  1
  O  O20  1  0.753790  0.522678  0.812309  1
  O  O21  1  0.246210  0.477322  0.187691  1
  O  O22  1  0.678212  0.173807  0.892923  1
  O  O23  1  0.321788  0.826193  0.107077  1
  O  O24  1  0.639156  0.250238  0.541833  1
  O  O25  1  0.360844  0.749762  0.458167  1
  O  O26  1  0.684781  0.908629  0.682152  1
  O  O27  1  0.315219  0.091371  0.317848  1
