# generated using pymatgen
data_EuY(NiB4)2
_symmetry_space_group_name_H-M   'P 1'
_cell_length_a   6.87270179
_cell_length_b   6.87269825
_cell_length_c   6.87270285
_cell_angle_alpha   112.91769013
_cell_angle_beta   112.85337540
_cell_angle_gamma   102.83931792
_symmetry_Int_Tables_number   1
_chemical_formula_structural   EuY(NiB4)2
_chemical_formula_sum   'Eu2 Y2 Ni4 B16'
_cell_volume   247.42564957
_cell_formula_units_Z   2
loop_
 _symmetry_equiv_pos_site_id
 _symmetry_equiv_pos_as_xyz
  1  'x, y, z'
loop_
 _atom_site_type_symbol
 _atom_site_label
 _atom_site_symmetry_multiplicity
 _atom_site_fract_x
 _atom_site_fract_y
 _atom_site_fract_z
 _atom_site_occupancy
  Eu  Eu0  1  0.799789  0.799787  0.999998  1
  Eu  Eu1  1  0.200211  0.200213  0.000002  1
  Y  Y2  1  0.750099  0.250098  0.499998  1
  Y  Y3  1  0.249901  0.749902  0.500002  1
  Ni  Ni4  1  0.271900  0.500000  0.771900  1
  Ni  Ni5  1  0.728100  0.500000  0.228100  1
  Ni  Ni6  1  0.499996  0.728093  0.228097  1
  Ni  Ni7  1  0.500004  0.271907  0.771903  1
  B  B8  1  0.276660  0.112380  0.389042  1
  B  B9  1  0.723340  0.887620  0.610958  1
  B  B10  1  0.276660  0.887620  0.164280  1
  B  B11  1  0.723340  0.112380  0.835720  1
  B  B12  1  0.112369  0.723326  0.835696  1
  B  B13  1  0.887631  0.276674  0.164304  1
  B  B14  1  0.112370  0.276674  0.389044  1
  B  B15  1  0.887630  0.723326  0.610956  1
  B  B16  1  0.113352  0.113353  0.530714  1
  B  B17  1  0.582639  0.582638  0.469286  1
  B  B18  1  0.113352  0.582638  0.999999  1
  B  B19  1  0.582639  0.113353  0.000001  1
  B  B20  1  0.886648  0.886647  0.469286  1
  B  B21  1  0.417361  0.417362  0.530714  1
  B  B22  1  0.886648  0.417362  0.000001  1
  B  B23  1  0.417361  0.886647  0.999999  1
