# generated using pymatgen
data_La2NpTa8O24
_symmetry_space_group_name_H-M   'P 1'
_cell_length_a   8.85841935
_cell_length_b   8.85841997
_cell_length_c   8.91930338
_cell_angle_alpha   66.57536664
_cell_angle_beta   66.57536365
_cell_angle_gamma   53.04094314
_symmetry_Int_Tables_number   1
_chemical_formula_structural   La2NpTa8O24
_chemical_formula_sum   'La2 Np1 Ta8 O24'
_cell_volume   501.04445966
_cell_formula_units_Z   1
loop_
 _symmetry_equiv_pos_site_id
 _symmetry_equiv_pos_as_xyz
  1  'x, y, z'
loop_
 _atom_site_type_symbol
 _atom_site_label
 _atom_site_symmetry_multiplicity
 _atom_site_fract_x
 _atom_site_fract_y
 _atom_site_fract_z
 _atom_site_occupancy
  La  La0  1  0.498932  0.498932  0.000058  1
  La  La1  1  0.749188  0.749188  0.999895  1
  Np  Np2  1  0.251994  0.251994  0.000150  1
  Ta  Ta3  1  0.305307  0.812757  0.258278  1
  Ta  Ta4  1  0.812757  0.305307  0.258278  1
  Ta  Ta5  1  0.434288  0.942065  0.741751  1
  Ta  Ta6  1  0.942065  0.434288  0.741751  1
  Ta  Ta7  1  0.564817  0.058402  0.259486  1
  Ta  Ta8  1  0.058402  0.564817  0.259486  1
  Ta  Ta9  1  0.694458  0.188293  0.740475  1
  Ta  Ta10  1  0.188293  0.694458  0.740475  1
  O  O11  1  0.072939  0.072939  0.229939  1
  O  O12  1  0.571104  0.571104  0.226058  1
  O  O13  1  0.390524  0.870629  0.999998  1
  O  O14  1  0.749355  0.250777  0.499790  1
  O  O15  1  0.870629  0.390524  0.999998  1
  O  O16  1  0.250777  0.749355  0.499790  1
  O  O17  1  0.322346  0.794618  0.765753  1
  O  O18  1  0.794618  0.322346  0.765753  1
  O  O19  1  0.945042  0.441344  0.227688  1
  O  O20  1  0.441344  0.945042  0.227688  1
  O  O21  1  0.812576  0.812576  0.230777  1
  O  O22  1  0.187766  0.187766  0.770479  1
  O  O23  1  0.684143  0.684143  0.773733  1
  O  O24  1  0.499574  0.000322  0.500216  1
  O  O25  1  0.315591  0.315591  0.224653  1
  O  O26  1  0.605826  0.132435  0.999990  1
  O  O27  1  0.000322  0.499574  0.500216  1
  O  O28  1  0.132435  0.605826  0.999990  1
  O  O29  1  0.058472  0.555588  0.772279  1
  O  O30  1  0.555588  0.058472  0.772279  1
  O  O31  1  0.677554  0.205177  0.234220  1
  O  O32  1  0.205177  0.677554  0.234220  1
  O  O33  1  0.427812  0.427812  0.775523  1
  O  O34  1  0.927983  0.927983  0.768885  1
