# generated using pymatgen
data_Sm4Si3Ir4
_symmetry_space_group_name_H-M   'P 1'
_cell_length_a   10.76716469
_cell_length_b   10.76716578
_cell_length_c   7.82704720
_cell_angle_alpha   72.10046274
_cell_angle_beta   72.10045900
_cell_angle_gamma   30.60644564
_symmetry_Int_Tables_number   1
_chemical_formula_structural   Sm4Si3Ir4
_chemical_formula_sum   'Sm8 Si6 Ir8'
_cell_volume   437.91188537
_cell_formula_units_Z   2
loop_
 _symmetry_equiv_pos_site_id
 _symmetry_equiv_pos_as_xyz
  1  'x, y, z'
loop_
 _atom_site_type_symbol
 _atom_site_label
 _atom_site_symmetry_multiplicity
 _atom_site_fract_x
 _atom_site_fract_y
 _atom_site_fract_z
 _atom_site_occupancy
  Sm  Sm0  1  0.212360  0.447250  0.400331  1
  Sm  Sm1  1  0.447250  0.212360  0.900331  1
  Sm  Sm2  1  0.552750  0.787640  0.099669  1
  Sm  Sm3  1  0.790920  0.070415  0.171200  1
  Sm  Sm4  1  0.070415  0.790920  0.671200  1
  Sm  Sm5  1  0.209080  0.929585  0.828800  1
  Sm  Sm6  1  0.929585  0.209080  0.328800  1
  Sm  Sm7  1  0.787640  0.552750  0.599669  1
  Si  Si8  1  0.956126  0.695199  0.063919  1
  Si  Si9  1  0.043874  0.304801  0.936081  1
  Si  Si10  1  0.304801  0.043874  0.436081  1
  Si  Si11  1  0.603176  0.396824  0.750000  1
  Si  Si12  1  0.695199  0.956126  0.563919  1
  Si  Si13  1  0.396824  0.603176  0.250000  1
  Ir  Ir14  1  0.288651  0.589324  0.027157  1
  Ir  Ir15  1  0.361923  0.076315  0.687237  1
  Ir  Ir16  1  0.589324  0.288651  0.527157  1
  Ir  Ir17  1  0.711349  0.410676  0.972843  1
  Ir  Ir18  1  0.076315  0.361923  0.187237  1
  Ir  Ir19  1  0.923685  0.638077  0.812763  1
  Ir  Ir20  1  0.638077  0.923685  0.312763  1
  Ir  Ir21  1  0.410676  0.711349  0.472843  1
