# generated using pymatgen
data_Rb4MnCdBr8
_symmetry_space_group_name_H-M   'P 1'
_cell_length_a   7.86923300
_cell_length_b   7.83745544
_cell_length_c   9.68979723
_cell_angle_alpha   71.49872047
_cell_angle_beta   90.00000000
_cell_angle_gamma   90.00000000
_symmetry_Int_Tables_number   1
_chemical_formula_structural   Rb4MnCdBr8
_chemical_formula_sum   'Rb4 Mn1 Cd1 Br8'
_cell_volume   566.72910459
_cell_formula_units_Z   1
loop_
 _symmetry_equiv_pos_site_id
 _symmetry_equiv_pos_as_xyz
  1  'x, y, z'
loop_
 _atom_site_type_symbol
 _atom_site_label
 _atom_site_symmetry_multiplicity
 _atom_site_fract_x
 _atom_site_fract_y
 _atom_site_fract_z
 _atom_site_occupancy
  Rb  Rb0  1  0.750000  0.784193  0.549542  1
  Rb  Rb1  1  0.250000  0.215203  0.448399  1
  Rb  Rb2  1  0.750000  0.741468  0.067599  1
  Rb  Rb3  1  0.250000  0.266544  0.932610  1
  Mn  Mn4  1  0.250000  0.775007  0.300319  1
  Cd  Cd5  1  0.750000  0.225873  0.699987  1
  Br  Br6  1  0.750000  0.404289  0.421250  1
  Br  Br7  1  0.250000  0.601989  0.565359  1
  Br  Br8  1  0.005113  0.991030  0.241500  1
  Br  Br9  1  0.005626  0.996417  0.761741  1
  Br  Br10  1  0.494374  0.996417  0.761741  1
  Br  Br11  1  0.494887  0.991030  0.241500  1
  Br  Br12  1  0.750000  0.424439  0.872090  1
  Br  Br13  1  0.250000  0.586102  0.136364  1
