# generated using pymatgen
data_Dy16MgHg3Pd4
_symmetry_space_group_name_H-M   'P 1'
_cell_length_a   9.69600475
_cell_length_b   9.68759412
_cell_length_c   9.68759500
_cell_angle_alpha   60.00000042
_cell_angle_beta   60.02869070
_cell_angle_gamma   60.02869356
_symmetry_Int_Tables_number   1
_chemical_formula_structural   Dy16MgHg3Pd4
_chemical_formula_sum   'Dy16 Mg1 Hg3 Pd4'
_cell_volume   643.72139224
_cell_formula_units_Z   1
loop_
 _symmetry_equiv_pos_site_id
 _symmetry_equiv_pos_as_xyz
  1  'x, y, z'
loop_
 _atom_site_type_symbol
 _atom_site_label
 _atom_site_symmetry_multiplicity
 _atom_site_fract_x
 _atom_site_fract_y
 _atom_site_fract_z
 _atom_site_occupancy
  Dy  Dy0  1  0.067643  0.433369  0.433369  1
  Dy  Dy1  1  0.645138  0.058893  0.647985  1
  Dy  Dy2  1  0.813354  0.810920  0.187864  1
  Dy  Dy3  1  0.434906  0.065626  0.065626  1
  Dy  Dy4  1  0.434906  0.433844  0.065626  1
  Dy  Dy5  1  0.191802  0.190016  0.809090  1
  Dy  Dy6  1  0.813354  0.187864  0.187864  1
  Dy  Dy7  1  0.067643  0.433369  0.065621  1
  Dy  Dy8  1  0.434906  0.065626  0.433844  1
  Dy  Dy9  1  0.069208  0.643598  0.643598  1
  Dy  Dy10  1  0.191802  0.809090  0.809090  1
  Dy  Dy11  1  0.645138  0.647985  0.058893  1
  Dy  Dy12  1  0.191802  0.809090  0.190016  1
  Dy  Dy13  1  0.067643  0.065621  0.433369  1
  Dy  Dy14  1  0.813354  0.187864  0.810920  1
  Dy  Dy15  1  0.645138  0.647985  0.647985  1
  Mg  Mg16  1  0.717937  0.427354  0.427354  1
  Hg  Hg17  1  0.416194  0.411526  0.760753  1
  Hg  Hg18  1  0.416194  0.411526  0.411526  1
  Hg  Hg19  1  0.416194  0.760753  0.411526  1
  Pd  Pd20  1  0.857819  0.433529  0.854326  1
  Pd  Pd21  1  0.432290  0.855903  0.855903  1
  Pd  Pd22  1  0.857819  0.854326  0.433529  1
  Pd  Pd23  1  0.857819  0.854326  0.854326  1
