# generated using pymatgen
data_PrHo3IrRh3O14
_symmetry_space_group_name_H-M   'P 1'
_cell_length_a   7.29818542
_cell_length_b   7.23176032
_cell_length_c   7.23176000
_cell_angle_alpha   60.00000146
_cell_angle_beta   60.30062572
_cell_angle_gamma   60.30062226
_symmetry_Int_Tables_number   1
_chemical_formula_structural   PrHo3IrRh3O14
_chemical_formula_sum   'Pr1 Ho3 Ir1 Rh3 O14'
_cell_volume   271.11057590
_cell_formula_units_Z   1
loop_
 _symmetry_equiv_pos_site_id
 _symmetry_equiv_pos_as_xyz
  1  'x, y, z'
loop_
 _atom_site_type_symbol
 _atom_site_label
 _atom_site_symmetry_multiplicity
 _atom_site_fract_x
 _atom_site_fract_y
 _atom_site_fract_z
 _atom_site_occupancy
  Pr  Pr0  1  0.625000  0.125000  0.125000  1
  Ho  Ho1  1  0.125000  0.125000  0.625000  1
  Ho  Ho2  1  0.125000  0.125000  0.125000  1
  Ho  Ho3  1  0.125000  0.625000  0.125000  1
  Ir  Ir4  1  0.125000  0.625000  0.625000  1
  Rh  Rh5  1  0.625000  0.625000  0.625000  1
  Rh  Rh6  1  0.625000  0.125000  0.625000  1
  Rh  Rh7  1  0.625000  0.625000  0.125000  1
  O  O8  1  0.963754  0.539191  0.539191  1
  O  O9  1  0.286246  0.292135  0.710809  1
  O  O10  1  0.963754  0.539191  0.957865  1
  O  O11  1  0.722055  0.288619  0.288619  1
  O  O12  1  0.527945  0.549294  0.961381  1
  O  O13  1  0.527945  0.961381  0.549294  1
  O  O14  1  0.527945  0.961381  0.961381  1
  O  O15  1  0.235930  0.254690  0.254690  1
  O  O16  1  0.286246  0.710809  0.710809  1
  O  O17  1  0.722055  0.288619  0.700706  1
  O  O18  1  0.014070  0.995310  0.995310  1
  O  O19  1  0.963754  0.957865  0.539191  1
  O  O20  1  0.286246  0.710809  0.292135  1
  O  O21  1  0.722055  0.700706  0.288619  1
