# generated using pymatgen
data_Nd2(TmAu2)5
_symmetry_space_group_name_H-M   'P 1'
_cell_length_a   8.74014951
_cell_length_b   8.74014858
_cell_length_c   10.39582500
_cell_angle_alpha   90.00000000
_cell_angle_beta   90.00000000
_cell_angle_gamma   107.14313822
_symmetry_Int_Tables_number   1
_chemical_formula_structural   Nd2(TmAu2)5
_chemical_formula_sum   'Nd4 Tm10 Au20'
_cell_volume   758.85668175
_cell_formula_units_Z   2
loop_
 _symmetry_equiv_pos_site_id
 _symmetry_equiv_pos_as_xyz
  1  'x, y, z'
loop_
 _atom_site_type_symbol
 _atom_site_label
 _atom_site_symmetry_multiplicity
 _atom_site_fract_x
 _atom_site_fract_y
 _atom_site_fract_z
 _atom_site_occupancy
  Nd  Nd0  1  0.309767  0.309767  0.192338  1
  Nd  Nd1  1  0.690233  0.690233  0.807662  1
  Nd  Nd2  1  0.190233  0.190233  0.692338  1
  Nd  Nd3  1  0.809767  0.809767  0.307662  1
  Tm  Tm4  1  0.694739  0.305261  0.000000  1
  Tm  Tm5  1  0.305261  0.694739  0.000000  1
  Tm  Tm6  1  0.805261  0.194739  0.500000  1
  Tm  Tm7  1  0.194739  0.805261  0.500000  1
  Tm  Tm8  1  0.000000  0.000000  0.000000  1
  Tm  Tm9  1  0.500000  0.500000  0.500000  1
  Tm  Tm10  1  0.003705  0.503705  0.250000  1
  Tm  Tm11  1  0.996295  0.496295  0.750000  1
  Tm  Tm12  1  0.496295  0.996295  0.750000  1
  Tm  Tm13  1  0.503705  0.003705  0.250000  1
  Au  Au14  1  0.860711  0.155112  0.207755  1
  Au  Au15  1  0.139289  0.844888  0.792245  1
  Au  Au16  1  0.639289  0.344888  0.707755  1
  Au  Au17  1  0.655112  0.360711  0.292245  1
  Au  Au18  1  0.360711  0.655112  0.292245  1
  Au  Au19  1  0.344888  0.639289  0.707755  1
  Au  Au20  1  0.844888  0.139289  0.792245  1
  Au  Au21  1  0.155112  0.860711  0.207755  1
  Au  Au22  1  0.941083  0.644472  0.005741  1
  Au  Au23  1  0.058917  0.355528  0.994259  1
  Au  Au24  1  0.558917  0.855528  0.505741  1
  Au  Au25  1  0.144472  0.441083  0.494259  1
  Au  Au26  1  0.441083  0.144472  0.494259  1
  Au  Au27  1  0.855528  0.558917  0.505741  1
  Au  Au28  1  0.355528  0.058917  0.994259  1
  Au  Au29  1  0.644472  0.941083  0.005741  1
  Au  Au30  1  0.102166  0.102166  0.400696  1
  Au  Au31  1  0.897834  0.897834  0.599304  1
  Au  Au32  1  0.397834  0.397834  0.900696  1
  Au  Au33  1  0.602166  0.602166  0.099304  1
