# generated using pymatgen
data_Sc5GaSiSb
_symmetry_space_group_name_H-M   'P 1'
_cell_length_a   8.12277001
_cell_length_b   8.12142439
_cell_length_c   5.96106900
_cell_angle_alpha   90.00000000
_cell_angle_beta   90.00000000
_cell_angle_gamma   119.99451467
_symmetry_Int_Tables_number   1
_chemical_formula_structural   Sc5GaSiSb
_chemical_formula_sum   'Sc10 Ga2 Si2 Sb2'
_cell_volume   340.57686599
_cell_formula_units_Z   2
loop_
 _symmetry_equiv_pos_site_id
 _symmetry_equiv_pos_as_xyz
  1  'x, y, z'
loop_
 _atom_site_type_symbol
 _atom_site_label
 _atom_site_symmetry_multiplicity
 _atom_site_fract_x
 _atom_site_fract_y
 _atom_site_fract_z
 _atom_site_occupancy
  Sc  Sc0  1  0.313839  0.656919  0.000000  1
  Sc  Sc1  1  0.674257  0.337128  0.500000  1
  Sc  Sc2  1  0.674257  0.337128  0.000000  1
  Sc  Sc3  1  0.313839  0.656919  0.500000  1
  Sc  Sc4  1  0.230781  0.998158  0.250000  1
  Sc  Sc5  1  0.230781  0.232624  0.750000  1
  Sc  Sc6  1  0.012555  0.761649  0.750000  1
  Sc  Sc7  1  0.012555  0.250906  0.250000  1
  Sc  Sc8  1  0.767794  0.752580  0.250000  1
  Sc  Sc9  1  0.767794  0.015216  0.750000  1
  Ga  Ga10  1  0.398282  0.396347  0.250000  1
  Ga  Ga11  1  0.398282  0.001933  0.750000  1
  Si  Si12  1  0.997421  0.394821  0.750000  1
  Si  Si13  1  0.997421  0.602599  0.250000  1
  Sb  Sb14  1  0.605070  0.995082  0.250000  1
  Sb  Sb15  1  0.605070  0.609988  0.750000  1
