# generated using pymatgen
data_Ce2CrWC3
_symmetry_space_group_name_H-M   'P 1'
_cell_length_a   6.26266058
_cell_length_b   6.26266100
_cell_length_c   5.68650660
_cell_angle_alpha   64.27324460
_cell_angle_beta   64.27324412
_cell_angle_gamma   30.52244846
_symmetry_Int_Tables_number   1
_chemical_formula_structural   Ce2CrWC3
_chemical_formula_sum   'Ce2 Cr1 W1 C3'
_cell_volume   101.15778502
_cell_formula_units_Z   1
loop_
 _symmetry_equiv_pos_site_id
 _symmetry_equiv_pos_as_xyz
  1  'x, y, z'
loop_
 _atom_site_type_symbol
 _atom_site_label
 _atom_site_symmetry_multiplicity
 _atom_site_fract_x
 _atom_site_fract_y
 _atom_site_fract_z
 _atom_site_occupancy
  Ce  Ce0  1  0.398716  0.398716  0.792889  1
  Ce  Ce1  1  0.601623  0.601623  0.198254  1
  Cr  Cr2  1  0.161822  0.161822  0.682482  1
  W  W3  1  0.840031  0.840031  0.326184  1
  C  C4  1  0.005815  0.005815  0.986614  1
  C  C5  1  0.247015  0.247015  0.273625  1
  C  C6  1  0.744978  0.744978  0.739953  1
