# generated using pymatgen
data_Ba5Al4ZnPb
_symmetry_space_group_name_H-M   'P 1'
_cell_length_a   6.16844700
_cell_length_b   6.16844779
_cell_length_c   11.05907000
_cell_angle_alpha   90.00000000
_cell_angle_beta   90.00000000
_cell_angle_gamma   119.99999042
_symmetry_Int_Tables_number   1
_chemical_formula_structural   Ba5Al4ZnPb
_chemical_formula_sum   'Ba5 Al4 Zn1 Pb1'
_cell_volume   364.41899920
_cell_formula_units_Z   1
loop_
 _symmetry_equiv_pos_site_id
 _symmetry_equiv_pos_as_xyz
  1  'x, y, z'
loop_
 _atom_site_type_symbol
 _atom_site_label
 _atom_site_symmetry_multiplicity
 _atom_site_fract_x
 _atom_site_fract_y
 _atom_site_fract_z
 _atom_site_occupancy
  Ba  Ba0  1  0.666667  0.333333  0.204164  1
  Ba  Ba1  1  0.666667  0.333333  0.799773  1
  Ba  Ba2  1  0.000000  0.000000  0.330449  1
  Ba  Ba3  1  0.000000  0.000000  0.665727  1
  Ba  Ba4  1  0.333333  0.666667  0.001451  1
  Al  Al5  1  0.514714  0.029428  0.498599  1
  Al  Al6  1  0.514714  0.485286  0.498599  1
  Al  Al7  1  0.333333  0.666667  0.670762  1
  Al  Al8  1  0.970572  0.485286  0.498599  1
  Zn  Zn9  1  0.333333  0.666667  0.331559  1
  Pb  Pb10  1  0.000000  0.000000  0.000320  1
