# generated using pymatgen
data_Zr5Al(B2Ru5)2
_symmetry_space_group_name_H-M   'P 1'
_cell_length_a   3.11958000
_cell_length_b   9.48889800
_cell_length_c   9.48889800
_cell_angle_alpha   90.00000000
_cell_angle_beta   90.00000000
_cell_angle_gamma   90.00000000
_symmetry_Int_Tables_number   1
_chemical_formula_structural   Zr5Al(B2Ru5)2
_chemical_formula_sum   'Zr5 Al1 B4 Ru10'
_cell_volume   280.88444154
_cell_formula_units_Z   1
loop_
 _symmetry_equiv_pos_site_id
 _symmetry_equiv_pos_as_xyz
  1  'x, y, z'
loop_
 _atom_site_type_symbol
 _atom_site_label
 _atom_site_symmetry_multiplicity
 _atom_site_fract_x
 _atom_site_fract_y
 _atom_site_fract_z
 _atom_site_occupancy
  Zr  Zr0  1  0.000000  0.672687  0.822164  1
  Zr  Zr1  1  0.000000  0.327313  0.177836  1
  Zr  Zr2  1  0.000000  0.822164  0.327313  1
  Zr  Zr3  1  0.000000  0.177836  0.672687  1
  Zr  Zr4  1  0.000000  0.000000  0.000000  1
  Al  Al5  1  0.000000  0.500000  0.500000  1
  B  B6  1  0.000000  0.873338  0.619172  1
  B  B7  1  0.000000  0.126662  0.380828  1
  B  B8  1  0.000000  0.619172  0.126662  1
  B  B9  1  0.000000  0.380828  0.873338  1
  Ru  Ru10  1  0.500000  0.714017  0.566857  1
  Ru  Ru11  1  0.500000  0.285983  0.433143  1
  Ru  Ru12  1  0.500000  0.777078  0.076261  1
  Ru  Ru13  1  0.500000  0.222922  0.923739  1
  Ru  Ru14  1  0.500000  0.566857  0.285983  1
  Ru  Ru15  1  0.500000  0.433143  0.714017  1
  Ru  Ru16  1  0.500000  0.076261  0.222922  1
  Ru  Ru17  1  0.500000  0.923739  0.777078  1
  Ru  Ru18  1  0.500000  0.000000  0.500000  1
  Ru  Ru19  1  0.500000  0.500000  0.000000  1
