# generated using pymatgen
data_Zr5Hg4PdRh
_symmetry_space_group_name_H-M   'P 1'
_cell_length_a   3.37708700
_cell_length_b   7.61847279
_cell_length_c   17.67154783
_cell_angle_alpha   89.94790770
_cell_angle_beta   90.00000000
_cell_angle_gamma   90.00000000
_symmetry_Int_Tables_number   1
_chemical_formula_structural   Zr5Hg4PdRh
_chemical_formula_sum   'Zr10 Hg8 Pd2 Rh2'
_cell_volume   454.65773132
_cell_formula_units_Z   2
loop_
 _symmetry_equiv_pos_site_id
 _symmetry_equiv_pos_as_xyz
  1  'x, y, z'
loop_
 _atom_site_type_symbol
 _atom_site_label
 _atom_site_symmetry_multiplicity
 _atom_site_fract_x
 _atom_site_fract_y
 _atom_site_fract_z
 _atom_site_occupancy
  Zr  Zr0  1  0.000000  0.135109  0.919453  1
  Zr  Zr1  1  0.000000  0.767380  0.782416  1
  Zr  Zr2  1  0.000000  0.635965  0.577254  1
  Zr  Zr3  1  0.000000  0.251172  0.720139  1
  Zr  Zr4  1  0.000000  0.364035  0.422746  1
  Zr  Zr5  1  0.000000  0.232620  0.217584  1
  Zr  Zr6  1  0.000000  0.000000  0.500000  1
  Zr  Zr7  1  0.000000  0.748828  0.279861  1
  Zr  Zr8  1  0.000000  0.500000  0.000000  1
  Zr  Zr9  1  0.000000  0.864891  0.080547  1
  Hg  Hg10  1  0.500000  0.798646  0.933991  1
  Hg  Hg11  1  0.500000  0.561909  0.148896  1
  Hg  Hg12  1  0.500000  0.438091  0.851104  1
  Hg  Hg13  1  0.500000  0.064114  0.351887  1
  Hg  Hg14  1  0.500000  0.298771  0.568382  1
  Hg  Hg15  1  0.500000  0.935886  0.648113  1
  Hg  Hg16  1  0.500000  0.701229  0.431618  1
  Hg  Hg17  1  0.500000  0.201354  0.066009  1
  Pd  Pd18  1  0.500000  0.548273  0.694424  1
  Pd  Pd19  1  0.500000  0.451727  0.305576  1
  Rh  Rh20  1  0.500000  0.047336  0.806501  1
  Rh  Rh21  1  0.500000  0.952664  0.193499  1
