# generated using pymatgen
data_NdCrH9
_symmetry_space_group_name_H-M   'P 1'
_cell_length_a   4.63542851
_cell_length_b   4.63542775
_cell_length_c   8.55080000
_cell_angle_alpha   90.00000000
_cell_angle_beta   90.00000000
_cell_angle_gamma   119.64856101
_symmetry_Int_Tables_number   1
_chemical_formula_structural   NdCrH9
_chemical_formula_sum   'Nd2 Cr2 H18'
_cell_volume   159.67767392
_cell_formula_units_Z   2
loop_
 _symmetry_equiv_pos_site_id
 _symmetry_equiv_pos_as_xyz
  1  'x, y, z'
loop_
 _atom_site_type_symbol
 _atom_site_label
 _atom_site_symmetry_multiplicity
 _atom_site_fract_x
 _atom_site_fract_y
 _atom_site_fract_z
 _atom_site_occupancy
  Nd  Nd0  1  0.000000  0.000000  0.500000  1
  Nd  Nd1  1  0.000000  0.000000  0.000000  1
  Cr  Cr2  1  0.336322  0.663678  0.750000  1
  Cr  Cr3  1  0.663678  0.336322  0.250000  1
  H  H4  1  0.471680  0.528320  0.608632  1
  H  H5  1  0.528320  0.471680  0.391368  1
  H  H6  1  0.471680  0.528320  0.891368  1
  H  H7  1  0.528320  0.471680  0.108632  1
  H  H8  1  0.486328  0.962463  0.878760  1
  H  H9  1  0.962463  0.486328  0.121240  1
  H  H10  1  0.486328  0.962463  0.621240  1
  H  H11  1  0.962463  0.486328  0.378760  1
  H  H12  1  0.513672  0.037537  0.121240  1
  H  H13  1  0.037537  0.513672  0.878760  1
  H  H14  1  0.513672  0.037537  0.378760  1
  H  H15  1  0.037537  0.513672  0.621240  1
  H  H16  1  0.727936  0.829727  0.750000  1
  H  H17  1  0.829727  0.727936  0.250000  1
  H  H18  1  0.272064  0.170273  0.250000  1
  H  H19  1  0.170273  0.272064  0.750000  1
  H  H20  1  0.140817  0.859183  0.750000  1
  H  H21  1  0.859183  0.140817  0.250000  1
