# generated using pymatgen
data_Nd(HoS2)2
_symmetry_space_group_name_H-M   'P 1'
_cell_length_a   3.87758500
_cell_length_b   13.01658800
_cell_length_c   13.05839300
_cell_angle_alpha   90.00000000
_cell_angle_beta   90.00000000
_cell_angle_gamma   90.00000000
_symmetry_Int_Tables_number   1
_chemical_formula_structural   Nd(HoS2)2
_chemical_formula_sum   'Nd4 Ho8 S16'
_cell_volume   659.09530853
_cell_formula_units_Z   4
loop_
 _symmetry_equiv_pos_site_id
 _symmetry_equiv_pos_as_xyz
  1  'x, y, z'
loop_
 _atom_site_type_symbol
 _atom_site_label
 _atom_site_symmetry_multiplicity
 _atom_site_fract_x
 _atom_site_fract_y
 _atom_site_fract_z
 _atom_site_occupancy
  Nd  Nd0  1  0.250000  0.368479  0.586300  1
  Nd  Nd1  1  0.250000  0.868479  0.913700  1
  Nd  Nd2  1  0.750000  0.631521  0.413700  1
  Nd  Nd3  1  0.750000  0.131521  0.086300  1
  Ho  Ho4  1  0.250000  0.109861  0.422757  1
  Ho  Ho5  1  0.250000  0.609861  0.077243  1
  Ho  Ho6  1  0.750000  0.890139  0.577243  1
  Ho  Ho7  1  0.750000  0.390139  0.922757  1
  Ho  Ho8  1  0.250000  0.147310  0.795636  1
  Ho  Ho9  1  0.250000  0.647310  0.704364  1
  Ho  Ho10  1  0.750000  0.852690  0.204364  1
  Ho  Ho11  1  0.750000  0.352690  0.295636  1
  S  S12  1  0.250000  0.215362  0.235931  1
  S  S13  1  0.250000  0.715362  0.264069  1
  S  S14  1  0.750000  0.784638  0.764068  1
  S  S15  1  0.750000  0.284638  0.735932  1
  S  S16  1  0.250000  0.254275  0.975282  1
  S  S17  1  0.250000  0.754275  0.524718  1
  S  S18  1  0.750000  0.745725  0.024718  1
  S  S19  1  0.750000  0.245725  0.475282  1
  S  S20  1  0.250000  0.468760  0.383901  1
  S  S21  1  0.250000  0.968760  0.116099  1
  S  S22  1  0.750000  0.531240  0.616099  1
  S  S23  1  0.750000  0.031240  0.883901  1
  S  S24  1  0.250000  0.030933  0.620711  1
  S  S25  1  0.250000  0.530933  0.879289  1
  S  S26  1  0.750000  0.969067  0.379289  1
  S  S27  1  0.750000  0.469067  0.120711  1
