# generated using pymatgen
data_Ta8V2Ge6C
_symmetry_space_group_name_H-M   'P 1'
_cell_length_a   7.61479400
_cell_length_b   7.61479396
_cell_length_c   5.20224100
_cell_angle_alpha   90.00000000
_cell_angle_beta   90.00000000
_cell_angle_gamma   120.00000018
_symmetry_Int_Tables_number   1
_chemical_formula_structural   Ta8V2Ge6C
_chemical_formula_sum   'Ta8 V2 Ge6 C1'
_cell_volume   261.23863996
_cell_formula_units_Z   1
loop_
 _symmetry_equiv_pos_site_id
 _symmetry_equiv_pos_as_xyz
  1  'x, y, z'
loop_
 _atom_site_type_symbol
 _atom_site_label
 _atom_site_symmetry_multiplicity
 _atom_site_fract_x
 _atom_site_fract_y
 _atom_site_fract_z
 _atom_site_occupancy
  Ta  Ta0  1  0.000000  0.761577  0.256142  1
  Ta  Ta1  1  0.238423  0.238423  0.256142  1
  Ta  Ta2  1  0.761577  0.000000  0.256142  1
  Ta  Ta3  1  0.000000  0.238423  0.743858  1
  Ta  Ta4  1  0.761577  0.761577  0.743858  1
  Ta  Ta5  1  0.238423  0.000000  0.743858  1
  Ta  Ta6  1  0.333333  0.666667  0.500000  1
  Ta  Ta7  1  0.666667  0.333333  0.500000  1
  V  V8  1  0.666667  0.333333  0.000000  1
  V  V9  1  0.333333  0.666667  0.000000  1
  Ge  Ge10  1  0.000000  0.402145  0.231419  1
  Ge  Ge11  1  0.597855  0.597855  0.231419  1
  Ge  Ge12  1  0.402145  0.000000  0.231419  1
  Ge  Ge13  1  0.000000  0.597855  0.768581  1
  Ge  Ge14  1  0.402145  0.402145  0.768581  1
  Ge  Ge15  1  0.597855  0.000000  0.768581  1
  C  C16  1  0.000000  0.000000  0.500000  1
