# generated using pymatgen
data_Lu2Zn8Cu9
_symmetry_space_group_name_H-M   'P 1'
_cell_length_a   6.55821272
_cell_length_b   6.55821397
_cell_length_c   6.55687748
_cell_angle_alpha   83.38834385
_cell_angle_beta   83.38834768
_cell_angle_gamma   82.75221837
_symmetry_Int_Tables_number   1
_chemical_formula_structural   Lu2Zn8Cu9
_chemical_formula_sum   'Lu2 Zn8 Cu9'
_cell_volume   276.44613100
_cell_formula_units_Z   1
loop_
 _symmetry_equiv_pos_site_id
 _symmetry_equiv_pos_as_xyz
  1  'x, y, z'
loop_
 _atom_site_type_symbol
 _atom_site_label
 _atom_site_symmetry_multiplicity
 _atom_site_fract_x
 _atom_site_fract_y
 _atom_site_fract_z
 _atom_site_occupancy
  Lu  Lu0  1  0.649046  0.649046  0.655902  1
  Lu  Lu1  1  0.350953  0.350953  0.344097  1
  Zn  Zn2  1  0.353093  0.353093  0.853349  1
  Zn  Zn3  1  0.646907  0.646907  0.146651  1
  Zn  Zn4  1  0.899201  0.899201  0.890472  1
  Zn  Zn5  1  0.100798  0.100798  0.109527  1
  Zn  Zn6  1  0.694635  0.003912  0.305639  1
  Zn  Zn7  1  0.996087  0.305366  0.694362  1
  Zn  Zn8  1  0.305366  0.996087  0.694362  1
  Zn  Zn9  1  0.003912  0.694635  0.305639  1
  Cu  Cu10  1  0.350236  0.839083  0.348335  1
  Cu  Cu11  1  0.839083  0.350236  0.348335  1
  Cu  Cu12  1  0.160917  0.649764  0.651666  1
  Cu  Cu13  1  0.649764  0.160917  0.651666  1
  Cu  Cu14  1  0.293630  0.706370  0.999999  1
  Cu  Cu15  1  0.706370  0.293630  0.999999  1
  Cu  Cu16  1  0.000000  0.500000  0.000000  1
  Cu  Cu17  1  0.500000  0.000000  0.000000  1
  Cu  Cu18  1  0.000000  0.000000  0.500000  1
