# generated using pymatgen
data_TbHo3Zr3PtF28
_symmetry_space_group_name_H-M   'P 1'
_cell_length_a   5.68594022
_cell_length_b   9.03108557
_cell_length_c   12.16810563
_cell_angle_alpha   62.46619286
_cell_angle_beta   90.08742359
_cell_angle_gamma   90.05692253
_symmetry_Int_Tables_number   1
_chemical_formula_structural   TbHo3Zr3PtF28
_chemical_formula_sum   'Tb1 Ho3 Zr3 Pt1 F28'
_cell_volume   554.06423858
_cell_formula_units_Z   1
loop_
 _symmetry_equiv_pos_site_id
 _symmetry_equiv_pos_as_xyz
  1  'x, y, z'
loop_
 _atom_site_type_symbol
 _atom_site_label
 _atom_site_symmetry_multiplicity
 _atom_site_fract_x
 _atom_site_fract_y
 _atom_site_fract_z
 _atom_site_occupancy
  Tb  Tb0  1  0.241059  0.816590  0.760749  1
  Ho  Ho1  1  0.257728  0.816264  0.268427  1
  Ho  Ho2  1  0.743953  0.187103  0.732446  1
  Ho  Ho3  1  0.757858  0.182425  0.235264  1
  Zr  Zr4  1  0.755683  0.726541  0.044179  1
  Zr  Zr5  1  0.244835  0.274172  0.955387  1
  Zr  Zr6  1  0.256159  0.275639  0.455416  1
  Pt  Pt7  1  0.740078  0.727123  0.543699  1
  F  F8  1  0.939605  0.704913  0.419761  1
  F  F9  1  0.039036  0.290056  0.582301  1
  F  F10  1  0.463625  0.291125  0.081541  1
  F  F11  1  0.536378  0.709655  0.918150  1
  F  F12  1  0.480814  0.733009  0.149495  1
  F  F13  1  0.521372  0.268191  0.851346  1
  F  F14  1  0.977021  0.266594  0.353210  1
  F  F15  1  0.022066  0.727625  0.637577  1
  F  F16  1  0.967777  0.747962  0.173510  1
  F  F17  1  0.037901  0.251125  0.825927  1
  F  F18  1  0.466067  0.253980  0.325937  1
  F  F19  1  0.547089  0.741490  0.673566  1
  F  F20  1  0.776276  0.473208  0.141068  1
  F  F21  1  0.221379  0.526769  0.857063  1
  F  F22  1  0.268458  0.529244  0.359603  1
  F  F23  1  0.729671  0.481598  0.642137  1
  F  F24  1  0.946079  0.274857  0.050419  1
  F  F25  1  0.052307  0.725145  0.948725  1
  F  F26  1  0.449334  0.718906  0.456921  1
  F  F27  1  0.555426  0.280935  0.547807  1
  F  F28  1  0.741925  0.973011  0.450386  1
  F  F29  1  0.261259  0.022644  0.555774  1
  F  F30  1  0.241904  0.021689  0.061395  1
  F  F31  1  0.758603  0.979422  0.940120  1
  F  F32  1  0.575469  0.970728  0.236047  1
  F  F33  1  0.426969  0.029251  0.763558  1
  F  F34  1  0.076783  0.027027  0.269865  1
  F  F35  1  0.922053  0.973986  0.731223  1
