# generated using pymatgen
data_Mn2Al11Cr2
_symmetry_space_group_name_H-M   'P 1'
_cell_length_a   5.06434690
_cell_length_b   5.10983603
_cell_length_c   8.88094342
_cell_angle_alpha   105.63829145
_cell_angle_beta   90.05108075
_cell_angle_gamma   100.51629416
_symmetry_Int_Tables_number   1
_chemical_formula_structural   Mn2Al11Cr2
_chemical_formula_sum   'Mn2 Al11 Cr2'
_cell_volume   217.29140357
_cell_formula_units_Z   1
loop_
 _symmetry_equiv_pos_site_id
 _symmetry_equiv_pos_as_xyz
  1  'x, y, z'
loop_
 _atom_site_type_symbol
 _atom_site_label
 _atom_site_symmetry_multiplicity
 _atom_site_fract_x
 _atom_site_fract_y
 _atom_site_fract_z
 _atom_site_occupancy
  Mn  Mn0  1  0.662128  0.609572  0.867144  1
  Mn  Mn1  1  0.337872  0.390428  0.132856  1
  Al  Al2  1  0.000000  0.000000  0.000000  1
  Al  Al3  1  0.942967  0.819551  0.680908  1
  Al  Al4  1  0.057033  0.180449  0.319092  1
  Al  Al5  1  0.805970  0.272436  0.636540  1
  Al  Al6  1  0.843573  0.530216  0.123836  1
  Al  Al7  1  0.156427  0.469784  0.876164  1
  Al  Al8  1  0.491747  0.892626  0.122960  1
  Al  Al9  1  0.508253  0.107374  0.877040  1
  Al  Al10  1  0.574934  0.329950  0.372939  1
  Al  Al11  1  0.425066  0.670050  0.627061  1
  Al  Al12  1  0.194030  0.727564  0.363460  1
  Cr  Cr13  1  0.288664  0.144181  0.597380  1
  Cr  Cr14  1  0.711336  0.855819  0.402620  1
