# generated using pymatgen
data_Tb6Ce2Al8Ru7Rh
_symmetry_space_group_name_H-M   'P 1'
_cell_length_a   4.06255200
_cell_length_b   7.10423184
_cell_length_c   16.03233840
_cell_angle_alpha   91.52836296
_cell_angle_beta   90.00000000
_cell_angle_gamma   90.00000000
_symmetry_Int_Tables_number   1
_chemical_formula_structural   Tb6Ce2Al8Ru7Rh
_chemical_formula_sum   'Tb6 Ce2 Al8 Ru7 Rh1'
_cell_volume   462.54969561
_cell_formula_units_Z   1
loop_
 _symmetry_equiv_pos_site_id
 _symmetry_equiv_pos_as_xyz
  1  'x, y, z'
loop_
 _atom_site_type_symbol
 _atom_site_label
 _atom_site_symmetry_multiplicity
 _atom_site_fract_x
 _atom_site_fract_y
 _atom_site_fract_z
 _atom_site_occupancy
  Tb  Tb0  1  0.250000  0.163205  0.561512  1
  Tb  Tb1  1  0.750000  0.837182  0.441161  1
  Tb  Tb2  1  0.250000  0.663690  0.938697  1
  Tb  Tb3  1  0.750000  0.336850  0.060202  1
  Tb  Tb4  1  0.250000  0.035223  0.781021  1
  Tb  Tb5  1  0.750000  0.963144  0.218331  1
  Ce  Ce6  1  0.250000  0.535227  0.720393  1
  Ce  Ce7  1  0.750000  0.454964  0.279402  1
  Al  Al8  1  0.250000  0.129165  0.349137  1
  Al  Al9  1  0.750000  0.873678  0.650896  1
  Al  Al10  1  0.250000  0.638326  0.146676  1
  Al  Al11  1  0.750000  0.361109  0.852769  1
  Al  Al12  1  0.250000  0.004356  0.064855  1
  Al  Al13  1  0.750000  0.995217  0.934445  1
  Al  Al14  1  0.250000  0.498097  0.437971  1
  Al  Al15  1  0.750000  0.503493  0.563147  1
  Ru  Ru16  1  0.750000  0.264701  0.430843  1
  Ru  Ru17  1  0.250000  0.735863  0.568511  1
  Ru  Ru18  1  0.750000  0.771799  0.065312  1
  Ru  Ru19  1  0.250000  0.229474  0.935249  1
  Ru  Ru20  1  0.750000  0.729377  0.806647  1
  Ru  Ru21  1  0.250000  0.271618  0.192145  1
  Ru  Ru22  1  0.750000  0.263222  0.685949  1
  Rh  Rh23  1  0.250000  0.741021  0.314730  1
