# generated using pymatgen
data_CrNi3Bi4(TeO6)4
_symmetry_space_group_name_H-M   'P 1'
_cell_length_a   5.24622451
_cell_length_b   9.08373705
_cell_length_c   9.82361033
_cell_angle_alpha   89.99692058
_cell_angle_beta   89.95874132
_cell_angle_gamma   90.00574601
_symmetry_Int_Tables_number   1
_chemical_formula_structural   CrNi3Bi4(TeO6)4
_chemical_formula_sum   'Cr1 Ni3 Bi4 Te4 O24'
_cell_volume   468.14720804
_cell_formula_units_Z   1
loop_
 _symmetry_equiv_pos_site_id
 _symmetry_equiv_pos_as_xyz
  1  'x, y, z'
loop_
 _atom_site_type_symbol
 _atom_site_label
 _atom_site_symmetry_multiplicity
 _atom_site_fract_x
 _atom_site_fract_y
 _atom_site_fract_z
 _atom_site_occupancy
  Cr  Cr0  1  0.500331  0.833265  0.750019  1
  Ni  Ni1  1  0.499811  0.166249  0.249994  1
  Ni  Ni2  1  0.000103  0.333303  0.750025  1
  Ni  Ni3  1  0.999857  0.666731  0.249994  1
  Bi  Bi4  1  0.002000  0.001942  0.496477  1
  Bi  Bi5  1  0.497231  0.497857  0.496683  1
  Bi  Bi6  1  0.997994  0.001935  0.003527  1
  Bi  Bi7  1  0.502726  0.497875  0.003320  1
  Te  Te8  1  0.500052  0.168480  0.750010  1
  Te  Te9  1  0.000100  0.665141  0.749987  1
  Te  Te10  1  0.999921  0.333239  0.250000  1
  Te  Te11  1  0.499932  0.833068  0.250004  1
  O  O12  1  0.631174  0.003432  0.639617  1
  O  O13  1  0.135347  0.505830  0.639155  1
  O  O14  1  0.674169  0.314856  0.638634  1
  O  O15  1  0.178917  0.814197  0.640406  1
  O  O16  1  0.190800  0.178720  0.639626  1
  O  O17  1  0.690060  0.683161  0.639309  1
  O  O18  1  0.172188  0.185176  0.138740  1
  O  O19  1  0.673879  0.684748  0.139140  1
  O  O20  1  0.136006  0.494913  0.139415  1
  O  O21  1  0.635551  0.993749  0.138943  1
  O  O22  1  0.691004  0.320926  0.139207  1
  O  O23  1  0.189763  0.820793  0.139327  1
  O  O24  1  0.863860  0.494906  0.360581  1
  O  O25  1  0.364324  0.993744  0.361058  1
  O  O26  1  0.827620  0.185160  0.361258  1
  O  O27  1  0.325966  0.684724  0.360858  1
  O  O28  1  0.308815  0.320920  0.360808  1
  O  O29  1  0.810077  0.820800  0.360696  1
  O  O30  1  0.325969  0.314840  0.861390  1
  O  O31  1  0.821224  0.814173  0.859570  1
  O  O32  1  0.368989  0.003397  0.860338  1
  O  O33  1  0.864760  0.505839  0.860864  1
  O  O34  1  0.809351  0.178716  0.860371  1
  O  O35  1  0.310127  0.683193  0.860650  1
