# generated using pymatgen
data_Pr10AgBi6P
_symmetry_space_group_name_H-M   'P 1'
_cell_length_a   9.73298400
_cell_length_b   9.73298242
_cell_length_c   6.70519000
_cell_angle_alpha   90.00000000
_cell_angle_beta   90.00000000
_cell_angle_gamma   120.00001216
_symmetry_Int_Tables_number   1
_chemical_formula_structural   Pr10AgBi6P
_chemical_formula_sum   'Pr10 Ag1 Bi6 P1'
_cell_volume   550.08982975
_cell_formula_units_Z   1
loop_
 _symmetry_equiv_pos_site_id
 _symmetry_equiv_pos_as_xyz
  1  'x, y, z'
loop_
 _atom_site_type_symbol
 _atom_site_label
 _atom_site_symmetry_multiplicity
 _atom_site_fract_x
 _atom_site_fract_y
 _atom_site_fract_z
 _atom_site_occupancy
  Pr  Pr0  1  0.255255  0.000000  0.736218  1
  Pr  Pr1  1  0.744745  0.000000  0.263782  1
  Pr  Pr2  1  0.000000  0.255255  0.736218  1
  Pr  Pr3  1  0.000000  0.744745  0.263782  1
  Pr  Pr4  1  0.744745  0.744745  0.736218  1
  Pr  Pr5  1  0.255255  0.255255  0.263782  1
  Pr  Pr6  1  0.333333  0.666667  0.500000  1
  Pr  Pr7  1  0.666667  0.333333  0.500000  1
  Pr  Pr8  1  0.666667  0.333333  0.000000  1
  Pr  Pr9  1  0.333333  0.666667  0.000000  1
  Ag  Ag10  1  0.000000  0.000000  0.000000  1
  Bi  Bi11  1  0.613182  0.000000  0.754734  1
  Bi  Bi12  1  0.386818  0.000000  0.245266  1
  Bi  Bi13  1  0.000000  0.613182  0.754734  1
  Bi  Bi14  1  0.000000  0.386818  0.245266  1
  Bi  Bi15  1  0.386818  0.386818  0.754734  1
  Bi  Bi16  1  0.613182  0.613182  0.245266  1
  P  P17  1  0.000000  0.000000  0.500000  1
