# generated using pymatgen
data_Dy7Ho12SnIr12
_symmetry_space_group_name_H-M   'P 1'
_cell_length_a   10.84508226
_cell_length_b   10.85183819
_cell_length_c   6.31350905
_cell_angle_alpha   90.00365742
_cell_angle_beta   90.01335219
_cell_angle_gamma   89.97890561
_symmetry_Int_Tables_number   1
_chemical_formula_structural   Dy7Ho12SnIr12
_chemical_formula_sum   'Dy7 Ho12 Sn1 Ir12'
_cell_volume   743.03098532
_cell_formula_units_Z   1
loop_
 _symmetry_equiv_pos_site_id
 _symmetry_equiv_pos_as_xyz
  1  'x, y, z'
loop_
 _atom_site_type_symbol
 _atom_site_label
 _atom_site_symmetry_multiplicity
 _atom_site_fract_x
 _atom_site_fract_y
 _atom_site_fract_z
 _atom_site_occupancy
  Dy  Dy0  1  0.284614  0.085510  0.378587  1
  Dy  Dy1  1  0.290984  0.911090  0.881040  1
  Dy  Dy2  1  0.708952  0.089222  0.881086  1
  Dy  Dy3  1  0.715455  0.914672  0.378719  1
  Dy  Dy4  1  0.589174  0.790562  0.880719  1
  Dy  Dy5  1  0.588596  0.208945  0.377683  1
  Dy  Dy6  1  0.411318  0.791192  0.377704  1
  Ho  Ho7  1  0.410890  0.209030  0.880942  1
  Ho  Ho8  1  0.208194  0.411625  0.621972  1
  Ho  Ho9  1  0.208476  0.588521  0.118902  1
  Ho  Ho10  1  0.791470  0.411431  0.118736  1
  Ho  Ho11  1  0.791957  0.588229  0.621852  1
  Ho  Ho12  1  0.911362  0.708036  0.118252  1
  Ho  Ho13  1  0.915339  0.285515  0.620869  1
  Ho  Ho14  1  0.084707  0.714487  0.620929  1
  Ho  Ho15  1  0.088680  0.291969  0.118098  1
  Ho  Ho16  1  0.000035  0.000044  0.000846  1
  Ho  Ho17  1  0.499900  0.499786  0.000296  1
  Ho  Ho18  1  0.499960  0.499992  0.500304  1
  Sn  Sn19  1  0.000041  0.999995  0.501143  1
  Ir  Ir20  1  0.848059  0.155375  0.249027  1
  Ir  Ir21  1  0.845716  0.846986  0.751731  1
  Ir  Ir22  1  0.154687  0.153047  0.751903  1
  Ir  Ir23  1  0.151919  0.844628  0.248947  1
  Ir  Ir24  1  0.654491  0.347588  0.747284  1
  Ir  Ir25  1  0.653212  0.653617  0.253338  1
  Ir  Ir26  1  0.346854  0.346210  0.252679  1
  Ir  Ir27  1  0.345158  0.652235  0.747056  1
  Ir  Ir28  1  0.499890  0.000290  0.123980  1
  Ir  Ir29  1  0.499878  0.000228  0.620390  1
  Ir  Ir30  1  0.000027  0.499967  0.875354  1
  Ir  Ir31  1  0.000003  0.499975  0.379631  1
