# generated using pymatgen
data_HoTm3Th6(Ge3C)2
_symmetry_space_group_name_H-M   'P 1'
_cell_length_a   8.79344500
_cell_length_b   8.79344273
_cell_length_c   6.38670200
_cell_angle_alpha   90.00000000
_cell_angle_beta   90.00000000
_cell_angle_gamma   119.99999726
_symmetry_Int_Tables_number   1
_chemical_formula_structural   HoTm3Th6(Ge3C)2
_chemical_formula_sum   'Ho1 Tm3 Th6 Ge6 C2'
_cell_volume   427.68624932
_cell_formula_units_Z   1
loop_
 _symmetry_equiv_pos_site_id
 _symmetry_equiv_pos_as_xyz
  1  'x, y, z'
loop_
 _atom_site_type_symbol
 _atom_site_label
 _atom_site_symmetry_multiplicity
 _atom_site_fract_x
 _atom_site_fract_y
 _atom_site_fract_z
 _atom_site_occupancy
  Ho  Ho0  1  0.666667  0.333333  0.000000  1
  Tm  Tm1  1  0.333333  0.666667  0.000000  1
  Tm  Tm2  1  0.333333  0.666667  0.500000  1
  Tm  Tm3  1  0.666667  0.333333  0.500000  1
  Th  Th4  1  0.767903  0.767990  0.749904  1
  Th  Th5  1  0.232010  0.999913  0.749904  1
  Th  Th6  1  0.000087  0.232097  0.749904  1
  Th  Th7  1  0.232010  0.232097  0.250096  1
  Th  Th8  1  0.767903  0.999913  0.250096  1
  Th  Th9  1  0.000087  0.767990  0.250096  1
  Ge  Ge10  1  0.403773  0.404009  0.749836  1
  Ge  Ge11  1  0.595991  0.999765  0.749836  1
  Ge  Ge12  1  0.000235  0.596227  0.749836  1
  Ge  Ge13  1  0.595991  0.596227  0.250164  1
  Ge  Ge14  1  0.403773  0.999765  0.250164  1
  Ge  Ge15  1  0.000235  0.404009  0.250164  1
  C  C16  1  0.000000  0.000000  0.000000  1
  C  C17  1  0.000000  0.000000  0.500000  1
