# generated using pymatgen
data_ScSiNi4
_symmetry_space_group_name_H-M   'P 1'
_cell_length_a   4.89230400
_cell_length_b   4.67516861
_cell_length_c   3.95012400
_cell_angle_alpha   90.00000000
_cell_angle_beta   90.00000000
_cell_angle_gamma   121.54862508
_symmetry_Int_Tables_number   1
_chemical_formula_structural   ScSiNi4
_chemical_formula_sum   'Sc1 Si1 Ni4'
_cell_volume   76.99475715
_cell_formula_units_Z   1
loop_
 _symmetry_equiv_pos_site_id
 _symmetry_equiv_pos_as_xyz
  1  'x, y, z'
loop_
 _atom_site_type_symbol
 _atom_site_label
 _atom_site_symmetry_multiplicity
 _atom_site_fract_x
 _atom_site_fract_y
 _atom_site_fract_z
 _atom_site_occupancy
  Sc  Sc0  1  0.000000  0.000000  0.000000  1
  Si  Si1  1  0.500000  0.000000  0.500000  1
  Ni  Ni2  1  0.500000  0.500000  0.500000  1
  Ni  Ni3  1  0.661054  0.322107  0.000000  1
  Ni  Ni4  1  0.000000  0.500000  0.500000  1
  Ni  Ni5  1  0.338946  0.677893  0.000000  1
