# generated using pymatgen
data_Tm(FeB)4
_symmetry_space_group_name_H-M   'P 1'
_cell_length_a   6.90837400
_cell_length_b   6.90837400
_cell_length_c   3.82160500
_cell_angle_alpha   90.00000000
_cell_angle_beta   90.00000000
_cell_angle_gamma   90.00000000
_symmetry_Int_Tables_number   1
_chemical_formula_structural   Tm(FeB)4
_chemical_formula_sum   'Tm2 Fe8 B8'
_cell_volume   182.38851130
_cell_formula_units_Z   2
loop_
 _symmetry_equiv_pos_site_id
 _symmetry_equiv_pos_as_xyz
  1  'x, y, z'
loop_
 _atom_site_type_symbol
 _atom_site_label
 _atom_site_symmetry_multiplicity
 _atom_site_fract_x
 _atom_site_fract_y
 _atom_site_fract_z
 _atom_site_occupancy
  Tm  Tm0  1  0.000000  0.000000  0.000000  1
  Tm  Tm1  1  0.500000  0.500000  0.500000  1
  Fe  Fe2  1  0.867750  0.384349  0.109962  1
  Fe  Fe3  1  0.132250  0.615651  0.109962  1
  Fe  Fe4  1  0.884349  0.632250  0.609962  1
  Fe  Fe5  1  0.115651  0.367750  0.609962  1
  Fe  Fe6  1  0.632250  0.115651  0.390038  1
  Fe  Fe7  1  0.367750  0.884349  0.390038  1
  Fe  Fe8  1  0.615651  0.867750  0.890038  1
  Fe  Fe9  1  0.384349  0.132250  0.890038  1
  B  B10  1  0.333173  0.800807  0.893170  1
  B  B11  1  0.666827  0.199193  0.893170  1
  B  B12  1  0.300807  0.166827  0.393170  1
  B  B13  1  0.699193  0.833173  0.393170  1
  B  B14  1  0.166827  0.699193  0.606830  1
  B  B15  1  0.833173  0.300807  0.606830  1
  B  B16  1  0.199193  0.333173  0.106830  1
  B  B17  1  0.800807  0.666827  0.106830  1
