# generated using pymatgen
data_Sr3CaNbSbO9
_symmetry_space_group_name_H-M   'P 1'
_cell_length_a   5.93249232
_cell_length_b   5.93520322
_cell_length_c   15.06011305
_cell_angle_alpha   89.87600528
_cell_angle_beta   90.10194791
_cell_angle_gamma   120.08352473
_symmetry_Int_Tables_number   1
_chemical_formula_structural   Sr3CaNbSbO9
_chemical_formula_sum   'Sr6 Ca2 Nb2 Sb2 O18'
_cell_volume   458.84324770
_cell_formula_units_Z   2
loop_
 _symmetry_equiv_pos_site_id
 _symmetry_equiv_pos_as_xyz
  1  'x, y, z'
loop_
 _atom_site_type_symbol
 _atom_site_label
 _atom_site_symmetry_multiplicity
 _atom_site_fract_x
 _atom_site_fract_y
 _atom_site_fract_z
 _atom_site_occupancy
  Sr  Sr0  1  0.333766  0.659740  0.142075  1
  Sr  Sr1  1  0.666234  0.340260  0.857925  1
  Sr  Sr2  1  0.999754  0.998289  0.268217  1
  Sr  Sr3  1  0.000246  0.001711  0.731783  1
  Sr  Sr4  1  0.665249  0.329618  0.597569  1
  Sr  Sr5  1  0.334751  0.670382  0.402431  1
  Ca  Ca6  1  0.000000  0.000000  0.000000  1
  Ca  Ca7  1  0.000000  0.000000  0.500000  1
  Nb  Nb8  1  0.335290  0.675033  0.855733  1
  Nb  Nb9  1  0.664710  0.324967  0.144267  1
  Sb  Sb10  1  0.668238  0.333381  0.342656  1
  Sb  Sb11  1  0.331762  0.666619  0.657344  1
  O  O12  1  0.651196  0.902314  0.591294  1
  O  O13  1  0.348804  0.097686  0.408706  1
  O  O14  1  0.092007  0.743662  0.590906  1
  O  O15  1  0.907993  0.256338  0.409094  1
  O  O16  1  0.252292  0.343993  0.594415  1
  O  O17  1  0.747708  0.656007  0.405585  1
  O  O18  1  0.960645  0.548802  0.252207  1
  O  O19  1  0.039355  0.451198  0.747793  1
  O  O20  1  0.450128  0.403069  0.250035  1
  O  O21  1  0.549872  0.596931  0.749965  1
  O  O22  1  0.588744  0.034113  0.254466  1
  O  O23  1  0.411256  0.965887  0.745534  1
  O  O24  1  0.349918  0.067821  0.092485  1
  O  O25  1  0.650082  0.932179  0.907515  1
  O  O26  1  0.922682  0.258298  0.098023  1
  O  O27  1  0.077318  0.741702  0.901977  1
  O  O28  1  0.726841  0.637531  0.089731  1
  O  O29  1  0.273159  0.362469  0.910269  1
