# generated using pymatgen
data_DyYAl8SiIr3
_symmetry_space_group_name_H-M   'P 1'
_cell_length_a   7.54141573
_cell_length_b   7.54264231
_cell_length_c   9.36785700
_cell_angle_alpha   90.00100643
_cell_angle_beta   90.00025789
_cell_angle_gamma   119.64167032
_symmetry_Int_Tables_number   1
_chemical_formula_structural   DyYAl8SiIr3
_chemical_formula_sum   'Dy2 Y2 Al16 Si2 Ir6'
_cell_volume   463.13128456
_cell_formula_units_Z   2
loop_
 _symmetry_equiv_pos_site_id
 _symmetry_equiv_pos_as_xyz
  1  'x, y, z'
loop_
 _atom_site_type_symbol
 _atom_site_label
 _atom_site_symmetry_multiplicity
 _atom_site_fract_x
 _atom_site_fract_y
 _atom_site_fract_z
 _atom_site_occupancy
  Dy  Dy0  1  0.674882  0.994900  0.750031  1
  Dy  Dy1  1  0.325118  0.005100  0.249969  1
  Y  Y2  1  0.994792  0.674669  0.750024  1
  Y  Y3  1  0.005208  0.325331  0.249976  1
  Al  Al4  1  0.001312  0.336224  0.576363  1
  Al  Al5  1  0.998688  0.663776  0.423637  1
  Al  Al6  1  0.998703  0.663801  0.076343  1
  Al  Al7  1  0.336459  0.001441  0.923786  1
  Al  Al8  1  0.001297  0.336199  0.923657  1
  Al  Al9  1  0.663541  0.998559  0.076214  1
  Al  Al10  1  0.663521  0.998539  0.423765  1
  Al  Al11  1  0.336479  0.001461  0.576235  1
  Al  Al12  1  0.335681  0.335568  0.056794  1
  Al  Al13  1  0.664319  0.664432  0.943206  1
  Al  Al14  1  0.664323  0.664440  0.556806  1
  Al  Al15  1  0.335677  0.335560  0.443194  1
  Al  Al16  1  0.335885  0.548596  0.750005  1
  Al  Al17  1  0.664115  0.451404  0.249995  1
  Al  Al18  1  0.548377  0.335429  0.750005  1
  Al  Al19  1  0.451623  0.664571  0.249995  1
  Si  Si20  1  0.128970  0.129306  0.750006  1
  Si  Si21  1  0.871030  0.870694  0.249994  1
  Ir  Ir22  1  0.671545  0.328200  0.500002  1
  Ir  Ir23  1  0.328455  0.671800  0.499998  1
  Ir  Ir24  1  0.328461  0.671792  0.000003  1
  Ir  Ir25  1  0.671539  0.328208  0.999997  1
  Ir  Ir26  1  0.000000  0.000000  0.500000  1
  Ir  Ir27  1  0.000000  0.000000  0.000000  1
