# generated using pymatgen
data_Ca10LaNd(GaRh)8
_symmetry_space_group_name_H-M   'P 1'
_cell_length_a   5.80328097
_cell_length_b   7.85848323
_cell_length_c   13.90266729
_cell_angle_alpha   89.94084987
_cell_angle_beta   90.11087912
_cell_angle_gamma   90.16161446
_symmetry_Int_Tables_number   1
_chemical_formula_structural   Ca10LaNd(GaRh)8
_chemical_formula_sum   'Ca10 La1 Nd1 Ga8 Rh8'
_cell_volume   634.02690564
_cell_formula_units_Z   1
loop_
 _symmetry_equiv_pos_site_id
 _symmetry_equiv_pos_as_xyz
  1  'x, y, z'
loop_
 _atom_site_type_symbol
 _atom_site_label
 _atom_site_symmetry_multiplicity
 _atom_site_fract_x
 _atom_site_fract_y
 _atom_site_fract_z
 _atom_site_occupancy
  Ca  Ca0  1  0.373417  0.752947  0.749090  1
  Ca  Ca1  1  0.371744  0.746600  0.253784  1
  Ca  Ca2  1  0.629515  0.253335  0.748284  1
  Ca  Ca3  1  0.137541  0.397442  0.095284  1
  Ca  Ca4  1  0.852867  0.595839  0.899199  1
  Ca  Ca5  1  0.859427  0.604924  0.596950  1
  Ca  Ca6  1  0.858765  0.896551  0.404942  1
  Ca  Ca7  1  0.141006  0.397152  0.406375  1
  Ca  Ca8  1  0.144823  0.102071  0.596638  1
  Ca  Ca9  1  0.152951  0.106545  0.899570  1
  La  La10  1  0.851777  0.894973  0.090354  1
  Nd  Nd11  1  0.617645  0.251094  0.253273  1
  Ga  Ga12  1  0.135438  0.094229  0.251295  1
  Ga  Ga13  1  0.850088  0.908122  0.750725  1
  Ga  Ga14  1  0.855455  0.599063  0.252334  1
  Ga  Ga15  1  0.153307  0.406448  0.747905  1
  Ga  Ga16  1  0.604933  0.253030  0.999131  1
  Ga  Ga17  1  0.378598  0.746444  0.997312  1
  Ga  Ga18  1  0.391667  0.750157  0.499601  1
  Ga  Ga19  1  0.608185  0.249423  0.502747  1
  Rh  Rh20  1  0.367181  0.026878  0.095080  1
  Rh  Rh21  1  0.650823  0.967690  0.910521  1
  Rh  Rh22  1  0.641877  0.967959  0.593086  1
  Rh  Rh23  1  0.641822  0.524592  0.406140  1
  Rh  Rh24  1  0.368517  0.032902  0.406261  1
  Rh  Rh25  1  0.362968  0.472040  0.592773  1
  Rh  Rh26  1  0.359729  0.469688  0.906165  1
  Rh  Rh27  1  0.637934  0.531867  0.095180  1
