# generated using pymatgen
data_NdLuFe3Re14C3
_symmetry_space_group_name_H-M   'P 1'
_cell_length_a   6.93182175
_cell_length_b   6.93182268
_cell_length_c   6.93182102
_cell_angle_alpha   82.55630550
_cell_angle_beta   82.55630988
_cell_angle_gamma   82.55630231
_symmetry_Int_Tables_number   1
_chemical_formula_structural   NdLuFe3Re14C3
_chemical_formula_sum   'Nd1 Lu1 Fe3 Re14 C3'
_cell_volume   325.32379805
_cell_formula_units_Z   1
loop_
 _symmetry_equiv_pos_site_id
 _symmetry_equiv_pos_as_xyz
  1  'x, y, z'
loop_
 _atom_site_type_symbol
 _atom_site_label
 _atom_site_symmetry_multiplicity
 _atom_site_fract_x
 _atom_site_fract_y
 _atom_site_fract_z
 _atom_site_occupancy
  Nd  Nd0  1  0.351973  0.351973  0.351973  1
  Lu  Lu1  1  0.649481  0.649481  0.649481  1
  Fe  Fe2  1  0.001258  0.001258  0.499230  1
  Fe  Fe3  1  0.001258  0.499230  0.001258  1
  Fe  Fe4  1  0.499230  0.001258  0.001258  1
  Re  Re5  1  0.101573  0.101573  0.101573  1
  Re  Re6  1  0.897480  0.897480  0.897480  1
  Re  Re7  1  0.722547  0.278054  0.999438  1
  Re  Re8  1  0.278054  0.999438  0.722547  1
  Re  Re9  1  0.999438  0.722547  0.278054  1
  Re  Re10  1  0.278054  0.722547  0.999438  1
  Re  Re11  1  0.722547  0.999438  0.278054  1
  Re  Re12  1  0.999438  0.278054  0.722547  1
  Re  Re13  1  0.136124  0.654739  0.654739  1
  Re  Re14  1  0.654739  0.654739  0.136124  1
  Re  Re15  1  0.654739  0.136124  0.654739  1
  Re  Re16  1  0.347210  0.858850  0.347210  1
  Re  Re17  1  0.347210  0.347210  0.858850  1
  Re  Re18  1  0.858850  0.347210  0.347210  1
  C  C19  1  0.504770  0.504770  0.989257  1
  C  C20  1  0.504770  0.989257  0.504770  1
  C  C21  1  0.989257  0.504770  0.504770  1
