# generated using pymatgen
data_Y4ReB16Rh2W
_symmetry_space_group_name_H-M   'P 1'
_cell_length_a   3.58971900
_cell_length_b   5.99976053
_cell_length_c   11.62449045
_cell_angle_alpha   90.32361178
_cell_angle_beta   90.00000000
_cell_angle_gamma   90.00000000
_symmetry_Int_Tables_number   1
_chemical_formula_structural   Y4ReB16Rh2W
_chemical_formula_sum   'Y4 Re1 B16 Rh2 W1'
_cell_volume   250.35793902
_cell_formula_units_Z   1
loop_
 _symmetry_equiv_pos_site_id
 _symmetry_equiv_pos_as_xyz
  1  'x, y, z'
loop_
 _atom_site_type_symbol
 _atom_site_label
 _atom_site_symmetry_multiplicity
 _atom_site_fract_x
 _atom_site_fract_y
 _atom_site_fract_z
 _atom_site_occupancy
  Y  Y0  1  0.000000  0.128847  0.152275  1
  Y  Y1  1  0.000000  0.872622  0.848070  1
  Y  Y2  1  0.000000  0.628270  0.353732  1
  Y  Y3  1  0.000000  0.371260  0.646874  1
  Re  Re4  1  0.000000  0.370300  0.913190  1
  B  B5  1  0.500000  0.473705  0.193959  1
  B  B6  1  0.500000  0.523514  0.806453  1
  B  B7  1  0.500000  0.977752  0.308253  1
  B  B8  1  0.500000  0.024348  0.692163  1
  B  B9  1  0.500000  0.287479  0.314768  1
  B  B10  1  0.500000  0.710859  0.685525  1
  B  B11  1  0.500000  0.790811  0.187758  1
  B  B12  1  0.500000  0.211814  0.813663  1
  B  B13  1  0.500000  0.363820  0.469126  1
  B  B14  1  0.500000  0.636208  0.531033  1
  B  B15  1  0.500000  0.867249  0.030207  1
  B  B16  1  0.500000  0.135249  0.967125  1
  B  B17  1  0.500000  0.383709  0.045610  1
  B  B18  1  0.500000  0.612436  0.951503  1
  B  B19  1  0.500000  0.886748  0.453279  1
  B  B20  1  0.500000  0.113348  0.547045  1
  Rh  Rh21  1  0.000000  0.140361  0.406980  1
  Rh  Rh22  1  0.000000  0.858609  0.594826  1
  W  W23  1  0.000000  0.630682  0.086586  1
