# generated using pymatgen
data_Nd6Ag7Os
_symmetry_space_group_name_H-M   'P 1'
_cell_length_a   8.40835677
_cell_length_b   8.40835741
_cell_length_c   8.40835700
_cell_angle_alpha   114.36967206
_cell_angle_beta   114.36966657
_cell_angle_gamma   114.36968214
_symmetry_Int_Tables_number   1
_chemical_formula_structural   Nd6Ag7Os
_chemical_formula_sum   'Nd6 Ag7 Os1'
_cell_volume   351.05461449
_cell_formula_units_Z   1
loop_
 _symmetry_equiv_pos_site_id
 _symmetry_equiv_pos_as_xyz
  1  'x, y, z'
loop_
 _atom_site_type_symbol
 _atom_site_label
 _atom_site_symmetry_multiplicity
 _atom_site_fract_x
 _atom_site_fract_y
 _atom_site_fract_z
 _atom_site_occupancy
  Nd  Nd0  1  0.741266  0.627133  0.988790  1
  Nd  Nd1  1  0.988790  0.741266  0.627133  1
  Nd  Nd2  1  0.627133  0.988790  0.741266  1
  Nd  Nd3  1  0.258734  0.372867  0.011210  1
  Nd  Nd4  1  0.011210  0.258734  0.372867  1
  Nd  Nd5  1  0.372867  0.011210  0.258734  1
  Ag  Ag6  1  0.571675  0.234240  0.069907  1
  Ag  Ag7  1  0.069907  0.571675  0.234240  1
  Ag  Ag8  1  0.234240  0.069907  0.571675  1
  Ag  Ag9  1  0.428325  0.765760  0.930093  1
  Ag  Ag10  1  0.930093  0.428325  0.765760  1
  Ag  Ag11  1  0.765760  0.930093  0.428325  1
  Ag  Ag12  1  0.500000  0.500000  0.500000  1
  Os  Os13  1  0.000000  0.000000  0.000000  1
