# generated using pymatgen
data_Yb7LuPt4
_symmetry_space_group_name_H-M   'P 1'
_cell_length_a   4.37410400
_cell_length_b   7.61892329
_cell_length_c   8.94683655
_cell_angle_alpha   90.78163513
_cell_angle_beta   90.00000000
_cell_angle_gamma   90.00000000
_symmetry_Int_Tables_number   1
_chemical_formula_structural   Yb7LuPt4
_chemical_formula_sum   'Yb7 Lu1 Pt4'
_cell_volume   298.13419778
_cell_formula_units_Z   1
loop_
 _symmetry_equiv_pos_site_id
 _symmetry_equiv_pos_as_xyz
  1  'x, y, z'
loop_
 _atom_site_type_symbol
 _atom_site_label
 _atom_site_symmetry_multiplicity
 _atom_site_fract_x
 _atom_site_fract_y
 _atom_site_fract_z
 _atom_site_occupancy
  Yb  Yb0  1  0.500000  0.521647  0.832004  1
  Yb  Yb1  1  0.500000  0.028286  0.667732  1
  Yb  Yb2  1  0.000000  0.474709  0.170411  1
  Yb  Yb3  1  0.000000  0.971020  0.329647  1
  Yb  Yb4  1  0.500000  0.147473  0.067385  1
  Yb  Yb5  1  0.000000  0.352449  0.567375  1
  Yb  Yb6  1  0.000000  0.851933  0.933622  1
  Lu  Lu7  1  0.500000  0.643501  0.433906  1
  Pt  Pt8  1  0.500000  0.758853  0.133389  1
  Pt  Pt9  1  0.500000  0.273488  0.376461  1
  Pt  Pt10  1  0.000000  0.239338  0.876288  1
  Pt  Pt11  1  0.000000  0.737302  0.611780  1
