# generated using pymatgen
data_Nd(SbS2)3
_symmetry_space_group_name_H-M   'P 1'
_cell_length_a   3.91452700
_cell_length_b   11.82800955
_cell_length_c   11.67810548
_cell_angle_alpha   75.95177160
_cell_angle_beta   90.00000000
_cell_angle_gamma   90.00000000
_symmetry_Int_Tables_number   1
_chemical_formula_structural   Nd(SbS2)3
_chemical_formula_sum   'Nd2 Sb6 S12'
_cell_volume   524.53704169
_cell_formula_units_Z   2
loop_
 _symmetry_equiv_pos_site_id
 _symmetry_equiv_pos_as_xyz
  1  'x, y, z'
loop_
 _atom_site_type_symbol
 _atom_site_label
 _atom_site_symmetry_multiplicity
 _atom_site_fract_x
 _atom_site_fract_y
 _atom_site_fract_z
 _atom_site_occupancy
  Nd  Nd0  1  0.750000  0.534212  0.812542  1
  Nd  Nd1  1  0.250000  0.465788  0.187458  1
  Sb  Sb2  1  0.750000  0.206447  0.031652  1
  Sb  Sb3  1  0.250000  0.793553  0.968348  1
  Sb  Sb4  1  0.750000  0.929416  0.665559  1
  Sb  Sb5  1  0.250000  0.070584  0.334441  1
  Sb  Sb6  1  0.750000  0.651773  0.401913  1
  Sb  Sb7  1  0.250000  0.348227  0.598087  1
  S  S8  1  0.750000  0.948465  0.878437  1
  S  S9  1  0.250000  0.051535  0.121563  1
  S  S10  1  0.750000  0.302931  0.745752  1
  S  S11  1  0.250000  0.697069  0.254248  1
  S  S12  1  0.750000  0.925965  0.392015  1
  S  S13  1  0.250000  0.074035  0.607985  1
  S  S14  1  0.750000  0.445512  0.382807  1
  S  S15  1  0.250000  0.554488  0.617193  1
  S  S16  1  0.750000  0.273914  0.217628  1
  S  S17  1  0.250000  0.726086  0.782372  1
  S  S18  1  0.750000  0.610323  0.035122  1
  S  S19  1  0.250000  0.389677  0.964878  1
