# generated using pymatgen
data_DyTmLu14(Ga3Co)2
_symmetry_space_group_name_H-M   'P 1'
_cell_length_a   9.79719600
_cell_length_b   9.79719583
_cell_length_c   6.81476800
_cell_angle_alpha   90.00000000
_cell_angle_beta   90.00000000
_cell_angle_gamma   119.99999383
_symmetry_Int_Tables_number   1
_chemical_formula_structural   DyTmLu14(Ga3Co)2
_chemical_formula_sum   'Dy1 Tm1 Lu14 Ga6 Co2'
_cell_volume   566.48096278
_cell_formula_units_Z   1
loop_
 _symmetry_equiv_pos_site_id
 _symmetry_equiv_pos_as_xyz
  1  'x, y, z'
loop_
 _atom_site_type_symbol
 _atom_site_label
 _atom_site_symmetry_multiplicity
 _atom_site_fract_x
 _atom_site_fract_y
 _atom_site_fract_z
 _atom_site_occupancy
  Dy  Dy0  1  0.000000  0.000000  0.731059  1
  Tm  Tm1  1  0.000000  0.000000  0.231440  1
  Lu  Lu2  1  0.174345  0.825655  0.510637  1
  Lu  Lu3  1  0.651308  0.825655  0.510637  1
  Lu  Lu4  1  0.174345  0.348692  0.510637  1
  Lu  Lu5  1  0.825653  0.174347  0.011077  1
  Lu  Lu6  1  0.348695  0.174347  0.011077  1
  Lu  Lu7  1  0.825653  0.651305  0.011077  1
  Lu  Lu8  1  0.333333  0.666667  0.827917  1
  Lu  Lu9  1  0.666667  0.333333  0.327777  1
  Lu  Lu10  1  0.463601  0.536399  0.207275  1
  Lu  Lu11  1  0.072798  0.536399  0.207275  1
  Lu  Lu12  1  0.463601  0.927202  0.207275  1
  Lu  Lu13  1  0.536396  0.463604  0.707289  1
  Lu  Lu14  1  0.927209  0.463604  0.707289  1
  Lu  Lu15  1  0.536396  0.072791  0.707289  1
  Ga  Ga16  1  0.163762  0.836238  0.960350  1
  Ga  Ga17  1  0.672477  0.836238  0.960350  1
  Ga  Ga18  1  0.163762  0.327523  0.960350  1
  Ga  Ga19  1  0.836261  0.163739  0.459905  1
  Ga  Ga20  1  0.327478  0.163739  0.459905  1
  Ga  Ga21  1  0.836261  0.672522  0.459905  1
  Co  Co22  1  0.333333  0.666667  0.443676  1
  Co  Co23  1  0.666667  0.333333  0.943372  1
