# generated using pymatgen
data_Ac6Sc(MnC4)3
_symmetry_space_group_name_H-M   'P 1'
_cell_length_a   8.61098500
_cell_length_b   8.61098482
_cell_length_c   5.50685000
_cell_angle_alpha   90.00000000
_cell_angle_beta   90.00000000
_cell_angle_gamma   120.00000144
_symmetry_Int_Tables_number   1
_chemical_formula_structural   Ac6Sc(MnC4)3
_chemical_formula_sum   'Ac6 Sc1 Mn3 C12'
_cell_volume   353.62220582
_cell_formula_units_Z   1
loop_
 _symmetry_equiv_pos_site_id
 _symmetry_equiv_pos_as_xyz
  1  'x, y, z'
loop_
 _atom_site_type_symbol
 _atom_site_label
 _atom_site_symmetry_multiplicity
 _atom_site_fract_x
 _atom_site_fract_y
 _atom_site_fract_z
 _atom_site_occupancy
  Ac  Ac0  1  0.606442  0.685198  0.749986  1
  Ac  Ac1  1  0.921244  0.606442  0.250014  1
  Ac  Ac2  1  0.685198  0.078756  0.250014  1
  Ac  Ac3  1  0.314802  0.921244  0.749986  1
  Ac  Ac4  1  0.078756  0.393558  0.749986  1
  Ac  Ac5  1  0.393558  0.314802  0.250014  1
  Sc  Sc6  1  0.000000  0.000000  0.500000  1
  Mn  Mn7  1  0.000000  0.000000  0.000000  1
  Mn  Mn8  1  0.666667  0.333333  0.753177  1
  Mn  Mn9  1  0.333333  0.666667  0.246823  1
  C  C10  1  0.949122  0.754159  0.756022  1
  C  C11  1  0.194963  0.949122  0.243978  1
  C  C12  1  0.754159  0.805037  0.243978  1
  C  C13  1  0.245841  0.194963  0.756022  1
  C  C14  1  0.805037  0.050878  0.756022  1
  C  C15  1  0.050878  0.245841  0.243978  1
  C  C16  1  0.845717  0.570689  0.757721  1
  C  C17  1  0.275026  0.845717  0.242279  1
  C  C18  1  0.570689  0.724974  0.242279  1
  C  C19  1  0.429311  0.275026  0.757721  1
  C  C20  1  0.154283  0.429311  0.242279  1
  C  C21  1  0.724974  0.154283  0.757721  1
