# generated using pymatgen
data_Zr18Ta5(OsO2)3
_symmetry_space_group_name_H-M   'P 1'
_cell_length_a   8.64085216
_cell_length_b   8.69338607
_cell_length_c   8.63344400
_cell_angle_alpha   90.00000000
_cell_angle_beta   90.00000000
_cell_angle_gamma   119.36617480
_symmetry_Int_Tables_number   1
_chemical_formula_structural   Zr18Ta5(OsO2)3
_chemical_formula_sum   'Zr18 Ta5 Os3 O6'
_cell_volume   565.19555589
_cell_formula_units_Z   1
loop_
 _symmetry_equiv_pos_site_id
 _symmetry_equiv_pos_as_xyz
  1  'x, y, z'
loop_
 _atom_site_type_symbol
 _atom_site_label
 _atom_site_symmetry_multiplicity
 _atom_site_fract_x
 _atom_site_fract_y
 _atom_site_fract_z
 _atom_site_occupancy
  Zr  Zr0  1  0.453531  0.908424  0.250000  1
  Zr  Zr1  1  0.546658  0.093412  0.750000  1
  Zr  Zr2  1  0.094240  0.547492  0.250000  1
  Zr  Zr3  1  0.907480  0.453999  0.750000  1
  Zr  Zr4  1  0.453302  0.547419  0.250000  1
  Zr  Zr5  1  0.547252  0.453911  0.750000  1
  Zr  Zr6  1  0.203197  0.406646  0.564078  1
  Zr  Zr7  1  0.794688  0.589446  0.438744  1
  Zr  Zr8  1  0.587107  0.794162  0.562424  1
  Zr  Zr9  1  0.794688  0.589446  0.061256  1
  Zr  Zr10  1  0.410074  0.205176  0.437626  1
  Zr  Zr11  1  0.203197  0.406646  0.935922  1
  Zr  Zr12  1  0.205434  0.794244  0.562896  1
  Zr  Zr13  1  0.410074  0.205176  0.062374  1
  Zr  Zr14  1  0.793574  0.204737  0.436840  1
  Zr  Zr15  1  0.587107  0.794162  0.937576  1
  Zr  Zr16  1  0.793574  0.204737  0.063160  1
  Zr  Zr17  1  0.205434  0.794244  0.937104  1
  Ta  Ta18  1  0.113339  0.220064  0.250000  1
  Ta  Ta19  1  0.890542  0.781010  0.750000  1
  Ta  Ta20  1  0.781073  0.886247  0.250000  1
  Ta  Ta21  1  0.004408  0.003480  0.994594  1
  Ta  Ta22  1  0.004408  0.003480  0.505406  1
  Os  Os23  1  0.224238  0.111985  0.750000  1
  Os  Os24  1  0.110322  0.889316  0.250000  1
  Os  Os25  1  0.887912  0.113830  0.750000  1
  O  O26  1  0.497243  0.000108  0.998478  1
  O  O27  1  0.001583  0.501338  0.999788  1
  O  O28  1  0.497243  0.000108  0.501522  1
  O  O29  1  0.497745  0.497106  0.998776  1
  O  O30  1  0.001583  0.501338  0.500212  1
  O  O31  1  0.497745  0.497106  0.501224  1
