# generated using pymatgen
data_Sr6Ti2IrO12
_symmetry_space_group_name_H-M   'P 1'
_cell_length_a   8.81487371
_cell_length_b   8.81487341
_cell_length_c   6.93503243
_cell_angle_alpha   67.59829280
_cell_angle_beta   67.59828749
_cell_angle_gamma   36.79688662
_symmetry_Int_Tables_number   1
_chemical_formula_structural   Sr6Ti2IrO12
_chemical_formula_sum   'Sr6 Ti2 Ir1 O12'
_cell_volume   295.59372609
_cell_formula_units_Z   1
loop_
 _symmetry_equiv_pos_site_id
 _symmetry_equiv_pos_as_xyz
  1  'x, y, z'
loop_
 _atom_site_type_symbol
 _atom_site_label
 _atom_site_symmetry_multiplicity
 _atom_site_fract_x
 _atom_site_fract_y
 _atom_site_fract_z
 _atom_site_occupancy
  Sr  Sr0  1  0.880894  0.880894  0.711020  1
  Sr  Sr1  1  0.215742  0.215742  0.709180  1
  Sr  Sr2  1  0.548355  0.548355  0.709358  1
  Sr  Sr3  1  0.451645  0.451645  0.290642  1
  Sr  Sr4  1  0.784258  0.784258  0.290820  1
  Sr  Sr5  1  0.119106  0.119106  0.288980  1
  Ti  Ti6  1  0.666994  0.666994  0.999683  1
  Ti  Ti7  1  0.333006  0.333006  0.000317  1
  Ir  Ir8  1  0.000000  0.000000  0.000000  1
  O  O9  1  0.945970  0.945970  0.324738  1
  O  O10  1  0.279343  0.279343  0.317592  1
  O  O11  1  0.614558  0.614558  0.318313  1
  O  O12  1  0.385442  0.385442  0.681687  1
  O  O13  1  0.720657  0.720657  0.682408  1
  O  O14  1  0.054030  0.054030  0.675262  1
  O  O15  1  0.500000  0.000000  0.000000  1
  O  O16  1  0.831787  0.337415  0.999879  1
  O  O17  1  0.168213  0.662585  0.000121  1
  O  O18  1  0.000000  0.500000  0.000000  1
  O  O19  1  0.337415  0.831787  0.999879  1
  O  O20  1  0.662585  0.168213  0.000121  1
