# generated using pymatgen
data_Tm3Mn2Al6(Si3Ru)2
_symmetry_space_group_name_H-M   'P 1'
_cell_length_a   8.58091753
_cell_length_b   8.58091706
_cell_length_c   9.13943936
_cell_angle_alpha   89.88261231
_cell_angle_beta   90.11738783
_cell_angle_gamma   120.05569356
_symmetry_Int_Tables_number   1
_chemical_formula_structural   Tm3Mn2Al6(Si3Ru)2
_chemical_formula_sum   'Tm6 Mn4 Al12 Si12 Ru4'
_cell_volume   582.46844607
_cell_formula_units_Z   2
loop_
 _symmetry_equiv_pos_site_id
 _symmetry_equiv_pos_as_xyz
  1  'x, y, z'
loop_
 _atom_site_type_symbol
 _atom_site_label
 _atom_site_symmetry_multiplicity
 _atom_site_fract_x
 _atom_site_fract_y
 _atom_site_fract_z
 _atom_site_occupancy
  Tm  Tm0  1  0.807107  0.192893  0.751937  1
  Tm  Tm1  1  0.192893  0.807107  0.248063  1
  Tm  Tm2  1  0.385923  0.191616  0.752530  1
  Tm  Tm3  1  0.614077  0.808384  0.247470  1
  Tm  Tm4  1  0.808384  0.614077  0.752530  1
  Tm  Tm5  1  0.191616  0.385923  0.247470  1
  Mn  Mn6  1  0.000000  0.500000  0.000000  1
  Mn  Mn7  1  0.500000  0.000000  0.000000  1
  Mn  Mn8  1  0.000000  0.000000  0.000000  1
  Mn  Mn9  1  0.000000  0.000000  0.500000  1
  Al  Al10  1  0.836765  0.163235  0.419845  1
  Al  Al11  1  0.163235  0.836765  0.580155  1
  Al  Al12  1  0.325559  0.162730  0.419813  1
  Al  Al13  1  0.164761  0.835239  0.922555  1
  Al  Al14  1  0.674441  0.837270  0.580187  1
  Al  Al15  1  0.835239  0.164761  0.077445  1
  Al  Al16  1  0.837270  0.674441  0.419813  1
  Al  Al17  1  0.672146  0.839766  0.922038  1
  Al  Al18  1  0.162730  0.325559  0.580187  1
  Al  Al19  1  0.327854  0.160234  0.077962  1
  Al  Al20  1  0.160234  0.327854  0.922038  1
  Al  Al21  1  0.839766  0.672146  0.077962  1
  Si  Si22  1  0.670528  0.329472  0.961805  1
  Si  Si23  1  0.329472  0.670528  0.038195  1
  Si  Si24  1  0.333308  0.666692  0.456886  1
  Si  Si25  1  0.666692  0.333308  0.543114  1
  Si  Si26  1  0.437952  0.562048  0.750170  1
  Si  Si27  1  0.562048  0.437952  0.249830  1
  Si  Si28  1  0.118908  0.559236  0.756521  1
  Si  Si29  1  0.881092  0.440764  0.243479  1
  Si  Si30  1  0.440764  0.881092  0.756521  1
  Si  Si31  1  0.559236  0.118908  0.243479  1
  Si  Si32  1  0.000236  0.999764  0.750670  1
  Si  Si33  1  0.999764  0.000236  0.249330  1
  Ru  Ru34  1  0.500000  0.500000  0.000000  1
  Ru  Ru35  1  0.500000  0.500000  0.500000  1
  Ru  Ru36  1  0.000000  0.500000  0.500000  1
  Ru  Ru37  1  0.500000  0.000000  0.500000  1
