# generated using pymatgen
data_CdGa3FeSnCl16
_symmetry_space_group_name_H-M   'P 1'
_cell_length_a   7.29937548
_cell_length_b   7.41800000
_cell_length_c   13.75961300
_cell_angle_alpha   87.40644561
_cell_angle_beta   89.95278580
_cell_angle_gamma   89.96144542
_symmetry_Int_Tables_number   1
_chemical_formula_structural   CdGa3FeSnCl16
_chemical_formula_sum   'Cd1 Ga3 Fe1 Sn1 Cl16'
_cell_volume   744.27499250
_cell_formula_units_Z   1
loop_
 _symmetry_equiv_pos_site_id
 _symmetry_equiv_pos_as_xyz
  1  'x, y, z'
loop_
 _atom_site_type_symbol
 _atom_site_label
 _atom_site_symmetry_multiplicity
 _atom_site_fract_x
 _atom_site_fract_y
 _atom_site_fract_z
 _atom_site_occupancy
  Cd  Cd0  1  0.249655  0.076466  0.313034  1
  Ga  Ga1  1  0.069648  0.217061  0.084342  1
  Ga  Ga2  1  0.557447  0.638181  0.777907  1
  Ga  Ga3  1  0.419837  0.637555  0.276778  1
  Fe  Fe4  1  0.946196  0.223632  0.570806  1
  Sn  Sn5  1  0.764973  0.081065  0.815065  1
  Cl  Cl6  1  0.425175  0.609268  0.641002  1
  Cl  Cl7  1  0.571978  0.609820  0.145539  1
  Cl  Cl8  1  0.852793  0.725105  0.762801  1
  Cl  Cl9  1  0.133372  0.738008  0.260258  1
  Cl  Cl10  1  0.936965  0.481256  0.494437  1
  Cl  Cl11  1  0.056088  0.465147  0.999048  1
  Cl  Cl12  1  0.930690  0.993729  0.011290  1
  Cl  Cl13  1  0.090733  0.015057  0.485364  1
  Cl  Cl14  1  0.664523  0.129197  0.618083  1
  Cl  Cl15  1  0.355417  0.130419  0.125000  1
  Cl  Cl16  1  0.547912  0.392458  0.876028  1
  Cl  Cl17  1  0.419965  0.380698  0.370418  1
  Cl  Cl18  1  0.443715  0.866890  0.860626  1
  Cl  Cl19  1  0.534170  0.864758  0.363184  1
  Cl  Cl20  1  0.950766  0.229298  0.235298  1
  Cl  Cl21  1  0.077981  0.229737  0.718095  1
