# generated using pymatgen
data_Nd5Ho3(CuP)12
_symmetry_space_group_name_H-M   'P 1'
_cell_length_a   3.93525400
_cell_length_b   10.79850066
_cell_length_c   13.01935781
_cell_angle_alpha   89.95979623
_cell_angle_beta   90.00000000
_cell_angle_gamma   90.00000000
_symmetry_Int_Tables_number   1
_chemical_formula_structural   Nd5Ho3(CuP)12
_chemical_formula_sum   'Nd5 Ho3 Cu12 P12'
_cell_volume   553.25542867
_cell_formula_units_Z   1
loop_
 _symmetry_equiv_pos_site_id
 _symmetry_equiv_pos_as_xyz
  1  'x, y, z'
loop_
 _atom_site_type_symbol
 _atom_site_label
 _atom_site_symmetry_multiplicity
 _atom_site_fract_x
 _atom_site_fract_y
 _atom_site_fract_z
 _atom_site_occupancy
  Nd  Nd0  1  0.250000  0.931899  0.796105  1
  Nd  Nd1  1  0.750000  0.430186  0.707466  1
  Nd  Nd2  1  0.250000  0.567949  0.291677  1
  Nd  Nd3  1  0.750000  0.069116  0.206449  1
  Nd  Nd4  1  0.250000  0.842292  0.502497  1
  Ho  Ho5  1  0.750000  0.342631  0.997721  1
  Ho  Ho6  1  0.250000  0.656959  0.001991  1
  Ho  Ho7  1  0.750000  0.159054  0.497883  1
  Cu  Cu8  1  0.250000  0.400254  0.512139  1
  Cu  Cu9  1  0.750000  0.900623  0.988276  1
  Cu  Cu10  1  0.250000  0.099425  0.012476  1
  Cu  Cu11  1  0.750000  0.597447  0.487892  1
  Cu  Cu12  1  0.250000  0.272929  0.331776  1
  Cu  Cu13  1  0.750000  0.771003  0.165604  1
  Cu  Cu14  1  0.250000  0.228625  0.832713  1
  Cu  Cu15  1  0.750000  0.727896  0.669438  1
  Cu  Cu16  1  0.250000  0.860038  0.277276  1
  Cu  Cu17  1  0.750000  0.359943  0.219256  1
  Cu  Cu18  1  0.250000  0.639843  0.780827  1
  Cu  Cu19  1  0.750000  0.141324  0.720700  1
  P  P20  1  0.250000  0.236155  0.642933  1
  P  P21  1  0.750000  0.735966  0.857638  1
  P  P22  1  0.250000  0.264193  0.142448  1
  P  P23  1  0.750000  0.761668  0.351981  1
  P  P24  1  0.250000  0.602195  0.600439  1
  P  P25  1  0.750000  0.107335  0.902128  1
  P  P26  1  0.250000  0.893561  0.097613  1
  P  P27  1  0.750000  0.393634  0.401021  1
  P  P28  1  0.250000  0.061308  0.371459  1
  P  P29  1  0.750000  0.557356  0.126185  1
  P  P30  1  0.250000  0.441990  0.873252  1
  P  P31  1  0.750000  0.945200  0.632739  1
