# generated using pymatgen
data_VAs4W
_symmetry_space_group_name_H-M   'P 1'
_cell_length_a   4.87249158
_cell_length_b   4.87249099
_cell_length_c   7.60885887
_cell_angle_alpha   62.35672294
_cell_angle_beta   62.35672652
_cell_angle_gamma   40.01546074
_symmetry_Int_Tables_number   1
_chemical_formula_structural   VAs4W
_chemical_formula_sum   'V1 As4 W1'
_cell_volume   101.00568087
_cell_formula_units_Z   1
loop_
 _symmetry_equiv_pos_site_id
 _symmetry_equiv_pos_as_xyz
  1  'x, y, z'
loop_
 _atom_site_type_symbol
 _atom_site_label
 _atom_site_symmetry_multiplicity
 _atom_site_fract_x
 _atom_site_fract_y
 _atom_site_fract_z
 _atom_site_occupancy
  V  V0  1  0.844493  0.844493  0.197902  1
  As  As1  1  0.401958  0.401958  0.897712  1
  As  As2  1  0.593763  0.593763  0.111261  1
  As  As3  1  0.855793  0.855793  0.527552  1
  As  As4  1  0.149146  0.149146  0.461920  1
  W  W5  1  0.154846  0.154846  0.803653  1
