# generated using pymatgen
data_Cs4Na2DyAlAs4
_symmetry_space_group_name_H-M   'P 1'
_cell_length_a   9.83078831
_cell_length_b   9.83078851
_cell_length_c   9.83075014
_cell_angle_alpha   139.29212330
_cell_angle_beta   137.46125124
_cell_angle_gamma   60.33955362
_symmetry_Int_Tables_number   1
_chemical_formula_structural   Cs4Na2DyAlAs4
_chemical_formula_sum   'Cs4 Na2 Dy1 Al1 As4'
_cell_volume   414.54555017
_cell_formula_units_Z   1
loop_
 _symmetry_equiv_pos_site_id
 _symmetry_equiv_pos_as_xyz
  1  'x, y, z'
loop_
 _atom_site_type_symbol
 _atom_site_label
 _atom_site_symmetry_multiplicity
 _atom_site_fract_x
 _atom_site_fract_y
 _atom_site_fract_z
 _atom_site_occupancy
  Cs  Cs0  1  0.096670  0.327039  0.775253  1
  Cs  Cs1  1  0.448226  0.172957  0.269633  1
  Cs  Cs2  1  0.903324  0.678593  0.230367  1
  Cs  Cs3  1  0.551786  0.821417  0.724747  1
  Na  Na4  1  0.500000  0.750000  0.250000  1
  Na  Na5  1  0.500000  0.250000  0.750000  1
  Dy  Dy6  1  0.999993  0.249993  0.250000  1
  Al  Al7  1  0.000001  0.750001  0.750000  1
  As  As8  1  0.122226  0.892813  0.190370  1
  As  As9  1  0.877799  0.068166  0.770634  1
  As  As10  1  0.297533  0.607164  0.729366  1
  As  As11  1  0.702443  0.431856  0.309630  1
