# generated using pymatgen
data_CaLa7Tm2Si8O3
_symmetry_space_group_name_H-M   'P 1'
_cell_length_a   10.77002128
_cell_length_b   10.77002217
_cell_length_c   4.53041800
_cell_angle_alpha   90.00000000
_cell_angle_beta   90.00000000
_cell_angle_gamma   120.05589320
_symmetry_Int_Tables_number   1
_chemical_formula_structural   CaLa7Tm2Si8O3
_chemical_formula_sum   'Ca1 La7 Tm2 Si8 O3'
_cell_volume   454.83846674
_cell_formula_units_Z   1
loop_
 _symmetry_equiv_pos_site_id
 _symmetry_equiv_pos_as_xyz
  1  'x, y, z'
loop_
 _atom_site_type_symbol
 _atom_site_label
 _atom_site_symmetry_multiplicity
 _atom_site_fract_x
 _atom_site_fract_y
 _atom_site_fract_z
 _atom_site_occupancy
  Ca  Ca0  1  0.500000  0.500000  0.500000  1
  La  La1  1  0.211693  0.788307  0.000000  1
  La  La2  1  0.574676  0.782746  0.000000  1
  La  La3  1  0.782746  0.574676  0.000000  1
  La  La4  1  0.000000  0.000000  0.000000  1
  La  La5  1  0.217254  0.425324  0.000000  1
  La  La6  1  0.425324  0.217254  0.000000  1
  La  La7  1  0.788307  0.211693  0.000000  1
  Tm  Tm8  1  0.000000  0.500000  0.500000  1
  Tm  Tm9  1  0.500000  0.000000  0.500000  1
  Si  Si10  1  0.999914  0.775234  0.500000  1
  Si  Si11  1  0.000086  0.224766  0.500000  1
  Si  Si12  1  0.217818  0.217818  0.500000  1
  Si  Si13  1  0.775234  0.999914  0.500000  1
  Si  Si14  1  0.328890  0.671110  0.500000  1
  Si  Si15  1  0.224766  0.000086  0.500000  1
  Si  Si16  1  0.671110  0.328890  0.500000  1
  Si  Si17  1  0.782182  0.782182  0.500000  1
  O  O18  1  0.000000  0.500000  0.000000  1
  O  O19  1  0.500000  0.500000  0.000000  1
  O  O20  1  0.500000  0.000000  0.000000  1
