# generated using pymatgen
data_TaGa2Mo5
_symmetry_space_group_name_H-M   'P 1'
_cell_length_a   5.03571000
_cell_length_b   5.00075100
_cell_length_c   5.00075100
_cell_angle_alpha   90.00000000
_cell_angle_beta   90.00000000
_cell_angle_gamma   90.00000000
_symmetry_Int_Tables_number   1
_chemical_formula_structural   TaGa2Mo5
_chemical_formula_sum   'Ta1 Ga2 Mo5'
_cell_volume   125.93057102
_cell_formula_units_Z   1
loop_
 _symmetry_equiv_pos_site_id
 _symmetry_equiv_pos_as_xyz
  1  'x, y, z'
loop_
 _atom_site_type_symbol
 _atom_site_label
 _atom_site_symmetry_multiplicity
 _atom_site_fract_x
 _atom_site_fract_y
 _atom_site_fract_z
 _atom_site_occupancy
  Ta  Ta0  1  0.250000  0.000000  0.500000  1
  Ga  Ga1  1  0.998850  0.000000  0.000000  1
  Ga  Ga2  1  0.501150  0.500000  0.500000  1
  Mo  Mo3  1  0.750000  0.000000  0.500000  1
  Mo  Mo4  1  0.999313  0.500000  0.250001  1
  Mo  Mo5  1  0.999313  0.500000  0.749999  1
  Mo  Mo6  1  0.500687  0.750001  0.000000  1
  Mo  Mo7  1  0.500687  0.249999  0.000000  1
