# generated using pymatgen
data_Ac4Ga3CoI2
_symmetry_space_group_name_H-M   'P 1'
_cell_length_a   4.37532300
_cell_length_b   4.37532286
_cell_length_c   18.91595200
_cell_angle_alpha   90.00000000
_cell_angle_beta   90.00000000
_cell_angle_gamma   119.99999346
_symmetry_Int_Tables_number   1
_chemical_formula_structural   Ac4Ga3CoI2
_chemical_formula_sum   'Ac4 Ga3 Co1 I2'
_cell_volume   313.60219168
_cell_formula_units_Z   1
loop_
 _symmetry_equiv_pos_site_id
 _symmetry_equiv_pos_as_xyz
  1  'x, y, z'
loop_
 _atom_site_type_symbol
 _atom_site_label
 _atom_site_symmetry_multiplicity
 _atom_site_fract_x
 _atom_site_fract_y
 _atom_site_fract_z
 _atom_site_occupancy
  Ac  Ac0  1  0.000000  0.000000  0.102802  1
  Ac  Ac1  1  0.000000  0.000000  0.900285  1
  Ac  Ac2  1  0.000000  0.000000  0.617797  1
  Ac  Ac3  1  0.000000  0.000000  0.381321  1
  Ga  Ga4  1  0.333333  0.666667  0.511004  1
  Ga  Ga5  1  0.666667  0.333333  0.488166  1
  Ga  Ga6  1  0.666667  0.333333  0.001659  1
  Co  Co7  1  0.333333  0.666667  0.998637  1
  I  I8  1  0.333333  0.666667  0.250696  1
  I  I9  1  0.666667  0.333333  0.747631  1
