# generated using pymatgen
data_Sc2TiB2IrRh4
_symmetry_space_group_name_H-M   'P 1'
_cell_length_a   3.12982600
_cell_length_b   9.36319370
_cell_length_c   9.36694370
_cell_angle_alpha   89.95555250
_cell_angle_beta   90.00000000
_cell_angle_gamma   90.00000000
_symmetry_Int_Tables_number   1
_chemical_formula_structural   Sc2TiB2IrRh4
_chemical_formula_sum   'Sc4 Ti2 B4 Ir2 Rh8'
_cell_volume   274.49976787
_cell_formula_units_Z   2
loop_
 _symmetry_equiv_pos_site_id
 _symmetry_equiv_pos_as_xyz
  1  'x, y, z'
loop_
 _atom_site_type_symbol
 _atom_site_label
 _atom_site_symmetry_multiplicity
 _atom_site_fract_x
 _atom_site_fract_y
 _atom_site_fract_z
 _atom_site_occupancy
  Sc  Sc0  1  0.000000  0.174482  0.174212  1
  Sc  Sc1  1  0.000000  0.674412  0.325505  1
  Sc  Sc2  1  0.000000  0.325332  0.674869  1
  Sc  Sc3  1  0.000000  0.824973  0.825186  1
  Ti  Ti4  1  0.000000  0.498837  0.997885  1
  Ti  Ti5  1  0.000000  0.999942  0.500201  1
  B  B6  1  0.000000  0.877576  0.122493  1
  B  B7  1  0.000000  0.377755  0.377577  1
  B  B8  1  0.000000  0.622640  0.622661  1
  B  B9  1  0.000000  0.122497  0.877762  1
  Ir  Ir10  1  0.500000  0.717161  0.071276  1
  Ir  Ir11  1  0.500000  0.429455  0.217657  1
  Rh  Rh12  1  0.500000  0.000125  0.999552  1
  Rh  Rh13  1  0.500000  0.929618  0.283059  1
  Rh  Rh14  1  0.500000  0.217174  0.429246  1
  Rh  Rh15  1  0.500000  0.500182  0.501106  1
  Rh  Rh16  1  0.500000  0.782802  0.571012  1
  Rh  Rh17  1  0.500000  0.071502  0.717364  1
  Rh  Rh18  1  0.500000  0.571481  0.782399  1
  Rh  Rh19  1  0.500000  0.282051  0.928974  1
