# generated using pymatgen
data_Y12Th4MgHg3Ir4
_symmetry_space_group_name_H-M   'P 1'
_cell_length_a   9.77529242
_cell_length_b   9.78512672
_cell_length_c   9.78512700
_cell_angle_alpha   60.00000242
_cell_angle_beta   59.96671744
_cell_angle_gamma   59.96672070
_symmetry_Int_Tables_number   1
_chemical_formula_structural   Y12Th4MgHg3Ir4
_chemical_formula_sum   'Y12 Th4 Mg1 Hg3 Ir4'
_cell_volume   661.49876480
_cell_formula_units_Z   1
loop_
 _symmetry_equiv_pos_site_id
 _symmetry_equiv_pos_as_xyz
  1  'x, y, z'
loop_
 _atom_site_type_symbol
 _atom_site_label
 _atom_site_symmetry_multiplicity
 _atom_site_fract_x
 _atom_site_fract_y
 _atom_site_fract_z
 _atom_site_occupancy
  Y  Y0  1  0.060759  0.438742  0.438742  1
  Y  Y1  1  0.435976  0.062960  0.062960  1
  Y  Y2  1  0.435976  0.062960  0.438104  1
  Y  Y3  1  0.060759  0.438742  0.061757  1
  Y  Y4  1  0.435976  0.438104  0.062960  1
  Y  Y5  1  0.060759  0.061757  0.438742  1
  Y  Y6  1  0.182791  0.815188  0.815188  1
  Y  Y7  1  0.812759  0.186704  0.186704  1
  Y  Y8  1  0.812759  0.186704  0.813834  1
  Y  Y9  1  0.182791  0.815188  0.186832  1
  Y  Y10  1  0.812759  0.813834  0.186704  1
  Y  Y11  1  0.182791  0.186832  0.815188  1
  Th  Th12  1  0.599857  0.599464  0.599464  1
  Th  Th13  1  0.599857  0.599464  0.201215  1
  Th  Th14  1  0.599857  0.201215  0.599464  1
  Th  Th15  1  0.198162  0.600612  0.600612  1
  Mg  Mg16  1  0.522514  0.825829  0.825829  1
  Hg  Hg17  1  0.834657  0.838637  0.838637  1
  Hg  Hg18  1  0.834657  0.838637  0.488069  1
  Hg  Hg19  1  0.834657  0.488069  0.838637  1
  Ir  Ir20  1  0.393560  0.393689  0.393689  1
  Ir  Ir21  1  0.393560  0.393689  0.819061  1
  Ir  Ir22  1  0.393560  0.819061  0.393689  1
  Ir  Ir23  1  0.818245  0.393918  0.393918  1
