# generated using pymatgen
data_TaAl2V(SeO3)8
_symmetry_space_group_name_H-M   'P 1'
_cell_length_a   8.11600803
_cell_length_b   8.08745386
_cell_length_c   8.13331300
_cell_angle_alpha   90.45138656
_cell_angle_beta   89.67591683
_cell_angle_gamma   90.31058848
_symmetry_Int_Tables_number   1
_chemical_formula_structural   TaAl2V(SeO3)8
_chemical_formula_sum   'Ta1 Al2 V1 Se8 O24'
_cell_volume   533.82027932
_cell_formula_units_Z   1
loop_
 _symmetry_equiv_pos_site_id
 _symmetry_equiv_pos_as_xyz
  1  'x, y, z'
loop_
 _atom_site_type_symbol
 _atom_site_label
 _atom_site_symmetry_multiplicity
 _atom_site_fract_x
 _atom_site_fract_y
 _atom_site_fract_z
 _atom_site_occupancy
  Ta  Ta0  1  0.000000  0.500000  0.000000  1
  Al  Al1  1  0.000000  0.000000  0.500000  1
  Al  Al2  1  0.500000  0.000000  0.000000  1
  V  V3  1  0.500000  0.500000  0.500000  1
  Se  Se4  1  0.341706  0.689693  0.179260  1
  Se  Se5  1  0.818978  0.305723  0.346840  1
  Se  Se6  1  0.679271  0.831832  0.684226  1
  Se  Se7  1  0.187591  0.149193  0.813100  1
  Se  Se8  1  0.658294  0.310307  0.820740  1
  Se  Se9  1  0.181022  0.694277  0.653160  1
  Se  Se10  1  0.320729  0.168168  0.315774  1
  Se  Se11  1  0.812409  0.850807  0.186900  1
  O  O12  1  0.234183  0.542072  0.062186  1
  O  O13  1  0.730417  0.465318  0.468377  1
  O  O14  1  0.769813  0.955808  0.541316  1
  O  O15  1  0.269011  0.023435  0.958729  1
  O  O16  1  0.540466  0.965514  0.769495  1
  O  O17  1  0.478639  0.550818  0.270489  1
  O  O18  1  0.950404  0.431975  0.231523  1
  O  O19  1  0.042557  0.018732  0.729855  1
  O  O20  1  0.952741  0.233061  0.487704  1
  O  O21  1  0.538964  0.724003  0.549074  1
  O  O22  1  0.468417  0.766396  0.031884  1
  O  O23  1  0.055940  0.270046  0.942097  1
  O  O24  1  0.765817  0.457928  0.937814  1
  O  O25  1  0.269583  0.534682  0.531623  1
  O  O26  1  0.230187  0.044192  0.458684  1
  O  O27  1  0.730989  0.976565  0.041271  1
  O  O28  1  0.459534  0.034486  0.230505  1
  O  O29  1  0.521361  0.449182  0.729511  1
  O  O30  1  0.049596  0.568025  0.768477  1
  O  O31  1  0.957443  0.981268  0.270145  1
  O  O32  1  0.047259  0.766939  0.512296  1
  O  O33  1  0.461036  0.275997  0.450926  1
  O  O34  1  0.531583  0.233604  0.968116  1
  O  O35  1  0.944060  0.729954  0.057903  1
