# generated using pymatgen
data_NdTh3(SnPd2)2
_symmetry_space_group_name_H-M   'P 1'
_cell_length_a   7.91791731
_cell_length_b   7.91791731
_cell_length_c   3.85776800
_cell_angle_alpha   90.00000000
_cell_angle_beta   90.00000000
_cell_angle_gamma   89.47749980
_symmetry_Int_Tables_number   1
_chemical_formula_structural   NdTh3(SnPd2)2
_chemical_formula_sum   'Nd1 Th3 Sn2 Pd4'
_cell_volume   241.84659169
_cell_formula_units_Z   1
loop_
 _symmetry_equiv_pos_site_id
 _symmetry_equiv_pos_as_xyz
  1  'x, y, z'
loop_
 _atom_site_type_symbol
 _atom_site_label
 _atom_site_symmetry_multiplicity
 _atom_site_fract_x
 _atom_site_fract_y
 _atom_site_fract_z
 _atom_site_occupancy
  Nd  Nd0  1  0.677273  0.177273  0.500000  1
  Th  Th1  1  0.175900  0.323697  0.500000  1
  Th  Th2  1  0.325473  0.825473  0.500000  1
  Th  Th3  1  0.823697  0.675900  0.500000  1
  Sn  Sn4  1  0.501990  0.496340  0.000000  1
  Sn  Sn5  1  0.996340  0.001990  0.000000  1
  Pd  Pd6  1  0.880439  0.380439  0.000000  1
  Pd  Pd7  1  0.366428  0.122299  0.000000  1
  Pd  Pd8  1  0.622299  0.866428  0.000000  1
  Pd  Pd9  1  0.130160  0.630160  0.000000  1
