# generated using pymatgen
data_Ca4ZnCuSi6
_symmetry_space_group_name_H-M   'P 1'
_cell_length_a   8.28098207
_cell_length_b   8.12413759
_cell_length_c   5.94482849
_cell_angle_alpha   70.16963572
_cell_angle_beta   67.35139941
_cell_angle_gamma   42.47896262
_symmetry_Int_Tables_number   1
_chemical_formula_structural   Ca4ZnCuSi6
_chemical_formula_sum   'Ca4 Zn1 Cu1 Si6'
_cell_volume   248.28054525
_cell_formula_units_Z   1
loop_
 _symmetry_equiv_pos_site_id
 _symmetry_equiv_pos_as_xyz
  1  'x, y, z'
loop_
 _atom_site_type_symbol
 _atom_site_label
 _atom_site_symmetry_multiplicity
 _atom_site_fract_x
 _atom_site_fract_y
 _atom_site_fract_z
 _atom_site_occupancy
  Ca  Ca0  1  0.748535  0.748535  0.751465  1
  Ca  Ca1  1  0.755977  0.246652  0.753348  1
  Ca  Ca2  1  0.248535  0.248535  0.251465  1
  Ca  Ca3  1  0.246652  0.755977  0.244023  1
  Zn  Zn4  1  0.333078  0.333078  0.666922  1
  Cu  Cu5  1  0.667059  0.667059  0.332941  1
  Si  Si6  1  0.829410  0.340764  0.170590  1
  Si  Si7  1  0.671300  0.164438  0.328700  1
  Si  Si8  1  0.164438  0.671300  0.835562  1
  Si  Si9  1  0.340764  0.829410  0.659236  1
  Si  Si10  1  0.164178  0.164178  0.835822  1
  Si  Si11  1  0.830074  0.830074  0.169926  1
