# generated using pymatgen
data_Tm4Si4IrRh3
_symmetry_space_group_name_H-M   'P 1'
_cell_length_a   4.22032600
_cell_length_b   6.79901954
_cell_length_c   7.40377986
_cell_angle_alpha   89.90017520
_cell_angle_beta   90.00000000
_cell_angle_gamma   90.00000000
_symmetry_Int_Tables_number   1
_chemical_formula_structural   Tm4Si4IrRh3
_chemical_formula_sum   'Tm4 Si4 Ir1 Rh3'
_cell_volume   212.44432111
_cell_formula_units_Z   1
loop_
 _symmetry_equiv_pos_site_id
 _symmetry_equiv_pos_as_xyz
  1  'x, y, z'
loop_
 _atom_site_type_symbol
 _atom_site_label
 _atom_site_symmetry_multiplicity
 _atom_site_fract_x
 _atom_site_fract_y
 _atom_site_fract_z
 _atom_site_occupancy
  Tm  Tm0  1  0.250000  0.501860  0.190856  1
  Tm  Tm1  1  0.750000  0.497319  0.808868  1
  Tm  Tm2  1  0.750000  0.998065  0.689260  1
  Tm  Tm3  1  0.250000  0.001914  0.310640  1
  Si  Si4  1  0.250000  0.795056  0.891518  1
  Si  Si5  1  0.750000  0.205964  0.106813  1
  Si  Si6  1  0.750000  0.705976  0.392271  1
  Si  Si7  1  0.250000  0.292392  0.609818  1
  Ir  Ir8  1  0.250000  0.157515  0.934340  1
  Rh  Rh9  1  0.250000  0.655284  0.566485  1
  Rh  Rh10  1  0.750000  0.344172  0.433085  1
  Rh  Rh11  1  0.750000  0.844483  0.066048  1
