# generated using pymatgen
data_Tb15Dy(ErIr3)4
_symmetry_space_group_name_H-M   'P 1'
_cell_length_a   10.91342601
_cell_length_b   10.91286500
_cell_length_c   6.37528001
_cell_angle_alpha   90.00230919
_cell_angle_beta   89.99502202
_cell_angle_gamma   90.00137559
_symmetry_Int_Tables_number   1
_chemical_formula_structural   Tb15Dy(ErIr3)4
_chemical_formula_sum   'Tb15 Dy1 Er4 Ir12'
_cell_volume   759.27509223
_cell_formula_units_Z   1
loop_
 _symmetry_equiv_pos_site_id
 _symmetry_equiv_pos_as_xyz
  1  'x, y, z'
loop_
 _atom_site_type_symbol
 _atom_site_label
 _atom_site_symmetry_multiplicity
 _atom_site_fract_x
 _atom_site_fract_y
 _atom_site_fract_z
 _atom_site_occupancy
  Tb  Tb0  1  0.290503  0.087840  0.377815  1
  Tb  Tb1  1  0.290584  0.912267  0.877919  1
  Tb  Tb2  1  0.709438  0.087747  0.877935  1
  Tb  Tb3  1  0.709422  0.912247  0.377947  1
  Tb  Tb4  1  0.587746  0.790563  0.877912  1
  Tb  Tb5  1  0.587733  0.209415  0.377949  1
  Tb  Tb6  1  0.412244  0.790571  0.377933  1
  Tb  Tb7  1  0.412203  0.209428  0.877974  1
  Tb  Tb8  1  0.209361  0.412163  0.622030  1
  Tb  Tb9  1  0.209365  0.587583  0.122030  1
  Tb  Tb10  1  0.790679  0.412213  0.122063  1
  Tb  Tb11  1  0.790578  0.587719  0.622043  1
  Tb  Tb12  1  0.912268  0.709409  0.122073  1
  Tb  Tb13  1  0.912358  0.290559  0.622023  1
  Tb  Tb14  1  0.087714  0.709434  0.622058  1
  Dy  Dy15  1  0.087651  0.290843  0.121796  1
  Er  Er16  1  0.000046  0.000190  0.499984  1
  Er  Er17  1  0.000145  0.000361  0.000168  1
  Er  Er18  1  0.500015  0.499845  0.000081  1
  Er  Er19  1  0.500026  0.499892  0.499948  1
  Ir  Ir20  1  0.847843  0.152396  0.249889  1
  Ir  Ir21  1  0.847660  0.847660  0.749971  1
  Ir  Ir22  1  0.152243  0.152474  0.750457  1
  Ir  Ir23  1  0.152322  0.847668  0.250021  1
  Ir  Ir24  1  0.652321  0.347669  0.749989  1
  Ir  Ir25  1  0.652311  0.652343  0.250003  1
  Ir  Ir26  1  0.347418  0.347601  0.249885  1
  Ir  Ir27  1  0.347656  0.652333  0.749996  1
  Ir  Ir28  1  0.499981  0.999990  0.121168  1
  Ir  Ir29  1  0.500001  0.999993  0.621169  1
  Ir  Ir30  1  0.000086  0.499767  0.879082  1
  Ir  Ir31  1  0.000080  0.499820  0.378686  1
