# generated using pymatgen
data_Rb2CuAgO2
_symmetry_space_group_name_H-M   'P 1'
_cell_length_a   7.33653867
_cell_length_b   7.33653857
_cell_length_c   7.85114689
_cell_angle_alpha   98.69086686
_cell_angle_beta   98.69086721
_cell_angle_gamma   132.57819279
_symmetry_Int_Tables_number   1
_chemical_formula_structural   Rb2CuAgO2
_chemical_formula_sum   'Rb4 Cu2 Ag2 O4'
_cell_volume   288.36915464
_cell_formula_units_Z   2
loop_
 _symmetry_equiv_pos_site_id
 _symmetry_equiv_pos_as_xyz
  1  'x, y, z'
loop_
 _atom_site_type_symbol
 _atom_site_label
 _atom_site_symmetry_multiplicity
 _atom_site_fract_x
 _atom_site_fract_y
 _atom_site_fract_z
 _atom_site_occupancy
  Rb  Rb0  1  0.495949  0.190929  0.686879  1
  Rb  Rb1  1  0.190929  0.495949  0.686879  1
  Rb  Rb2  1  0.504051  0.809071  0.313121  1
  Rb  Rb3  1  0.809071  0.504051  0.313121  1
  Cu  Cu4  1  0.855221  0.855221  0.710443  1
  Cu  Cu5  1  0.144779  0.144779  0.289557  1
  Ag  Ag6  1  0.865642  0.134358  0.000000  1
  Ag  Ag7  1  0.134358  0.865642  0.000000  1
  O  O8  1  0.281350  0.009053  0.290403  1
  O  O9  1  0.990947  0.718650  0.709597  1
  O  O10  1  0.009053  0.281350  0.290403  1
  O  O11  1  0.718650  0.990947  0.709597  1
