# generated using pymatgen
data_Sm5CdIO12
_symmetry_space_group_name_H-M   'P 1'
_cell_length_a   6.58993909
_cell_length_b   6.44716024
_cell_length_c   6.61970900
_cell_angle_alpha   98.42573192
_cell_angle_beta   99.51121619
_cell_angle_gamma   96.46714823
_symmetry_Int_Tables_number   1
_chemical_formula_structural   Sm5CdIO12
_chemical_formula_sum   'Sm5 Cd1 I1 O12'
_cell_volume   271.67476877
_cell_formula_units_Z   1
loop_
 _symmetry_equiv_pos_site_id
 _symmetry_equiv_pos_as_xyz
  1  'x, y, z'
loop_
 _atom_site_type_symbol
 _atom_site_label
 _atom_site_symmetry_multiplicity
 _atom_site_fract_x
 _atom_site_fract_y
 _atom_site_fract_z
 _atom_site_occupancy
  Sm  Sm0  1  0.388862  0.695063  0.852160  1
  Sm  Sm1  1  0.861071  0.379645  0.681955  1
  Sm  Sm2  1  0.678840  0.849135  0.390097  1
  Sm  Sm3  1  0.606580  0.311070  0.135088  1
  Sm  Sm4  1  0.146275  0.610923  0.317709  1
  Cd  Cd5  1  0.334715  0.160375  0.591320  1
  I  I6  1  0.995261  0.994553  0.004713  1
  O  O7  1  0.185575  0.438479  0.598295  1
  O  O8  1  0.614240  0.182318  0.430275  1
  O  O9  1  0.432220  0.595992  0.175938  1
  O  O10  1  0.825724  0.555553  0.397693  1
  O  O11  1  0.398457  0.834413  0.560615  1
  O  O12  1  0.585369  0.431103  0.826697  1
  O  O13  1  0.916906  0.011636  0.719116  1
  O  O14  1  0.967330  0.287986  0.064648  1
  O  O15  1  0.281818  0.059705  0.996425  1
  O  O16  1  0.047511  0.965238  0.291201  1
  O  O17  1  0.028799  0.702150  0.939001  1
  O  O18  1  0.704446  0.934664  0.027053  1
