# generated using pymatgen
data_CaDy6IrI12
_symmetry_space_group_name_H-M   'P 1'
_cell_length_a   9.83445909
_cell_length_b   9.83445917
_cell_length_c   9.83445863
_cell_angle_alpha   107.16554419
_cell_angle_beta   107.16554788
_cell_angle_gamma   107.16553776
_symmetry_Int_Tables_number   1
_chemical_formula_structural   CaDy6IrI12
_chemical_formula_sum   'Ca1 Dy6 Ir1 I12'
_cell_volume   788.52673062
_cell_formula_units_Z   1
loop_
 _symmetry_equiv_pos_site_id
 _symmetry_equiv_pos_as_xyz
  1  'x, y, z'
loop_
 _atom_site_type_symbol
 _atom_site_label
 _atom_site_symmetry_multiplicity
 _atom_site_fract_x
 _atom_site_fract_y
 _atom_site_fract_z
 _atom_site_occupancy
  Ca  Ca0  1  0.500000  0.500000  0.500000  1
  Dy  Dy1  1  0.094418  0.021474  0.297694  1
  Dy  Dy2  1  0.297694  0.094418  0.021474  1
  Dy  Dy3  1  0.021474  0.297694  0.094418  1
  Dy  Dy4  1  0.905582  0.978526  0.702306  1
  Dy  Dy5  1  0.702306  0.905582  0.978526  1
  Dy  Dy6  1  0.978526  0.702306  0.905582  1
  Ir  Ir7  1  0.000000  0.000000  0.000000  1
  I  I8  1  0.071383  0.677785  0.224208  1
  I  I9  1  0.224208  0.071383  0.677785  1
  I  I10  1  0.677785  0.224208  0.071383  1
  I  I11  1  0.928617  0.322215  0.775792  1
  I  I12  1  0.775792  0.928617  0.322215  1
  I  I13  1  0.322215  0.775792  0.928617  1
  I  I14  1  0.455403  0.150614  0.377501  1
  I  I15  1  0.377501  0.455403  0.150614  1
  I  I16  1  0.150614  0.377501  0.455403  1
  I  I17  1  0.544597  0.849386  0.622499  1
  I  I18  1  0.622499  0.544597  0.849386  1
  I  I19  1  0.849386  0.622499  0.544597  1
