# generated using pymatgen
data_Y7Lu3AlSb5
_symmetry_space_group_name_H-M   'P 1'
_cell_length_a   6.34649267
_cell_length_b   8.89540708
_cell_length_c   8.90037075
_cell_angle_alpha   119.93450792
_cell_angle_beta   90.02573424
_cell_angle_gamma   90.02701021
_symmetry_Int_Tables_number   1
_chemical_formula_structural   Y7Lu3AlSb5
_chemical_formula_sum   'Y7 Lu3 Al1 Sb5'
_cell_volume   435.43605549
_cell_formula_units_Z   1
loop_
 _symmetry_equiv_pos_site_id
 _symmetry_equiv_pos_as_xyz
  1  'x, y, z'
loop_
 _atom_site_type_symbol
 _atom_site_label
 _atom_site_symmetry_multiplicity
 _atom_site_fract_x
 _atom_site_fract_y
 _atom_site_fract_z
 _atom_site_occupancy
  Y  Y0  1  0.999176  0.337571  0.672614  1
  Y  Y1  1  0.749855  0.248031  0.999962  1
  Y  Y2  1  0.749795  0.751901  0.761427  1
  Y  Y3  1  0.749618  0.990547  0.238281  1
  Y  Y4  1  0.250495  0.756507  0.000132  1
  Y  Y5  1  0.250083  0.246621  0.245686  1
  Y  Y6  1  0.250070  0.001688  0.755023  1
  Lu  Lu7  1  0.501400  0.338514  0.673414  1
  Lu  Lu8  1  0.501617  0.665728  0.326728  1
  Lu  Lu9  1  0.997914  0.665359  0.325879  1
  Al  Al10  1  0.748014  0.604143  0.002224  1
  Sb  Sb11  1  0.748526  0.389327  0.389910  1
  Sb  Sb12  1  0.748714  0.996602  0.608097  1
  Sb  Sb13  1  0.251839  0.394724  0.001585  1
  Sb  Sb14  1  0.251237  0.611167  0.606822  1
  Sb  Sb15  1  0.251647  0.001571  0.392216  1
