# generated using pymatgen
data_BiPd6Pb3S4
_symmetry_space_group_name_H-M   'P 1'
_cell_length_a   7.31609030
_cell_length_b   7.34784995
_cell_length_c   7.34784958
_cell_angle_alpha   109.55861111
_cell_angle_beta   109.38368640
_cell_angle_gamma   109.38368751
_symmetry_Int_Tables_number   1
_chemical_formula_structural   BiPd6Pb3S4
_chemical_formula_sum   'Bi1 Pd6 Pb3 S4'
_cell_volume   304.40075796
_cell_formula_units_Z   1
loop_
 _symmetry_equiv_pos_site_id
 _symmetry_equiv_pos_as_xyz
  1  'x, y, z'
loop_
 _atom_site_type_symbol
 _atom_site_label
 _atom_site_symmetry_multiplicity
 _atom_site_fract_x
 _atom_site_fract_y
 _atom_site_fract_z
 _atom_site_occupancy
  Bi  Bi0  1  0.493518  0.500000  0.000000  1
  Pd  Pd1  1  0.985214  0.233726  0.752047  1
  Pd  Pd2  1  0.746653  0.971811  0.226360  1
  Pd  Pd3  1  0.233167  0.747953  0.981678  1
  Pd  Pd4  1  0.520293  0.273640  0.245450  1
  Pd  Pd5  1  0.251489  0.518322  0.266274  1
  Pd  Pd6  1  0.274842  0.254550  0.528189  1
  Pb  Pb7  1  0.501284  0.999918  0.510638  1
  Pb  Pb8  1  0.990645  0.989362  0.989279  1
  Pb  Pb9  1  0.001366  0.510721  0.500082  1
  S  S10  1  0.500866  0.999824  0.950328  1
  S  S11  1  0.550537  0.549672  0.549496  1
  S  S12  1  0.001041  0.950504  0.500176  1
  S  S13  1  0.949084  0.500000  0.000000  1
