# generated using pymatgen
data_La2Nd3Co2
_symmetry_space_group_name_H-M   'P 1'
_cell_length_a   9.09554071
_cell_length_b   9.09554066
_cell_length_c   7.05094247
_cell_angle_alpha   85.21290428
_cell_angle_beta   85.21290701
_cell_angle_gamma   42.46479130
_symmetry_Int_Tables_number   1
_chemical_formula_structural   La2Nd3Co2
_chemical_formula_sum   'La4 Nd6 Co4'
_cell_volume   392.23696381
_cell_formula_units_Z   2
loop_
 _symmetry_equiv_pos_site_id
 _symmetry_equiv_pos_as_xyz
  1  'x, y, z'
loop_
 _atom_site_type_symbol
 _atom_site_label
 _atom_site_symmetry_multiplicity
 _atom_site_fract_x
 _atom_site_fract_y
 _atom_site_fract_z
 _atom_site_occupancy
  La  La0  1  0.014889  0.794043  0.900678  1
  La  La1  1  0.205957  0.985111  0.599322  1
  La  La2  1  0.985111  0.205957  0.099322  1
  La  La3  1  0.794043  0.014889  0.400678  1
  Nd  Nd4  1  0.357933  0.215944  0.826322  1
  Nd  Nd5  1  0.784056  0.642067  0.673678  1
  Nd  Nd6  1  0.642067  0.784056  0.173678  1
  Nd  Nd7  1  0.215944  0.357933  0.326322  1
  Nd  Nd8  1  0.570484  0.429516  0.750000  1
  Nd  Nd9  1  0.429516  0.570484  0.250000  1
  Co  Co10  1  0.174211  0.606148  0.584435  1
  Co  Co11  1  0.393852  0.825789  0.915565  1
  Co  Co12  1  0.825789  0.393852  0.415565  1
  Co  Co13  1  0.606148  0.174211  0.084435  1
