# generated using pymatgen
data_YEr2AuO7
_symmetry_space_group_name_H-M   'P 1'
_cell_length_a   6.45977886
_cell_length_b   6.45978035
_cell_length_c   7.40036100
_cell_angle_alpha   90.00000000
_cell_angle_beta   90.00000000
_cell_angle_gamma   108.68431816
_symmetry_Int_Tables_number   1
_chemical_formula_structural   YEr2AuO7
_chemical_formula_sum   'Y2 Er4 Au2 O14'
_cell_volume   292.53304096
_cell_formula_units_Z   2
loop_
 _symmetry_equiv_pos_site_id
 _symmetry_equiv_pos_as_xyz
  1  'x, y, z'
loop_
 _atom_site_type_symbol
 _atom_site_label
 _atom_site_symmetry_multiplicity
 _atom_site_fract_x
 _atom_site_fract_y
 _atom_site_fract_z
 _atom_site_occupancy
  Y  Y0  1  0.500000  0.500000  0.500000  1
  Y  Y1  1  0.500000  0.500000  0.000000  1
  Er  Er2  1  0.529513  0.997689  0.750000  1
  Er  Er3  1  0.997689  0.529513  0.250000  1
  Er  Er4  1  0.470487  0.002311  0.250000  1
  Er  Er5  1  0.002311  0.470487  0.750000  1
  Au  Au6  1  0.000000  0.000000  0.500000  1
  Au  Au7  1  0.000000  0.000000  0.000000  1
  O  O8  1  0.668870  0.920457  0.474873  1
  O  O9  1  0.920457  0.668870  0.525127  1
  O  O10  1  0.668870  0.920457  0.025127  1
  O  O11  1  0.920457  0.668870  0.974873  1
  O  O12  1  0.331130  0.079543  0.525127  1
  O  O13  1  0.079543  0.331130  0.474873  1
  O  O14  1  0.331130  0.079543  0.974873  1
  O  O15  1  0.079543  0.331130  0.025127  1
  O  O16  1  0.919628  0.080372  0.750000  1
  O  O17  1  0.080372  0.919628  0.250000  1
  O  O18  1  0.367074  0.632926  0.750000  1
  O  O19  1  0.632926  0.367074  0.250000  1
  O  O20  1  0.641249  0.358751  0.750000  1
  O  O21  1  0.358751  0.641249  0.250000  1
