# generated using pymatgen
data_Ho19Tm(CoBi2)4
_symmetry_space_group_name_H-M   'P 1'
_cell_length_a   7.95362234
_cell_length_b   8.86156120
_cell_length_c   12.34654457
_cell_angle_alpha   89.98172221
_cell_angle_beta   90.02972656
_cell_angle_gamma   89.98422619
_symmetry_Int_Tables_number   1
_chemical_formula_structural   Ho19Tm(CoBi2)4
_chemical_formula_sum   'Ho19 Tm1 Co4 Bi8'
_cell_volume   870.20292427
_cell_formula_units_Z   1
loop_
 _symmetry_equiv_pos_site_id
 _symmetry_equiv_pos_as_xyz
  1  'x, y, z'
loop_
 _atom_site_type_symbol
 _atom_site_label
 _atom_site_symmetry_multiplicity
 _atom_site_fract_x
 _atom_site_fract_y
 _atom_site_fract_z
 _atom_site_occupancy
  Ho  Ho0  1  0.345791  0.749897  0.699813  1
  Ho  Ho1  1  0.654442  0.250045  0.300232  1
  Ho  Ho2  1  0.845519  0.250048  0.800107  1
  Ho  Ho3  1  0.154457  0.749979  0.199893  1
  Ho  Ho4  1  0.885436  0.750002  0.810791  1
  Ho  Ho5  1  0.114483  0.250006  0.189138  1
  Ho  Ho6  1  0.385741  0.250111  0.689038  1
  Ho  Ho7  1  0.614609  0.749804  0.310995  1
  Ho  Ho8  1  0.324849  0.461726  0.437174  1
  Ho  Ho9  1  0.175514  0.461574  0.937034  1
  Ho  Ho10  1  0.324487  0.038275  0.437073  1
  Ho  Ho11  1  0.824482  0.538329  0.062986  1
  Ho  Ho12  1  0.675458  0.961558  0.562963  1
  Ho  Ho13  1  0.824485  0.961667  0.062965  1
  Ho  Ho14  1  0.175529  0.038415  0.937025  1
  Ho  Ho15  1  0.053039  0.749880  0.498102  1
  Ho  Ho16  1  0.946517  0.250157  0.501909  1
  Ho  Ho17  1  0.553204  0.249992  0.001888  1
  Ho  Ho18  1  0.446847  0.749980  0.998114  1
  Tm  Tm19  1  0.674482  0.538454  0.562805  1
  Co  Co20  1  0.067309  0.749999  0.991556  1
  Co  Co21  1  0.932685  0.250001  0.008428  1
  Co  Co22  1  0.567573  0.250287  0.508454  1
  Co  Co23  1  0.433147  0.749698  0.491709  1
  Bi  Bi24  1  0.571656  0.510180  0.826320  1
  Bi  Bi25  1  0.428424  0.489870  0.173564  1
  Bi  Bi26  1  0.071280  0.489885  0.673441  1
  Bi  Bi27  1  0.428431  0.010169  0.173582  1
  Bi  Bi28  1  0.928518  0.510196  0.326468  1
  Bi  Bi29  1  0.571581  0.989835  0.826446  1
  Bi  Bi30  1  0.928450  0.989821  0.326452  1
  Bi  Bi31  1  0.071575  0.010163  0.673535  1
