# generated using pymatgen
data_Sc3NiSb4Au3
_symmetry_space_group_name_H-M   'P 1'
_cell_length_a   7.73183756
_cell_length_b   7.86698903
_cell_length_c   7.77397379
_cell_angle_alpha   131.72778298
_cell_angle_beta   131.27620493
_cell_angle_gamma   71.27905170
_symmetry_Int_Tables_number   1
_chemical_formula_structural   Sc3NiSb4Au3
_chemical_formula_sum   'Sc3 Ni1 Sb4 Au3'
_cell_volume   259.27239487
_cell_formula_units_Z   1
loop_
 _symmetry_equiv_pos_site_id
 _symmetry_equiv_pos_as_xyz
  1  'x, y, z'
loop_
 _atom_site_type_symbol
 _atom_site_label
 _atom_site_symmetry_multiplicity
 _atom_site_fract_x
 _atom_site_fract_y
 _atom_site_fract_z
 _atom_site_occupancy
  Sc  Sc0  1  0.992145  0.998846  0.000000  1
  Sc  Sc1  1  0.749546  0.245704  0.490370  1
  Sc  Sc2  1  0.259175  0.755336  0.509632  1
  Ni  Ni3  1  0.630243  0.108524  0.000000  1
  Sb  Sb4  1  0.276866  0.251760  0.000000  1
  Sb  Sb5  1  0.740336  0.760886  0.000000  1
  Sb  Sb6  1  0.506435  0.018849  0.535551  1
  Sb  Sb7  1  0.970884  0.483300  0.464451  1
  Au  Au8  1  0.131304  0.625768  0.000000  1
  Au  Au9  1  0.872873  0.876854  0.502680  1
  Au  Au10  1  0.370194  0.374175  0.497321  1
