# generated using pymatgen
data_Pr3Nd5SiPd24
_symmetry_space_group_name_H-M   'P 1'
_cell_length_a   8.48965800
_cell_length_b   8.48965800
_cell_length_c   8.49023301
_cell_angle_alpha   89.99661217
_cell_angle_beta   89.99661217
_cell_angle_gamma   89.99959502
_symmetry_Int_Tables_number   1
_chemical_formula_structural   Pr3Nd5SiPd24
_chemical_formula_sum   'Pr3 Nd5 Si1 Pd24'
_cell_volume   611.92753944
_cell_formula_units_Z   1
loop_
 _symmetry_equiv_pos_site_id
 _symmetry_equiv_pos_as_xyz
  1  'x, y, z'
loop_
 _atom_site_type_symbol
 _atom_site_label
 _atom_site_symmetry_multiplicity
 _atom_site_fract_x
 _atom_site_fract_y
 _atom_site_fract_z
 _atom_site_occupancy
  Pr  Pr0  1  0.253313  0.253313  0.253273  1
  Pr  Pr1  1  0.746642  0.746642  0.746645  1
  Pr  Pr2  1  0.746656  0.746656  0.253317  1
  Nd  Nd3  1  0.746631  0.253354  0.746670  1
  Nd  Nd4  1  0.253356  0.253356  0.746703  1
  Nd  Nd5  1  0.253379  0.746649  0.253350  1
  Nd  Nd6  1  0.253354  0.746631  0.746670  1
  Nd  Nd7  1  0.746649  0.253379  0.253350  1
  Si  Si8  1  0.000018  0.000018  0.999988  1
  Pd  Pd9  1  0.256648  0.500225  0.999808  1
  Pd  Pd10  1  0.743348  0.499594  0.999995  1
  Pd  Pd11  1  0.999803  0.256618  0.500195  1
  Pd  Pd12  1  0.500225  0.256648  0.999808  1
  Pd  Pd13  1  0.000378  0.743393  0.499998  1
  Pd  Pd14  1  0.499594  0.743348  0.999995  1
  Pd  Pd15  1  0.500004  0.000011  0.256633  1
  Pd  Pd16  1  0.256618  0.999803  0.500195  1
  Pd  Pd17  1  0.499807  0.000198  0.743367  1
  Pd  Pd18  1  0.743393  0.000378  0.499998  1
  Pd  Pd19  1  0.000011  0.500004  0.256633  1
  Pd  Pd20  1  0.000198  0.499807  0.743367  1
  Pd  Pd21  1  0.251489  0.500208  0.500212  1
  Pd  Pd22  1  0.748527  0.499567  0.500003  1
  Pd  Pd23  1  0.500208  0.251489  0.500212  1
  Pd  Pd24  1  0.499567  0.748527  0.500003  1
  Pd  Pd25  1  0.499992  0.499992  0.251459  1
  Pd  Pd26  1  0.499784  0.499784  0.748536  1
  Pd  Pd27  1  0.280164  0.999791  0.999810  1
  Pd  Pd28  1  0.719842  0.000404  0.999990  1
  Pd  Pd29  1  0.999791  0.280164  0.999810  1
  Pd  Pd30  1  0.000404  0.719842  0.999990  1
  Pd  Pd31  1  0.000014  0.000014  0.280122  1
  Pd  Pd32  1  0.000193  0.000193  0.719892  1
