# generated using pymatgen
data_Dy6Lu4Si5Sb
_symmetry_space_group_name_H-M   'P 1'
_cell_length_a   8.45363000
_cell_length_b   8.47924144
_cell_length_c   6.24261100
_cell_angle_alpha   90.00000000
_cell_angle_beta   90.00000000
_cell_angle_gamma   119.90013330
_symmetry_Int_Tables_number   1
_chemical_formula_structural   Dy6Lu4Si5Sb
_chemical_formula_sum   'Dy6 Lu4 Si5 Sb1'
_cell_volume   387.91207944
_cell_formula_units_Z   1
loop_
 _symmetry_equiv_pos_site_id
 _symmetry_equiv_pos_as_xyz
  1  'x, y, z'
loop_
 _atom_site_type_symbol
 _atom_site_label
 _atom_site_symmetry_multiplicity
 _atom_site_fract_x
 _atom_site_fract_y
 _atom_site_fract_z
 _atom_site_occupancy
  Dy  Dy0  1  0.987924  0.746332  0.750000  1
  Dy  Dy1  1  0.998996  0.244729  0.250000  1
  Dy  Dy2  1  0.754267  0.755271  0.250000  1
  Dy  Dy3  1  0.763828  0.000000  0.750000  1
  Dy  Dy4  1  0.241592  0.253668  0.750000  1
  Dy  Dy5  1  0.242641  0.000000  0.250000  1
  Lu  Lu6  1  0.674480  0.343042  0.003477  1
  Lu  Lu7  1  0.331437  0.656958  0.496523  1
  Lu  Lu8  1  0.331437  0.656958  0.003477  1
  Lu  Lu9  1  0.674480  0.343042  0.496523  1
  Si  Si10  1  0.394260  0.392056  0.250000  1
  Si  Si11  1  0.002205  0.607944  0.250000  1
  Si  Si12  1  0.998629  0.394972  0.750000  1
  Si  Si13  1  0.603657  0.605028  0.750000  1
  Si  Si14  1  0.606046  0.000000  0.250000  1
  Sb  Sb15  1  0.394121  0.000000  0.750000  1
