# generated using pymatgen
data_Y2Ga9FePd2
_symmetry_space_group_name_H-M   'P 1'
_cell_length_a   7.57012661
_cell_length_b   7.57012654
_cell_length_c   9.51112100
_cell_angle_alpha   90.00000000
_cell_angle_beta   90.00000000
_cell_angle_gamma   119.67359133
_symmetry_Int_Tables_number   1
_chemical_formula_structural   Y2Ga9FePd2
_chemical_formula_sum   'Y4 Ga18 Fe2 Pd4'
_cell_volume   473.57382119
_cell_formula_units_Z   2
loop_
 _symmetry_equiv_pos_site_id
 _symmetry_equiv_pos_as_xyz
  1  'x, y, z'
loop_
 _atom_site_type_symbol
 _atom_site_label
 _atom_site_symmetry_multiplicity
 _atom_site_fract_x
 _atom_site_fract_y
 _atom_site_fract_z
 _atom_site_occupancy
  Y  Y0  1  0.317277  0.992336  0.250000  1
  Y  Y1  1  0.007664  0.682723  0.750000  1
  Y  Y2  1  0.667008  0.986725  0.750000  1
  Y  Y3  1  0.013275  0.332992  0.250000  1
  Ga  Ga4  1  0.347971  0.015645  0.921579  1
  Ga  Ga5  1  0.984355  0.652029  0.078421  1
  Ga  Ga6  1  0.347971  0.015645  0.578421  1
  Ga  Ga7  1  0.984355  0.652029  0.421579  1
  Ga  Ga8  1  0.664825  0.016489  0.078905  1
  Ga  Ga9  1  0.983511  0.335175  0.921095  1
  Ga  Ga10  1  0.664825  0.016489  0.421095  1
  Ga  Ga11  1  0.983511  0.335175  0.578905  1
  Ga  Ga12  1  0.665753  0.655117  0.935447  1
  Ga  Ga13  1  0.344883  0.334247  0.064553  1
  Ga  Ga14  1  0.665753  0.655117  0.564553  1
  Ga  Ga15  1  0.344883  0.334247  0.435447  1
  Ga  Ga16  1  0.132384  0.138263  0.750000  1
  Ga  Ga17  1  0.861737  0.867616  0.250000  1
  Ga  Ga18  1  0.463446  0.665475  0.250000  1
  Ga  Ga19  1  0.334525  0.536554  0.750000  1
  Ga  Ga20  1  0.570612  0.339343  0.750000  1
  Ga  Ga21  1  0.660657  0.429388  0.250000  1
  Fe  Fe22  1  0.669241  0.330759  0.000000  1
  Fe  Fe23  1  0.669241  0.330759  0.500000  1
  Pd  Pd24  1  0.998380  0.001620  0.000000  1
  Pd  Pd25  1  0.998380  0.001620  0.500000  1
  Pd  Pd26  1  0.326791  0.673209  0.000000  1
  Pd  Pd27  1  0.326791  0.673209  0.500000  1
