# generated using pymatgen
data_TlZn2Pd5
_symmetry_space_group_name_H-M   'P 1'
_cell_length_a   7.84664588
_cell_length_b   7.84664495
_cell_length_c   7.84664513
_cell_angle_alpha   149.11115229
_cell_angle_beta   149.11114194
_cell_angle_gamma   44.24773322
_symmetry_Int_Tables_number   1
_chemical_formula_structural   TlZn2Pd5
_chemical_formula_sum   'Tl1 Zn2 Pd5'
_cell_volume   126.95547283
_cell_formula_units_Z   1
loop_
 _symmetry_equiv_pos_site_id
 _symmetry_equiv_pos_as_xyz
  1  'x, y, z'
loop_
 _atom_site_type_symbol
 _atom_site_label
 _atom_site_symmetry_multiplicity
 _atom_site_fract_x
 _atom_site_fract_y
 _atom_site_fract_z
 _atom_site_occupancy
  Tl  Tl0  1  0.000000  0.000000  0.000000  1
  Zn  Zn1  1  0.251853  0.251853  0.000000  1
  Zn  Zn2  1  0.748147  0.748147  0.000000  1
  Pd  Pd3  1  0.500000  0.500000  0.000000  1
  Pd  Pd4  1  0.639265  0.139264  0.500001  1
  Pd  Pd5  1  0.860737  0.360736  0.500001  1
  Pd  Pd6  1  0.139264  0.639265  0.500001  1
  Pd  Pd7  1  0.360736  0.860737  0.500001  1
