# generated using pymatgen
data_Li2Pr3GaIr3
_symmetry_space_group_name_H-M   'P 1'
_cell_length_a   7.31361900
_cell_length_b   7.17416903
_cell_length_c   4.14658100
_cell_angle_alpha   90.00000000
_cell_angle_beta   90.00000000
_cell_angle_gamma   119.37124261
_symmetry_Int_Tables_number   1
_chemical_formula_structural   Li2Pr3GaIr3
_chemical_formula_sum   'Li2 Pr3 Ga1 Ir3'
_cell_volume   189.60142360
_cell_formula_units_Z   1
loop_
 _symmetry_equiv_pos_site_id
 _symmetry_equiv_pos_as_xyz
  1  'x, y, z'
loop_
 _atom_site_type_symbol
 _atom_site_label
 _atom_site_symmetry_multiplicity
 _atom_site_fract_x
 _atom_site_fract_y
 _atom_site_fract_z
 _atom_site_occupancy
  Li  Li0  1  0.766855  0.767314  0.000000  1
  Li  Li1  1  0.233145  0.000458  0.000000  1
  Pr  Pr2  1  0.415336  0.409632  0.500000  1
  Pr  Pr3  1  0.584664  0.994296  0.500000  1
  Pr  Pr4  1  0.000000  0.590162  0.500000  1
  Ga  Ga5  1  0.000000  0.233152  0.000000  1
  Ir  Ir6  1  0.681236  0.328796  0.000000  1
  Ir  Ir7  1  0.318764  0.647562  0.000000  1
  Ir  Ir8  1  0.000000  0.028629  0.500000  1
