# generated using pymatgen
data_DyY8Lu11Bi12
_symmetry_space_group_name_H-M   'P 1'
_cell_length_a   8.18118262
_cell_length_b   9.41799998
_cell_length_c   11.98824964
_cell_angle_alpha   90.01281938
_cell_angle_beta   89.88007339
_cell_angle_gamma   90.12849787
_symmetry_Int_Tables_number   1
_chemical_formula_structural   DyY8Lu11Bi12
_chemical_formula_sum   'Dy1 Y8 Lu11 Bi12'
_cell_volume   923.69479491
_cell_formula_units_Z   1
loop_
 _symmetry_equiv_pos_site_id
 _symmetry_equiv_pos_as_xyz
  1  'x, y, z'
loop_
 _atom_site_type_symbol
 _atom_site_label
 _atom_site_symmetry_multiplicity
 _atom_site_fract_x
 _atom_site_fract_y
 _atom_site_fract_z
 _atom_site_occupancy
  Dy  Dy0  1  0.309103  0.436323  0.940980  1
  Y  Y1  1  0.185982  0.749744  0.718360  1
  Y  Y2  1  0.685502  0.749829  0.781224  1
  Y  Y3  1  0.813920  0.249888  0.281732  1
  Y  Y4  1  0.314062  0.249541  0.219124  1
  Y  Y5  1  0.352650  0.749023  0.216695  1
  Y  Y6  1  0.852956  0.749426  0.283731  1
  Y  Y7  1  0.648273  0.249506  0.783146  1
  Y  Y8  1  0.145793  0.249505  0.716051  1
  Lu  Lu9  1  0.022508  0.749825  0.989641  1
  Lu  Lu10  1  0.522611  0.749752  0.510078  1
  Lu  Lu11  1  0.976653  0.249652  0.010491  1
  Lu  Lu12  1  0.477158  0.249770  0.489819  1
  Lu  Lu13  1  0.808278  0.066662  0.558610  1
  Lu  Lu14  1  0.692603  0.933710  0.059291  1
  Lu  Lu15  1  0.191431  0.566731  0.441108  1
  Lu  Lu16  1  0.691084  0.566875  0.058722  1
  Lu  Lu17  1  0.191678  0.933180  0.441203  1
  Lu  Lu18  1  0.308238  0.067395  0.940767  1
  Lu  Lu19  1  0.808358  0.433101  0.558572  1
  Bi  Bi20  1  0.434033  0.003749  0.671241  1
  Bi  Bi21  1  0.933383  0.495980  0.828334  1
  Bi  Bi22  1  0.566313  0.503661  0.328782  1
  Bi  Bi23  1  0.065800  0.995771  0.171589  1
  Bi  Bi24  1  0.566039  0.995785  0.328541  1
  Bi  Bi25  1  0.066057  0.503530  0.171809  1
  Bi  Bi26  1  0.434319  0.495802  0.671292  1
  Bi  Bi27  1  0.934044  0.003457  0.828336  1
  Bi  Bi28  1  0.404552  0.753956  0.957769  1
  Bi  Bi29  1  0.903342  0.749874  0.542938  1
  Bi  Bi30  1  0.596812  0.249107  0.043057  1
  Bi  Bi31  1  0.096462  0.249891  0.456967  1
