# generated using pymatgen
data_Ce3TmBeRh12
_symmetry_space_group_name_H-M   'P 1'
_cell_length_a   7.09549515
_cell_length_b   7.12116593
_cell_length_c   7.12116678
_cell_angle_alpha   109.54413346
_cell_angle_beta   109.39821222
_cell_angle_gamma   109.39820021
_symmetry_Int_Tables_number   1
_chemical_formula_structural   Ce3TmBeRh12
_chemical_formula_sum   'Ce3 Tm1 Be1 Rh12'
_cell_volume   277.23856512
_cell_formula_units_Z   1
loop_
 _symmetry_equiv_pos_site_id
 _symmetry_equiv_pos_as_xyz
  1  'x, y, z'
loop_
 _atom_site_type_symbol
 _atom_site_label
 _atom_site_symmetry_multiplicity
 _atom_site_fract_x
 _atom_site_fract_y
 _atom_site_fract_z
 _atom_site_occupancy
  Ce  Ce0  1  0.000000  0.000000  0.500000  1
  Ce  Ce1  1  0.000000  0.500000  0.000000  1
  Ce  Ce2  1  0.500000  0.500000  0.500000  1
  Tm  Tm3  1  0.500000  0.000000  0.000000  1
  Be  Be4  1  0.000000  0.000000  0.000000  1
  Rh  Rh5  1  0.749661  0.249661  0.499321  1
  Rh  Rh6  1  0.749661  0.499321  0.249661  1
  Rh  Rh7  1  0.500000  0.249661  0.750339  1
  Rh  Rh8  1  0.250339  0.500679  0.750339  1
  Rh  Rh9  1  0.250339  0.750339  0.500679  1
  Rh  Rh10  1  0.500000  0.750339  0.249661  1
  Rh  Rh11  1  0.731549  0.732273  0.000000  1
  Rh  Rh12  1  0.268451  0.000000  0.267727  1
  Rh  Rh13  1  0.999277  0.267727  0.267727  1
  Rh  Rh14  1  0.268451  0.267727  0.000000  1
  Rh  Rh15  1  0.731549  0.000000  0.732273  1
  Rh  Rh16  1  0.000723  0.732273  0.732273  1
