# generated using pymatgen
data_Sr3CaRhO6
_symmetry_space_group_name_H-M   'P 1'
_cell_length_a   6.85232083
_cell_length_b   6.85232021
_cell_length_c   6.85232035
_cell_angle_alpha   91.45058429
_cell_angle_beta   91.45058616
_cell_angle_gamma   91.45056774
_symmetry_Int_Tables_number   1
_chemical_formula_structural   Sr3CaRhO6
_chemical_formula_sum   'Sr6 Ca2 Rh2 O12'
_cell_volume   321.43122962
_cell_formula_units_Z   2
loop_
 _symmetry_equiv_pos_site_id
 _symmetry_equiv_pos_as_xyz
  1  'x, y, z'
loop_
 _atom_site_type_symbol
 _atom_site_label
 _atom_site_symmetry_multiplicity
 _atom_site_fract_x
 _atom_site_fract_y
 _atom_site_fract_z
 _atom_site_occupancy
  Sr  Sr0  1  0.885437  0.250000  0.614563  1
  Sr  Sr1  1  0.385437  0.114563  0.750000  1
  Sr  Sr2  1  0.750000  0.385437  0.114563  1
  Sr  Sr3  1  0.250000  0.614563  0.885437  1
  Sr  Sr4  1  0.614563  0.885437  0.250000  1
  Sr  Sr5  1  0.114563  0.750000  0.385437  1
  Ca  Ca6  1  0.750000  0.750000  0.750000  1
  Ca  Ca7  1  0.250000  0.250000  0.250000  1
  Rh  Rh8  1  0.500000  0.500000  0.500000  1
  Rh  Rh9  1  0.000000  0.000000  0.000000  1
  O  O10  1  0.918456  0.714017  0.050487  1
  O  O11  1  0.449513  0.785983  0.581544  1
  O  O12  1  0.050487  0.918456  0.714017  1
  O  O13  1  0.285983  0.949513  0.081544  1
  O  O14  1  0.949513  0.081544  0.285983  1
  O  O15  1  0.714017  0.050487  0.918456  1
  O  O16  1  0.581544  0.449513  0.785983  1
  O  O17  1  0.785983  0.581544  0.449513  1
  O  O18  1  0.418456  0.550487  0.214017  1
  O  O19  1  0.214017  0.418456  0.550487  1
  O  O20  1  0.550487  0.214017  0.418456  1
  O  O21  1  0.081544  0.285983  0.949513  1
