# generated using pymatgen
data_YHo7Si12(IrRh)2
_symmetry_space_group_name_H-M   'P 1'
_cell_length_a   8.15853800
_cell_length_b   8.15853786
_cell_length_c   7.87957700
_cell_angle_alpha   90.00000000
_cell_angle_beta   90.00000000
_cell_angle_gamma   120.00000058
_symmetry_Int_Tables_number   1
_chemical_formula_structural   YHo7Si12(IrRh)2
_chemical_formula_sum   'Y1 Ho7 Si12 Ir2 Rh2'
_cell_volume   454.21158469
_cell_formula_units_Z   1
loop_
 _symmetry_equiv_pos_site_id
 _symmetry_equiv_pos_as_xyz
  1  'x, y, z'
loop_
 _atom_site_type_symbol
 _atom_site_label
 _atom_site_symmetry_multiplicity
 _atom_site_fract_x
 _atom_site_fract_y
 _atom_site_fract_z
 _atom_site_occupancy
  Y  Y0  1  0.000000  0.000000  0.248691  1
  Ho  Ho1  1  0.000000  0.000000  0.751326  1
  Ho  Ho2  1  0.509360  0.490640  0.250310  1
  Ho  Ho3  1  0.509360  0.018719  0.250310  1
  Ho  Ho4  1  0.981281  0.490640  0.250310  1
  Ho  Ho5  1  0.490640  0.509360  0.749694  1
  Ho  Ho6  1  0.490640  0.981280  0.749694  1
  Ho  Ho7  1  0.018720  0.509360  0.749694  1
  Si  Si8  1  0.166781  0.833219  0.499263  1
  Si  Si9  1  0.166781  0.333559  0.499263  1
  Si  Si10  1  0.666441  0.833219  0.499263  1
  Si  Si11  1  0.833217  0.166783  0.501170  1
  Si  Si12  1  0.833217  0.666437  0.501170  1
  Si  Si13  1  0.333563  0.166783  0.501170  1
  Si  Si14  1  0.832952  0.167048  0.999806  1
  Si  Si15  1  0.832952  0.665904  0.999806  1
  Si  Si16  1  0.334096  0.167048  0.999806  1
  Si  Si17  1  0.167046  0.832954  0.999735  1
  Si  Si18  1  0.167046  0.334090  0.999735  1
  Si  Si19  1  0.665910  0.832954  0.999735  1
  Ir  Ir20  1  0.333333  0.666667  0.468386  1
  Ir  Ir21  1  0.666667  0.333333  0.531628  1
  Rh  Rh22  1  0.666667  0.333333  0.963291  1
  Rh  Rh23  1  0.333333  0.666667  0.036740  1
