# generated using pymatgen
data_Nd16Cd2Hg2IrPt3
_symmetry_space_group_name_H-M   'P 1'
_cell_length_a   10.00317290
_cell_length_b   9.97867220
_cell_length_c   9.97320900
_cell_angle_alpha   60.01810579
_cell_angle_beta   60.09903567
_cell_angle_gamma   60.17947326
_symmetry_Int_Tables_number   1
_chemical_formula_structural   Nd16Cd2Hg2IrPt3
_chemical_formula_sum   'Nd16 Cd2 Hg2 Ir1 Pt3'
_cell_volume   705.50579150
_cell_formula_units_Z   1
loop_
 _symmetry_equiv_pos_site_id
 _symmetry_equiv_pos_as_xyz
  1  'x, y, z'
loop_
 _atom_site_type_symbol
 _atom_site_label
 _atom_site_symmetry_multiplicity
 _atom_site_fract_x
 _atom_site_fract_y
 _atom_site_fract_z
 _atom_site_occupancy
  Nd  Nd0  1  0.352847  0.348900  0.347908  1
  Nd  Nd1  1  0.352847  0.348900  0.950345  1
  Nd  Nd2  1  0.354645  0.945912  0.349722  1
  Nd  Nd3  1  0.941601  0.353692  0.352353  1
  Nd  Nd4  1  0.806626  0.189320  0.191451  1
  Nd  Nd5  1  0.190721  0.809115  0.808055  1
  Nd  Nd6  1  0.190721  0.809115  0.192109  1
  Nd  Nd7  1  0.806626  0.189320  0.812602  1
  Nd  Nd8  1  0.190901  0.190296  0.809401  1
  Nd  Nd9  1  0.805219  0.811635  0.191573  1
  Nd  Nd10  1  0.938425  0.561748  0.563947  1
  Nd  Nd11  1  0.563353  0.937602  0.936663  1
  Nd  Nd12  1  0.563353  0.937602  0.562382  1
  Nd  Nd13  1  0.938425  0.561748  0.935880  1
  Nd  Nd14  1  0.563946  0.561124  0.937465  1
  Nd  Nd15  1  0.937344  0.936135  0.563260  1
  Cd  Cd16  1  0.579404  0.259380  0.580607  1
  Cd  Cd17  1  0.259931  0.579311  0.580378  1
  Hg  Hg18  1  0.583723  0.583844  0.586192  1
  Hg  Hg19  1  0.583723  0.583844  0.246239  1
  Ir  Ir20  1  0.571553  0.142384  0.143031  1
  Pt  Pt21  1  0.141495  0.143851  0.144512  1
  Pt  Pt22  1  0.141495  0.143851  0.570141  1
  Pt  Pt23  1  0.141072  0.571366  0.143780  1
