# generated using pymatgen
data_BaAc5(SnPd)6
_symmetry_space_group_name_H-M   'P 1'
_cell_length_a   7.86694600
_cell_length_b   7.82099597
_cell_length_c   8.52387400
_cell_angle_alpha   90.00000000
_cell_angle_beta   90.00000000
_cell_angle_gamma   119.83634757
_symmetry_Int_Tables_number   1
_chemical_formula_structural   BaAc5(SnPd)6
_chemical_formula_sum   'Ba1 Ac5 Sn6 Pd6'
_cell_volume   454.93537365
_cell_formula_units_Z   1
loop_
 _symmetry_equiv_pos_site_id
 _symmetry_equiv_pos_as_xyz
  1  'x, y, z'
loop_
 _atom_site_type_symbol
 _atom_site_label
 _atom_site_symmetry_multiplicity
 _atom_site_fract_x
 _atom_site_fract_y
 _atom_site_fract_z
 _atom_site_occupancy
  Ba  Ba0  1  0.999378  0.419935  0.250000  1
  Ac  Ac1  1  0.419162  0.000354  0.250000  1
  Ac  Ac2  1  0.580838  0.581355  0.250000  1
  Ac  Ac3  1  0.419439  0.999731  0.750000  1
  Ac  Ac4  1  0.580836  0.580985  0.750000  1
  Ac  Ac5  1  0.999861  0.416261  0.750000  1
  Sn  Sn6  1  0.759421  0.998972  0.000199  1
  Sn  Sn7  1  0.241083  0.239947  0.500129  1
  Sn  Sn8  1  0.000307  0.760075  0.503168  1
  Sn  Sn9  1  0.000307  0.760075  0.996832  1
  Sn  Sn10  1  0.241083  0.239947  0.999871  1
  Sn  Sn11  1  0.759421  0.998972  0.499801  1
  Pd  Pd12  1  0.341203  0.673347  0.993942  1
  Pd  Pd13  1  0.341203  0.673347  0.506058  1
  Pd  Pd14  1  0.657946  0.331793  0.993450  1
  Pd  Pd15  1  0.657946  0.331793  0.506550  1
  Pd  Pd16  1  0.000531  0.992054  0.250000  1
  Pd  Pd17  1  0.000037  0.001057  0.750000  1
