# generated using pymatgen
data_CsLaTb9(C2Br9)2
_symmetry_space_group_name_H-M   'P 1'
_cell_length_a   10.78942892
_cell_length_b   10.87491406
_cell_length_c   11.00551052
_cell_angle_alpha   113.47505317
_cell_angle_beta   87.36648687
_cell_angle_gamma   118.76501005
_symmetry_Int_Tables_number   1
_chemical_formula_structural   CsLaTb9(C2Br9)2
_chemical_formula_sum   'Cs1 La1 Tb9 C4 Br18'
_cell_volume   1021.08427020
_cell_formula_units_Z   1
loop_
 _symmetry_equiv_pos_site_id
 _symmetry_equiv_pos_as_xyz
  1  'x, y, z'
loop_
 _atom_site_type_symbol
 _atom_site_label
 _atom_site_symmetry_multiplicity
 _atom_site_fract_x
 _atom_site_fract_y
 _atom_site_fract_z
 _atom_site_occupancy
  Cs  Cs0  1  0.500102  0.001535  0.499653  1
  La  La1  1  0.651554  0.712885  0.696337  1
  Tb  Tb2  1  0.281223  0.363115  0.013193  1
  Tb  Tb3  1  0.091761  0.404883  0.299595  1
  Tb  Tb4  1  0.961338  0.038207  0.332608  1
  Tb  Tb5  1  0.907083  0.594285  0.699491  1
  Tb  Tb6  1  0.112443  0.942309  0.001542  1
  Tb  Tb7  1  0.041315  0.963267  0.668932  1
  Tb  Tb8  1  0.336645  0.281336  0.296157  1
  Tb  Tb9  1  0.721170  0.637826  0.988994  1
  Tb  Tb10  1  0.889362  0.058471  0.999428  1
  C  C11  1  0.156359  0.226979  0.123917  1
  C  C12  1  0.846051  0.773735  0.877480  1
  C  C13  1  0.923756  0.851839  0.798018  1
  C  C14  1  0.078534  0.148782  0.203469  1
  Br  Br15  1  0.449264  0.526836  0.840513  1
  Br  Br16  1  0.381476  0.038609  0.158968  1
  Br  Br17  1  0.784892  0.862996  0.498806  1
  Br  Br18  1  0.839625  0.311133  0.154604  1
  Br  Br19  1  0.546410  0.468158  0.166702  1
  Br  Br20  1  0.221604  0.143167  0.497074  1
  Br  Br21  1  0.313733  0.099418  0.830119  1
  Br  Br22  1  0.687744  0.901113  0.170096  1
  Br  Br23  1  0.975310  0.762802  0.172579  1
  Br  Br24  1  0.933983  0.302173  0.499781  1
  Br  Br25  1  0.025813  0.237313  0.828312  1
  Br  Br26  1  0.066680  0.698115  0.500288  1
  Br  Br27  1  0.259481  0.620942  0.187528  1
  Br  Br28  1  0.740399  0.379346  0.812751  1
  Br  Br29  1  0.639208  0.421056  0.491877  1
  Br  Br30  1  0.160680  0.689236  0.845586  1
  Br  Br31  1  0.619049  0.974692  0.848774  1
  Br  Br32  1  0.355953  0.563444  0.496832  1
