# generated using pymatgen
data_Ca3Al3Si2SbO14
_symmetry_space_group_name_H-M   'P 1'
_cell_length_a   8.10730100
_cell_length_b   8.10730108
_cell_length_c   4.97575900
_cell_angle_alpha   90.00000000
_cell_angle_beta   90.00000000
_cell_angle_gamma   119.99999560
_symmetry_Int_Tables_number   1
_chemical_formula_structural   Ca3Al3Si2SbO14
_chemical_formula_sum   'Ca3 Al3 Si2 Sb1 O14'
_cell_volume   283.23217477
_cell_formula_units_Z   1
loop_
 _symmetry_equiv_pos_site_id
 _symmetry_equiv_pos_as_xyz
  1  'x, y, z'
loop_
 _atom_site_type_symbol
 _atom_site_label
 _atom_site_symmetry_multiplicity
 _atom_site_fract_x
 _atom_site_fract_y
 _atom_site_fract_z
 _atom_site_occupancy
  Ca  Ca0  1  0.000000  0.424229  0.000000  1
  Ca  Ca1  1  0.575771  0.575771  0.000000  1
  Ca  Ca2  1  0.424229  0.000000  0.000000  1
  Al  Al3  1  0.256176  0.256176  0.500000  1
  Al  Al4  1  0.743824  0.000000  0.500000  1
  Al  Al5  1  0.000000  0.743824  0.500000  1
  Si  Si6  1  0.333333  0.666667  0.541283  1
  Si  Si7  1  0.666667  0.333333  0.458717  1
  Sb  Sb8  1  0.000000  0.000000  0.000000  1
  O  O9  1  0.093145  0.227504  0.239435  1
  O  O10  1  0.772496  0.865641  0.239435  1
  O  O11  1  0.134359  0.906855  0.239435  1
  O  O12  1  0.865641  0.772496  0.760565  1
  O  O13  1  0.906855  0.134359  0.760565  1
  O  O14  1  0.227504  0.093145  0.760565  1
  O  O15  1  0.316341  0.471789  0.677130  1
  O  O16  1  0.528211  0.844552  0.677130  1
  O  O17  1  0.155448  0.683659  0.677130  1
  O  O18  1  0.333333  0.666667  0.217041  1
  O  O19  1  0.666667  0.333333  0.782959  1
  O  O20  1  0.471789  0.316341  0.322870  1
  O  O21  1  0.683659  0.155448  0.322870  1
  O  O22  1  0.844552  0.528211  0.322870  1
