# generated using pymatgen
data_Dy16InAg3(IrRh)2
_symmetry_space_group_name_H-M   'P 1'
_cell_length_a   9.56751550
_cell_length_b   9.54388672
_cell_length_c   9.54388805
_cell_angle_alpha   60.25298048
_cell_angle_beta   60.29751183
_cell_angle_gamma   60.29750902
_symmetry_Int_Tables_number   1
_chemical_formula_structural   Dy16InAg3(IrRh)2
_chemical_formula_sum   'Dy16 In1 Ag3 Ir2 Rh2'
_cell_volume   620.16043649
_cell_formula_units_Z   1
loop_
 _symmetry_equiv_pos_site_id
 _symmetry_equiv_pos_as_xyz
  1  'x, y, z'
loop_
 _atom_site_type_symbol
 _atom_site_label
 _atom_site_symmetry_multiplicity
 _atom_site_fract_x
 _atom_site_fract_y
 _atom_site_fract_z
 _atom_site_occupancy
  Dy  Dy0  1  0.688762  0.311885  0.311885  1
  Dy  Dy1  1  0.690815  0.689702  0.310156  1
  Dy  Dy2  1  0.311899  0.688511  0.312473  1
  Dy  Dy3  1  0.935469  0.937133  0.559754  1
  Dy  Dy4  1  0.148833  0.149388  0.552790  1
  Dy  Dy5  1  0.561967  0.937871  0.562049  1
  Dy  Dy6  1  0.147831  0.148593  0.148593  1
  Dy  Dy7  1  0.311899  0.312473  0.688511  1
  Dy  Dy8  1  0.937919  0.561255  0.561255  1
  Dy  Dy9  1  0.561967  0.562049  0.937871  1
  Dy  Dy10  1  0.560483  0.935448  0.935448  1
  Dy  Dy11  1  0.935469  0.559754  0.937133  1
  Dy  Dy12  1  0.148833  0.552790  0.149388  1
  Dy  Dy13  1  0.310145  0.690184  0.690184  1
  Dy  Dy14  1  0.690815  0.310156  0.689702  1
  Dy  Dy15  1  0.553561  0.148946  0.148946  1
  In  In16  1  0.921231  0.921482  0.921482  1
  Ag  Ag17  1  0.916773  0.916908  0.249134  1
  Ag  Ag18  1  0.249257  0.916819  0.916819  1
  Ag  Ag19  1  0.916773  0.249134  0.916908  1
  Ir  Ir20  1  0.357882  0.357991  0.357991  1
  Ir  Ir21  1  0.927845  0.356853  0.356853  1
  Rh  Rh22  1  0.356787  0.356528  0.928147  1
  Rh  Rh23  1  0.356787  0.928147  0.356528  1
