# generated using pymatgen
data_PrBi3Ir4F28
_symmetry_space_group_name_H-M   'P 1'
_cell_length_a   5.65943414
_cell_length_b   9.23693232
_cell_length_c   12.24872063
_cell_angle_alpha   61.96443551
_cell_angle_beta   90.18288745
_cell_angle_gamma   89.87624920
_symmetry_Int_Tables_number   1
_chemical_formula_structural   PrBi3Ir4F28
_chemical_formula_sum   'Pr1 Bi3 Ir4 F28'
_cell_volume   565.16731676
_cell_formula_units_Z   1
loop_
 _symmetry_equiv_pos_site_id
 _symmetry_equiv_pos_as_xyz
  1  'x, y, z'
loop_
 _atom_site_type_symbol
 _atom_site_label
 _atom_site_symmetry_multiplicity
 _atom_site_fract_x
 _atom_site_fract_y
 _atom_site_fract_z
 _atom_site_occupancy
  Pr  Pr0  1  0.739053  0.806544  0.265612  1
  Bi  Bi1  1  0.765669  0.815990  0.761994  1
  Bi  Bi2  1  0.265385  0.185062  0.736827  1
  Bi  Bi3  1  0.231592  0.182304  0.237543  1
  Ir  Ir4  1  0.758528  0.272758  0.957017  1
  Ir  Ir5  1  0.256425  0.727556  0.543783  1
  Ir  Ir6  1  0.243937  0.728393  0.039464  1
  Ir  Ir7  1  0.742677  0.270798  0.459466  1
  F  F8  1  0.431398  0.708414  0.913081  1
  F  F9  1  0.931717  0.291624  0.585970  1
  F  F10  1  0.572294  0.291791  0.083740  1
  F  F11  1  0.067112  0.709162  0.415426  1
  F  F12  1  0.444935  0.279246  0.542770  1
  F  F13  1  0.943601  0.721343  0.956504  1
  F  F14  1  0.550640  0.719867  0.459075  1
  F  F15  1  0.057549  0.280176  0.041512  1
  F  F16  1  0.768088  0.509671  0.861789  1
  F  F17  1  0.265504  0.490263  0.638872  1
  F  F18  1  0.234709  0.491936  0.135755  1
  F  F19  1  0.732690  0.510265  0.363589  1
  F  F20  1  0.757949  0.034007  0.049778  1
  F  F21  1  0.258064  0.967952  0.451505  1
  F  F22  1  0.243133  0.969388  0.948342  1
  F  F23  1  0.742647  0.029852  0.551129  1
  F  F24  1  0.964214  0.729705  0.631464  1
  F  F25  1  0.466279  0.271028  0.867519  1
  F  F26  1  0.032369  0.269809  0.370407  1
  F  F27  1  0.533702  0.730566  0.129666  1
  F  F28  1  0.059333  0.744969  0.169302  1
  F  F29  1  0.558766  0.254664  0.329811  1
  F  F30  1  0.941097  0.255950  0.827089  1
  F  F31  1  0.440621  0.744163  0.674088  1
  F  F32  1  0.398789  0.971885  0.228682  1
  F  F33  1  0.909557  0.032788  0.270968  1
  F  F34  1  0.595147  0.029341  0.771640  1
  F  F35  1  0.094832  0.970770  0.728821  1
