# generated using pymatgen
data_TbYbY5Co6Sn23
_symmetry_space_group_name_H-M   'P 1'
_cell_length_a   9.72630715
_cell_length_b   9.72646767
_cell_length_c   9.96743520
_cell_angle_alpha   90.00000071
_cell_angle_beta   90.01998143
_cell_angle_gamma   120.00054256
_symmetry_Int_Tables_number   1
_chemical_formula_structural   TbYbY5Co6Sn23
_chemical_formula_sum   'Tb1 Yb1 Y5 Co6 Sn23'
_cell_volume   816.61014482
_cell_formula_units_Z   1
loop_
 _symmetry_equiv_pos_site_id
 _symmetry_equiv_pos_as_xyz
  1  'x, y, z'
loop_
 _atom_site_type_symbol
 _atom_site_label
 _atom_site_symmetry_multiplicity
 _atom_site_fract_x
 _atom_site_fract_y
 _atom_site_fract_z
 _atom_site_occupancy
  Tb  Tb0  1  0.043269  0.521635  0.306237  1
  Yb  Yb1  1  0.000000  0.000000  0.999989  1
  Y  Y2  1  0.478314  0.956663  0.306324  1
  Y  Y3  1  0.478314  0.521652  0.306324  1
  Y  Y4  1  0.956679  0.478340  0.693696  1
  Y  Y5  1  0.521669  0.043346  0.693686  1
  Y  Y6  1  0.521669  0.478323  0.693686  1
  Co  Co7  1  0.168378  0.831593  0.801856  1
  Co  Co8  1  0.663217  0.831608  0.801834  1
  Co  Co9  1  0.168378  0.336785  0.801856  1
  Co  Co10  1  0.831643  0.168465  0.198147  1
  Co  Co11  1  0.336824  0.168412  0.198129  1
  Co  Co12  1  0.831643  0.663178  0.198147  1
  Sn  Sn13  1  0.999953  0.999976  0.500006  1
  Sn  Sn14  1  0.117109  0.883045  0.273894  1
  Sn  Sn15  1  0.765898  0.882950  0.273887  1
  Sn  Sn16  1  0.117109  0.234066  0.273894  1
  Sn  Sn17  1  0.882957  0.117033  0.726111  1
  Sn  Sn18  1  0.234100  0.117049  0.726120  1
  Sn  Sn19  1  0.882957  0.765922  0.726111  1
  Sn  Sn20  1  0.345334  0.999985  0.000002  1
  Sn  Sn21  1  0.654632  0.654646  0.999988  1
  Sn  Sn22  1  0.000043  0.345384  0.999995  1
  Sn  Sn23  1  0.345334  0.345349  0.000002  1
  Sn  Sn24  1  0.000043  0.654659  0.999995  1
  Sn  Sn25  1  0.654632  0.999986  0.999988  1
  Sn  Sn26  1  0.781388  0.562952  0.451348  1
  Sn  Sn27  1  0.781388  0.218435  0.451348  1
  Sn  Sn28  1  0.437042  0.218520  0.451264  1
  Sn  Sn29  1  0.218514  0.437048  0.548747  1
  Sn  Sn30  1  0.218514  0.781467  0.548747  1
  Sn  Sn31  1  0.562954  0.781477  0.548739  1
  Sn  Sn32  1  0.666680  0.333339  0.184071  1
  Sn  Sn33  1  0.333339  0.666670  0.815920  1
  Sn  Sn34  1  0.666626  0.333313  0.884238  1
  Sn  Sn35  1  0.333458  0.666729  0.115674  1
