# generated using pymatgen
data_Dy2Ho3Cd2(InNi)2
_symmetry_space_group_name_H-M   'P 1'
_cell_length_a   7.97285141
_cell_length_b   18.09769086
_cell_length_c   3.54293000
_cell_angle_alpha   90.00000000
_cell_angle_beta   90.00000000
_cell_angle_gamma   89.78021908
_symmetry_Int_Tables_number   1
_chemical_formula_structural   Dy2Ho3Cd2(InNi)2
_chemical_formula_sum   'Dy4 Ho6 Cd4 In4 Ni4'
_cell_volume   511.20631784
_cell_formula_units_Z   2
loop_
 _symmetry_equiv_pos_site_id
 _symmetry_equiv_pos_as_xyz
  1  'x, y, z'
loop_
 _atom_site_type_symbol
 _atom_site_label
 _atom_site_symmetry_multiplicity
 _atom_site_fract_x
 _atom_site_fract_y
 _atom_site_fract_z
 _atom_site_occupancy
  Dy  Dy0  1  0.500000  0.500000  0.000000  1
  Dy  Dy1  1  0.000000  0.000000  0.000000  1
  Dy  Dy2  1  0.754861  0.279531  0.000000  1
  Dy  Dy3  1  0.245139  0.720469  0.000000  1
  Ho  Ho4  1  0.745119  0.779215  0.000000  1
  Ho  Ho5  1  0.254881  0.220785  0.000000  1
  Ho  Ho6  1  0.615548  0.089442  0.000000  1
  Ho  Ho7  1  0.384452  0.910558  0.000000  1
  Ho  Ho8  1  0.884358  0.589144  0.000000  1
  Ho  Ho9  1  0.115642  0.410856  0.000000  1
  Cd  Cd10  1  0.705802  0.930987  0.500000  1
  Cd  Cd11  1  0.294198  0.069013  0.500000  1
  Cd  Cd12  1  0.794836  0.431400  0.500000  1
  Cd  Cd13  1  0.205164  0.568600  0.500000  1
  In  In14  1  0.565082  0.650085  0.500000  1
  In  In15  1  0.434918  0.349915  0.500000  1
  In  In16  1  0.936151  0.150229  0.500000  1
  In  In17  1  0.063849  0.849771  0.500000  1
  Ni  Ni18  1  0.528985  0.198109  0.500000  1
  Ni  Ni19  1  0.471015  0.801891  0.500000  1
  Ni  Ni20  1  0.967379  0.698255  0.500000  1
  Ni  Ni21  1  0.032621  0.301745  0.500000  1
