# generated using pymatgen
data_Tb8ZnIn4Pd7
_symmetry_space_group_name_H-M   'P 1'
_cell_length_a   7.79104493
_cell_length_b   7.79104475
_cell_length_c   7.45661457
_cell_angle_alpha   90.03452601
_cell_angle_beta   90.03452722
_cell_angle_gamma   89.81489732
_symmetry_Int_Tables_number   1
_chemical_formula_structural   Tb8ZnIn4Pd7
_chemical_formula_sum   'Tb8 Zn1 In4 Pd7'
_cell_volume   452.61680960
_cell_formula_units_Z   1
loop_
 _symmetry_equiv_pos_site_id
 _symmetry_equiv_pos_as_xyz
  1  'x, y, z'
loop_
 _atom_site_type_symbol
 _atom_site_label
 _atom_site_symmetry_multiplicity
 _atom_site_fract_x
 _atom_site_fract_y
 _atom_site_fract_z
 _atom_site_occupancy
  Tb  Tb0  1  0.169449  0.169449  0.996765  1
  Tb  Tb1  1  0.821549  0.821549  0.001520  1
  Tb  Tb2  1  0.683599  0.327531  0.503867  1
  Tb  Tb3  1  0.327531  0.683599  0.503867  1
  Tb  Tb4  1  0.678483  0.335784  0.995322  1
  Tb  Tb5  1  0.335784  0.678483  0.995322  1
  Tb  Tb6  1  0.827827  0.827827  0.498891  1
  Tb  Tb7  1  0.164311  0.164311  0.502928  1
  Zn  Zn8  1  0.376052  0.376052  0.255879  1
  In  In9  1  0.500600  0.004424  0.250547  1
  In  In10  1  0.500990  0.007683  0.750535  1
  In  In11  1  0.004424  0.500600  0.250547  1
  In  In12  1  0.007683  0.500990  0.750535  1
  Pd  Pd13  1  0.627297  0.627297  0.741947  1
  Pd  Pd14  1  0.616302  0.616302  0.257954  1
  Pd  Pd15  1  0.870521  0.123233  0.756540  1
  Pd  Pd16  1  0.868913  0.124530  0.243416  1
  Pd  Pd17  1  0.370923  0.370923  0.743664  1
  Pd  Pd18  1  0.124530  0.868913  0.243416  1
  Pd  Pd19  1  0.123233  0.870521  0.756540  1
