# generated using pymatgen
data_Ca2YCd(Ru2O7)2
_symmetry_space_group_name_H-M   'P 1'
_cell_length_a   7.23174110
_cell_length_b   7.23174073
_cell_length_c   7.21728059
_cell_angle_alpha   60.96070695
_cell_angle_beta   60.96071517
_cell_angle_gamma   60.94118218
_symmetry_Int_Tables_number   1
_chemical_formula_structural   Ca2YCd(Ru2O7)2
_chemical_formula_sum   'Ca2 Y1 Cd1 Ru4 O14'
_cell_volume   272.63563081
_cell_formula_units_Z   1
loop_
 _symmetry_equiv_pos_site_id
 _symmetry_equiv_pos_as_xyz
  1  'x, y, z'
loop_
 _atom_site_type_symbol
 _atom_site_label
 _atom_site_symmetry_multiplicity
 _atom_site_fract_x
 _atom_site_fract_y
 _atom_site_fract_z
 _atom_site_occupancy
  Ca  Ca0  1  0.125000  0.625000  0.125000  1
  Ca  Ca1  1  0.625000  0.125000  0.125000  1
  Y  Y2  1  0.125000  0.125000  0.625000  1
  Cd  Cd3  1  0.125000  0.125000  0.125000  1
  Ru  Ru4  1  0.625000  0.125000  0.625000  1
  Ru  Ru5  1  0.625000  0.625000  0.125000  1
  Ru  Ru6  1  0.125000  0.625000  0.625000  1
  Ru  Ru7  1  0.625000  0.625000  0.625000  1
  O  O8  1  0.696272  0.696272  0.304976  1
  O  O9  1  0.950800  0.545578  0.551044  1
  O  O10  1  0.561854  0.942950  0.940252  1
  O  O11  1  0.950545  0.950545  0.554241  1
  O  O12  1  0.942950  0.561854  0.940252  1
  O  O13  1  0.545578  0.950800  0.551044  1
  O  O14  1  0.307050  0.688146  0.309748  1
  O  O15  1  0.299200  0.704422  0.698956  1
  O  O16  1  0.688146  0.307050  0.309748  1
  O  O17  1  0.704422  0.299200  0.698956  1
  O  O18  1  0.553728  0.553728  0.945024  1
  O  O19  1  0.299455  0.299455  0.695759  1
  O  O20  1  0.242976  0.242976  0.255136  1
  O  O21  1  0.007024  0.007024  0.994864  1
