# generated using pymatgen
data_NdDy5(Al3Os)8
_symmetry_space_group_name_H-M   'P 1'
_cell_length_a   8.83348000
_cell_length_b   8.83238183
_cell_length_c   9.62529000
_cell_angle_alpha   90.00000000
_cell_angle_beta   90.00000000
_cell_angle_gamma   120.00411304
_symmetry_Int_Tables_number   1
_chemical_formula_structural   NdDy5(Al3Os)8
_chemical_formula_sum   'Nd1 Dy5 Al24 Os8'
_cell_volume   650.33349032
_cell_formula_units_Z   1
loop_
 _symmetry_equiv_pos_site_id
 _symmetry_equiv_pos_as_xyz
  1  'x, y, z'
loop_
 _atom_site_type_symbol
 _atom_site_label
 _atom_site_symmetry_multiplicity
 _atom_site_fract_x
 _atom_site_fract_y
 _atom_site_fract_z
 _atom_site_occupancy
  Nd  Nd0  1  0.191564  0.383128  0.250000  1
  Dy  Dy1  1  0.806422  0.612843  0.750000  1
  Dy  Dy2  1  0.613032  0.807088  0.250000  1
  Dy  Dy3  1  0.386818  0.193522  0.750000  1
  Dy  Dy4  1  0.194055  0.807088  0.250000  1
  Dy  Dy5  1  0.806705  0.193522  0.750000  1
  Al  Al6  1  0.333765  0.667531  0.015528  1
  Al  Al7  1  0.666484  0.332968  0.980965  1
  Al  Al8  1  0.666484  0.332968  0.519035  1
  Al  Al9  1  0.333765  0.667531  0.484472  1
  Al  Al10  1  0.163844  0.327689  0.577144  1
  Al  Al11  1  0.836415  0.672829  0.426603  1
  Al  Al12  1  0.672986  0.836257  0.574000  1
  Al  Al13  1  0.836415  0.672829  0.073397  1
  Al  Al14  1  0.328774  0.163592  0.427901  1
  Al  Al15  1  0.163844  0.327689  0.922856  1
  Al  Al16  1  0.163270  0.836257  0.574000  1
  Al  Al17  1  0.328774  0.163592  0.072099  1
  Al  Al18  1  0.834819  0.163592  0.427901  1
  Al  Al19  1  0.672986  0.836257  0.926000  1
  Al  Al20  1  0.834819  0.163592  0.072099  1
  Al  Al21  1  0.163270  0.836257  0.926000  1
  Al  Al22  1  0.561524  0.123049  0.250000  1
  Al  Al23  1  0.438656  0.877311  0.750000  1
  Al  Al24  1  0.875287  0.439469  0.250000  1
  Al  Al25  1  0.122829  0.561692  0.750000  1
  Al  Al26  1  0.564183  0.439469  0.250000  1
  Al  Al27  1  0.438863  0.561692  0.750000  1
  Al  Al28  1  0.997924  0.995847  0.250000  1
  Al  Al29  1  0.999456  0.998913  0.750000  1
  Os  Os30  1  0.500043  0.000085  0.999812  1
  Os  Os31  1  0.999136  0.500615  0.998859  1
  Os  Os32  1  0.500043  0.000085  0.500188  1
  Os  Os33  1  0.501479  0.500615  0.998859  1
  Os  Os34  1  0.999136  0.500615  0.501141  1
  Os  Os35  1  0.501479  0.500615  0.501141  1
  Os  Os36  1  0.000326  0.000652  0.999647  1
  Os  Os37  1  0.000326  0.000652  0.500353  1
