# generated using pymatgen
data_Yb3Er(Si5Pt3)2
_symmetry_space_group_name_H-M   'P 1'
_cell_length_a   8.23258759
_cell_length_b   8.22876265
_cell_length_c   8.22876224
_cell_angle_alpha   138.03198147
_cell_angle_beta   104.03018718
_cell_angle_gamma   90.79812676
_symmetry_Int_Tables_number   1
_chemical_formula_structural   Yb3Er(Si5Pt3)2
_chemical_formula_sum   'Yb3 Er1 Si10 Pt6'
_cell_volume   345.07473144
_cell_formula_units_Z   1
loop_
 _symmetry_equiv_pos_site_id
 _symmetry_equiv_pos_as_xyz
  1  'x, y, z'
loop_
 _atom_site_type_symbol
 _atom_site_label
 _atom_site_symmetry_multiplicity
 _atom_site_fract_x
 _atom_site_fract_y
 _atom_site_fract_z
 _atom_site_occupancy
  Yb  Yb0  1  0.636614  0.370400  0.266214  1
  Yb  Yb1  1  0.362879  0.628954  0.733925  1
  Yb  Yb2  1  0.105695  0.871650  0.234044  1
  Er  Er3  1  0.896739  0.128968  0.767770  1
  Si  Si4  1  0.461106  0.112501  0.348606  1
  Si  Si5  1  0.539510  0.888367  0.651142  1
  Si  Si6  1  0.761897  0.612051  0.149846  1
  Si  Si7  1  0.236765  0.387311  0.849453  1
  Si  Si8  1  0.270405  0.520368  0.250640  1
  Si  Si9  1  0.728380  0.479096  0.748788  1
  Si  Si10  1  0.728380  0.979593  0.249283  1
  Si  Si11  1  0.270405  0.019765  0.750038  1
  Si  Si12  1  0.001160  0.251244  0.251369  1
  Si  Si13  1  0.001160  0.749791  0.749915  1
  Pt  Pt14  1  0.500487  0.249573  0.750049  1
  Pt  Pt15  1  0.500487  0.750438  0.250914  1
  Pt  Pt16  1  0.251354  0.135773  0.115581  1
  Pt  Pt17  1  0.748891  0.864863  0.884028  1
  Pt  Pt18  1  0.018555  0.636310  0.382244  1
  Pt  Pt19  1  0.979133  0.362985  0.616149  1
