# generated using pymatgen
data_LuHf5(ScPt2)2
_symmetry_space_group_name_H-M   'P 1'
_cell_length_a   4.58789500
_cell_length_b   6.75804664
_cell_length_c   8.11352201
_cell_angle_alpha   89.65217149
_cell_angle_beta   90.00000000
_cell_angle_gamma   90.00000000
_symmetry_Int_Tables_number   1
_chemical_formula_structural   LuHf5(ScPt2)2
_chemical_formula_sum   'Lu1 Hf5 Sc2 Pt4'
_cell_volume   251.55680500
_cell_formula_units_Z   1
loop_
 _symmetry_equiv_pos_site_id
 _symmetry_equiv_pos_as_xyz
  1  'x, y, z'
loop_
 _atom_site_type_symbol
 _atom_site_label
 _atom_site_symmetry_multiplicity
 _atom_site_fract_x
 _atom_site_fract_y
 _atom_site_fract_z
 _atom_site_occupancy
  Lu  Lu0  1  0.750000  0.514835  0.818338  1
  Hf  Hf1  1  0.250000  0.849701  0.922536  1
  Hf  Hf2  1  0.250000  0.344566  0.578567  1
  Hf  Hf3  1  0.750000  0.148807  0.080210  1
  Hf  Hf4  1  0.750000  0.654351  0.418030  1
  Hf  Hf5  1  0.250000  0.988791  0.327578  1
  Sc  Sc6  1  0.250000  0.482892  0.181120  1
  Sc  Sc7  1  0.750000  0.014216  0.675677  1
  Pt  Pt8  1  0.250000  0.239924  0.907834  1
  Pt  Pt9  1  0.250000  0.743204  0.592552  1
  Pt  Pt10  1  0.750000  0.760034  0.095002  1
  Pt  Pt11  1  0.750000  0.258679  0.402555  1
