# generated using pymatgen
data_Pa2Ta3P7Rh9
_symmetry_space_group_name_H-M   'P 1'
_cell_length_a   3.96324800
_cell_length_b   9.63129316
_cell_length_c   9.63126300
_cell_angle_alpha   119.99998271
_cell_angle_beta   90.00004812
_cell_angle_gamma   90.00003444
_symmetry_Int_Tables_number   1
_chemical_formula_structural   Pa2Ta3P7Rh9
_chemical_formula_sum   'Pa2 Ta3 P7 Rh9'
_cell_volume   318.38294913
_cell_formula_units_Z   1
loop_
 _symmetry_equiv_pos_site_id
 _symmetry_equiv_pos_as_xyz
  1  'x, y, z'
loop_
 _atom_site_type_symbol
 _atom_site_label
 _atom_site_symmetry_multiplicity
 _atom_site_fract_x
 _atom_site_fract_y
 _atom_site_fract_z
 _atom_site_occupancy
  Pa  Pa0  1  0.262156  0.666659  0.333314  1
  Pa  Pa1  1  0.761875  0.333333  0.666666  1
  Ta  Ta2  1  0.761934  0.093060  0.872401  1
  Ta  Ta3  1  0.761957  0.127612  0.220683  1
  Ta  Ta4  1  0.761950  0.779329  0.906929  1
  P  P5  1  0.262012  0.999995  0.999998  1
  P  P6  1  0.761817  0.879713  0.592288  1
  P  P7  1  0.761810  0.407712  0.287424  1
  P  P8  1  0.761819  0.712580  0.120293  1
  P  P9  1  0.261883  0.114361  0.411290  1
  P  P10  1  0.261876  0.588713  0.703063  1
  P  P11  1  0.261865  0.296933  0.885646  1
  Rh  Rh12  1  0.261927  0.881283  0.159790  1
  Rh  Rh13  1  0.261911  0.840196  0.721491  1
  Rh  Rh14  1  0.261916  0.278493  0.118706  1
  Rh  Rh15  1  0.761880  0.611302  0.556544  1
  Rh  Rh16  1  0.761883  0.443451  0.054754  1
  Rh  Rh17  1  0.761890  0.945264  0.388711  1
  Rh  Rh18  1  0.261870  0.368398  0.441115  1
  Rh  Rh19  1  0.261891  0.558885  0.927271  1
  Rh  Rh20  1  0.261880  0.072729  0.631623  1
