# generated using pymatgen
data_TiPdAu3
_symmetry_space_group_name_H-M   'P 1'
_cell_length_a   4.98715633
_cell_length_b   4.98715600
_cell_length_c   5.03400506
_cell_angle_alpha   98.96211644
_cell_angle_beta   99.28081426
_cell_angle_gamma   132.84105023
_symmetry_Int_Tables_number   1
_chemical_formula_structural   TiPdAu3
_chemical_formula_sum   'Ti1 Pd1 Au3'
_cell_volume   84.28795499
_cell_formula_units_Z   1
loop_
 _symmetry_equiv_pos_site_id
 _symmetry_equiv_pos_as_xyz
  1  'x, y, z'
loop_
 _atom_site_type_symbol
 _atom_site_label
 _atom_site_symmetry_multiplicity
 _atom_site_fract_x
 _atom_site_fract_y
 _atom_site_fract_z
 _atom_site_occupancy
  Ti  Ti0  1  0.004495  0.000350  0.004845  1
  Pd  Pd1  1  0.790996  0.397669  0.188663  1
  Au  Au2  1  0.205493  0.604715  0.810208  1
  Au  Au3  1  0.600167  0.794001  0.394167  1
  Au  Au4  1  0.398849  0.203265  0.602115  1
