# generated using pymatgen
data_Y8Sc12SnPb15
_symmetry_space_group_name_H-M   'P 1'
_cell_length_a   7.85364300
_cell_length_b   8.03643635
_cell_length_c   15.03466900
_cell_angle_alpha   90.00000000
_cell_angle_beta   90.00000000
_cell_angle_gamma   89.69036427
_symmetry_Int_Tables_number   1
_chemical_formula_structural   Y8Sc12SnPb15
_chemical_formula_sum   'Y8 Sc12 Sn1 Pb15'
_cell_volume   948.90381936
_cell_formula_units_Z   1
loop_
 _symmetry_equiv_pos_site_id
 _symmetry_equiv_pos_as_xyz
  1  'x, y, z'
loop_
 _atom_site_type_symbol
 _atom_site_label
 _atom_site_symmetry_multiplicity
 _atom_site_fract_x
 _atom_site_fract_y
 _atom_site_fract_z
 _atom_site_occupancy
  Y  Y0  1  0.018207  0.822227  0.093761  1
  Y  Y1  1  0.517552  0.677335  0.406304  1
  Y  Y2  1  0.482239  0.320953  0.904671  1
  Y  Y3  1  0.984766  0.175542  0.593412  1
  Y  Y4  1  0.984766  0.175542  0.906588  1
  Y  Y5  1  0.482239  0.320953  0.595329  1
  Y  Y6  1  0.517552  0.677335  0.093696  1
  Y  Y7  1  0.018207  0.822227  0.406239  1
  Sc  Sc8  1  0.817915  0.509254  0.750000  1
  Sc  Sc9  1  0.317326  0.994024  0.750000  1
  Sc  Sc10  1  0.679783  0.005703  0.250000  1
  Sc  Sc11  1  0.180063  0.494331  0.250000  1
  Sc  Sc12  1  0.348951  0.156067  0.125902  1
  Sc  Sc13  1  0.850928  0.344081  0.373552  1
  Sc  Sc14  1  0.142973  0.659886  0.871663  1
  Sc  Sc15  1  0.655750  0.843374  0.626325  1
  Sc  Sc16  1  0.655750  0.843374  0.873675  1
  Sc  Sc17  1  0.142973  0.659886  0.628337  1
  Sc  Sc18  1  0.850928  0.344081  0.126448  1
  Sc  Sc19  1  0.348951  0.156067  0.374098  1
  Sn  Sn20  1  0.958009  0.875041  0.750000  1
  Pb  Pb21  1  0.325927  0.843937  0.250000  1
  Pb  Pb22  1  0.825218  0.655694  0.250000  1
  Pb  Pb23  1  0.173362  0.345477  0.750000  1
  Pb  Pb24  1  0.678400  0.153289  0.750000  1
  Pb  Pb25  1  0.040239  0.128809  0.250000  1
  Pb  Pb26  1  0.539833  0.370381  0.250000  1
  Pb  Pb27  1  0.457202  0.631522  0.750000  1
  Pb  Pb28  1  0.194686  0.456468  0.042552  1
  Pb  Pb29  1  0.693860  0.045249  0.456087  1
  Pb  Pb30  1  0.308628  0.953058  0.955827  1
  Pb  Pb31  1  0.804820  0.542030  0.543585  1
  Pb  Pb32  1  0.804820  0.542030  0.956415  1
  Pb  Pb33  1  0.308628  0.953058  0.544173  1
  Pb  Pb34  1  0.693860  0.045249  0.043913  1
  Pb  Pb35  1  0.194686  0.456468  0.457448  1
