# generated using pymatgen
data_Yb11Mg3(InN4)2
_symmetry_space_group_name_H-M   'P 1'
_cell_length_a   3.44474800
_cell_length_b   11.48364127
_cell_length_c   11.28620841
_cell_angle_alpha   92.72747787
_cell_angle_beta   89.99560183
_cell_angle_gamma   89.99744135
_symmetry_Int_Tables_number   1
_chemical_formula_structural   Yb11Mg3(InN4)2
_chemical_formula_sum   'Yb11 Mg3 In2 N8'
_cell_volume   445.95688931
_cell_formula_units_Z   1
loop_
 _symmetry_equiv_pos_site_id
 _symmetry_equiv_pos_as_xyz
  1  'x, y, z'
loop_
 _atom_site_type_symbol
 _atom_site_label
 _atom_site_symmetry_multiplicity
 _atom_site_fract_x
 _atom_site_fract_y
 _atom_site_fract_z
 _atom_site_occupancy
  Yb  Yb0  1  0.500493  0.815389  0.715723  1
  Yb  Yb1  1  0.499944  0.490388  0.009022  1
  Yb  Yb2  1  0.500291  0.010090  0.491363  1
  Yb  Yb3  1  0.000103  0.939510  0.245269  1
  Yb  Yb4  1  0.000514  0.073866  0.736190  1
  Yb  Yb5  1  0.999775  0.434355  0.252661  1
  Yb  Yb6  1  0.999945  0.549459  0.766228  1
  Yb  Yb7  1  0.000049  0.764961  0.453477  1
  Yb  Yb8  1  0.000188  0.256748  0.534197  1
  Yb  Yb9  1  0.999893  0.245662  0.037471  1
  Yb  Yb10  1  0.000162  0.733969  0.978674  1
  Mg  Mg11  1  0.499952  0.680987  0.220736  1
  Mg  Mg12  1  0.500381  0.309349  0.789090  1
  Mg  Mg13  1  0.499863  0.187858  0.281010  1
  In  In14  1  0.497374  0.517413  0.507096  1
  In  In15  1  0.499648  0.992396  0.985956  1
  N  N16  1  0.999936  0.604173  0.138636  1
  N  N17  1  0.000459  0.376733  0.877478  1
  N  N18  1  0.999966  0.119565  0.364240  1
  N  N19  1  0.000592  0.902996  0.613228  1
  N  N20  1  0.500139  0.834255  0.333608  1
  N  N21  1  0.500417  0.180283  0.649038  1
  N  N22  1  0.499830  0.324459  0.158801  1
  N  N23  1  0.500086  0.655133  0.860808  1
