# generated using pymatgen
data_Lu3Si3Pd2
_symmetry_space_group_name_H-M   'P 1'
_cell_length_a   5.54364876
_cell_length_b   5.54364801
_cell_length_c   13.85945400
_cell_angle_alpha   90.00000000
_cell_angle_beta   90.00000000
_cell_angle_gamma   135.22732443
_symmetry_Int_Tables_number   1
_chemical_formula_structural   Lu3Si3Pd2
_chemical_formula_sum   'Lu6 Si6 Pd4'
_cell_volume   299.98016043
_cell_formula_units_Z   2
loop_
 _symmetry_equiv_pos_site_id
 _symmetry_equiv_pos_as_xyz
  1  'x, y, z'
loop_
 _atom_site_type_symbol
 _atom_site_label
 _atom_site_symmetry_multiplicity
 _atom_site_fract_x
 _atom_site_fract_y
 _atom_site_fract_z
 _atom_site_occupancy
  Lu  Lu0  1  0.413695  0.586305  0.388394  1
  Lu  Lu1  1  0.586305  0.413695  0.611606  1
  Lu  Lu2  1  0.864838  0.135162  0.750000  1
  Lu  Lu3  1  0.135162  0.864838  0.250000  1
  Lu  Lu4  1  0.413695  0.586305  0.111606  1
  Lu  Lu5  1  0.586305  0.413695  0.888394  1
  Si  Si6  1  0.842456  0.157544  0.250000  1
  Si  Si7  1  0.157544  0.842456  0.750000  1
  Si  Si8  1  0.894630  0.105370  0.539467  1
  Si  Si9  1  0.105370  0.894630  0.460533  1
  Si  Si10  1  0.105370  0.894630  0.039467  1
  Si  Si11  1  0.894630  0.105370  0.960533  1
  Pd  Pd12  1  0.295599  0.704401  0.595764  1
  Pd  Pd13  1  0.704401  0.295599  0.404236  1
  Pd  Pd14  1  0.704401  0.295599  0.095764  1
  Pd  Pd15  1  0.295599  0.704401  0.904236  1
