# generated using pymatgen
data_Nd3SnPd3Pb2
_symmetry_space_group_name_H-M   'P 1'
_cell_length_a   7.78291400
_cell_length_b   7.85011213
_cell_length_c   4.09666600
_cell_angle_alpha   90.00000000
_cell_angle_beta   90.00000000
_cell_angle_gamma   119.71724264
_symmetry_Int_Tables_number   1
_chemical_formula_structural   Nd3SnPd3Pb2
_chemical_formula_sum   'Nd3 Sn1 Pd3 Pb2'
_cell_volume   217.37503096
_cell_formula_units_Z   1
loop_
 _symmetry_equiv_pos_site_id
 _symmetry_equiv_pos_as_xyz
  1  'x, y, z'
loop_
 _atom_site_type_symbol
 _atom_site_label
 _atom_site_symmetry_multiplicity
 _atom_site_fract_x
 _atom_site_fract_y
 _atom_site_fract_z
 _atom_site_occupancy
  Nd  Nd0  1  0.003794  0.595986  0.000000  1
  Nd  Nd1  1  0.407807  0.404014  0.000000  1
  Nd  Nd2  1  0.590196  0.000000  0.000000  1
  Sn  Sn3  1  0.256085  0.000000  0.500000  1
  Pd  Pd4  1  0.656634  0.326102  0.500000  1
  Pd  Pd5  1  0.011608  0.000000  0.000000  1
  Pd  Pd6  1  0.330531  0.673898  0.500000  1
  Pb  Pb7  1  0.742655  0.741965  0.500000  1
  Pb  Pb8  1  0.000690  0.258035  0.500000  1
