# generated using pymatgen
data_La7Sm(SiI6)2
_symmetry_space_group_name_H-M   'P 1'
_cell_length_a   4.43472500
_cell_length_b   14.69740757
_cell_length_c   15.47518429
_cell_angle_alpha   90.35826208
_cell_angle_beta   90.00000000
_cell_angle_gamma   90.00000000
_symmetry_Int_Tables_number   1
_chemical_formula_structural   La7Sm(SiI6)2
_chemical_formula_sum   'La7 Sm1 Si2 I12'
_cell_volume   1008.63671161
_cell_formula_units_Z   1
loop_
 _symmetry_equiv_pos_site_id
 _symmetry_equiv_pos_as_xyz
  1  'x, y, z'
loop_
 _atom_site_type_symbol
 _atom_site_label
 _atom_site_symmetry_multiplicity
 _atom_site_fract_x
 _atom_site_fract_y
 _atom_site_fract_z
 _atom_site_occupancy
  La  La0  1  0.500000  0.115917  0.345421  1
  La  La1  1  0.500000  0.885025  0.655368  1
  La  La2  1  0.500000  0.614972  0.154429  1
  La  La3  1  0.000000  0.116857  0.578367  1
  La  La4  1  0.000000  0.886381  0.424310  1
  La  La5  1  0.000000  0.613036  0.922039  1
  La  La6  1  0.000000  0.384073  0.074046  1
  Sm  Sm7  1  0.500000  0.386628  0.847551  1
  Si  Si8  1  0.500000  0.001626  0.501133  1
  Si  Si9  1  0.500000  0.499137  0.998825  1
  I  I10  1  0.500000  0.242708  0.160528  1
  I  I11  1  0.500000  0.755908  0.837849  1
  I  I12  1  0.500000  0.743319  0.338335  1
  I  I13  1  0.500000  0.257990  0.666457  1
  I  I14  1  0.000000  0.259363  0.414580  1
  I  I15  1  0.000000  0.741588  0.586191  1
  I  I16  1  0.000000  0.757657  0.086230  1
  I  I17  1  0.000000  0.246734  0.906164  1
  I  I18  1  0.000000  0.998213  0.240835  1
  I  I19  1  0.000000  0.002004  0.760449  1
  I  I20  1  0.000000  0.498050  0.258218  1
  I  I21  1  0.000000  0.492815  0.742678  1
