# generated using pymatgen
data_PaB4W
_symmetry_space_group_name_H-M   'P 1'
_cell_length_a   3.70677000
_cell_length_b   6.00571800
_cell_length_c   11.65897800
_cell_angle_alpha   90.00000000
_cell_angle_beta   90.00000000
_cell_angle_gamma   90.00000000
_symmetry_Int_Tables_number   1
_chemical_formula_structural   PaB4W
_chemical_formula_sum   'Pa4 B16 W4'
_cell_volume   259.55001495
_cell_formula_units_Z   4
loop_
 _symmetry_equiv_pos_site_id
 _symmetry_equiv_pos_as_xyz
  1  'x, y, z'
loop_
 _atom_site_type_symbol
 _atom_site_label
 _atom_site_symmetry_multiplicity
 _atom_site_fract_x
 _atom_site_fract_y
 _atom_site_fract_z
 _atom_site_occupancy
  Pa  Pa0  1  0.000000  0.626200  0.349458  1
  Pa  Pa1  1  0.000000  0.373800  0.650542  1
  Pa  Pa2  1  0.000000  0.126200  0.150542  1
  Pa  Pa3  1  0.000000  0.873800  0.849458  1
  B  B4  1  0.500000  0.789086  0.187419  1
  B  B5  1  0.500000  0.210914  0.812581  1
  B  B6  1  0.500000  0.289086  0.312581  1
  B  B7  1  0.500000  0.710914  0.687419  1
  B  B8  1  0.500000  0.865634  0.031459  1
  B  B9  1  0.500000  0.134366  0.968541  1
  B  B10  1  0.500000  0.365634  0.468541  1
  B  B11  1  0.500000  0.634366  0.531459  1
  B  B12  1  0.500000  0.886315  0.453644  1
  B  B13  1  0.500000  0.113685  0.546356  1
  B  B14  1  0.500000  0.386315  0.046356  1
  B  B15  1  0.500000  0.613685  0.953644  1
  B  B16  1  0.500000  0.973035  0.307584  1
  B  B17  1  0.500000  0.026965  0.692416  1
  B  B18  1  0.500000  0.473035  0.192416  1
  B  B19  1  0.500000  0.526965  0.807584  1
  W  W20  1  0.000000  0.633376  0.090577  1
  W  W21  1  0.000000  0.366624  0.909423  1
  W  W22  1  0.000000  0.133376  0.409423  1
  W  W23  1  0.000000  0.866624  0.590577  1
