# generated using pymatgen
data_SrLi6Pu2N6
_symmetry_space_group_name_H-M   'P 1'
_cell_length_a   6.17182300
_cell_length_b   6.17182368
_cell_length_c   5.44440600
_cell_angle_alpha   90.00000000
_cell_angle_beta   90.00000000
_cell_angle_gamma   120.00000173
_symmetry_Int_Tables_number   1
_chemical_formula_structural   SrLi6Pu2N6
_chemical_formula_sum   'Sr1 Li6 Pu2 N6'
_cell_volume   179.60073139
_cell_formula_units_Z   1
loop_
 _symmetry_equiv_pos_site_id
 _symmetry_equiv_pos_as_xyz
  1  'x, y, z'
loop_
 _atom_site_type_symbol
 _atom_site_label
 _atom_site_symmetry_multiplicity
 _atom_site_fract_x
 _atom_site_fract_y
 _atom_site_fract_z
 _atom_site_occupancy
  Sr  Sr0  1  0.000000  0.000000  0.000000  1
  Li  Li1  1  0.912218  0.608402  0.587804  1
  Li  Li2  1  0.391598  0.303815  0.587804  1
  Li  Li3  1  0.696185  0.087782  0.587804  1
  Li  Li4  1  0.087782  0.391598  0.412196  1
  Li  Li5  1  0.608402  0.696185  0.412196  1
  Li  Li6  1  0.303815  0.912218  0.412196  1
  Pu  Pu7  1  0.333333  0.666667  0.975551  1
  Pu  Pu8  1  0.666667  0.333333  0.024449  1
  N  N9  1  0.012310  0.626664  0.223954  1
  N  N10  1  0.373336  0.385647  0.223954  1
  N  N11  1  0.614353  0.987690  0.223954  1
  N  N12  1  0.987690  0.373336  0.776046  1
  N  N13  1  0.626664  0.614353  0.776046  1
  N  N14  1  0.385647  0.012310  0.776046  1
