# generated using pymatgen
data_Cs6AcNpI12
_symmetry_space_group_name_H-M   'P 1'
_cell_length_a   10.83844100
_cell_length_b   10.82079146
_cell_length_c   9.06000200
_cell_angle_alpha   90.00000000
_cell_angle_beta   90.00000000
_cell_angle_gamma   90.23260933
_symmetry_Int_Tables_number   1
_chemical_formula_structural   Cs6AcNpI12
_chemical_formula_sum   'Cs6 Ac1 Np1 I12'
_cell_volume   1062.55289673
_cell_formula_units_Z   1
loop_
 _symmetry_equiv_pos_site_id
 _symmetry_equiv_pos_as_xyz
  1  'x, y, z'
loop_
 _atom_site_type_symbol
 _atom_site_label
 _atom_site_symmetry_multiplicity
 _atom_site_fract_x
 _atom_site_fract_y
 _atom_site_fract_z
 _atom_site_occupancy
  Cs  Cs0  1  0.000000  0.000000  0.500000  1
  Cs  Cs1  1  0.000000  0.000000  0.000000  1
  Cs  Cs2  1  0.235089  0.587849  0.500000  1
  Cs  Cs3  1  0.764911  0.412151  0.500000  1
  Cs  Cs4  1  0.413253  0.231952  0.000000  1
  Cs  Cs5  1  0.586747  0.768048  0.000000  1
  Ac  Ac6  1  0.000000  0.500000  0.000000  1
  Np  Np7  1  0.500000  0.000000  0.500000  1
  I  I8  1  0.697105  0.059679  0.744920  1
  I  I9  1  0.302895  0.940321  0.744920  1
  I  I10  1  0.938258  0.704689  0.255509  1
  I  I11  1  0.061742  0.295311  0.255509  1
  I  I12  1  0.302895  0.940321  0.255080  1
  I  I13  1  0.697105  0.059679  0.255080  1
  I  I14  1  0.061742  0.295311  0.744491  1
  I  I15  1  0.938258  0.704689  0.744491  1
  I  I16  1  0.568309  0.720558  0.500000  1
  I  I17  1  0.431691  0.279442  0.500000  1
  I  I18  1  0.290706  0.571218  0.000000  1
  I  I19  1  0.709294  0.428782  0.000000  1
