# generated using pymatgen
data_Dy5Ho11(HfIr3)4
_symmetry_space_group_name_H-M   'P 1'
_cell_length_a   10.82088500
_cell_length_b   10.81612201
_cell_length_c   6.24459200
_cell_angle_alpha   90.00365873
_cell_angle_beta   89.99987222
_cell_angle_gamma   90.00109100
_symmetry_Int_Tables_number   1
_chemical_formula_structural   Dy5Ho11(HfIr3)4
_chemical_formula_sum   'Dy5 Ho11 Hf4 Ir12'
_cell_volume   730.86712373
_cell_formula_units_Z   1
loop_
 _symmetry_equiv_pos_site_id
 _symmetry_equiv_pos_as_xyz
  1  'x, y, z'
loop_
 _atom_site_type_symbol
 _atom_site_label
 _atom_site_symmetry_multiplicity
 _atom_site_fract_x
 _atom_site_fract_y
 _atom_site_fract_z
 _atom_site_occupancy
  Dy  Dy0  1  0.289336  0.086181  0.374755  1
  Dy  Dy1  1  0.289252  0.913864  0.874762  1
  Dy  Dy2  1  0.710698  0.086280  0.874737  1
  Dy  Dy3  1  0.710706  0.913890  0.374750  1
  Dy  Dy4  1  0.586086  0.789155  0.874767  1
  Ho  Ho5  1  0.585979  0.210684  0.374992  1
  Ho  Ho6  1  0.413964  0.789317  0.374950  1
  Ho  Ho7  1  0.414036  0.210705  0.874966  1
  Ho  Ho8  1  0.210539  0.414077  0.625053  1
  Ho  Ho9  1  0.210540  0.585925  0.125070  1
  Ho  Ho10  1  0.789462  0.414060  0.125042  1
  Ho  Ho11  1  0.789509  0.585842  0.624980  1
  Ho  Ho12  1  0.914141  0.710467  0.125007  1
  Ho  Ho13  1  0.914103  0.289526  0.624951  1
  Ho  Ho14  1  0.085876  0.710488  0.624957  1
  Ho  Ho15  1  0.085881  0.289522  0.124961  1
  Hf  Hf16  1  0.000009  0.000019  0.500180  1
  Hf  Hf17  1  0.000010  0.000006  0.000207  1
  Hf  Hf18  1  0.499929  0.499854  0.000167  1
  Hf  Hf19  1  0.499982  0.499974  0.500071  1
  Ir  Ir20  1  0.856828  0.143625  0.250179  1
  Ir  Ir21  1  0.856966  0.856420  0.750126  1
  Ir  Ir22  1  0.143186  0.143618  0.750181  1
  Ir  Ir23  1  0.143181  0.856385  0.250185  1
  Ir  Ir24  1  0.643370  0.356761  0.749933  1
  Ir  Ir25  1  0.643436  0.643126  0.250212  1
  Ir  Ir26  1  0.356641  0.356743  0.249913  1
  Ir  Ir27  1  0.356488  0.643156  0.749842  1
  Ir  Ir28  1  0.499926  0.000165  0.122555  1
  Ir  Ir29  1  0.499933  0.000158  0.622243  1
  Ir  Ir30  1  0.000013  0.500001  0.877649  1
  Ir  Ir31  1  0.999995  0.500007  0.377657  1
