# generated using pymatgen
data_Pr7Th(HgIr)2
_symmetry_space_group_name_H-M   'P 1'
_cell_length_a   10.01648423
_cell_length_b   10.01648315
_cell_length_c   10.05583555
_cell_angle_alpha   59.99643338
_cell_angle_beta   59.99643578
_cell_angle_gamma   60.08005011
_symmetry_Int_Tables_number   1
_chemical_formula_structural   Pr7Th(HgIr)2
_chemical_formula_sum   'Pr14 Th2 Hg4 Ir4'
_cell_volume   713.79311781
_cell_formula_units_Z   2
loop_
 _symmetry_equiv_pos_site_id
 _symmetry_equiv_pos_as_xyz
  1  'x, y, z'
loop_
 _atom_site_type_symbol
 _atom_site_label
 _atom_site_symmetry_multiplicity
 _atom_site_fract_x
 _atom_site_fract_y
 _atom_site_fract_z
 _atom_site_occupancy
  Pr  Pr0  1  0.350455  0.948356  0.350803  1
  Pr  Pr1  1  0.948356  0.350455  0.350803  1
  Pr  Pr2  1  0.810193  0.190819  0.189846  1
  Pr  Pr3  1  0.189954  0.809545  0.808251  1
  Pr  Pr4  1  0.190819  0.810193  0.189846  1
  Pr  Pr5  1  0.809545  0.189954  0.808251  1
  Pr  Pr6  1  0.190576  0.190576  0.809625  1
  Pr  Pr7  1  0.808275  0.808275  0.190211  1
  Pr  Pr8  1  0.942049  0.561220  0.562020  1
  Pr  Pr9  1  0.559733  0.940460  0.937900  1
  Pr  Pr10  1  0.561220  0.942049  0.562020  1
  Pr  Pr11  1  0.940460  0.559733  0.937900  1
  Pr  Pr12  1  0.561279  0.561279  0.940302  1
  Pr  Pr13  1  0.938923  0.938923  0.559962  1
  Th  Th14  1  0.345002  0.345002  0.346662  1
  Th  Th15  1  0.345972  0.345972  0.961531  1
  Hg  Hg16  1  0.582755  0.582755  0.584957  1
  Hg  Hg17  1  0.583242  0.583242  0.248621  1
  Hg  Hg18  1  0.582540  0.248332  0.584851  1
  Hg  Hg19  1  0.248332  0.582540  0.584851  1
  Ir  Ir20  1  0.146611  0.146611  0.137906  1
  Ir  Ir21  1  0.146463  0.146463  0.569766  1
  Ir  Ir22  1  0.151220  0.566024  0.141557  1
  Ir  Ir23  1  0.566024  0.151220  0.141557  1
