# generated using pymatgen
data_Sc2CoSn(BIr2)2
_symmetry_space_group_name_H-M   'P 1'
_cell_length_a   9.32252200
_cell_length_b   9.32252200
_cell_length_c   3.18923900
_cell_angle_alpha   90.00000000
_cell_angle_beta   90.00000000
_cell_angle_gamma   90.00000000
_symmetry_Int_Tables_number   1
_chemical_formula_structural   Sc2CoSn(BIr2)2
_chemical_formula_sum   'Sc4 Co2 Sn2 B4 Ir8'
_cell_volume   277.17490038
_cell_formula_units_Z   2
loop_
 _symmetry_equiv_pos_site_id
 _symmetry_equiv_pos_as_xyz
  1  'x, y, z'
loop_
 _atom_site_type_symbol
 _atom_site_label
 _atom_site_symmetry_multiplicity
 _atom_site_fract_x
 _atom_site_fract_y
 _atom_site_fract_z
 _atom_site_occupancy
  Sc  Sc0  1  0.674774  0.174774  0.000000  1
  Sc  Sc1  1  0.325226  0.825226  0.000000  1
  Sc  Sc2  1  0.174774  0.325226  0.000000  1
  Sc  Sc3  1  0.825226  0.674774  0.000000  1
  Co  Co4  1  0.500000  0.000000  0.500000  1
  Co  Co5  1  0.000000  0.500000  0.500000  1
  Sn  Sn6  1  0.000000  0.000000  0.000000  1
  Sn  Sn7  1  0.500000  0.500000  0.000000  1
  B  B8  1  0.111018  0.611018  0.000000  1
  B  B9  1  0.888982  0.388982  0.000000  1
  B  B10  1  0.611018  0.888982  0.000000  1
  B  B11  1  0.388982  0.111018  0.000000  1
  Ir  Ir12  1  0.229710  0.064730  0.500000  1
  Ir  Ir13  1  0.770290  0.935270  0.500000  1
  Ir  Ir14  1  0.064730  0.770290  0.500000  1
  Ir  Ir15  1  0.729710  0.435270  0.500000  1
  Ir  Ir16  1  0.935270  0.229710  0.500000  1
  Ir  Ir17  1  0.270290  0.564730  0.500000  1
  Ir  Ir18  1  0.564730  0.729710  0.500000  1
  Ir  Ir19  1  0.435270  0.270290  0.500000  1
