# generated using pymatgen
data_Sr4GaPd4Pb
_symmetry_space_group_name_H-M   'P 1'
_cell_length_a   5.98602357
_cell_length_b   5.98602283
_cell_length_c   8.48848468
_cell_angle_alpha   78.53037809
_cell_angle_beta   78.53037166
_cell_angle_gamma   60.62583211
_symmetry_Int_Tables_number   1
_chemical_formula_structural   Sr4GaPd4Pb
_chemical_formula_sum   'Sr4 Ga1 Pd4 Pb1'
_cell_volume   257.93127457
_cell_formula_units_Z   1
loop_
 _symmetry_equiv_pos_site_id
 _symmetry_equiv_pos_as_xyz
  1  'x, y, z'
loop_
 _atom_site_type_symbol
 _atom_site_label
 _atom_site_symmetry_multiplicity
 _atom_site_fract_x
 _atom_site_fract_y
 _atom_site_fract_z
 _atom_site_occupancy
  Sr  Sr0  1  0.789926  0.508986  0.350970  1
  Sr  Sr1  1  0.491014  0.210074  0.149030  1
  Sr  Sr2  1  0.209967  0.491770  0.648559  1
  Sr  Sr3  1  0.508230  0.790033  0.851441  1
  Ga  Ga4  1  0.882863  0.117137  0.750000  1
  Pd  Pd5  1  0.992848  0.736246  0.985828  1
  Pd  Pd6  1  0.263754  0.007152  0.514172  1
  Pd  Pd7  1  0.985399  0.268315  0.981169  1
  Pd  Pd8  1  0.731685  0.014601  0.518831  1
  Pb  Pb9  1  0.144312  0.855688  0.250000  1
