# generated using pymatgen
data_LuZr3(BRu)16
_symmetry_space_group_name_H-M   'P 1'
_cell_length_a   9.14080913
_cell_length_b   7.42509943
_cell_length_c   7.42509943
_cell_angle_alpha   89.96104988
_cell_angle_beta   113.98059486
_cell_angle_gamma   113.98059358
_symmetry_Int_Tables_number   1
_chemical_formula_structural   LuZr3(BRu)16
_chemical_formula_sum   'Lu1 Zr3 B16 Ru16'
_cell_volume   412.45878055
_cell_formula_units_Z   1
loop_
 _symmetry_equiv_pos_site_id
 _symmetry_equiv_pos_as_xyz
  1  'x, y, z'
loop_
 _atom_site_type_symbol
 _atom_site_label
 _atom_site_symmetry_multiplicity
 _atom_site_fract_x
 _atom_site_fract_y
 _atom_site_fract_z
 _atom_site_occupancy
  Lu  Lu0  1  0.250000  0.125000  0.875000  1
  Zr  Zr1  1  0.750000  0.875000  0.125000  1
  Zr  Zr2  1  0.250000  0.625000  0.375000  1
  Zr  Zr3  1  0.750000  0.375000  0.625000  1
  B  B4  1  0.914481  0.288035  0.068722  1
  B  B5  1  0.413785  0.569025  0.125209  1
  B  B6  1  0.086214  0.211424  0.155239  1
  B  B7  1  0.585434  0.153917  0.211357  1
  B  B8  1  0.413794  0.068019  0.288201  1
  B  B9  1  0.914481  0.626446  0.345759  1
  B  B10  1  0.585519  0.654241  0.373554  1
  B  B11  1  0.086214  0.874789  0.430975  1
  B  B12  1  0.914566  0.125925  0.568483  1
  B  B13  1  0.413794  0.345776  0.625593  1
  B  B14  1  0.086205  0.374405  0.654223  1
  B  B15  1  0.585519  0.931278  0.711964  1
  B  B16  1  0.413785  0.844761  0.788575  1
  B  B17  1  0.914566  0.788641  0.846083  1
  B  B18  1  0.585434  0.431517  0.874075  1
  B  B19  1  0.086205  0.711799  0.931981  1
  Ru  Ru20  1  0.873012  0.550592  0.033236  1
  Ru  Ru21  1  0.373790  0.836509  0.051551  1
  Ru  Ru22  1  0.126211  0.948449  0.163492  1
  Ru  Ru23  1  0.628590  0.467285  0.178527  1
  Ru  Ru24  1  0.374778  0.340021  0.324176  1
  Ru  Ru25  1  0.873012  0.322420  0.339776  1
  Ru  Ru26  1  0.626988  0.966764  0.449408  1
  Ru  Ru27  1  0.126211  0.177762  0.462720  1
  Ru  Ru28  1  0.871410  0.821473  0.532715  1
  Ru  Ru29  1  0.374778  0.034757  0.550601  1
  Ru  Ru30  1  0.125223  0.675824  0.659980  1
  Ru  Ru31  1  0.626988  0.660224  0.677580  1
  Ru  Ru32  1  0.373790  0.537281  0.822238  1
  Ru  Ru33  1  0.871410  0.049937  0.838695  1
  Ru  Ru34  1  0.628590  0.161305  0.950063  1
  Ru  Ru35  1  0.125223  0.449399  0.965244  1
