# generated using pymatgen
data_HoTm5CrCo16NiP12
_symmetry_space_group_name_H-M   'P 1'
_cell_length_a   3.66376600
_cell_length_b   10.47296600
_cell_length_c   12.12931000
_cell_angle_alpha   90.00000000
_cell_angle_beta   90.00000000
_cell_angle_gamma   90.00000000
_symmetry_Int_Tables_number   1
_chemical_formula_structural   HoTm5CrCo16NiP12
_chemical_formula_sum   'Ho1 Tm5 Cr1 Co16 Ni1 P12'
_cell_volume   465.40764993
_cell_formula_units_Z   1
loop_
 _symmetry_equiv_pos_site_id
 _symmetry_equiv_pos_as_xyz
  1  'x, y, z'
loop_
 _atom_site_type_symbol
 _atom_site_label
 _atom_site_symmetry_multiplicity
 _atom_site_fract_x
 _atom_site_fract_y
 _atom_site_fract_z
 _atom_site_occupancy
  Ho  Ho0  1  0.500000  0.000000  0.476896  1
  Tm  Tm1  1  0.000000  0.500000  0.522082  1
  Tm  Tm2  1  0.500000  0.818120  0.206622  1
  Tm  Tm3  1  0.500000  0.181880  0.206622  1
  Tm  Tm4  1  0.000000  0.683084  0.796100  1
  Tm  Tm5  1  0.000000  0.316916  0.796100  1
  Cr  Cr6  1  0.500000  0.500000  0.156217  1
  Co  Co7  1  0.000000  0.000000  0.839667  1
  Co  Co8  1  0.000000  0.000000  0.296023  1
  Co  Co9  1  0.000000  0.500000  0.988105  1
  Co  Co10  1  0.500000  0.000000  0.014748  1
  Co  Co11  1  0.500000  0.332537  0.992780  1
  Co  Co12  1  0.500000  0.667463  0.992780  1
  Co  Co13  1  0.000000  0.166635  0.006022  1
  Co  Co14  1  0.000000  0.833365  0.006022  1
  Co  Co15  1  0.500000  0.297790  0.430759  1
  Co  Co16  1  0.500000  0.702210  0.430759  1
  Co  Co17  1  0.000000  0.202965  0.568766  1
  Co  Co18  1  0.000000  0.797035  0.568766  1
  Co  Co19  1  0.500000  0.878155  0.709235  1
  Co  Co20  1  0.500000  0.121845  0.709235  1
  Co  Co21  1  0.000000  0.620984  0.290869  1
  Co  Co22  1  0.000000  0.379016  0.290869  1
  Ni  Ni23  1  0.500000  0.500000  0.702717  1
  P  P24  1  0.500000  0.500000  0.882474  1
  P  P25  1  0.000000  0.000000  0.118061  1
  P  P26  1  0.500000  0.500000  0.347095  1
  P  P27  1  0.000000  0.000000  0.655253  1
  P  P28  1  0.500000  0.311395  0.616134  1
  P  P29  1  0.500000  0.688605  0.616134  1
  P  P30  1  0.000000  0.188113  0.383368  1
  P  P31  1  0.000000  0.811887  0.383368  1
  P  P32  1  0.500000  0.848744  0.891739  1
  P  P33  1  0.500000  0.151256  0.891739  1
  P  P34  1  0.000000  0.654784  0.107936  1
  P  P35  1  0.000000  0.345216  0.107936  1
