# generated using pymatgen
data_Pa3TaF20
_symmetry_space_group_name_H-M   'P 1'
_cell_length_a   9.45708314
_cell_length_b   9.45708320
_cell_length_c   5.43818714
_cell_angle_alpha   85.51361646
_cell_angle_beta   85.51362586
_cell_angle_gamma   112.61935935
_symmetry_Int_Tables_number   1
_chemical_formula_structural   Pa3TaF20
_chemical_formula_sum   'Pa3 Ta1 F20'
_cell_volume   444.47410417
_cell_formula_units_Z   1
loop_
 _symmetry_equiv_pos_site_id
 _symmetry_equiv_pos_as_xyz
  1  'x, y, z'
loop_
 _atom_site_type_symbol
 _atom_site_label
 _atom_site_symmetry_multiplicity
 _atom_site_fract_x
 _atom_site_fract_y
 _atom_site_fract_z
 _atom_site_occupancy
  Pa  Pa0  1  0.793875  0.206125  0.500000  1
  Pa  Pa1  1  0.751687  0.740288  0.250204  1
  Pa  Pa2  1  0.259712  0.248313  0.749796  1
  Ta  Ta3  1  0.200868  0.799132  0.500000  1
  F  F4  1  0.272393  0.456908  0.849372  1
  F  F5  1  0.355622  0.348892  0.395960  1
  F  F6  1  0.470056  0.264634  0.848467  1
  F  F7  1  0.025376  0.215948  0.620369  1
  F  F8  1  0.651108  0.644378  0.604040  1
  F  F9  1  0.543092  0.727607  0.150628  1
  F  F10  1  0.864354  0.862159  0.912859  1
  F  F11  1  0.990212  0.784836  0.385680  1
  F  F12  1  0.168229  0.609301  0.388044  1
  F  F13  1  0.914513  0.303912  0.157735  1
  F  F14  1  0.582242  0.165504  0.380357  1
  F  F15  1  0.834496  0.417758  0.619643  1
  F  F16  1  0.784052  0.974624  0.379631  1
  F  F17  1  0.696088  0.085487  0.842265  1
  F  F18  1  0.215164  0.009788  0.614320  1
  F  F19  1  0.390699  0.831771  0.611956  1
  F  F20  1  0.137841  0.135646  0.087141  1
  F  F21  1  0.735366  0.529944  0.151533  1
  F  F22  1  0.281231  0.918276  0.187840  1
  F  F23  1  0.081724  0.718769  0.812160  1
