# generated using pymatgen
data_Tb3Ho4Er(CdPt)2
_symmetry_space_group_name_H-M   'P 1'
_cell_length_a   9.67371437
_cell_length_b   9.67371471
_cell_length_c   9.67368900
_cell_angle_alpha   60.00009135
_cell_angle_beta   60.00009016
_cell_angle_gamma   59.99981604
_symmetry_Int_Tables_number   1
_chemical_formula_structural   Tb3Ho4Er(CdPt)2
_chemical_formula_sum   'Tb6 Ho8 Er2 Cd4 Pt4'
_cell_volume   640.12332233
_cell_formula_units_Z   2
loop_
 _symmetry_equiv_pos_site_id
 _symmetry_equiv_pos_as_xyz
  1  'x, y, z'
loop_
 _atom_site_type_symbol
 _atom_site_label
 _atom_site_symmetry_multiplicity
 _atom_site_fract_x
 _atom_site_fract_y
 _atom_site_fract_z
 _atom_site_occupancy
  Tb  Tb0  1  0.935725  0.564275  0.564275  1
  Tb  Tb1  1  0.564275  0.935725  0.935725  1
  Tb  Tb2  1  0.564275  0.935725  0.564275  1
  Tb  Tb3  1  0.935725  0.564275  0.935725  1
  Tb  Tb4  1  0.564292  0.564292  0.935708  1
  Tb  Tb5  1  0.935708  0.935708  0.564292  1
  Ho  Ho6  1  0.351693  0.351693  0.351809  1
  Ho  Ho7  1  0.351693  0.351693  0.944806  1
  Ho  Ho8  1  0.351809  0.944806  0.351693  1
  Ho  Ho9  1  0.944806  0.351809  0.351693  1
  Ho  Ho10  1  0.810634  0.189366  0.189366  1
  Ho  Ho11  1  0.189366  0.810634  0.810634  1
  Ho  Ho12  1  0.189366  0.810634  0.189366  1
  Ho  Ho13  1  0.810634  0.189366  0.810634  1
  Er  Er14  1  0.189358  0.189358  0.810642  1
  Er  Er15  1  0.810642  0.810642  0.189358  1
  Cd  Cd16  1  0.581495  0.581495  0.581470  1
  Cd  Cd17  1  0.581495  0.581495  0.255538  1
  Cd  Cd18  1  0.581470  0.255538  0.581495  1
  Cd  Cd19  1  0.255538  0.581470  0.581495  1
  Pt  Pt20  1  0.143048  0.143048  0.142871  1
  Pt  Pt21  1  0.143048  0.143048  0.571032  1
  Pt  Pt22  1  0.142871  0.571032  0.143048  1
  Pt  Pt23  1  0.571032  0.142871  0.143048  1
