# generated using pymatgen
data_Nd5Sn15Ir2(PtRh2)2
_symmetry_space_group_name_H-M   'P 1'
_cell_length_a   4.53062000
_cell_length_b   7.32552182
_cell_length_c   18.87216522
_cell_angle_alpha   89.65337126
_cell_angle_beta   90.00000000
_cell_angle_gamma   90.00000000
_symmetry_Int_Tables_number   1
_chemical_formula_structural   Nd5Sn15Ir2(PtRh2)2
_chemical_formula_sum   'Nd5 Sn15 Ir2 Pt2 Rh4'
_cell_volume   626.33976721
_cell_formula_units_Z   1
loop_
 _symmetry_equiv_pos_site_id
 _symmetry_equiv_pos_as_xyz
  1  'x, y, z'
loop_
 _atom_site_type_symbol
 _atom_site_label
 _atom_site_symmetry_multiplicity
 _atom_site_fract_x
 _atom_site_fract_y
 _atom_site_fract_z
 _atom_site_occupancy
  Nd  Nd0  1  0.500000  0.006652  0.854079  1
  Nd  Nd1  1  0.500000  0.496475  0.360034  1
  Nd  Nd2  1  0.000000  0.996788  0.145039  1
  Nd  Nd3  1  0.000000  0.502094  0.639090  1
  Nd  Nd4  1  0.500000  0.494661  0.928784  1
  Sn  Sn5  1  0.000000  0.719930  0.804517  1
  Sn  Sn6  1  0.000000  0.779029  0.307088  1
  Sn  Sn7  1  0.500000  0.277487  0.196533  1
  Sn  Sn8  1  0.500000  0.219773  0.691435  1
  Sn  Sn9  1  0.000000  0.850149  0.966804  1
  Sn  Sn10  1  0.000000  0.633550  0.467283  1
  Sn  Sn11  1  0.500000  0.135732  0.034289  1
  Sn  Sn12  1  0.500000  0.365020  0.531755  1
  Sn  Sn13  1  0.000000  0.305060  0.815165  1
  Sn  Sn14  1  0.000000  0.199256  0.319206  1
  Sn  Sn15  1  0.500000  0.698621  0.189463  1
  Sn  Sn16  1  0.500000  0.805122  0.678167  1
  Sn  Sn17  1  0.500000  0.020835  0.432967  1
  Sn  Sn18  1  0.000000  0.512638  0.069350  1
  Sn  Sn19  1  0.000000  0.980086  0.567906  1
  Ir  Ir20  1  0.000000  0.250354  0.465428  1
  Ir  Ir21  1  0.500000  0.749494  0.532923  1
  Pt  Pt22  1  0.000000  0.230517  0.964970  1
  Pt  Pt23  1  0.500000  0.762201  0.046241  1
  Rh  Rh24  1  0.000000  0.017155  0.714136  1
  Rh  Rh25  1  0.000000  0.483418  0.213111  1
  Rh  Rh26  1  0.500000  0.987451  0.289820  1
  Rh  Rh27  1  0.500000  0.520452  0.774419  1
