# generated using pymatgen
data_Hf2Cu9Pt
_symmetry_space_group_name_H-M   'P 1'
_cell_length_a   4.88920300
_cell_length_b   4.88920238
_cell_length_c   7.86652700
_cell_angle_alpha   90.00000000
_cell_angle_beta   90.00000000
_cell_angle_gamma   120.00001095
_symmetry_Int_Tables_number   1
_chemical_formula_structural   Hf2Cu9Pt
_chemical_formula_sum   'Hf2 Cu9 Pt1'
_cell_volume   162.85072849
_cell_formula_units_Z   1
loop_
 _symmetry_equiv_pos_site_id
 _symmetry_equiv_pos_as_xyz
  1  'x, y, z'
loop_
 _atom_site_type_symbol
 _atom_site_label
 _atom_site_symmetry_multiplicity
 _atom_site_fract_x
 _atom_site_fract_y
 _atom_site_fract_z
 _atom_site_occupancy
  Hf  Hf0  1  0.333333  0.666666  0.231098  1
  Hf  Hf1  1  0.666666  0.333334  0.740610  1
  Cu  Cu2  1  0.338867  0.169434  0.055218  1
  Cu  Cu3  1  0.830568  0.169434  0.055218  1
  Cu  Cu4  1  0.830566  0.661134  0.055218  1
  Cu  Cu5  1  0.000000  0.000000  0.307158  1
  Cu  Cu6  1  0.666666  0.333334  0.362057  1
  Cu  Cu7  1  0.169490  0.338979  0.551258  1
  Cu  Cu8  1  0.169490  0.830509  0.551258  1
  Cu  Cu9  1  0.661019  0.830509  0.551258  1
  Cu  Cu10  1  0.000000  0.000000  0.805291  1
  Pt  Pt11  1  0.333333  0.666666  0.862431  1
