# generated using pymatgen
data_LiHo16In3Pt4
_symmetry_space_group_name_H-M   'P 1'
_cell_length_a   9.66025998
_cell_length_b   9.66026108
_cell_length_c   9.66025974
_cell_angle_alpha   60.06458711
_cell_angle_beta   60.06458049
_cell_angle_gamma   60.06458812
_symmetry_Int_Tables_number   1
_chemical_formula_structural   LiHo16In3Pt4
_chemical_formula_sum   'Li1 Ho16 In3 Pt4'
_cell_volume   638.39091994
_cell_formula_units_Z   1
loop_
 _symmetry_equiv_pos_site_id
 _symmetry_equiv_pos_as_xyz
  1  'x, y, z'
loop_
 _atom_site_type_symbol
 _atom_site_label
 _atom_site_symmetry_multiplicity
 _atom_site_fract_x
 _atom_site_fract_y
 _atom_site_fract_z
 _atom_site_occupancy
  Li  Li0  1  0.822009  0.822009  0.822009  1
  Ho  Ho1  1  0.600061  0.600061  0.600061  1
  Ho  Ho2  1  0.602071  0.602071  0.193604  1
  Ho  Ho3  1  0.602071  0.193604  0.602071  1
  Ho  Ho4  1  0.193604  0.602071  0.602071  1
  Ho  Ho5  1  0.059502  0.441880  0.441880  1
  Ho  Ho6  1  0.440192  0.061927  0.061927  1
  Ho  Ho7  1  0.441880  0.059502  0.441880  1
  Ho  Ho8  1  0.061927  0.440192  0.061927  1
  Ho  Ho9  1  0.441880  0.441880  0.059502  1
  Ho  Ho10  1  0.061927  0.061927  0.440192  1
  Ho  Ho11  1  0.185244  0.815512  0.815512  1
  Ho  Ho12  1  0.811609  0.187579  0.187579  1
  Ho  Ho13  1  0.815512  0.185244  0.815512  1
  Ho  Ho14  1  0.187579  0.811609  0.187579  1
  Ho  Ho15  1  0.815512  0.815512  0.185244  1
  Ho  Ho16  1  0.187579  0.187579  0.811609  1
  In  In17  1  0.833218  0.833218  0.503651  1
  In  In18  1  0.833218  0.503651  0.833218  1
  In  In19  1  0.503651  0.833218  0.833218  1
  Pt  Pt20  1  0.394193  0.394193  0.394193  1
  Pt  Pt21  1  0.392013  0.392013  0.821539  1
  Pt  Pt22  1  0.392013  0.821539  0.392013  1
  Pt  Pt23  1  0.821539  0.392013  0.392013  1
