# generated using pymatgen
data_CeYU(AlIr)3
_symmetry_space_group_name_H-M   'P 1'
_cell_length_a   6.98568967
_cell_length_b   7.14942622
_cell_length_c   4.04026200
_cell_angle_alpha   90.00000000
_cell_angle_beta   90.00000000
_cell_angle_gamma   120.09703371
_symmetry_Int_Tables_number   1
_chemical_formula_structural   CeYU(AlIr)3
_chemical_formula_sum   'Ce1 Y1 U1 Al3 Ir3'
_cell_volume   174.58027148
_cell_formula_units_Z   1
loop_
 _symmetry_equiv_pos_site_id
 _symmetry_equiv_pos_as_xyz
  1  'x, y, z'
loop_
 _atom_site_type_symbol
 _atom_site_label
 _atom_site_symmetry_multiplicity
 _atom_site_fract_x
 _atom_site_fract_y
 _atom_site_fract_z
 _atom_site_occupancy
  Ce  Ce0  1  0.420229  0.420486  0.500000  1
  Y  Y1  1  0.584668  0.001661  0.500000  1
  U  U2  1  0.999992  0.579841  0.500000  1
  Al  Al3  1  0.759689  0.768595  0.000000  1
  Al  Al4  1  0.245017  0.999514  0.000000  1
  Al  Al5  1  0.995115  0.225153  0.000000  1
  Ir  Ir6  1  0.693610  0.370349  0.000000  1
  Ir  Ir7  1  0.296211  0.648094  0.000000  1
  Ir  Ir8  1  0.005469  0.986306  0.500000  1
