# generated using pymatgen
data_NdTm3Te4
_symmetry_space_group_name_H-M   'P 1'
_cell_length_a   4.27515500
_cell_length_b   4.27515626
_cell_length_c   15.18702400
_cell_angle_alpha   90.00000000
_cell_angle_beta   90.00000000
_cell_angle_gamma   119.99999800
_symmetry_Int_Tables_number   1
_chemical_formula_structural   NdTm3Te4
_chemical_formula_sum   'Nd1 Tm3 Te4'
_cell_volume   240.38489683
_cell_formula_units_Z   1
loop_
 _symmetry_equiv_pos_site_id
 _symmetry_equiv_pos_as_xyz
  1  'x, y, z'
loop_
 _atom_site_type_symbol
 _atom_site_label
 _atom_site_symmetry_multiplicity
 _atom_site_fract_x
 _atom_site_fract_y
 _atom_site_fract_z
 _atom_site_occupancy
  Nd  Nd0  1  0.333333  0.666667  0.619043  1
  Tm  Tm1  1  0.333333  0.666667  0.884605  1
  Tm  Tm2  1  0.666667  0.333333  0.120260  1
  Tm  Tm3  1  0.666667  0.333333  0.376678  1
  Te  Te4  1  0.333333  0.666667  0.247322  1
  Te  Te5  1  0.666667  0.333333  0.760760  1
  Te  Te6  1  0.000000  0.000000  0.488886  1
  Te  Te7  1  0.000000  0.000000  0.002444  1
