# generated using pymatgen
data_LuTh2Sc(AsPt)4
_symmetry_space_group_name_H-M   'P 1'
_cell_length_a   4.28899300
_cell_length_b   4.28899471
_cell_length_c   15.30171500
_cell_angle_alpha   90.00000000
_cell_angle_beta   90.00000000
_cell_angle_gamma   120.00000997
_symmetry_Int_Tables_number   1
_chemical_formula_structural   LuTh2Sc(AsPt)4
_chemical_formula_sum   'Lu1 Th2 Sc1 As4 Pt4'
_cell_volume   243.77072256
_cell_formula_units_Z   1
loop_
 _symmetry_equiv_pos_site_id
 _symmetry_equiv_pos_as_xyz
  1  'x, y, z'
loop_
 _atom_site_type_symbol
 _atom_site_label
 _atom_site_symmetry_multiplicity
 _atom_site_fract_x
 _atom_site_fract_y
 _atom_site_fract_z
 _atom_site_occupancy
  Lu  Lu0  1  0.000000  0.000000  0.750000  1
  Th  Th1  1  0.000000  0.000000  0.497563  1
  Th  Th2  1  0.000000  0.000000  0.002437  1
  Sc  Sc3  1  0.000000  0.000000  0.250000  1
  As  As4  1  0.333333  0.666667  0.882460  1
  As  As5  1  0.666667  0.333333  0.121007  1
  As  As6  1  0.666667  0.333333  0.378993  1
  As  As7  1  0.333333  0.666667  0.617540  1
  Pt  Pt8  1  0.333333  0.666667  0.348692  1
  Pt  Pt9  1  0.666667  0.333333  0.645486  1
  Pt  Pt10  1  0.666667  0.333333  0.854514  1
  Pt  Pt11  1  0.333333  0.666667  0.151308  1
