# generated using pymatgen
data_Lu4Zr2Al24NiOs7
_symmetry_space_group_name_H-M   'P 1'
_cell_length_a   8.70313600
_cell_length_b   8.73302529
_cell_length_c   9.46684509
_cell_angle_alpha   90.03956509
_cell_angle_beta   90.00000000
_cell_angle_gamma   119.88684713
_symmetry_Int_Tables_number   1
_chemical_formula_structural   Lu4Zr2Al24NiOs7
_chemical_formula_sum   'Lu4 Zr2 Al24 Ni1 Os7'
_cell_volume   623.83582032
_cell_formula_units_Z   1
loop_
 _symmetry_equiv_pos_site_id
 _symmetry_equiv_pos_as_xyz
  1  'x, y, z'
loop_
 _atom_site_type_symbol
 _atom_site_label
 _atom_site_symmetry_multiplicity
 _atom_site_fract_x
 _atom_site_fract_y
 _atom_site_fract_z
 _atom_site_occupancy
  Lu  Lu0  1  0.609429  0.804469  0.251764  1
  Lu  Lu1  1  0.390571  0.195531  0.748236  1
  Lu  Lu2  1  0.195041  0.804469  0.251764  1
  Lu  Lu3  1  0.804959  0.195531  0.748236  1
  Zr  Zr4  1  0.196459  0.392919  0.252212  1
  Zr  Zr5  1  0.803541  0.607081  0.747788  1
  Al  Al6  1  0.332901  0.665804  0.029439  1
  Al  Al7  1  0.667099  0.334196  0.970561  1
  Al  Al8  1  0.667309  0.334617  0.531105  1
  Al  Al9  1  0.332691  0.665383  0.468895  1
  Al  Al10  1  0.163425  0.326849  0.573698  1
  Al  Al11  1  0.836575  0.673151  0.426302  1
  Al  Al12  1  0.673459  0.835353  0.576476  1
  Al  Al13  1  0.838230  0.676462  0.073038  1
  Al  Al14  1  0.326541  0.164647  0.423524  1
  Al  Al15  1  0.161770  0.323538  0.926962  1
  Al  Al16  1  0.161896  0.835353  0.576476  1
  Al  Al17  1  0.324346  0.164064  0.076882  1
  Al  Al18  1  0.838104  0.164647  0.423524  1
  Al  Al19  1  0.675654  0.835936  0.923118  1
  Al  Al20  1  0.839717  0.164064  0.076882  1
  Al  Al21  1  0.160283  0.835936  0.923118  1
  Al  Al22  1  0.561389  0.122779  0.250373  1
  Al  Al23  1  0.438611  0.877221  0.749627  1
  Al  Al24  1  0.879029  0.439725  0.250324  1
  Al  Al25  1  0.120971  0.560275  0.749676  1
  Al  Al26  1  0.560697  0.439725  0.250324  1
  Al  Al27  1  0.439303  0.560275  0.749676  1
  Al  Al28  1  0.006005  0.012012  0.242837  1
  Al  Al29  1  0.993995  0.987988  0.757163  1
  Ni  Ni30  1  0.000000  0.000000  0.000000  1
  Os  Os31  1  0.500000  0.000000  0.000000  1
  Os  Os32  1  0.000000  0.500000  0.000000  1
  Os  Os33  1  0.500000  0.000000  0.500000  1
  Os  Os34  1  0.500000  0.500000  0.000000  1
  Os  Os35  1  0.000000  0.500000  0.500000  1
  Os  Os36  1  0.500000  0.500000  0.500000  1
  Os  Os37  1  0.000000  0.000000  0.500000  1
