# generated using pymatgen
data_Er3Lu7CuGePb6
_symmetry_space_group_name_H-M   'P 1'
_cell_length_a   9.07056855
_cell_length_b   9.06582670
_cell_length_c   6.62728611
_cell_angle_alpha   90.00320912
_cell_angle_beta   89.98098620
_cell_angle_gamma   120.05222880
_symmetry_Int_Tables_number   1
_chemical_formula_structural   Er3Lu7CuGePb6
_chemical_formula_sum   'Er3 Lu7 Cu1 Ge1 Pb6'
_cell_volume   471.71473237
_cell_formula_units_Z   1
loop_
 _symmetry_equiv_pos_site_id
 _symmetry_equiv_pos_as_xyz
  1  'x, y, z'
loop_
 _atom_site_type_symbol
 _atom_site_label
 _atom_site_symmetry_multiplicity
 _atom_site_fract_x
 _atom_site_fract_y
 _atom_site_fract_z
 _atom_site_occupancy
  Er  Er0  1  0.250244  0.999933  0.742976  1
  Er  Er1  1  0.749671  0.999888  0.256939  1
  Er  Er2  1  0.000047  0.250158  0.742984  1
  Lu  Lu3  1  0.999979  0.750288  0.257458  1
  Lu  Lu4  1  0.750467  0.750395  0.742490  1
  Lu  Lu5  1  0.249582  0.249517  0.257400  1
  Lu  Lu6  1  0.333374  0.666616  0.499939  1
  Lu  Lu7  1  0.666676  0.333687  0.499955  1
  Lu  Lu8  1  0.666665  0.333615  0.000128  1
  Lu  Lu9  1  0.333339  0.666614  0.000130  1
  Cu  Cu10  1  0.999985  0.999654  0.000367  1
  Ge  Ge11  1  0.000004  0.999337  0.499131  1
  Pb  Pb12  1  0.605653  0.999595  0.749291  1
  Pb  Pb13  1  0.393754  0.000013  0.250815  1
  Pb  Pb14  1  0.999540  0.605537  0.749244  1
  Pb  Pb15  1  0.000459  0.394958  0.250666  1
  Pb  Pb16  1  0.395186  0.395235  0.749441  1
  Pb  Pb17  1  0.605375  0.604960  0.250647  1
