# generated using pymatgen
data_Cs12GdYSe8
_symmetry_space_group_name_H-M   'P 1'
_cell_length_a   11.60815600
_cell_length_b   11.60815651
_cell_length_c   8.80269200
_cell_angle_alpha   90.00000000
_cell_angle_beta   90.00000000
_cell_angle_gamma   120.00000424
_symmetry_Int_Tables_number   1
_chemical_formula_structural   Cs12GdYSe8
_chemical_formula_sum   'Cs12 Gd1 Y1 Se8'
_cell_volume   1027.24162804
_cell_formula_units_Z   1
loop_
 _symmetry_equiv_pos_site_id
 _symmetry_equiv_pos_as_xyz
  1  'x, y, z'
loop_
 _atom_site_type_symbol
 _atom_site_label
 _atom_site_symmetry_multiplicity
 _atom_site_fract_x
 _atom_site_fract_y
 _atom_site_fract_z
 _atom_site_occupancy
  Cs  Cs0  1  0.133639  0.866361  0.546637  1
  Cs  Cs1  1  0.266847  0.133424  0.048273  1
  Cs  Cs2  1  0.866576  0.733153  0.048273  1
  Cs  Cs3  1  0.133639  0.267279  0.546637  1
  Cs  Cs4  1  0.732721  0.866361  0.546637  1
  Cs  Cs5  1  0.866576  0.133424  0.048273  1
  Cs  Cs6  1  0.532191  0.467809  0.359664  1
  Cs  Cs7  1  0.065125  0.532563  0.857745  1
  Cs  Cs8  1  0.467437  0.934875  0.857745  1
  Cs  Cs9  1  0.532191  0.064383  0.359664  1
  Cs  Cs10  1  0.935617  0.467809  0.359664  1
  Cs  Cs11  1  0.467437  0.532563  0.857745  1
  Gd  Gd12  1  0.666667  0.333333  0.759981  1
  Y  Y13  1  0.333333  0.666667  0.256965  1
  Se  Se14  1  0.333333  0.666667  0.568817  1
  Se  Se15  1  0.666667  0.333333  0.076009  1
  Se  Se16  1  0.205010  0.794990  0.152589  1
  Se  Se17  1  0.406488  0.203244  0.654302  1
  Se  Se18  1  0.796756  0.593512  0.654302  1
  Se  Se19  1  0.205010  0.410020  0.152589  1
  Se  Se20  1  0.589980  0.794990  0.152589  1
  Se  Se21  1  0.796756  0.203244  0.654302  1
