# generated using pymatgen
data_Tb3PuRe4F28
_symmetry_space_group_name_H-M   'P 1'
_cell_length_a   5.69622313
_cell_length_b   9.05039932
_cell_length_c   12.17010200
_cell_angle_alpha   62.42275825
_cell_angle_beta   89.95048172
_cell_angle_gamma   89.98629338
_symmetry_Int_Tables_number   1
_chemical_formula_structural   Tb3PuRe4F28
_chemical_formula_sum   'Tb3 Pu1 Re4 F28'
_cell_volume   556.12500477
_cell_formula_units_Z   1
loop_
 _symmetry_equiv_pos_site_id
 _symmetry_equiv_pos_as_xyz
  1  'x, y, z'
loop_
 _atom_site_type_symbol
 _atom_site_label
 _atom_site_symmetry_multiplicity
 _atom_site_fract_x
 _atom_site_fract_y
 _atom_site_fract_z
 _atom_site_occupancy
  Tb  Tb0  1  0.741999  0.186441  0.734979  1
  Tb  Tb1  1  0.757214  0.191130  0.234324  1
  Tb  Tb2  1  0.242235  0.814631  0.764905  1
  Pu  Pu3  1  0.256526  0.814977  0.266612  1
  Re  Re4  1  0.754916  0.726059  0.039956  1
  Re  Re5  1  0.243111  0.276061  0.954742  1
  Re  Re6  1  0.255928  0.269999  0.458148  1
  Re  Re7  1  0.744032  0.725940  0.547209  1
  F  F8  1  0.948066  0.705685  0.423395  1
  F  F9  1  0.046386  0.290764  0.580119  1
  F  F10  1  0.452342  0.292934  0.078683  1
  F  F11  1  0.546255  0.707330  0.917265  1
  F  F12  1  0.479545  0.729495  0.136652  1
  F  F13  1  0.518383  0.268725  0.857376  1
  F  F14  1  0.979812  0.267809  0.359351  1
  F  F15  1  0.021452  0.732262  0.643232  1
  F  F16  1  0.952527  0.742922  0.167613  1
  F  F17  1  0.039302  0.255194  0.829661  1
  F  F18  1  0.459342  0.252299  0.331273  1
  F  F19  1  0.540657  0.746121  0.672338  1
  F  F20  1  0.765052  0.480035  0.140513  1
  F  F21  1  0.234549  0.521880  0.856893  1
  F  F22  1  0.267447  0.514989  0.358881  1
  F  F23  1  0.735984  0.478883  0.644062  1
  F  F24  1  0.957932  0.283641  0.047231  1
  F  F25  1  0.044103  0.717597  0.950874  1
  F  F26  1  0.459691  0.714208  0.457805  1
  F  F27  1  0.541620  0.280362  0.548951  1
  F  F28  1  0.741040  0.971825  0.447250  1
  F  F29  1  0.258567  0.024137  0.555012  1
  F  F30  1  0.241048  0.030385  0.050814  1
  F  F31  1  0.757807  0.972009  0.944897  1
  F  F32  1  0.587910  0.975746  0.231724  1
  F  F33  1  0.425622  0.027072  0.766775  1
  F  F34  1  0.076313  0.036673  0.266992  1
  F  F35  1  0.925288  0.973784  0.733492  1
