# generated using pymatgen
data_Na2Pt(BrO3)6
_symmetry_space_group_name_H-M   'P 1'
_cell_length_a   5.58228500
_cell_length_b   9.13283591
_cell_length_c   9.13276300
_cell_angle_alpha   59.99944911
_cell_angle_beta   89.99862464
_cell_angle_gamma   89.99969500
_symmetry_Int_Tables_number   1
_chemical_formula_structural   Na2Pt(BrO3)6
_chemical_formula_sum   'Na2 Pt1 Br6 O18'
_cell_volume   403.22557371
_cell_formula_units_Z   1
loop_
 _symmetry_equiv_pos_site_id
 _symmetry_equiv_pos_as_xyz
  1  'x, y, z'
loop_
 _atom_site_type_symbol
 _atom_site_label
 _atom_site_symmetry_multiplicity
 _atom_site_fract_x
 _atom_site_fract_y
 _atom_site_fract_z
 _atom_site_occupancy
  Na  Na0  1  0.734597  0.333334  0.333334  1
  Na  Na1  1  0.219495  0.666665  0.666667  1
  Pt  Pt2  1  0.661090  0.000000  0.000000  1
  Br  Br3  1  0.815605  0.965704  0.679148  1
  Br  Br4  1  0.815607  0.355141  0.965710  1
  Br  Br5  1  0.815610  0.679148  0.355143  1
  Br  Br6  1  0.329743  0.030071  0.302019  1
  Br  Br7  1  0.329748  0.667916  0.030069  1
  Br  Br8  1  0.329750  0.302018  0.667916  1
  O  O9  1  0.471320  0.218194  0.568520  1
  O  O10  1  0.471321  0.213290  0.218196  1
  O  O11  1  0.471320  0.568515  0.213288  1
  O  O12  1  0.968388  0.780120  0.433073  1
  O  O13  1  0.968387  0.786802  0.780127  1
  O  O14  1  0.968380  0.433074  0.786799  1
  O  O15  1  0.884556  0.067096  0.801773  1
  O  O16  1  0.884558  0.131125  0.067094  1
  O  O17  1  0.884557  0.801779  0.131124  1
  O  O18  1  0.453046  0.911591  0.207410  1
  O  O19  1  0.453042  0.881004  0.911593  1
  O  O20  1  0.453053  0.207408  0.881005  1
  O  O21  1  0.969009  0.097358  0.507330  1
  O  O22  1  0.969017  0.395302  0.097360  1
  O  O23  1  0.969014  0.507334  0.395302  1
  O  O24  1  0.439454  0.909028  0.494576  1
  O  O25  1  0.439467  0.596407  0.909022  1
  O  O26  1  0.439468  0.494576  0.596397  1
