# generated using pymatgen
data_SrEu7(SiPd)8
_symmetry_space_group_name_H-M   'P 1'
_cell_length_a   5.88047245
_cell_length_b   7.89855792
_cell_length_c   10.88796500
_cell_angle_alpha   88.27906698
_cell_angle_beta   90.06203622
_cell_angle_gamma   89.95806368
_symmetry_Int_Tables_number   1
_chemical_formula_structural   SrEu7(SiPd)8
_chemical_formula_sum   'Sr1 Eu7 Si8 Pd8'
_cell_volume   505.48751129
_cell_formula_units_Z   1
loop_
 _symmetry_equiv_pos_site_id
 _symmetry_equiv_pos_as_xyz
  1  'x, y, z'
loop_
 _atom_site_type_symbol
 _atom_site_label
 _atom_site_symmetry_multiplicity
 _atom_site_fract_x
 _atom_site_fract_y
 _atom_site_fract_z
 _atom_site_occupancy
  Sr  Sr0  1  0.623951  0.326288  0.363097  1
  Eu  Eu1  1  0.367306  0.970686  0.141963  1
  Eu  Eu2  1  0.632430  0.029910  0.859246  1
  Eu  Eu3  1  0.867581  0.530245  0.859424  1
  Eu  Eu4  1  0.132964  0.469998  0.141252  1
  Eu  Eu5  1  0.872810  0.826979  0.364543  1
  Eu  Eu6  1  0.124796  0.173876  0.635244  1
  Eu  Eu7  1  0.376947  0.671265  0.636807  1
  Si  Si8  1  0.875901  0.537186  0.578048  1
  Si  Si9  1  0.127089  0.465729  0.424768  1
  Si  Si10  1  0.367399  0.960528  0.427506  1
  Si  Si11  1  0.624586  0.033888  0.578214  1
  Si  Si12  1  0.632257  0.630874  0.137239  1
  Si  Si13  1  0.366614  0.371350  0.860205  1
  Si  Si14  1  0.132749  0.871285  0.859806  1
  Si  Si15  1  0.869947  0.129118  0.136248  1
  Pd  Pd16  1  0.899284  0.841456  0.054749  1
  Pd  Pd17  1  0.104695  0.158218  0.943401  1
  Pd  Pd18  1  0.395983  0.658767  0.943957  1
  Pd  Pd19  1  0.602751  0.341638  0.053933  1
  Pd  Pd20  1  0.887459  0.820999  0.667329  1
  Pd  Pd21  1  0.114642  0.178104  0.332668  1
  Pd  Pd22  1  0.384195  0.681193  0.332007  1
  Pd  Pd23  1  0.615662  0.320420  0.668348  1
