# generated using pymatgen
data_La4Nd2OsRuI6
_symmetry_space_group_name_H-M   'P 1'
_cell_length_a   4.39497600
_cell_length_b   9.57387351
_cell_length_c   12.56996988
_cell_angle_alpha   87.41303180
_cell_angle_beta   90.00000000
_cell_angle_gamma   90.00000000
_symmetry_Int_Tables_number   1
_chemical_formula_structural   La4Nd2OsRuI6
_chemical_formula_sum   'La4 Nd2 Os1 Ru1 I6'
_cell_volume   528.36689401
_cell_formula_units_Z   1
loop_
 _symmetry_equiv_pos_site_id
 _symmetry_equiv_pos_as_xyz
  1  'x, y, z'
loop_
 _atom_site_type_symbol
 _atom_site_label
 _atom_site_symmetry_multiplicity
 _atom_site_fract_x
 _atom_site_fract_y
 _atom_site_fract_z
 _atom_site_occupancy
  La  La0  1  0.750000  0.118234  0.668244  1
  La  La1  1  0.250000  0.882308  0.328263  1
  La  La2  1  0.750000  0.098352  0.101828  1
  La  La3  1  0.250000  0.903915  0.895121  1
  Nd  Nd4  1  0.250000  0.312994  0.880476  1
  Nd  Nd5  1  0.750000  0.684288  0.120166  1
  Os  Os6  1  0.750000  0.112884  0.874453  1
  Ru  Ru7  1  0.250000  0.885288  0.131597  1
  I  I8  1  0.750000  0.132339  0.379901  1
  I  I9  1  0.250000  0.868603  0.619062  1
  I  I10  1  0.250000  0.369996  0.625217  1
  I  I11  1  0.750000  0.630114  0.374431  1
  I  I12  1  0.750000  0.604089  0.869259  1
  I  I13  1  0.250000  0.396594  0.131980  1
