# generated using pymatgen
data_HfSc10NbGa20
_symmetry_space_group_name_H-M   'P 1'
_cell_length_a   5.76303853
_cell_length_b   9.16938800
_cell_length_c   10.99477167
_cell_angle_alpha   90.00000000
_cell_angle_beta   90.26388616
_cell_angle_gamma   90.00000000
_symmetry_Int_Tables_number   1
_chemical_formula_structural   HfSc10NbGa20
_chemical_formula_sum   'Hf1 Sc10 Nb1 Ga20'
_cell_volume   580.99645473
_cell_formula_units_Z   1
loop_
 _symmetry_equiv_pos_site_id
 _symmetry_equiv_pos_as_xyz
  1  'x, y, z'
loop_
 _atom_site_type_symbol
 _atom_site_label
 _atom_site_symmetry_multiplicity
 _atom_site_fract_x
 _atom_site_fract_y
 _atom_site_fract_z
 _atom_site_occupancy
  Hf  Hf0  1  0.643095  0.750000  0.567356  1
  Sc  Sc1  1  0.150077  0.250000  0.933358  1
  Sc  Sc2  1  0.348278  0.250000  0.432891  1
  Sc  Sc3  1  0.885505  0.506939  0.355545  1
  Sc  Sc4  1  0.613787  0.993031  0.854117  1
  Sc  Sc5  1  0.106997  0.005395  0.647208  1
  Sc  Sc6  1  0.388936  0.492295  0.145783  1
  Sc  Sc7  1  0.106997  0.494605  0.647208  1
  Sc  Sc8  1  0.388936  0.007705  0.145783  1
  Sc  Sc9  1  0.885505  0.993061  0.355545  1
  Sc  Sc10  1  0.613787  0.506969  0.854117  1
  Nb  Nb11  1  0.864619  0.750000  0.067087  1
  Ga  Ga12  1  0.874613  0.044953  0.094670  1
  Ga  Ga13  1  0.623947  0.450547  0.594794  1
  Ga  Ga14  1  0.126864  0.553643  0.908807  1
  Ga  Ga15  1  0.374462  0.947122  0.404221  1
  Ga  Ga16  1  0.126864  0.946357  0.908807  1
  Ga  Ga17  1  0.374462  0.552878  0.404221  1
  Ga  Ga18  1  0.874613  0.455047  0.094670  1
  Ga  Ga19  1  0.623947  0.049453  0.594794  1
  Ga  Ga20  1  0.154718  0.750000  0.249953  1
  Ga  Ga21  1  0.342064  0.750000  0.752609  1
  Ga  Ga22  1  0.842497  0.250000  0.748667  1
  Ga  Ga23  1  0.656415  0.250000  0.249579  1
  Ga  Ga24  1  0.403005  0.750000  0.005501  1
  Ga  Ga25  1  0.108680  0.750000  0.502795  1
  Ga  Ga26  1  0.616447  0.250000  0.994897  1
  Ga  Ga27  1  0.885064  0.250000  0.494669  1
  Ga  Ga28  1  0.619944  0.750000  0.282148  1
  Ga  Ga29  1  0.878460  0.750000  0.792893  1
  Ga  Ga30  1  0.377931  0.250000  0.708065  1
  Ga  Ga31  1  0.118484  0.250000  0.207239  1
