# generated using pymatgen
data_Dy4Ho6Ru3Rh
_symmetry_space_group_name_H-M   'P 1'
_cell_length_a   6.33515827
_cell_length_b   7.28909254
_cell_length_c   8.46925326
_cell_angle_alpha   96.73206480
_cell_angle_beta   111.99485356
_cell_angle_gamma   90.08461646
_symmetry_Int_Tables_number   1
_chemical_formula_structural   Dy4Ho6Ru3Rh
_chemical_formula_sum   'Dy4 Ho6 Ru3 Rh1'
_cell_volume   359.68711371
_cell_formula_units_Z   1
loop_
 _symmetry_equiv_pos_site_id
 _symmetry_equiv_pos_as_xyz
  1  'x, y, z'
loop_
 _atom_site_type_symbol
 _atom_site_label
 _atom_site_symmetry_multiplicity
 _atom_site_fract_x
 _atom_site_fract_y
 _atom_site_fract_z
 _atom_site_occupancy
  Dy  Dy0  1  0.978790  0.917755  0.185870  1
  Dy  Dy1  1  0.791214  0.584805  0.811134  1
  Dy  Dy2  1  0.021694  0.084625  0.813470  1
  Dy  Dy3  1  0.209612  0.414108  0.185844  1
  Ho  Ho4  1  0.640332  0.816347  0.436088  1
  Ho  Ho5  1  0.209343  0.685700  0.567512  1
  Ho  Ho6  1  0.357885  0.185362  0.565305  1
  Ho  Ho7  1  0.793466  0.313042  0.435981  1
  Ho  Ho8  1  0.418974  0.750773  0.999530  1
  Ho  Ho9  1  0.578608  0.247937  0.998394  1
  Ru  Ru10  1  0.603666  0.923136  0.779707  1
  Ru  Ru11  1  0.175861  0.425049  0.778852  1
  Ru  Ru12  1  0.398125  0.075821  0.220780  1
  Rh  Rh13  1  0.822429  0.575539  0.221536  1
