# generated using pymatgen
data_Ba2SrScSb3
_symmetry_space_group_name_H-M   'P 1'
_cell_length_a   4.96574400
_cell_length_b   13.99268300
_cell_length_c   15.80206900
_cell_angle_alpha   90.00000000
_cell_angle_beta   90.00000000
_cell_angle_gamma   90.00000000
_symmetry_Int_Tables_number   1
_chemical_formula_structural   Ba2SrScSb3
_chemical_formula_sum   'Ba8 Sr4 Sc4 Sb12'
_cell_volume   1097.99225265
_cell_formula_units_Z   4
loop_
 _symmetry_equiv_pos_site_id
 _symmetry_equiv_pos_as_xyz
  1  'x, y, z'
loop_
 _atom_site_type_symbol
 _atom_site_label
 _atom_site_symmetry_multiplicity
 _atom_site_fract_x
 _atom_site_fract_y
 _atom_site_fract_z
 _atom_site_occupancy
  Ba  Ba0  1  0.250000  0.064968  0.894925  1
  Ba  Ba1  1  0.750000  0.935032  0.105075  1
  Ba  Ba2  1  0.250000  0.564968  0.605075  1
  Ba  Ba3  1  0.750000  0.435032  0.394925  1
  Ba  Ba4  1  0.250000  0.848259  0.493312  1
  Ba  Ba5  1  0.750000  0.151741  0.506688  1
  Ba  Ba6  1  0.250000  0.348259  0.006688  1
  Ba  Ba7  1  0.750000  0.651741  0.993312  1
  Sr  Sr8  1  0.750000  0.230382  0.218014  1
  Sr  Sr9  1  0.250000  0.769618  0.781986  1
  Sr  Sr10  1  0.750000  0.730382  0.281986  1
  Sr  Sr11  1  0.250000  0.269618  0.718014  1
  Sc  Sc12  1  0.250000  0.058313  0.295400  1
  Sc  Sc13  1  0.750000  0.941687  0.704600  1
  Sc  Sc14  1  0.250000  0.558313  0.204600  1
  Sc  Sc15  1  0.750000  0.441687  0.795400  1
  Sb  Sb16  1  0.250000  0.244713  0.369978  1
  Sb  Sb17  1  0.750000  0.755287  0.630022  1
  Sb  Sb18  1  0.250000  0.744713  0.130022  1
  Sb  Sb19  1  0.750000  0.255287  0.869978  1
  Sb  Sb20  1  0.250000  0.112208  0.119378  1
  Sb  Sb21  1  0.750000  0.887792  0.880622  1
  Sb  Sb22  1  0.250000  0.612208  0.380622  1
  Sb  Sb23  1  0.750000  0.387792  0.619378  1
  Sb  Sb24  1  0.250000  0.034913  0.653516  1
  Sb  Sb25  1  0.750000  0.965087  0.346484  1
  Sb  Sb26  1  0.250000  0.534913  0.846484  1
  Sb  Sb27  1  0.750000  0.465087  0.153516  1
