# generated using pymatgen
data_CaPr8Ho11Pb16
_symmetry_space_group_name_H-M   'P 1'
_cell_length_a   8.27564415
_cell_length_b   8.40886304
_cell_length_c   15.87564000
_cell_angle_alpha   90.00000000
_cell_angle_beta   90.00000000
_cell_angle_gamma   89.87334908
_symmetry_Int_Tables_number   1
_chemical_formula_structural   CaPr8Ho11Pb16
_chemical_formula_sum   'Ca1 Pr8 Ho11 Pb16'
_cell_volume   1104.76337455
_cell_formula_units_Z   1
loop_
 _symmetry_equiv_pos_site_id
 _symmetry_equiv_pos_as_xyz
  1  'x, y, z'
loop_
 _atom_site_type_symbol
 _atom_site_label
 _atom_site_symmetry_multiplicity
 _atom_site_fract_x
 _atom_site_fract_y
 _atom_site_fract_z
 _atom_site_occupancy
  Ca  Ca0  1  0.798753  0.495629  0.750000  1
  Pr  Pr1  1  0.478366  0.678149  0.595995  1
  Pr  Pr2  1  0.977766  0.820448  0.903845  1
  Pr  Pr3  1  0.523202  0.322667  0.097639  1
  Pr  Pr4  1  0.022895  0.177981  0.402438  1
  Pr  Pr5  1  0.523202  0.322667  0.402361  1
  Pr  Pr6  1  0.022895  0.177981  0.097562  1
  Pr  Pr7  1  0.478366  0.678149  0.904005  1
  Pr  Pr8  1  0.977766  0.820448  0.596155  1
  Ho  Ho9  1  0.633907  0.159539  0.621092  1
  Ho  Ho10  1  0.132757  0.340671  0.878755  1
  Ho  Ho11  1  0.365637  0.841830  0.122505  1
  Ho  Ho12  1  0.864992  0.658918  0.377143  1
  Ho  Ho13  1  0.365637  0.841830  0.377495  1
  Ho  Ho14  1  0.864992  0.658918  0.122857  1
  Ho  Ho15  1  0.633907  0.159539  0.878908  1
  Ho  Ho16  1  0.132757  0.340671  0.621245  1
  Ho  Ho17  1  0.299621  0.005954  0.750000  1
  Ho  Ho18  1  0.200203  0.505021  0.250000  1
  Ho  Ho19  1  0.700745  0.994697  0.250000  1
  Pb  Pb20  1  0.704888  0.959147  0.456358  1
  Pb  Pb21  1  0.204602  0.541540  0.043363  1
  Pb  Pb22  1  0.295114  0.040212  0.956436  1
  Pb  Pb23  1  0.795388  0.457257  0.541084  1
  Pb  Pb24  1  0.295114  0.040212  0.543564  1
  Pb  Pb25  1  0.795388  0.457257  0.958916  1
  Pb  Pb26  1  0.704888  0.959147  0.043642  1
  Pb  Pb27  1  0.204602  0.541540  0.456637  1
  Pb  Pb28  1  0.434324  0.372049  0.750000  1
  Pb  Pb29  1  0.936386  0.124239  0.750000  1
  Pb  Pb30  1  0.562374  0.628714  0.250000  1
  Pb  Pb31  1  0.062318  0.870491  0.250000  1
  Pb  Pb32  1  0.663172  0.856945  0.750000  1
  Pb  Pb33  1  0.172094  0.648787  0.750000  1
  Pb  Pb34  1  0.335692  0.149735  0.250000  1
  Pb  Pb35  1  0.835292  0.351022  0.250000  1
