# generated using pymatgen
data_SmTh7TiSe17
_symmetry_space_group_name_H-M   'P 1'
_cell_length_a   8.47235857
_cell_length_b   8.44584913
_cell_length_c   11.21039313
_cell_angle_alpha   80.61245037
_cell_angle_beta   80.59389025
_cell_angle_gamma   64.84094540
_symmetry_Int_Tables_number   1
_chemical_formula_structural   SmTh7TiSe17
_chemical_formula_sum   'Sm1 Th7 Ti1 Se17'
_cell_volume   712.36158405
_cell_formula_units_Z   1
loop_
 _symmetry_equiv_pos_site_id
 _symmetry_equiv_pos_as_xyz
  1  'x, y, z'
loop_
 _atom_site_type_symbol
 _atom_site_label
 _atom_site_symmetry_multiplicity
 _atom_site_fract_x
 _atom_site_fract_y
 _atom_site_fract_z
 _atom_site_occupancy
  Sm  Sm0  1  0.813663  0.302491  0.296863  1
  Th  Th1  1  0.301169  0.814105  0.294258  1
  Th  Th2  1  0.185147  0.699323  0.703248  1
  Th  Th3  1  0.699179  0.186766  0.702835  1
  Th  Th4  1  0.204200  0.204001  0.541126  1
  Th  Th5  1  0.794974  0.796876  0.456118  1
  Th  Th6  1  0.682370  0.680311  0.982947  1
  Th  Th7  1  0.317928  0.317329  0.020895  1
  Ti  Ti8  1  0.999222  0.002384  0.001410  1
  Se  Se9  1  0.823616  0.431369  0.533287  1
  Se  Se10  1  0.431998  0.820807  0.531640  1
  Se  Se11  1  0.177788  0.568153  0.468099  1
  Se  Se12  1  0.568895  0.176667  0.470133  1
  Se  Se13  1  0.944413  0.322749  0.026895  1
  Se  Se14  1  0.323212  0.944188  0.026881  1
  Se  Se15  1  0.056282  0.677675  0.970988  1
  Se  Se16  1  0.677287  0.056585  0.971390  1
  Se  Se17  1  0.211073  0.206591  0.276858  1
  Se  Se18  1  0.791093  0.790730  0.723855  1
  Se  Se19  1  0.061741  0.060034  0.773459  1
  Se  Se20  1  0.939583  0.938840  0.227108  1
  Se  Se21  1  0.303563  0.304122  0.754491  1
  Se  Se22  1  0.693876  0.698442  0.245170  1
  Se  Se23  1  0.519628  0.521282  0.832694  1
  Se  Se24  1  0.476684  0.481721  0.164764  1
  Se  Se25  1  0.001416  0.996460  0.502588  1
