# generated using pymatgen
data_Ba3EuTa2O9
_symmetry_space_group_name_H-M   'P 1'
_cell_length_a   6.04348100
_cell_length_b   6.04348255
_cell_length_c   7.52543900
_cell_angle_alpha   90.00000000
_cell_angle_beta   90.00000000
_cell_angle_gamma   120.00000792
_symmetry_Int_Tables_number   1
_chemical_formula_structural   Ba3EuTa2O9
_chemical_formula_sum   'Ba3 Eu1 Ta2 O9'
_cell_volume   238.03283576
_cell_formula_units_Z   1
loop_
 _symmetry_equiv_pos_site_id
 _symmetry_equiv_pos_as_xyz
  1  'x, y, z'
loop_
 _atom_site_type_symbol
 _atom_site_label
 _atom_site_symmetry_multiplicity
 _atom_site_fract_x
 _atom_site_fract_y
 _atom_site_fract_z
 _atom_site_occupancy
  Ba  Ba0  1  0.666667  0.333333  0.322598  1
  Ba  Ba1  1  0.000000  0.000000  0.000000  1
  Ba  Ba2  1  0.333333  0.666667  0.677402  1
  Eu  Eu3  1  0.000000  0.000000  0.500000  1
  Ta  Ta4  1  0.333333  0.666667  0.163742  1
  Ta  Ta5  1  0.666667  0.333333  0.836258  1
  O  O6  1  0.357728  0.178864  0.692993  1
  O  O7  1  0.821136  0.642272  0.692993  1
  O  O8  1  0.178864  0.357728  0.307007  1
  O  O9  1  0.000000  0.500000  0.000000  1
  O  O10  1  0.178864  0.821136  0.307007  1
  O  O11  1  0.642272  0.821136  0.307007  1
  O  O12  1  0.821136  0.178864  0.692993  1
  O  O13  1  0.500000  0.000000  0.000000  1
  O  O14  1  0.500000  0.500000  0.000000  1
