# generated using pymatgen
data_Er12Fe2Co2CuSb
_symmetry_space_group_name_H-M   'P 1'
_cell_length_a   8.25148965
_cell_length_b   8.24978105
_cell_length_c   8.25148984
_cell_angle_alpha   110.75093557
_cell_angle_beta   110.16917011
_cell_angle_gamma   107.51984152
_symmetry_Int_Tables_number   1
_chemical_formula_structural   Er12Fe2Co2CuSb
_chemical_formula_sum   'Er12 Fe2 Co2 Cu1 Sb1'
_cell_volume   431.96843435
_cell_formula_units_Z   1
loop_
 _symmetry_equiv_pos_site_id
 _symmetry_equiv_pos_as_xyz
  1  'x, y, z'
loop_
 _atom_site_type_symbol
 _atom_site_label
 _atom_site_symmetry_multiplicity
 _atom_site_fract_x
 _atom_site_fract_y
 _atom_site_fract_z
 _atom_site_occupancy
  Er  Er0  1  0.184138  0.288530  0.472729  1
  Er  Er1  1  0.815862  0.711470  0.527271  1
  Er  Er2  1  0.184201  0.711470  0.895607  1
  Er  Er3  1  0.815799  0.288530  0.104393  1
  Er  Er4  1  0.313349  0.617108  0.303760  1
  Er  Er5  1  0.686651  0.382892  0.696240  1
  Er  Er6  1  0.313272  0.009557  0.696284  1
  Er  Er7  1  0.686728  0.990443  0.303716  1
  Er  Er8  1  0.419185  0.215218  0.204009  1
  Er  Er9  1  0.580815  0.784782  0.795991  1
  Er  Er10  1  0.011210  0.215218  0.796034  1
  Er  Er11  1  0.988790  0.784782  0.203966  1
  Fe  Fe12  1  0.109854  0.609858  0.500004  1
  Fe  Fe13  1  0.890146  0.390142  0.499996  1
  Co  Co14  1  0.379124  0.000000  0.379124  1
  Co  Co15  1  0.620876  0.000000  0.620876  1
  Cu  Cu16  1  0.000000  0.000000  0.000000  1
  Sb  Sb17  1  0.500000  0.500000  0.000000  1
