# generated using pymatgen
data_Yb7Pr(Ge4Mo3)4
_symmetry_space_group_name_H-M   'P 1'
_cell_length_a   6.86817968
_cell_length_b   7.04417339
_cell_length_c   13.27908371
_cell_angle_alpha   89.98293762
_cell_angle_beta   90.02556837
_cell_angle_gamma   90.03739796
_symmetry_Int_Tables_number   1
_chemical_formula_structural   Yb7Pr(Ge4Mo3)4
_chemical_formula_sum   'Yb7 Pr1 Ge16 Mo12'
_cell_volume   642.45045240
_cell_formula_units_Z   1
loop_
 _symmetry_equiv_pos_site_id
 _symmetry_equiv_pos_as_xyz
  1  'x, y, z'
loop_
 _atom_site_type_symbol
 _atom_site_label
 _atom_site_symmetry_multiplicity
 _atom_site_fract_x
 _atom_site_fract_y
 _atom_site_fract_z
 _atom_site_occupancy
  Yb  Yb0  1  0.492997  0.670921  0.589577  1
  Yb  Yb1  1  0.992101  0.828845  0.910429  1
  Yb  Yb2  1  0.507123  0.328482  0.089987  1
  Yb  Yb3  1  0.007604  0.171969  0.407683  1
  Yb  Yb4  1  0.508035  0.329161  0.408018  1
  Yb  Yb5  1  0.006986  0.171944  0.090011  1
  Yb  Yb6  1  0.492768  0.670193  0.912470  1
  Pr  Pr7  1  0.994764  0.829330  0.590349  1
  Ge  Ge8  1  0.667183  0.956569  0.451301  1
  Ge  Ge9  1  0.169857  0.544774  0.046019  1
  Ge  Ge10  1  0.329585  0.044196  0.955041  1
  Ge  Ge11  1  0.827885  0.447913  0.544050  1
  Ge  Ge12  1  0.336061  0.050421  0.544304  1
  Ge  Ge13  1  0.830317  0.455502  0.954524  1
  Ge  Ge14  1  0.670165  0.955665  0.045777  1
  Ge  Ge15  1  0.172224  0.540338  0.452059  1
  Ge  Ge16  1  0.467607  0.378715  0.749926  1
  Ge  Ge17  1  0.965392  0.125675  0.753029  1
  Ge  Ge18  1  0.533199  0.620770  0.249463  1
  Ge  Ge19  1  0.032836  0.879786  0.249365  1
  Ge  Ge20  1  0.684871  0.853804  0.753475  1
  Ge  Ge21  1  0.195559  0.642316  0.754472  1
  Ge  Ge22  1  0.308980  0.146217  0.249294  1
  Ge  Ge23  1  0.808474  0.354228  0.249083  1
  Mo  Mo24  1  0.662863  0.161852  0.629634  1
  Mo  Mo25  1  0.163382  0.336675  0.871770  1
  Mo  Mo26  1  0.337712  0.836950  0.129161  1
  Mo  Mo27  1  0.838406  0.662335  0.370339  1
  Mo  Mo28  1  0.337005  0.836765  0.370140  1
  Mo  Mo29  1  0.838181  0.663678  0.128995  1
  Mo  Mo30  1  0.660897  0.164227  0.871721  1
  Mo  Mo31  1  0.161513  0.337177  0.629341  1
  Mo  Mo32  1  0.837766  0.486740  0.749545  1
  Mo  Mo33  1  0.337258  0.015837  0.750847  1
  Mo  Mo34  1  0.161437  0.515301  0.249570  1
  Mo  Mo35  1  0.661003  0.984728  0.249230  1
