# generated using pymatgen
data_SmNiIO6
_symmetry_space_group_name_H-M   'P 1'
_cell_length_a   5.21732000
_cell_length_b   5.21732079
_cell_length_c   5.00792900
_cell_angle_alpha   90.00000000
_cell_angle_beta   90.00000000
_cell_angle_gamma   120.00000764
_symmetry_Int_Tables_number   1
_chemical_formula_structural   SmNiIO6
_chemical_formula_sum   'Sm1 Ni1 I1 O6'
_cell_volume   118.05483450
_cell_formula_units_Z   1
loop_
 _symmetry_equiv_pos_site_id
 _symmetry_equiv_pos_as_xyz
  1  'x, y, z'
loop_
 _atom_site_type_symbol
 _atom_site_label
 _atom_site_symmetry_multiplicity
 _atom_site_fract_x
 _atom_site_fract_y
 _atom_site_fract_z
 _atom_site_occupancy
  Sm  Sm0  1  0.333333  0.666667  0.000000  1
  Ni  Ni1  1  0.666667  0.333333  0.500000  1
  I  I2  1  0.000000  0.000000  0.500000  1
  O  O3  1  0.308366  0.016338  0.716079  1
  O  O4  1  0.983662  0.691634  0.283921  1
  O  O5  1  0.308366  0.292028  0.283921  1
  O  O6  1  0.707972  0.016338  0.283921  1
  O  O7  1  0.983662  0.292028  0.716079  1
  O  O8  1  0.707972  0.691634  0.716079  1
