# generated using pymatgen
data_Yb5Ce5(Pb3Cl)2
_symmetry_space_group_name_H-M   'P 1'
_cell_length_a   9.36948700
_cell_length_b   9.36948659
_cell_length_c   7.02227300
_cell_angle_alpha   90.00000000
_cell_angle_beta   90.00000000
_cell_angle_gamma   119.69654800
_symmetry_Int_Tables_number   1
_chemical_formula_structural   Yb5Ce5(Pb3Cl)2
_chemical_formula_sum   'Yb5 Ce5 Pb6 Cl2'
_cell_volume   535.50042719
_cell_formula_units_Z   1
loop_
 _symmetry_equiv_pos_site_id
 _symmetry_equiv_pos_as_xyz
  1  'x, y, z'
loop_
 _atom_site_type_symbol
 _atom_site_label
 _atom_site_symmetry_multiplicity
 _atom_site_fract_x
 _atom_site_fract_y
 _atom_site_fract_z
 _atom_site_occupancy
  Yb  Yb0  1  0.251707  0.000174  0.250000  1
  Yb  Yb1  1  0.746188  0.999167  0.750000  1
  Yb  Yb2  1  0.000174  0.251707  0.250000  1
  Yb  Yb3  1  0.999167  0.746188  0.750000  1
  Yb  Yb4  1  0.746309  0.746309  0.250000  1
  Ce  Ce5  1  0.255414  0.255414  0.750000  1
  Ce  Ce6  1  0.335214  0.668643  0.001198  1
  Ce  Ce7  1  0.668643  0.335214  0.001198  1
  Ce  Ce8  1  0.668643  0.335214  0.498802  1
  Ce  Ce9  1  0.335214  0.668643  0.498802  1
  Pb  Pb10  1  0.604924  0.001261  0.250000  1
  Pb  Pb11  1  0.394566  0.000653  0.750000  1
  Pb  Pb12  1  0.001261  0.604924  0.250000  1
  Pb  Pb13  1  0.000653  0.394566  0.750000  1
  Pb  Pb14  1  0.393094  0.393094  0.250000  1
  Pb  Pb15  1  0.606317  0.606317  0.750000  1
  Cl  Cl16  1  0.996257  0.996257  0.002312  1
  Cl  Cl17  1  0.996257  0.996257  0.497688  1
