# generated using pymatgen
data_Pr6Tl2C
_symmetry_space_group_name_H-M   'P 1'
_cell_length_a   7.26116258
_cell_length_b   7.26116181
_cell_length_c   7.26116300
_cell_angle_alpha   60.00000823
_cell_angle_beta   60.00001175
_cell_angle_gamma   60.00002272
_symmetry_Int_Tables_number   1
_chemical_formula_structural   Pr6Tl2C
_chemical_formula_sum   'Pr6 Tl2 C1'
_cell_volume   270.70956676
_cell_formula_units_Z   1
loop_
 _symmetry_equiv_pos_site_id
 _symmetry_equiv_pos_as_xyz
  1  'x, y, z'
loop_
 _atom_site_type_symbol
 _atom_site_label
 _atom_site_symmetry_multiplicity
 _atom_site_fract_x
 _atom_site_fract_y
 _atom_site_fract_z
 _atom_site_occupancy
  Pr  Pr0  1  0.755259  0.755259  0.244740  1
  Pr  Pr1  1  0.755258  0.244741  0.244740  1
  Pr  Pr2  1  0.244741  0.755258  0.244740  1
  Pr  Pr3  1  0.244741  0.244741  0.755258  1
  Pr  Pr4  1  0.755260  0.244739  0.755260  1
  Pr  Pr5  1  0.244739  0.755260  0.755260  1
  Tl  Tl6  1  0.250000  0.250000  0.250000  1
  Tl  Tl7  1  0.749999  0.749999  0.749999  1
  C  C8  1  0.000000  0.000000  0.000000  1
