# generated using pymatgen
data_K4Li2ScInSb4
_symmetry_space_group_name_H-M   'P 1'
_cell_length_a   9.53726552
_cell_length_b   9.53710350
_cell_length_c   9.53734672
_cell_angle_alpha   137.47923670
_cell_angle_beta   61.51709755
_cell_angle_gamma   137.72159716
_symmetry_Int_Tables_number   1
_chemical_formula_structural   K4Li2ScInSb4
_chemical_formula_sum   'K4 Li2 Sc1 In1 Sb4'
_cell_volume   389.93476996
_cell_formula_units_Z   1
loop_
 _symmetry_equiv_pos_site_id
 _symmetry_equiv_pos_as_xyz
  1  'x, y, z'
loop_
 _atom_site_type_symbol
 _atom_site_label
 _atom_site_symmetry_multiplicity
 _atom_site_fract_x
 _atom_site_fract_y
 _atom_site_fract_z
 _atom_site_occupancy
  K  K0  1  0.821717  0.255041  0.087276  1
  K  K1  1  0.678274  0.765576  0.433322  1
  K  K2  1  0.332236  0.244955  0.566671  1
  K  K3  1  0.167758  0.734449  0.912706  1
  Li  Li4  1  0.749990  0.249999  0.499990  1
  Li  Li5  1  0.249993  0.749996  0.499988  1
  Sc  Sc6  1  0.250039  0.249996  0.000043  1
  In  In7  1  0.749988  0.749997  0.999991  1
  Sb  Sb8  1  0.395106  0.737365  0.143705  1
  Sb  Sb9  1  0.104879  0.248609  0.342297  1
  Sb  Sb10  1  0.906334  0.762623  0.657734  1
  Sb  Sb11  1  0.593687  0.251398  0.856279  1
