# generated using pymatgen
data_Tb2Ta2NbP7Rh9
_symmetry_space_group_name_H-M   'P 1'
_cell_length_a   3.92863700
_cell_length_b   9.63354975
_cell_length_c   9.63249901
_cell_angle_alpha   119.96302718
_cell_angle_beta   90.00083259
_cell_angle_gamma   89.99938222
_symmetry_Int_Tables_number   1
_chemical_formula_structural   Tb2Ta2NbP7Rh9
_chemical_formula_sum   'Tb2 Ta2 Nb1 P7 Rh9'
_cell_volume   315.83447433
_cell_formula_units_Z   1
loop_
 _symmetry_equiv_pos_site_id
 _symmetry_equiv_pos_as_xyz
  1  'x, y, z'
loop_
 _atom_site_type_symbol
 _atom_site_label
 _atom_site_symmetry_multiplicity
 _atom_site_fract_x
 _atom_site_fract_y
 _atom_site_fract_z
 _atom_site_occupancy
  Tb  Tb0  1  0.261215  0.666730  0.333295  1
  Tb  Tb1  1  0.762049  0.333381  0.666609  1
  Ta  Ta2  1  0.762065  0.095307  0.873554  1
  Ta  Ta3  1  0.762070  0.126695  0.221782  1
  Nb  Nb4  1  0.762041  0.778512  0.905344  1
  P  P5  1  0.262438  0.999809  0.999838  1
  P  P6  1  0.761660  0.876707  0.589697  1
  P  P7  1  0.761633  0.410673  0.287866  1
  P  P8  1  0.761632  0.712490  0.122542  1
  P  P9  1  0.262041  0.117041  0.416051  1
  P  P10  1  0.262046  0.584081  0.700869  1
  P  P11  1  0.262049  0.299081  0.882851  1
  Rh  Rh12  1  0.261884  0.885193  0.162280  1
  Rh  Rh13  1  0.261912  0.838665  0.722396  1
  Rh  Rh14  1  0.261895  0.276592  0.114941  1
  Rh  Rh15  1  0.761890  0.610427  0.557004  1
  Rh  Rh16  1  0.761878  0.442288  0.053630  1
  Rh  Rh17  1  0.761869  0.946567  0.389227  1
  Rh  Rh18  1  0.261915  0.367155  0.438177  1
  Rh  Rh19  1  0.261918  0.561267  0.929263  1
  Rh  Rh20  1  0.261902  0.071341  0.632783  1
