# generated using pymatgen
data_Ca4Sc4B24IrRu3
_symmetry_space_group_name_H-M   'P 1'
_cell_length_a   3.54303000
_cell_length_b   9.00642557
_cell_length_c   11.40197711
_cell_angle_alpha   90.01241030
_cell_angle_beta   90.00000000
_cell_angle_gamma   90.00000000
_symmetry_Int_Tables_number   1
_chemical_formula_structural   Ca4Sc4B24IrRu3
_chemical_formula_sum   'Ca4 Sc4 B24 Ir1 Ru3'
_cell_volume   363.83749134
_cell_formula_units_Z   1
loop_
 _symmetry_equiv_pos_site_id
 _symmetry_equiv_pos_as_xyz
  1  'x, y, z'
loop_
 _atom_site_type_symbol
 _atom_site_label
 _atom_site_symmetry_multiplicity
 _atom_site_fract_x
 _atom_site_fract_y
 _atom_site_fract_z
 _atom_site_occupancy
  Ca  Ca0  1  0.500000  0.320477  0.415944  1
  Ca  Ca1  1  0.500000  0.678334  0.586973  1
  Ca  Ca2  1  0.500000  0.177409  0.914484  1
  Ca  Ca3  1  0.500000  0.823747  0.083002  1
  Sc  Sc4  1  0.500000  0.440524  0.128931  1
  Sc  Sc5  1  0.500000  0.556970  0.868943  1
  Sc  Sc6  1  0.500000  0.056526  0.631535  1
  Sc  Sc7  1  0.500000  0.946109  0.369241  1
  B  B8  1  0.000000  0.094565  0.474611  1
  B  B9  1  0.000000  0.905039  0.525664  1
  B  B10  1  0.000000  0.405035  0.974241  1
  B  B11  1  0.000000  0.594883  0.025605  1
  B  B12  1  0.000000  0.129497  0.317033  1
  B  B13  1  0.000000  0.870526  0.683464  1
  B  B14  1  0.000000  0.370864  0.816470  1
  B  B15  1  0.000000  0.629662  0.182481  1
  B  B16  1  0.000000  0.054923  0.067504  1
  B  B17  1  0.000000  0.945365  0.932076  1
  B  B18  1  0.000000  0.444937  0.567944  1
  B  B19  1  0.000000  0.554924  0.433122  1
  B  B20  1  0.000000  0.482321  0.286958  1
  B  B21  1  0.000000  0.517732  0.713281  1
  B  B22  1  0.000000  0.017581  0.786654  1
  B  B23  1  0.000000  0.982834  0.213230  1
  B  B24  1  0.000000  0.252567  0.082943  1
  B  B25  1  0.000000  0.747183  0.916905  1
  B  B26  1  0.000000  0.246586  0.583106  1
  B  B27  1  0.000000  0.752725  0.417611  1
  B  B28  1  0.000000  0.294100  0.235799  1
  B  B29  1  0.000000  0.705751  0.764536  1
  B  B30  1  0.000000  0.205725  0.735599  1
  B  B31  1  0.000000  0.794231  0.263724  1
  Ir  Ir32  1  0.500000  0.641074  0.317702  1
  Ru  Ru33  1  0.500000  0.141100  0.183171  1
  Ru  Ru34  1  0.500000  0.858990  0.817480  1
  Ru  Ru35  1  0.500000  0.359189  0.682032  1
