# generated using pymatgen
data_TiTl2(SiO3)3
_symmetry_space_group_name_H-M   'P 1'
_cell_length_a   7.88004000
_cell_length_b   10.25780700
_cell_length_c   11.64289400
_cell_angle_alpha   90.00000000
_cell_angle_beta   90.00000000
_cell_angle_gamma   90.00000000
_symmetry_Int_Tables_number   1
_chemical_formula_structural   TiTl2(SiO3)3
_chemical_formula_sum   'Ti4 Tl8 Si12 O36'
_cell_volume   941.11758666
_cell_formula_units_Z   4
loop_
 _symmetry_equiv_pos_site_id
 _symmetry_equiv_pos_as_xyz
  1  'x, y, z'
loop_
 _atom_site_type_symbol
 _atom_site_label
 _atom_site_symmetry_multiplicity
 _atom_site_fract_x
 _atom_site_fract_y
 _atom_site_fract_z
 _atom_site_occupancy
  Ti  Ti0  1  0.239091  0.088317  0.270698  1
  Ti  Ti1  1  0.739091  0.411683  0.729302  1
  Ti  Ti2  1  0.760909  0.588317  0.229302  1
  Ti  Ti3  1  0.260909  0.911683  0.770698  1
  Tl  Tl4  1  0.774883  0.780154  0.887619  1
  Tl  Tl5  1  0.274883  0.719846  0.112381  1
  Tl  Tl6  1  0.978087  0.909936  0.531020  1
  Tl  Tl7  1  0.478087  0.590064  0.468980  1
  Tl  Tl8  1  0.021913  0.409936  0.968980  1
  Tl  Tl9  1  0.521913  0.090064  0.031020  1
  Tl  Tl10  1  0.725117  0.219846  0.387619  1
  Tl  Tl11  1  0.225117  0.280154  0.612381  1
  Si  Si12  1  0.083725  0.389853  0.291644  1
  Si  Si13  1  0.916275  0.889853  0.208356  1
  Si  Si14  1  0.582852  0.470391  0.989951  1
  Si  Si15  1  0.554999  0.866862  0.287337  1
  Si  Si16  1  0.054999  0.633138  0.712663  1
  Si  Si17  1  0.416275  0.610147  0.791644  1
  Si  Si18  1  0.583725  0.110147  0.708356  1
  Si  Si19  1  0.082852  0.029609  0.010049  1
  Si  Si20  1  0.917148  0.529609  0.489951  1
  Si  Si21  1  0.417148  0.970391  0.510049  1
  Si  Si22  1  0.445001  0.366862  0.212663  1
  Si  Si23  1  0.945001  0.133138  0.787337  1
  O  O24  1  0.567474  0.056732  0.574379  1
  O  O25  1  0.404992  0.945608  0.221999  1
  O  O26  1  0.584770  0.268568  0.701126  1
  O  O27  1  0.022723  0.632693  0.572072  1
  O  O28  1  0.197308  0.107232  0.102754  1
  O  O29  1  0.595008  0.445608  0.278001  1
  O  O30  1  0.977277  0.132693  0.927928  1
  O  O31  1  0.567778  0.546209  0.716214  1
  O  O32  1  0.066256  0.784592  0.752649  1
  O  O33  1  0.697308  0.392768  0.897246  1
  O  O34  1  0.432222  0.046209  0.783786  1
  O  O35  1  0.932526  0.943268  0.074379  1
  O  O36  1  0.433744  0.215408  0.252649  1
  O  O37  1  0.067474  0.443268  0.425621  1
  O  O38  1  0.735698  0.943821  0.261958  1
  O  O39  1  0.932222  0.453791  0.216214  1
  O  O40  1  0.067778  0.953791  0.283786  1
  O  O41  1  0.084770  0.231432  0.298874  1
  O  O42  1  0.235698  0.556179  0.738042  1
  O  O43  1  0.522723  0.867307  0.427928  1
  O  O44  1  0.764302  0.056179  0.761958  1
  O  O45  1  0.198584  0.933759  0.930492  1
  O  O46  1  0.432526  0.556732  0.925621  1
  O  O47  1  0.302692  0.892768  0.602754  1
  O  O48  1  0.698584  0.566241  0.069508  1
  O  O49  1  0.415230  0.768568  0.798874  1
  O  O50  1  0.301416  0.066241  0.430492  1
  O  O51  1  0.566256  0.715408  0.247351  1
  O  O52  1  0.802692  0.607232  0.397246  1
  O  O53  1  0.801416  0.433759  0.569508  1
  O  O54  1  0.915230  0.731432  0.201126  1
  O  O55  1  0.933744  0.284592  0.747351  1
  O  O56  1  0.264302  0.443821  0.238042  1
  O  O57  1  0.095008  0.054392  0.721999  1
  O  O58  1  0.904992  0.554392  0.778001  1
  O  O59  1  0.477277  0.367307  0.072072  1
