# generated using pymatgen
data_Sc8Ti7Si16Mo5
_symmetry_space_group_name_H-M   'P 1'
_cell_length_a   6.60936138
_cell_length_b   6.78387456
_cell_length_c   12.91476101
_cell_angle_alpha   90.01015356
_cell_angle_beta   90.08398305
_cell_angle_gamma   89.98942908
_symmetry_Int_Tables_number   1
_chemical_formula_structural   Sc8Ti7Si16Mo5
_chemical_formula_sum   'Sc8 Ti7 Si16 Mo5'
_cell_volume   579.05951246
_cell_formula_units_Z   1
loop_
 _symmetry_equiv_pos_site_id
 _symmetry_equiv_pos_as_xyz
  1  'x, y, z'
loop_
 _atom_site_type_symbol
 _atom_site_label
 _atom_site_symmetry_multiplicity
 _atom_site_fract_x
 _atom_site_fract_y
 _atom_site_fract_z
 _atom_site_occupancy
  Sc  Sc0  1  0.000418  0.175200  0.094398  1
  Sc  Sc1  1  0.000486  0.825709  0.906392  1
  Sc  Sc2  1  0.500960  0.673434  0.904934  1
  Sc  Sc3  1  0.999646  0.827037  0.595365  1
  Sc  Sc4  1  0.497588  0.327905  0.094551  1
  Sc  Sc5  1  0.000954  0.173116  0.403924  1
  Sc  Sc6  1  0.499045  0.327256  0.404989  1
  Sc  Sc7  1  0.499580  0.673746  0.595736  1
  Ti  Ti8  1  0.334365  0.170642  0.626642  1
  Ti  Ti9  1  0.666942  0.828905  0.371892  1
  Ti  Ti10  1  0.166223  0.671442  0.373142  1
  Ti  Ti11  1  0.663459  0.828079  0.126411  1
  Ti  Ti12  1  0.833817  0.328716  0.626725  1
  Ti  Ti13  1  0.334939  0.171058  0.874389  1
  Ti  Ti14  1  0.834843  0.329234  0.873990  1
  Si  Si15  1  0.036187  0.115607  0.750495  1
  Si  Si16  1  0.966039  0.883846  0.248327  1
  Si  Si17  1  0.462586  0.615046  0.250232  1
  Si  Si18  1  0.535313  0.385110  0.750353  1
  Si  Si19  1  0.296163  0.861211  0.750644  1
  Si  Si20  1  0.703523  0.139169  0.249063  1
  Si  Si21  1  0.201502  0.361760  0.250228  1
  Si  Si22  1  0.796888  0.639357  0.749834  1
  Si  Si23  1  0.166009  0.463492  0.541069  1
  Si  Si24  1  0.834445  0.536135  0.458738  1
  Si  Si25  1  0.333924  0.963242  0.458664  1
  Si  Si26  1  0.835418  0.535650  0.041669  1
  Si  Si27  1  0.665194  0.036003  0.541342  1
  Si  Si28  1  0.168623  0.462008  0.959756  1
  Si  Si29  1  0.667107  0.035523  0.959187  1
  Si  Si30  1  0.330802  0.962231  0.041518  1
  Mo  Mo31  1  0.161687  0.494108  0.750174  1
  Mo  Mo32  1  0.836748  0.508504  0.249868  1
  Mo  Mo33  1  0.339694  0.993305  0.249886  1
  Mo  Mo34  1  0.661260  0.008098  0.750035  1
  Mo  Mo35  1  0.167622  0.669112  0.125442  1
