# generated using pymatgen
data_DyYTm2(Al3Rh)6
_symmetry_space_group_name_H-M   'P 1'
_cell_length_a   7.54768706
_cell_length_b   7.55071098
_cell_length_c   9.44623400
_cell_angle_alpha   90.00000000
_cell_angle_beta   90.00000000
_cell_angle_gamma   119.29992599
_symmetry_Int_Tables_number   1
_chemical_formula_structural   DyYTm2(Al3Rh)6
_chemical_formula_sum   'Dy1 Y1 Tm2 Al18 Rh6'
_cell_volume   469.47420026
_cell_formula_units_Z   1
loop_
 _symmetry_equiv_pos_site_id
 _symmetry_equiv_pos_as_xyz
  1  'x, y, z'
loop_
 _atom_site_type_symbol
 _atom_site_label
 _atom_site_symmetry_multiplicity
 _atom_site_fract_x
 _atom_site_fract_y
 _atom_site_fract_z
 _atom_site_occupancy
  Dy  Dy0  1  0.672426  0.994225  0.250000  1
  Y  Y1  1  0.994029  0.672100  0.250000  1
  Tm  Tm2  1  0.005509  0.327255  0.750000  1
  Tm  Tm3  1  0.327459  0.005834  0.750000  1
  Al  Al4  1  0.128837  0.129423  0.250000  1
  Al  Al5  1  0.871508  0.872062  0.750000  1
  Al  Al6  1  0.000790  0.335566  0.074444  1
  Al  Al7  1  0.999747  0.663878  0.923053  1
  Al  Al8  1  0.999747  0.663878  0.576947  1
  Al  Al9  1  0.336215  0.001002  0.425440  1
  Al  Al10  1  0.000790  0.335566  0.425556  1
  Al  Al11  1  0.663859  0.999876  0.576011  1
  Al  Al12  1  0.663859  0.999876  0.923989  1
  Al  Al13  1  0.336215  0.001002  0.074560  1
  Al  Al14  1  0.332381  0.332399  0.550707  1
  Al  Al15  1  0.667184  0.667476  0.452465  1
  Al  Al16  1  0.667184  0.667476  0.047535  1
  Al  Al17  1  0.332381  0.332399  0.949293  1
  Al  Al18  1  0.340903  0.551027  0.250000  1
  Al  Al19  1  0.659440  0.448474  0.750000  1
  Al  Al20  1  0.550408  0.339044  0.250000  1
  Al  Al21  1  0.448525  0.660085  0.750000  1
  Rh  Rh22  1  0.672237  0.327523  0.999355  1
  Rh  Rh23  1  0.327506  0.672147  0.999631  1
  Rh  Rh24  1  0.327506  0.672147  0.500369  1
  Rh  Rh25  1  0.672237  0.327523  0.500645  1
  Rh  Rh26  1  0.000558  0.000371  0.999069  1
  Rh  Rh27  1  0.000558  0.000371  0.500931  1
