# generated using pymatgen
data_DyHoPa2(Al3Rh)6
_symmetry_space_group_name_H-M   'P 1'
_cell_length_a   7.59817703
_cell_length_b   7.60003682
_cell_length_c   9.38774400
_cell_angle_alpha   90.00000000
_cell_angle_beta   90.00000000
_cell_angle_gamma   119.65406956
_symmetry_Int_Tables_number   1
_chemical_formula_structural   DyHoPa2(Al3Rh)6
_chemical_formula_sum   'Dy1 Ho1 Pa2 Al18 Rh6'
_cell_volume   471.10782563
_cell_formula_units_Z   1
loop_
 _symmetry_equiv_pos_site_id
 _symmetry_equiv_pos_as_xyz
  1  'x, y, z'
loop_
 _atom_site_type_symbol
 _atom_site_label
 _atom_site_symmetry_multiplicity
 _atom_site_fract_x
 _atom_site_fract_y
 _atom_site_fract_z
 _atom_site_occupancy
  Dy  Dy0  1  0.330528  0.006223  0.250000  1
  Ho  Ho1  1  0.669494  0.993777  0.750000  1
  Pa  Pa2  1  0.997005  0.670353  0.750000  1
  Pa  Pa3  1  0.003008  0.329656  0.250000  1
  Al  Al4  1  0.129201  0.126006  0.750000  1
  Al  Al5  1  0.870721  0.873965  0.250000  1
  Al  Al6  1  0.000247  0.331719  0.577190  1
  Al  Al7  1  0.999674  0.668204  0.422854  1
  Al  Al8  1  0.999674  0.668204  0.077146  1
  Al  Al9  1  0.337571  0.002741  0.925209  1
  Al  Al10  1  0.000247  0.331719  0.922810  1
  Al  Al11  1  0.662505  0.997269  0.074681  1
  Al  Al12  1  0.662505  0.997269  0.425319  1
  Al  Al13  1  0.337571  0.002741  0.574791  1
  Al  Al14  1  0.334919  0.333263  0.053338  1
  Al  Al15  1  0.665080  0.666797  0.946606  1
  Al  Al16  1  0.665080  0.666797  0.553394  1
  Al  Al17  1  0.334919  0.333263  0.446662  1
  Al  Al18  1  0.339557  0.548234  0.750000  1
  Al  Al19  1  0.660501  0.451853  0.250000  1
  Al  Al20  1  0.549114  0.341190  0.750000  1
  Al  Al21  1  0.450914  0.658778  0.250000  1
  Rh  Rh22  1  0.675294  0.329508  0.499759  1
  Rh  Rh23  1  0.324737  0.670490  0.500298  1
  Rh  Rh24  1  0.324737  0.670490  0.999702  1
  Rh  Rh25  1  0.675294  0.329508  0.000241  1
  Rh  Rh26  1  0.999951  0.999992  0.500032  1
  Rh  Rh27  1  0.999951  0.999992  0.999968  1
