# generated using pymatgen
data_HoTm3(B6Rh)2
_symmetry_space_group_name_H-M   'P 1'
_cell_length_a   3.62579500
_cell_length_b   9.12575404
_cell_length_c   11.45506405
_cell_angle_alpha   90.01103074
_cell_angle_beta   90.00000000
_cell_angle_gamma   90.00000000
_symmetry_Int_Tables_number   1
_chemical_formula_structural   HoTm3(B6Rh)2
_chemical_formula_sum   'Ho2 Tm6 B24 Rh4'
_cell_volume   379.02645111
_cell_formula_units_Z   2
loop_
 _symmetry_equiv_pos_site_id
 _symmetry_equiv_pos_as_xyz
  1  'x, y, z'
loop_
 _atom_site_type_symbol
 _atom_site_label
 _atom_site_symmetry_multiplicity
 _atom_site_fract_x
 _atom_site_fract_y
 _atom_site_fract_z
 _atom_site_occupancy
  Ho  Ho0  1  0.500000  0.321999  0.413567  1
  Ho  Ho1  1  0.500000  0.678001  0.586433  1
  Tm  Tm2  1  0.500000  0.178217  0.913735  1
  Tm  Tm3  1  0.500000  0.821783  0.086265  1
  Tm  Tm4  1  0.500000  0.444325  0.126448  1
  Tm  Tm5  1  0.500000  0.555675  0.873552  1
  Tm  Tm6  1  0.500000  0.055647  0.626911  1
  Tm  Tm7  1  0.500000  0.944353  0.373089  1
  B  B8  1  0.000000  0.108378  0.470589  1
  B  B9  1  0.000000  0.891622  0.529411  1
  B  B10  1  0.000000  0.390277  0.970252  1
  B  B11  1  0.000000  0.609723  0.029748  1
  B  B12  1  0.000000  0.132836  0.316082  1
  B  B13  1  0.000000  0.867164  0.683918  1
  B  B14  1  0.000000  0.366707  0.816631  1
  B  B15  1  0.000000  0.633293  0.183369  1
  B  B16  1  0.000000  0.053912  0.064835  1
  B  B17  1  0.000000  0.946088  0.935165  1
  B  B18  1  0.000000  0.445863  0.565456  1
  B  B19  1  0.000000  0.554137  0.434544  1
  B  B20  1  0.000000  0.482768  0.286196  1
  B  B21  1  0.000000  0.517232  0.713804  1
  B  B22  1  0.000000  0.017691  0.786882  1
  B  B23  1  0.000000  0.982309  0.213118  1
  B  B24  1  0.000000  0.249656  0.078817  1
  B  B25  1  0.000000  0.750344  0.921183  1
  B  B26  1  0.000000  0.249955  0.579498  1
  B  B27  1  0.000000  0.750045  0.420502  1
  B  B28  1  0.000000  0.294467  0.235547  1
  B  B29  1  0.000000  0.705533  0.764453  1
  B  B30  1  0.000000  0.205165  0.736464  1
  B  B31  1  0.000000  0.794835  0.263536  1
  Rh  Rh32  1  0.500000  0.139232  0.178433  1
  Rh  Rh33  1  0.500000  0.860768  0.821567  1
  Rh  Rh34  1  0.500000  0.359715  0.679644  1
  Rh  Rh35  1  0.500000  0.640285  0.320356  1
