# generated using pymatgen
data_TaNb2Co3Ni17B6
_symmetry_space_group_name_H-M   'P 1'
_cell_length_a   7.49180065
_cell_length_b   7.49180089
_cell_length_c   7.50244188
_cell_angle_alpha   59.95414870
_cell_angle_beta   59.95414952
_cell_angle_gamma   59.92911444
_symmetry_Int_Tables_number   1
_chemical_formula_structural   TaNb2Co3Ni17B6
_chemical_formula_sum   'Ta1 Nb2 Co3 Ni17 B6'
_cell_volume   297.38966742
_cell_formula_units_Z   1
loop_
 _symmetry_equiv_pos_site_id
 _symmetry_equiv_pos_as_xyz
  1  'x, y, z'
loop_
 _atom_site_type_symbol
 _atom_site_label
 _atom_site_symmetry_multiplicity
 _atom_site_fract_x
 _atom_site_fract_y
 _atom_site_fract_z
 _atom_site_occupancy
  Ta  Ta0  1  0.253682  0.253682  0.245666  1
  Nb  Nb1  1  0.747927  0.747927  0.747667  1
  Nb  Nb2  1  0.000147  0.000147  0.999543  1
  Co  Co3  1  0.383862  0.383862  0.383687  1
  Co  Co4  1  0.616656  0.616656  0.616655  1
  Co  Co5  1  0.383691  0.383691  0.849071  1
  Ni  Ni6  1  0.384229  0.846196  0.384631  1
  Ni  Ni7  1  0.615484  0.615484  0.154389  1
  Ni  Ni8  1  0.615822  0.153439  0.615611  1
  Ni  Ni9  1  0.846196  0.384229  0.384631  1
  Ni  Ni10  1  0.153439  0.615822  0.615611  1
  Ni  Ni11  1  0.342211  0.000170  0.001009  1
  Ni  Ni12  1  0.657889  0.998912  0.999671  1
  Ni  Ni13  1  0.000924  0.341526  0.656809  1
  Ni  Ni14  1  0.000318  0.656968  0.342712  1
  Ni  Ni15  1  0.000170  0.342211  0.001009  1
  Ni  Ni16  1  0.656968  0.000318  0.342712  1
  Ni  Ni17  1  0.998912  0.657889  0.999671  1
  Ni  Ni18  1  0.341526  0.000924  0.656809  1
  Ni  Ni19  1  0.000886  0.000886  0.342242  1
  Ni  Ni20  1  0.000280  0.000280  0.657285  1
  Ni  Ni21  1  0.657323  0.342319  0.000290  1
  Ni  Ni22  1  0.342319  0.657323  0.000290  1
  B  B23  1  0.728262  0.269814  0.269981  1
  B  B24  1  0.272664  0.726721  0.730998  1
  B  B25  1  0.269814  0.728262  0.269981  1
  B  B26  1  0.726721  0.272664  0.730998  1
  B  B27  1  0.271463  0.271463  0.728889  1
  B  B28  1  0.730213  0.730213  0.271485  1
