# generated using pymatgen
data_Tm4MgZn2Sb
_symmetry_space_group_name_H-M   'P 1'
_cell_length_a   8.46018218
_cell_length_b   8.46018273
_cell_length_c   8.46018314
_cell_angle_alpha   125.92590001
_cell_angle_beta   125.92589230
_cell_angle_gamma   80.00996965
_symmetry_Int_Tables_number   1
_chemical_formula_structural   Tm4MgZn2Sb
_chemical_formula_sum   'Tm8 Mg2 Zn4 Sb2'
_cell_volume   383.36857995
_cell_formula_units_Z   2
loop_
 _symmetry_equiv_pos_site_id
 _symmetry_equiv_pos_as_xyz
  1  'x, y, z'
loop_
 _atom_site_type_symbol
 _atom_site_label
 _atom_site_symmetry_multiplicity
 _atom_site_fract_x
 _atom_site_fract_y
 _atom_site_fract_z
 _atom_site_occupancy
  Tm  Tm0  1  0.803226  0.303226  0.818689  1
  Tm  Tm1  1  0.196774  0.696774  0.181311  1
  Tm  Tm2  1  0.484538  0.984538  0.181311  1
  Tm  Tm3  1  0.303226  0.484538  0.500000  1
  Tm  Tm4  1  0.015462  0.196774  0.500000  1
  Tm  Tm5  1  0.515462  0.015462  0.818689  1
  Tm  Tm6  1  0.696774  0.515462  0.500000  1
  Tm  Tm7  1  0.984538  0.803226  0.500000  1
  Mg  Mg8  1  0.000000  0.000000  0.000000  1
  Mg  Mg9  1  0.500000  0.500000  0.000000  1
  Zn  Zn10  1  0.133761  0.633761  0.767520  1
  Zn  Zn11  1  0.866239  0.366239  0.232480  1
  Zn  Zn12  1  0.633761  0.866239  0.500000  1
  Zn  Zn13  1  0.366239  0.133761  0.500000  1
  Sb  Sb14  1  0.250000  0.250000  0.000000  1
  Sb  Sb15  1  0.750000  0.750000  0.000000  1
