# generated using pymatgen
data_Y6Zn4Pd11Pt2
_symmetry_space_group_name_H-M   'P 1'
_cell_length_a   8.27854345
_cell_length_b   8.27854325
_cell_length_c   8.24938558
_cell_angle_alpha   109.45310936
_cell_angle_beta   109.45311328
_cell_angle_gamma   109.65010983
_symmetry_Int_Tables_number   1
_chemical_formula_structural   Y6Zn4Pd11Pt2
_chemical_formula_sum   'Y6 Zn4 Pd11 Pt2'
_cell_volume   434.44943671
_cell_formula_units_Z   1
loop_
 _symmetry_equiv_pos_site_id
 _symmetry_equiv_pos_as_xyz
  1  'x, y, z'
loop_
 _atom_site_type_symbol
 _atom_site_label
 _atom_site_symmetry_multiplicity
 _atom_site_fract_x
 _atom_site_fract_y
 _atom_site_fract_z
 _atom_site_occupancy
  Y  Y0  1  0.700333  0.700333  0.999291  1
  Y  Y1  1  0.298577  0.000948  0.299524  1
  Y  Y2  1  0.000948  0.298577  0.299524  1
  Y  Y3  1  0.298959  0.298959  0.999291  1
  Y  Y4  1  0.701333  0.000014  0.701347  1
  Y  Y5  1  0.000014  0.701333  0.701347  1
  Zn  Zn6  1  0.999812  0.999812  0.499825  1
  Zn  Zn7  1  0.999968  0.499968  0.999937  1
  Zn  Zn8  1  0.499968  0.999968  0.999937  1
  Zn  Zn9  1  0.500013  0.500013  0.499825  1
  Pd  Pd10  1  0.666555  0.000101  0.333184  1
  Pd  Pd11  1  0.000101  0.666555  0.333184  1
  Pd  Pd12  1  0.667011  0.333125  0.000137  1
  Pd  Pd13  1  0.333083  0.666631  0.333184  1
  Pd  Pd14  1  0.999280  0.333478  0.666830  1
  Pd  Pd15  1  0.333125  0.667011  0.000137  1
  Pd  Pd16  1  0.333478  0.999280  0.666830  1
  Pd  Pd17  1  0.666631  0.333083  0.333184  1
  Pd  Pd18  1  0.666969  0.666969  0.333937  1
  Pd  Pd19  1  0.667550  0.333350  0.666830  1
  Pd  Pd20  1  0.333350  0.667550  0.666830  1
  Pt  Pt21  1  0.333175  0.333175  0.666352  1
  Pt  Pt22  1  0.999767  0.999767  0.999534  1
