# generated using pymatgen
data_Tb4Mn3GeF28
_symmetry_space_group_name_H-M   'P 1'
_cell_length_a   5.44423225
_cell_length_b   8.76325618
_cell_length_c   11.74961067
_cell_angle_alpha   62.22158262
_cell_angle_beta   90.03326280
_cell_angle_gamma   90.00587936
_symmetry_Int_Tables_number   1
_chemical_formula_structural   Tb4Mn3GeF28
_chemical_formula_sum   'Tb4 Mn3 Ge1 F28'
_cell_volume   495.96308796
_cell_formula_units_Z   1
loop_
 _symmetry_equiv_pos_site_id
 _symmetry_equiv_pos_as_xyz
  1  'x, y, z'
loop_
 _atom_site_type_symbol
 _atom_site_label
 _atom_site_symmetry_multiplicity
 _atom_site_fract_x
 _atom_site_fract_y
 _atom_site_fract_z
 _atom_site_occupancy
  Tb  Tb0  1  0.261077  0.810459  0.264044  1
  Tb  Tb1  1  0.738784  0.188669  0.736439  1
  Tb  Tb2  1  0.761470  0.189163  0.236102  1
  Tb  Tb3  1  0.239090  0.810130  0.764581  1
  Mn  Mn4  1  0.241364  0.274318  0.957153  1
  Mn  Mn5  1  0.258740  0.273962  0.457294  1
  Mn  Mn6  1  0.741632  0.725456  0.543134  1
  Ge  Ge7  1  0.757859  0.725885  0.042536  1
  F  F8  1  0.931278  0.706490  0.421239  1
  F  F9  1  0.068692  0.293225  0.578839  1
  F  F10  1  0.431525  0.293672  0.078867  1
  F  F11  1  0.567025  0.706934  0.922295  1
  F  F12  1  0.484092  0.728700  0.131919  1
  F  F13  1  0.519661  0.272163  0.868590  1
  F  F14  1  0.980553  0.272098  0.368238  1
  F  F15  1  0.019641  0.727980  0.631714  1
  F  F16  1  0.946657  0.740742  0.167305  1
  F  F17  1  0.053496  0.259449  0.830786  1
  F  F18  1  0.447000  0.259504  0.330818  1
  F  F19  1  0.553317  0.740657  0.669096  1
  F  F20  1  0.770973  0.491002  0.135986  1
  F  F21  1  0.228752  0.511634  0.862565  1
  F  F22  1  0.270502  0.511545  0.362600  1
  F  F23  1  0.729493  0.488079  0.637530  1
  F  F24  1  0.955961  0.281969  0.040246  1
  F  F25  1  0.041334  0.718154  0.960134  1
  F  F26  1  0.456342  0.718360  0.459550  1
  F  F27  1  0.544087  0.281418  0.540502  1
  F  F28  1  0.739879  0.961528  0.452715  1
  F  F29  1  0.260507  0.038151  0.547443  1
  F  F30  1  0.239597  0.038284  0.047194  1
  F  F31  1  0.760844  0.960432  0.952563  1
  F  F32  1  0.596032  0.968275  0.227463  1
  F  F33  1  0.402748  0.032109  0.772784  1
  F  F34  1  0.096163  0.031656  0.272354  1
  F  F35  1  0.903831  0.967749  0.727384  1
