# generated using pymatgen
data_YGeF7
_symmetry_space_group_name_H-M   'P 1'
_cell_length_a   5.42562900
_cell_length_b   8.74519189
_cell_length_c   11.71555262
_cell_angle_alpha   62.15192514
_cell_angle_beta   90.00000000
_cell_angle_gamma   90.00000000
_symmetry_Int_Tables_number   1
_chemical_formula_structural   YGeF7
_chemical_formula_sum   'Y4 Ge4 F28'
_cell_volume   491.50448861
_cell_formula_units_Z   4
loop_
 _symmetry_equiv_pos_site_id
 _symmetry_equiv_pos_as_xyz
  1  'x, y, z'
loop_
 _atom_site_type_symbol
 _atom_site_label
 _atom_site_symmetry_multiplicity
 _atom_site_fract_x
 _atom_site_fract_y
 _atom_site_fract_z
 _atom_site_occupancy
  Y  Y0  1  0.260216  0.810557  0.264026  1
  Y  Y1  1  0.739784  0.189443  0.735974  1
  Y  Y2  1  0.760216  0.189443  0.235974  1
  Y  Y3  1  0.239784  0.810557  0.764026  1
  Ge  Ge4  1  0.758357  0.725715  0.042801  1
  Ge  Ge5  1  0.241643  0.274285  0.957199  1
  Ge  Ge6  1  0.258357  0.274285  0.457199  1
  Ge  Ge7  1  0.741643  0.725715  0.542801  1
  F  F8  1  0.929948  0.706163  0.421568  1
  F  F9  1  0.070052  0.293837  0.578432  1
  F  F10  1  0.429948  0.293837  0.078432  1
  F  F11  1  0.570052  0.706163  0.921568  1
  F  F12  1  0.481819  0.727543  0.131406  1
  F  F13  1  0.518181  0.272457  0.868594  1
  F  F14  1  0.981819  0.272457  0.368594  1
  F  F15  1  0.018181  0.727543  0.631406  1
  F  F16  1  0.944221  0.740076  0.168989  1
  F  F17  1  0.055779  0.259924  0.831011  1
  F  F18  1  0.444221  0.259924  0.331011  1
  F  F19  1  0.555779  0.740076  0.668989  1
  F  F20  1  0.772276  0.490079  0.136753  1
  F  F21  1  0.227724  0.509921  0.863247  1
  F  F22  1  0.272276  0.509921  0.363247  1
  F  F23  1  0.727724  0.490079  0.636753  1
  F  F24  1  0.956046  0.281506  0.039165  1
  F  F25  1  0.043954  0.718494  0.960835  1
  F  F26  1  0.456046  0.718494  0.460835  1
  F  F27  1  0.543954  0.281506  0.539165  1
  F  F28  1  0.739060  0.961060  0.453123  1
  F  F29  1  0.260940  0.038940  0.546877  1
  F  F30  1  0.239060  0.038940  0.046877  1
  F  F31  1  0.760940  0.961060  0.953123  1
  F  F32  1  0.596316  0.967790  0.227351  1
  F  F33  1  0.403684  0.032210  0.772649  1
  F  F34  1  0.096316  0.032210  0.272649  1
  F  F35  1  0.903684  0.967790  0.727351  1
