# generated using pymatgen
data_Tm9Lu(BiAu2)2
_symmetry_space_group_name_H-M   'P 1'
_cell_length_a   8.61334685
_cell_length_b   8.61334680
_cell_length_c   8.61334704
_cell_angle_alpha   124.29254607
_cell_angle_beta   124.29255119
_cell_angle_gamma   82.71314036
_symmetry_Int_Tables_number   1
_chemical_formula_structural   Tm9Lu(BiAu2)2
_chemical_formula_sum   'Tm9 Lu1 Bi2 Au4'
_cell_volume   418.81922220
_cell_formula_units_Z   1
loop_
 _symmetry_equiv_pos_site_id
 _symmetry_equiv_pos_as_xyz
  1  'x, y, z'
loop_
 _atom_site_type_symbol
 _atom_site_label
 _atom_site_symmetry_multiplicity
 _atom_site_fract_x
 _atom_site_fract_y
 _atom_site_fract_z
 _atom_site_occupancy
  Tm  Tm0  1  0.000000  0.000000  0.000000  1
  Tm  Tm1  1  0.513757  0.014079  0.808391  1
  Tm  Tm2  1  0.205687  0.705365  0.191609  1
  Tm  Tm3  1  0.014079  0.205687  0.500322  1
  Tm  Tm4  1  0.705365  0.513757  0.499678  1
  Tm  Tm5  1  0.486243  0.985921  0.191609  1
  Tm  Tm6  1  0.794313  0.294635  0.808391  1
  Tm  Tm7  1  0.985921  0.794313  0.499678  1
  Tm  Tm8  1  0.294635  0.486243  0.500322  1
  Lu  Lu9  1  0.500000  0.500000  0.000000  1
  Bi  Bi10  1  0.250164  0.250164  0.000000  1
  Bi  Bi11  1  0.749836  0.749836  0.000000  1
  Au  Au12  1  0.139326  0.639034  0.778360  1
  Au  Au13  1  0.860674  0.360966  0.221640  1
  Au  Au14  1  0.639034  0.860674  0.499707  1
  Au  Au15  1  0.360966  0.139326  0.500293  1
