# generated using pymatgen
data_Sc6ZnSe2
_symmetry_space_group_name_H-M   'P 1'
_cell_length_a   3.72097700
_cell_length_b   19.61403300
_cell_length_c   10.43914700
_cell_angle_alpha   90.00000000
_cell_angle_beta   90.00000000
_cell_angle_gamma   90.00000000
_symmetry_Int_Tables_number   1
_chemical_formula_structural   Sc6ZnSe2
_chemical_formula_sum   'Sc24 Zn4 Se8'
_cell_volume   761.88408279
_cell_formula_units_Z   4
loop_
 _symmetry_equiv_pos_site_id
 _symmetry_equiv_pos_as_xyz
  1  'x, y, z'
loop_
 _atom_site_type_symbol
 _atom_site_label
 _atom_site_symmetry_multiplicity
 _atom_site_fract_x
 _atom_site_fract_y
 _atom_site_fract_z
 _atom_site_occupancy
  Sc  Sc0  1  0.750000  0.644173  0.932566  1
  Sc  Sc1  1  0.250000  0.355827  0.067434  1
  Sc  Sc2  1  0.250000  0.855827  0.432566  1
  Sc  Sc3  1  0.750000  0.144173  0.567434  1
  Sc  Sc4  1  0.750000  0.990522  0.387779  1
  Sc  Sc5  1  0.250000  0.009478  0.612221  1
  Sc  Sc6  1  0.250000  0.509478  0.887779  1
  Sc  Sc7  1  0.750000  0.490522  0.112221  1
  Sc  Sc8  1  0.750000  0.532126  0.628884  1
  Sc  Sc9  1  0.250000  0.467874  0.371116  1
  Sc  Sc10  1  0.250000  0.967874  0.128884  1
  Sc  Sc11  1  0.750000  0.032126  0.871116  1
  Sc  Sc12  1  0.750000  0.734789  0.254402  1
  Sc  Sc13  1  0.250000  0.265211  0.745598  1
  Sc  Sc14  1  0.250000  0.765211  0.754402  1
  Sc  Sc15  1  0.750000  0.234789  0.245598  1
  Sc  Sc16  1  0.750000  0.889787  0.678795  1
  Sc  Sc17  1  0.250000  0.110213  0.321205  1
  Sc  Sc18  1  0.250000  0.610213  0.178795  1
  Sc  Sc19  1  0.750000  0.389787  0.821205  1
  Sc  Sc20  1  0.750000  0.834980  0.980681  1
  Sc  Sc21  1  0.250000  0.165020  0.019319  1
  Sc  Sc22  1  0.250000  0.665020  0.480681  1
  Sc  Sc23  1  0.750000  0.334980  0.519319  1
  Zn  Zn24  1  0.750000  0.578005  0.368152  1
  Zn  Zn25  1  0.250000  0.421995  0.631848  1
  Zn  Zn26  1  0.250000  0.921995  0.868152  1
  Zn  Zn27  1  0.750000  0.078005  0.131848  1
  Se  Se28  1  0.750000  0.874668  0.233637  1
  Se  Se29  1  0.250000  0.125332  0.766363  1
  Se  Se30  1  0.250000  0.625332  0.733637  1
  Se  Se31  1  0.750000  0.374668  0.266363  1
  Se  Se32  1  0.750000  0.765625  0.543275  1
  Se  Se33  1  0.250000  0.234375  0.456725  1
  Se  Se34  1  0.250000  0.734375  0.043275  1
  Se  Se35  1  0.750000  0.265625  0.956725  1
