# generated using pymatgen
data_Ba20Ge3Bi8P
_symmetry_space_group_name_H-M   'P 1'
_cell_length_a   9.12266706
_cell_length_b   10.57724500
_cell_length_c   14.37121300
_cell_angle_alpha   90.00000000
_cell_angle_beta   90.71738205
_cell_angle_gamma   90.00000000
_symmetry_Int_Tables_number   1
_chemical_formula_structural   Ba20Ge3Bi8P
_chemical_formula_sum   'Ba20 Ge3 Bi8 P1'
_cell_volume   1386.60822784
_cell_formula_units_Z   1
loop_
 _symmetry_equiv_pos_site_id
 _symmetry_equiv_pos_as_xyz
  1  'x, y, z'
loop_
 _atom_site_type_symbol
 _atom_site_label
 _atom_site_symmetry_multiplicity
 _atom_site_fract_x
 _atom_site_fract_y
 _atom_site_fract_z
 _atom_site_occupancy
  Ba  Ba0  1  0.821053  0.524840  0.074209  1
  Ba  Ba1  1  0.679453  0.971028  0.577694  1
  Ba  Ba2  1  0.179604  0.031457  0.924431  1
  Ba  Ba3  1  0.319710  0.470870  0.424114  1
  Ba  Ba4  1  0.179604  0.468543  0.924431  1
  Ba  Ba5  1  0.319710  0.029130  0.424114  1
  Ba  Ba6  1  0.821053  0.975160  0.074209  1
  Ba  Ba7  1  0.679453  0.528972  0.577694  1
  Ba  Ba8  1  0.172347  0.750000  0.215275  1
  Ba  Ba9  1  0.330284  0.750000  0.714999  1
  Ba  Ba10  1  0.829647  0.250000  0.786772  1
  Ba  Ba11  1  0.665426  0.250000  0.289237  1
  Ba  Ba12  1  0.444059  0.750000  0.001051  1
  Ba  Ba13  1  0.054762  0.750000  0.499844  1
  Ba  Ba14  1  0.558427  0.250000  0.999936  1
  Ba  Ba15  1  0.945535  0.250000  0.499730  1
  Ba  Ba16  1  0.645622  0.750000  0.301103  1
  Ba  Ba17  1  0.854872  0.750000  0.801099  1
  Ba  Ba18  1  0.355549  0.250000  0.699880  1
  Ba  Ba19  1  0.141042  0.250000  0.195049  1
  Ge  Ge20  1  0.436273  0.750000  0.488022  1
  Ge  Ge21  1  0.061508  0.750000  0.989061  1
  Ge  Ge22  1  0.563909  0.250000  0.512855  1
  Bi  Bi23  1  0.939755  0.504508  0.327021  1
  Bi  Bi24  1  0.562982  0.993909  0.833339  1
  Bi  Bi25  1  0.060448  0.007005  0.671130  1
  Bi  Bi26  1  0.437921  0.490518  0.166886  1
  Bi  Bi27  1  0.060448  0.492995  0.671130  1
  Bi  Bi28  1  0.437921  0.009482  0.166886  1
  Bi  Bi29  1  0.939755  0.995492  0.327021  1
  Bi  Bi30  1  0.562982  0.506091  0.833339  1
  P  P31  1  0.938888  0.250000  0.008442  1
