# generated using pymatgen
data_Cs6TbDyBr12
_symmetry_space_group_name_H-M   'P 1'
_cell_length_a   10.02111202
_cell_length_b   10.02277202
_cell_length_c   8.31936500
_cell_angle_alpha   90.00000000
_cell_angle_beta   90.00000000
_cell_angle_gamma   89.99368839
_symmetry_Int_Tables_number   1
_chemical_formula_structural   Cs6TbDyBr12
_chemical_formula_sum   'Cs6 Tb1 Dy1 Br12'
_cell_volume   835.59136724
_cell_formula_units_Z   1
loop_
 _symmetry_equiv_pos_site_id
 _symmetry_equiv_pos_as_xyz
  1  'x, y, z'
loop_
 _atom_site_type_symbol
 _atom_site_label
 _atom_site_symmetry_multiplicity
 _atom_site_fract_x
 _atom_site_fract_y
 _atom_site_fract_z
 _atom_site_occupancy
  Cs  Cs0  1  0.000000  0.000000  0.500000  1
  Cs  Cs1  1  0.000000  0.000000  0.000000  1
  Cs  Cs2  1  0.234729  0.585624  0.500000  1
  Cs  Cs3  1  0.765271  0.414376  0.500000  1
  Cs  Cs4  1  0.414369  0.234727  0.000000  1
  Cs  Cs5  1  0.585631  0.765273  0.000000  1
  Tb  Tb6  1  0.500000  0.000000  0.500000  1
  Dy  Dy7  1  0.000000  0.500000  0.000000  1
  Br  Br8  1  0.692094  0.058759  0.740794  1
  Br  Br9  1  0.307906  0.941241  0.740794  1
  Br  Br10  1  0.941325  0.691792  0.240425  1
  Br  Br11  1  0.058675  0.308208  0.240425  1
  Br  Br12  1  0.307906  0.941241  0.259206  1
  Br  Br13  1  0.692094  0.058759  0.259206  1
  Br  Br14  1  0.058675  0.308208  0.759575  1
  Br  Br15  1  0.941325  0.691792  0.759575  1
  Br  Br16  1  0.570825  0.728444  0.500000  1
  Br  Br17  1  0.429175  0.271556  0.500000  1
  Br  Br18  1  0.271094  0.570706  0.000000  1
  Br  Br19  1  0.728906  0.429294  0.000000  1
