# generated using pymatgen
data_YErFeAuO7
_symmetry_space_group_name_H-M   'P 1'
_cell_length_a   7.25699666
_cell_length_b   7.30603420
_cell_length_c   7.25711342
_cell_angle_alpha   59.77590471
_cell_angle_beta   59.56203022
_cell_angle_gamma   59.77580922
_symmetry_Int_Tables_number   1
_chemical_formula_structural   YErFeAuO7
_chemical_formula_sum   'Y2 Er2 Fe2 Au2 O14'
_cell_volume   270.24610505
_cell_formula_units_Z   2
loop_
 _symmetry_equiv_pos_site_id
 _symmetry_equiv_pos_as_xyz
  1  'x, y, z'
loop_
 _atom_site_type_symbol
 _atom_site_label
 _atom_site_symmetry_multiplicity
 _atom_site_fract_x
 _atom_site_fract_y
 _atom_site_fract_z
 _atom_site_occupancy
  Y  Y0  1  0.000004  0.499993  0.500003  1
  Y  Y1  1  0.500001  0.499996  0.000003  1
  Er  Er2  1  0.499971  0.000032  0.500001  1
  Er  Er3  1  0.500010  0.500002  0.499982  1
  Fe  Fe4  1  0.000003  0.499998  0.000000  1
  Fe  Fe5  1  0.000001  0.000002  0.000001  1
  Au  Au6  1  0.499999  0.999998  0.000005  1
  Au  Au7  1  0.000004  0.999999  0.500003  1
  O  O8  1  0.619827  0.630157  0.619818  1
  O  O9  1  0.380170  0.369841  0.380184  1
  O  O10  1  0.341475  0.913406  0.905512  1
  O  O11  1  0.094503  0.660392  0.658487  1
  O  O12  1  0.914209  0.335788  0.914211  1
  O  O13  1  0.905513  0.913401  0.341481  1
  O  O14  1  0.341518  0.339601  0.905495  1
  O  O15  1  0.341468  0.908569  0.341470  1
  O  O16  1  0.905504  0.339604  0.341510  1
  O  O17  1  0.658489  0.660396  0.094502  1
  O  O18  1  0.094482  0.086597  0.658523  1
  O  O19  1  0.658523  0.086594  0.094492  1
  O  O20  1  0.658534  0.091430  0.658525  1
  O  O21  1  0.085796  0.664210  0.085795  1
