# generated using pymatgen
data_Tb4Ho12Cd4Co3Os
_symmetry_space_group_name_H-M   'P 1'
_cell_length_a   9.55906642
_cell_length_b   9.55839877
_cell_length_c   9.55922394
_cell_angle_alpha   59.41296881
_cell_angle_beta   59.38018766
_cell_angle_gamma   59.35845336
_symmetry_Int_Tables_number   1
_chemical_formula_structural   Tb4Ho12Cd4Co3Os
_chemical_formula_sum   'Tb4 Ho12 Cd4 Co3 Os1'
_cell_volume   608.94092065
_cell_formula_units_Z   1
loop_
 _symmetry_equiv_pos_site_id
 _symmetry_equiv_pos_as_xyz
  1  'x, y, z'
loop_
 _atom_site_type_symbol
 _atom_site_label
 _atom_site_symmetry_multiplicity
 _atom_site_fract_x
 _atom_site_fract_y
 _atom_site_fract_z
 _atom_site_occupancy
  Tb  Tb0  1  0.189927  0.805896  0.190399  1
  Tb  Tb1  1  0.600155  0.600262  0.211171  1
  Tb  Tb2  1  0.190356  0.190447  0.805458  1
  Tb  Tb3  1  0.061477  0.435725  0.061497  1
  Ho  Ho4  1  0.437891  0.437005  0.057709  1
  Ho  Ho5  1  0.595781  0.595753  0.596051  1
  Ho  Ho6  1  0.187664  0.812853  0.812309  1
  Ho  Ho7  1  0.061259  0.061085  0.436398  1
  Ho  Ho8  1  0.436306  0.061345  0.061479  1
  Ho  Ho9  1  0.812687  0.187643  0.812916  1
  Ho  Ho10  1  0.437511  0.057795  0.437185  1
  Ho  Ho11  1  0.600295  0.211513  0.599894  1
  Ho  Ho12  1  0.812631  0.813416  0.187483  1
  Ho  Ho13  1  0.211840  0.600100  0.599518  1
  Ho  Ho14  1  0.805234  0.190205  0.190620  1
  Ho  Ho15  1  0.057524  0.437318  0.437851  1
  Cd  Cd16  1  0.829418  0.829890  0.507664  1
  Cd  Cd17  1  0.830034  0.830448  0.829459  1
  Cd  Cd18  1  0.508089  0.829478  0.829198  1
  Cd  Cd19  1  0.829387  0.507583  0.829542  1
  Co  Co20  1  0.829311  0.391781  0.392729  1
  Co  Co21  1  0.391721  0.829731  0.392625  1
  Co  Co22  1  0.392322  0.392284  0.829060  1
  Os  Os23  1  0.391178  0.390446  0.391786  1
