# generated using pymatgen
data_Cs2Ir(OF2)2
_symmetry_space_group_name_H-M   'P 1'
_cell_length_a   8.27217487
_cell_length_b   8.27217440
_cell_length_c   7.57298700
_cell_angle_alpha   90.00000000
_cell_angle_beta   90.00000000
_cell_angle_gamma   134.85535088
_symmetry_Int_Tables_number   1
_chemical_formula_structural   Cs2Ir(OF2)2
_chemical_formula_sum   'Cs4 Ir2 O4 F8'
_cell_volume   367.35441173
_cell_formula_units_Z   2
loop_
 _symmetry_equiv_pos_site_id
 _symmetry_equiv_pos_as_xyz
  1  'x, y, z'
loop_
 _atom_site_type_symbol
 _atom_site_label
 _atom_site_symmetry_multiplicity
 _atom_site_fract_x
 _atom_site_fract_y
 _atom_site_fract_z
 _atom_site_occupancy
  Cs  Cs0  1  0.436658  0.534730  0.250000  1
  Cs  Cs1  1  0.534730  0.436658  0.750000  1
  Cs  Cs2  1  0.745639  0.208410  0.250000  1
  Cs  Cs3  1  0.208410  0.745639  0.750000  1
  Ir  Ir4  1  0.104859  0.872884  0.250000  1
  Ir  Ir5  1  0.872884  0.104859  0.750000  1
  O  O6  1  0.063066  0.296880  0.929589  1
  O  O7  1  0.296880  0.063066  0.070411  1
  O  O8  1  0.296880  0.063066  0.429589  1
  O  O9  1  0.063066  0.296880  0.570411  1
  F  F10  1  0.955641  0.977614  0.250000  1
  F  F11  1  0.977614  0.955641  0.750000  1
  F  F12  1  0.867563  0.629145  0.071931  1
  F  F13  1  0.629145  0.867563  0.928069  1
  F  F14  1  0.629145  0.867563  0.571931  1
  F  F15  1  0.867563  0.629145  0.428069  1
  F  F16  1  0.219279  0.727975  0.250000  1
  F  F17  1  0.727975  0.219279  0.750000  1
