# generated using pymatgen
data_NdFeSb12IrOs2
_symmetry_space_group_name_H-M   'P 1'
_cell_length_a   8.12672151
_cell_length_b   8.08881923
_cell_length_c   8.11038966
_cell_angle_alpha   109.45578234
_cell_angle_beta   109.58996861
_cell_angle_gamma   109.54952946
_symmetry_Int_Tables_number   1
_chemical_formula_structural   NdFeSb12IrOs2
_chemical_formula_sum   'Nd1 Fe1 Sb12 Ir1 Os2'
_cell_volume   409.48933962
_cell_formula_units_Z   1
loop_
 _symmetry_equiv_pos_site_id
 _symmetry_equiv_pos_as_xyz
  1  'x, y, z'
loop_
 _atom_site_type_symbol
 _atom_site_label
 _atom_site_symmetry_multiplicity
 _atom_site_fract_x
 _atom_site_fract_y
 _atom_site_fract_z
 _atom_site_occupancy
  Nd  Nd0  1  0.000000  0.000000  0.000000  1
  Fe  Fe1  1  0.500000  0.000000  0.000000  1
  Sb  Sb2  1  0.343334  0.177255  0.848840  1
  Sb  Sb3  1  0.656666  0.822745  0.151160  1
  Sb  Sb4  1  0.660388  0.503758  0.843217  1
  Sb  Sb5  1  0.339612  0.496242  0.156783  1
  Sb  Sb6  1  0.185916  0.844116  0.340137  1
  Sb  Sb7  1  0.814084  0.155884  0.659863  1
  Sb  Sb8  1  0.504899  0.846134  0.671520  1
  Sb  Sb9  1  0.495101  0.153866  0.328480  1
  Sb  Sb10  1  0.834170  0.329030  0.174635  1
  Sb  Sb11  1  0.165830  0.670970  0.825365  1
  Sb  Sb12  1  0.843594  0.657935  0.503917  1
  Sb  Sb13  1  0.156406  0.342065  0.496083  1
  Ir  Ir14  1  0.000000  0.000000  0.500000  1
  Os  Os15  1  0.000000  0.500000  0.000000  1
  Os  Os16  1  0.500000  0.500000  0.500000  1
