# generated using pymatgen
data_GaCuAg2F7
_symmetry_space_group_name_H-M   'P 1'
_cell_length_a   7.53774958
_cell_length_b   7.53774998
_cell_length_c   7.53774950
_cell_angle_alpha   121.90949181
_cell_angle_beta   117.06132454
_cell_angle_gamma   90.94411479
_symmetry_Int_Tables_number   1
_chemical_formula_structural   GaCuAg2F7
_chemical_formula_sum   'Ga2 Cu2 Ag4 F14'
_cell_volume   304.47906329
_cell_formula_units_Z   2
loop_
 _symmetry_equiv_pos_site_id
 _symmetry_equiv_pos_as_xyz
  1  'x, y, z'
loop_
 _atom_site_type_symbol
 _atom_site_label
 _atom_site_symmetry_multiplicity
 _atom_site_fract_x
 _atom_site_fract_y
 _atom_site_fract_z
 _atom_site_occupancy
  Ga  Ga0  1  0.500000  0.000000  0.500000  1
  Ga  Ga1  1  0.000000  0.500000  0.500000  1
  Cu  Cu2  1  0.000000  0.000000  0.500000  1
  Cu  Cu3  1  0.000000  0.500000  0.000000  1
  Ag  Ag4  1  0.000000  0.000000  0.000000  1
  Ag  Ag5  1  0.500000  0.500000  0.000000  1
  Ag  Ag6  1  0.500000  0.000000  0.000000  1
  Ag  Ag7  1  0.500000  0.500000  0.500000  1
  F  F8  1  0.373461  0.090256  0.283205  1
  F  F9  1  0.692949  0.409744  0.283205  1
  F  F10  1  0.681364  0.304274  0.761370  1
  F  F11  1  0.957096  0.195726  0.377090  1
  F  F12  1  0.957096  0.580007  0.761370  1
  F  F13  1  0.681364  0.919993  0.377090  1
  F  F14  1  0.318636  0.080007  0.622910  1
  F  F15  1  0.042904  0.419993  0.238630  1
  F  F16  1  0.042904  0.804274  0.622910  1
  F  F17  1  0.318636  0.695726  0.238630  1
  F  F18  1  0.910099  0.750000  0.160099  1
  F  F19  1  0.626539  0.909744  0.716795  1
  F  F20  1  0.307051  0.590256  0.716795  1
  F  F21  1  0.089901  0.250000  0.839901  1
