# generated using pymatgen
data_Tm4Al2B4Ir7Rh3
_symmetry_space_group_name_H-M   'P 1'
_cell_length_a   9.53174345
_cell_length_b   9.52899345
_cell_length_c   3.13054200
_cell_angle_alpha   90.00000000
_cell_angle_beta   90.00000000
_cell_angle_gamma   90.16137192
_symmetry_Int_Tables_number   1
_chemical_formula_structural   Tm4Al2B4Ir7Rh3
_chemical_formula_sum   'Tm4 Al2 B4 Ir7 Rh3'
_cell_volume   284.33949339
_cell_formula_units_Z   1
loop_
 _symmetry_equiv_pos_site_id
 _symmetry_equiv_pos_as_xyz
  1  'x, y, z'
loop_
 _atom_site_type_symbol
 _atom_site_label
 _atom_site_symmetry_multiplicity
 _atom_site_fract_x
 _atom_site_fract_y
 _atom_site_fract_z
 _atom_site_occupancy
  Tm  Tm0  1  0.175381  0.676282  0.000000  1
  Tm  Tm1  1  0.322273  0.176501  0.000000  1
  Tm  Tm2  1  0.676491  0.823582  0.000000  1
  Tm  Tm3  1  0.825468  0.324600  0.000000  1
  Al  Al4  1  0.000610  0.000228  0.000000  1
  Al  Al5  1  0.499964  0.499849  0.000000  1
  B  B6  1  0.123486  0.378953  0.000000  1
  B  B7  1  0.378738  0.876429  0.000000  1
  B  B8  1  0.622595  0.122505  0.000000  1
  B  B9  1  0.877205  0.622760  0.000000  1
  Ir  Ir10  1  0.281185  0.431107  0.500000  1
  Ir  Ir11  1  0.430635  0.717644  0.500000  1
  Ir  Ir12  1  0.498636  0.999977  0.500000  1
  Ir  Ir13  1  0.568951  0.282383  0.500000  1
  Ir  Ir14  1  0.718330  0.567757  0.500000  1
  Ir  Ir15  1  0.782224  0.069246  0.500000  1
  Ir  Ir16  1  0.931274  0.781706  0.500000  1
  Rh  Rh17  1  0.000411  0.499767  0.500000  1
  Rh  Rh18  1  0.068906  0.218380  0.500000  1
  Rh  Rh19  1  0.217236  0.930343  0.500000  1
