# generated using pymatgen
data_TbPr3Ga18(PdRh)3
_symmetry_space_group_name_H-M   'P 1'
_cell_length_a   7.69783244
_cell_length_b   7.70488384
_cell_length_c   9.64733109
_cell_angle_alpha   89.98915133
_cell_angle_beta   89.96272722
_cell_angle_gamma   119.85185106
_symmetry_Int_Tables_number   1
_chemical_formula_structural   TbPr3Ga18(PdRh)3
_chemical_formula_sum   'Tb1 Pr3 Ga18 Pd3 Rh3'
_cell_volume   496.27065698
_cell_formula_units_Z   1
loop_
 _symmetry_equiv_pos_site_id
 _symmetry_equiv_pos_as_xyz
  1  'x, y, z'
loop_
 _atom_site_type_symbol
 _atom_site_label
 _atom_site_symmetry_multiplicity
 _atom_site_fract_x
 _atom_site_fract_y
 _atom_site_fract_z
 _atom_site_occupancy
  Tb  Tb0  1  0.331870  0.002286  0.750343  1
  Pr  Pr1  1  0.998111  0.667472  0.249529  1
  Pr  Pr2  1  0.003600  0.333467  0.750646  1
  Pr  Pr3  1  0.666260  0.996000  0.249446  1
  Ga  Ga4  1  0.127178  0.127672  0.250414  1
  Ga  Ga5  1  0.874492  0.874015  0.749612  1
  Ga  Ga6  1  0.002723  0.330423  0.078240  1
  Ga  Ga7  1  0.000284  0.672344  0.919113  1
  Ga  Ga8  1  0.997400  0.668749  0.578863  1
  Ga  Ga9  1  0.333893  0.005136  0.425373  1
  Ga  Ga10  1  0.997494  0.330098  0.423889  1
  Ga  Ga11  1  0.667021  0.002353  0.578317  1
  Ga  Ga12  1  0.666876  0.997467  0.919591  1
  Ga  Ga13  1  0.330542  0.002682  0.076556  1
  Ga  Ga14  1  0.333640  0.328454  0.562556  1
  Ga  Ga15  1  0.669424  0.666236  0.440021  1
  Ga  Ga16  1  0.668142  0.667926  0.062389  1
  Ga  Ga17  1  0.332154  0.329538  0.934975  1
  Ga  Ga18  1  0.339246  0.540355  0.250587  1
  Ga  Ga19  1  0.657996  0.454076  0.746825  1
  Ga  Ga20  1  0.542543  0.339115  0.253341  1
  Ga  Ga21  1  0.459305  0.662383  0.749341  1
  Pd  Pd22  1  0.670515  0.329453  0.999166  1
  Pd  Pd23  1  0.329254  0.671019  0.999137  1
  Pd  Pd24  1  0.328743  0.671443  0.500763  1
  Rh  Rh25  1  0.669941  0.329234  0.500985  1
  Rh  Rh26  1  0.000799  0.000133  0.998845  1
  Rh  Rh27  1  0.000555  0.000470  0.501138  1
