# generated using pymatgen
data_Yb3Th5(Nb3Ge4)4
_symmetry_space_group_name_H-M   'P 1'
_cell_length_a   7.12552378
_cell_length_b   7.28947317
_cell_length_c   13.78160689
_cell_angle_alpha   89.98496974
_cell_angle_beta   90.24699212
_cell_angle_gamma   89.98050759
_symmetry_Int_Tables_number   1
_chemical_formula_structural   Yb3Th5(Nb3Ge4)4
_chemical_formula_sum   'Yb3 Th5 Nb12 Ge16'
_cell_volume   715.82805903
_cell_formula_units_Z   1
loop_
 _symmetry_equiv_pos_site_id
 _symmetry_equiv_pos_as_xyz
  1  'x, y, z'
loop_
 _atom_site_type_symbol
 _atom_site_label
 _atom_site_symmetry_multiplicity
 _atom_site_fract_x
 _atom_site_fract_y
 _atom_site_fract_z
 _atom_site_occupancy
  Yb  Yb0  1  0.493756  0.327003  0.097032  1
  Yb  Yb1  1  0.996113  0.174383  0.404590  1
  Yb  Yb2  1  0.504593  0.671827  0.592913  1
  Th  Th3  1  0.004113  0.827910  0.905410  1
  Th  Th4  1  0.503457  0.670467  0.906849  1
  Th  Th5  1  0.002231  0.828778  0.592990  1
  Th  Th6  1  0.498138  0.329015  0.406587  1
  Th  Th7  1  0.997194  0.171842  0.095177  1
  Nb  Nb8  1  0.669110  0.012128  0.750953  1
  Nb  Nb9  1  0.165710  0.491675  0.750419  1
  Nb  Nb10  1  0.334455  0.988640  0.251622  1
  Nb  Nb11  1  0.834442  0.512479  0.248561  1
  Nb  Nb12  1  0.840907  0.328637  0.626810  1
  Nb  Nb13  1  0.338219  0.167379  0.872397  1
  Nb  Nb14  1  0.155492  0.672072  0.126848  1
  Nb  Nb15  1  0.657626  0.828953  0.372815  1
  Nb  Nb16  1  0.164479  0.667775  0.372905  1
  Nb  Nb17  1  0.664944  0.833105  0.127402  1
  Nb  Nb18  1  0.838926  0.333003  0.872797  1
  Nb  Nb19  1  0.336234  0.169076  0.627002  1
  Ge  Ge20  1  0.802453  0.628805  0.746315  1
  Ge  Ge21  1  0.314794  0.865917  0.745417  1
  Ge  Ge22  1  0.193935  0.367245  0.251962  1
  Ge  Ge23  1  0.692555  0.133171  0.249675  1
  Ge  Ge24  1  0.537556  0.370839  0.747582  1
  Ge  Ge25  1  0.039733  0.130754  0.750078  1
  Ge  Ge26  1  0.460650  0.628553  0.246774  1
  Ge  Ge27  1  0.962296  0.873859  0.254100  1
  Ge  Ge28  1  0.665324  0.037998  0.544052  1
  Ge  Ge29  1  0.172095  0.452401  0.957114  1
  Ge  Ge30  1  0.334325  0.960829  0.046832  1
  Ge  Ge31  1  0.834773  0.538953  0.454346  1
  Ge  Ge32  1  0.325192  0.957927  0.455187  1
  Ge  Ge33  1  0.822406  0.540476  0.046893  1
  Ge  Ge34  1  0.667452  0.049344  0.957112  1
  Ge  Ge35  1  0.174321  0.456783  0.544481  1
