# generated using pymatgen
data_UHg(P2O7)2
_symmetry_space_group_name_H-M   'P 1'
_cell_length_a   8.85941171
_cell_length_b   5.27000871
_cell_length_c   7.35577443
_cell_angle_alpha   70.37640413
_cell_angle_beta   91.73866067
_cell_angle_gamma   90.19590469
_symmetry_Int_Tables_number   1
_chemical_formula_structural   UHg(P2O7)2
_chemical_formula_sum   'U1 Hg1 P4 O14'
_cell_volume   323.33078952
_cell_formula_units_Z   1
loop_
 _symmetry_equiv_pos_site_id
 _symmetry_equiv_pos_as_xyz
  1  'x, y, z'
loop_
 _atom_site_type_symbol
 _atom_site_label
 _atom_site_symmetry_multiplicity
 _atom_site_fract_x
 _atom_site_fract_y
 _atom_site_fract_z
 _atom_site_occupancy
  U  U0  1  0.051880  0.197329  0.288888  1
  Hg  Hg1  1  0.547335  0.795066  0.731844  1
  P  P2  1  0.269529  0.773443  0.088334  1
  P  P3  1  0.775973  0.225056  0.906362  1
  P  P4  1  0.383512  0.414981  0.469661  1
  P  P5  1  0.862300  0.597256  0.529960  1
  O  O6  1  0.359409  0.586835  0.591929  1
  O  O7  1  0.640353  0.380995  0.927338  1
  O  O8  1  0.135395  0.568946  0.101079  1
  O  O9  1  0.223179  0.262806  0.458590  1
  O  O10  1  0.886494  0.169019  0.096556  1
  O  O11  1  0.203550  0.992769  0.165910  1
  O  O12  1  0.333202  0.888697  0.894098  1
  O  O13  1  0.991003  0.815230  0.488029  1
  O  O14  1  0.394492  0.608687  0.242177  1
  O  O15  1  0.904131  0.405866  0.413847  1
  O  O16  1  0.509478  0.214908  0.502917  1
  O  O17  1  0.759135  0.965789  0.865987  1
  O  O18  1  0.707882  0.714174  0.485319  1
  O  O19  1  0.893490  0.422151  0.751172  1
