# generated using pymatgen
data_HfTa3(SnRh5)2
_symmetry_space_group_name_H-M   'P 1'
_cell_length_a   4.09511800
_cell_length_b   5.61857302
_cell_length_c   11.06511064
_cell_angle_alpha   90.00752258
_cell_angle_beta   90.00000000
_cell_angle_gamma   90.00000000
_symmetry_Int_Tables_number   1
_chemical_formula_structural   HfTa3(SnRh5)2
_chemical_formula_sum   'Hf1 Ta3 Sn2 Rh10'
_cell_volume   254.59402473
_cell_formula_units_Z   1
loop_
 _symmetry_equiv_pos_site_id
 _symmetry_equiv_pos_as_xyz
  1  'x, y, z'
loop_
 _atom_site_type_symbol
 _atom_site_label
 _atom_site_symmetry_multiplicity
 _atom_site_fract_x
 _atom_site_fract_y
 _atom_site_fract_z
 _atom_site_occupancy
  Hf  Hf0  1  0.500000  0.319163  0.143744  1
  Ta  Ta1  1  0.500000  0.174768  0.642723  1
  Ta  Ta2  1  0.500000  0.819949  0.353045  1
  Ta  Ta3  1  0.500000  0.675151  0.856082  1
  Sn  Sn4  1  0.000000  0.501120  0.500520  1
  Sn  Sn5  1  0.000000  0.002050  0.998520  1
  Rh  Rh6  1  0.500000  0.207117  0.880011  1
  Rh  Rh7  1  0.500000  0.797889  0.115652  1
  Rh  Rh8  1  0.500000  0.708272  0.616702  1
  Rh  Rh9  1  0.500000  0.287574  0.389726  1
  Rh  Rh10  1  0.000000  0.443293  0.747967  1
  Rh  Rh11  1  0.000000  0.561609  0.254262  1
  Rh  Rh12  1  0.000000  0.999315  0.501695  1
  Rh  Rh13  1  0.000000  0.507117  0.995921  1
  Rh  Rh14  1  0.000000  0.052365  0.253229  1
  Rh  Rh15  1  0.000000  0.943249  0.750205  1
