# generated using pymatgen
data_Tm3(ThFe)2
_symmetry_space_group_name_H-M   'P 1'
_cell_length_a   6.22843199
_cell_length_b   6.93636052
_cell_length_c   8.61883047
_cell_angle_alpha   95.31514234
_cell_angle_beta   111.18171822
_cell_angle_gamma   90.00000493
_symmetry_Int_Tables_number   1
_chemical_formula_structural   Tm3(ThFe)2
_chemical_formula_sum   'Tm6 Th4 Fe4'
_cell_volume   345.48199975
_cell_formula_units_Z   2
loop_
 _symmetry_equiv_pos_site_id
 _symmetry_equiv_pos_as_xyz
  1  'x, y, z'
loop_
 _atom_site_type_symbol
 _atom_site_label
 _atom_site_symmetry_multiplicity
 _atom_site_fract_x
 _atom_site_fract_y
 _atom_site_fract_z
 _atom_site_occupancy
  Tm  Tm0  1  0.212384  0.180447  0.573849  1
  Tm  Tm1  1  0.638536  0.319553  0.426151  1
  Tm  Tm2  1  0.787616  0.819553  0.426151  1
  Tm  Tm3  1  0.361464  0.680447  0.573849  1
  Tm  Tm4  1  0.425118  0.250000  0.000000  1
  Tm  Tm5  1  0.574882  0.750000  0.000000  1
  Th  Th6  1  0.793670  0.095159  0.804832  1
  Th  Th7  1  0.988838  0.404841  0.195168  1
  Th  Th8  1  0.206330  0.904841  0.195168  1
  Th  Th9  1  0.011162  0.595159  0.804832  1
  Fe  Fe10  1  0.629252  0.412066  0.781743  1
  Fe  Fe11  1  0.847508  0.087934  0.218257  1
  Fe  Fe12  1  0.370748  0.587934  0.218257  1
  Fe  Fe13  1  0.152492  0.912066  0.781743  1
