# generated using pymatgen
data_PrGa3HgPd
_symmetry_space_group_name_H-M   'P 1'
_cell_length_a   8.42915339
_cell_length_b   8.42915280
_cell_length_c   6.69369200
_cell_angle_alpha   90.00000000
_cell_angle_beta   90.00000000
_cell_angle_gamma   149.18820363
_symmetry_Int_Tables_number   1
_chemical_formula_structural   PrGa3HgPd
_chemical_formula_sum   'Pr2 Ga6 Hg2 Pd2'
_cell_volume   243.60706961
_cell_formula_units_Z   2
loop_
 _symmetry_equiv_pos_site_id
 _symmetry_equiv_pos_as_xyz
  1  'x, y, z'
loop_
 _atom_site_type_symbol
 _atom_site_label
 _atom_site_symmetry_multiplicity
 _atom_site_fract_x
 _atom_site_fract_y
 _atom_site_fract_z
 _atom_site_occupancy
  Pr  Pr0  1  0.376030  0.623972  0.250000  1
  Pr  Pr1  1  0.623972  0.376030  0.750000  1
  Ga  Ga2  1  0.182357  0.817646  0.051243  1
  Ga  Ga3  1  0.568096  0.431906  0.250000  1
  Ga  Ga4  1  0.182357  0.817646  0.448757  1
  Ga  Ga5  1  0.817646  0.182357  0.551243  1
  Ga  Ga6  1  0.431906  0.568096  0.750000  1
  Ga  Ga7  1  0.817646  0.182357  0.948757  1
  Hg  Hg8  1  0.000000  0.000000  0.000000  1
  Hg  Hg9  1  0.000000  0.000000  0.500000  1
  Pd  Pd10  1  0.720178  0.279825  0.250000  1
  Pd  Pd11  1  0.279825  0.720178  0.750000  1
