# generated using pymatgen
data_Hf2TiGa2Sn
_symmetry_space_group_name_H-M   'P 1'
_cell_length_a   5.58469900
_cell_length_b   8.68349800
_cell_length_c   9.24154200
_cell_angle_alpha   90.00000000
_cell_angle_beta   90.00000000
_cell_angle_gamma   90.00000000
_symmetry_Int_Tables_number   1
_chemical_formula_structural   Hf2TiGa2Sn
_chemical_formula_sum   'Hf8 Ti4 Ga8 Sn4'
_cell_volume   448.16601566
_cell_formula_units_Z   4
loop_
 _symmetry_equiv_pos_site_id
 _symmetry_equiv_pos_as_xyz
  1  'x, y, z'
loop_
 _atom_site_type_symbol
 _atom_site_label
 _atom_site_symmetry_multiplicity
 _atom_site_fract_x
 _atom_site_fract_y
 _atom_site_fract_z
 _atom_site_occupancy
  Hf  Hf0  1  0.750000  0.472498  0.609694  1
  Hf  Hf1  1  0.250000  0.527502  0.390306  1
  Hf  Hf2  1  0.750000  0.972498  0.390306  1
  Hf  Hf3  1  0.250000  0.027502  0.609694  1
  Hf  Hf4  1  0.750000  0.369223  0.198629  1
  Hf  Hf5  1  0.250000  0.630777  0.801371  1
  Hf  Hf6  1  0.750000  0.869223  0.801371  1
  Hf  Hf7  1  0.250000  0.130777  0.198629  1
  Ti  Ti8  1  0.000000  0.750000  0.116776  1
  Ti  Ti9  1  0.500000  0.250000  0.883224  1
  Ti  Ti10  1  0.000000  0.250000  0.883224  1
  Ti  Ti11  1  0.500000  0.750000  0.116776  1
  Ga  Ga12  1  0.000000  0.750000  0.566928  1
  Ga  Ga13  1  0.500000  0.250000  0.433072  1
  Ga  Ga14  1  0.000000  0.250000  0.433072  1
  Ga  Ga15  1  0.500000  0.750000  0.566928  1
  Ga  Ga16  1  0.750000  0.141428  0.656909  1
  Ga  Ga17  1  0.250000  0.858572  0.343091  1
  Ga  Ga18  1  0.750000  0.641428  0.343091  1
  Ga  Ga19  1  0.250000  0.358572  0.656909  1
  Sn  Sn20  1  0.750000  0.047221  0.080951  1
  Sn  Sn21  1  0.250000  0.952779  0.919049  1
  Sn  Sn22  1  0.750000  0.547221  0.919049  1
  Sn  Sn23  1  0.250000  0.452779  0.080951  1
