# generated using pymatgen
data_Zr4In2IrRh9
_symmetry_space_group_name_H-M   'P 1'
_cell_length_a   5.65545170
_cell_length_b   5.65545068
_cell_length_c   8.28785000
_cell_angle_alpha   90.00000000
_cell_angle_beta   90.00000000
_cell_angle_gamma   96.03612926
_symmetry_Int_Tables_number   1
_chemical_formula_structural   Zr4In2IrRh9
_chemical_formula_sum   'Zr4 In2 Ir1 Rh9'
_cell_volume   263.60999759
_cell_formula_units_Z   1
loop_
 _symmetry_equiv_pos_site_id
 _symmetry_equiv_pos_as_xyz
  1  'x, y, z'
loop_
 _atom_site_type_symbol
 _atom_site_label
 _atom_site_symmetry_multiplicity
 _atom_site_fract_x
 _atom_site_fract_y
 _atom_site_fract_z
 _atom_site_occupancy
  Zr  Zr0  1  0.777972  0.221998  0.500567  1
  Zr  Zr1  1  0.221998  0.777972  0.999433  1
  Zr  Zr2  1  0.221998  0.777972  0.500567  1
  Zr  Zr3  1  0.777972  0.221998  0.999433  1
  In  In4  1  0.500491  0.500491  0.750000  1
  In  In5  1  0.499617  0.499617  0.250000  1
  Ir  Ir6  1  0.000104  0.000104  0.250000  1
  Rh  Rh7  1  0.736698  0.736698  0.001769  1
  Rh  Rh8  1  0.736698  0.736698  0.498231  1
  Rh  Rh9  1  0.263293  0.263293  0.000963  1
  Rh  Rh10  1  0.263293  0.263293  0.499037  1
  Rh  Rh11  1  0.499949  0.000235  0.750000  1
  Rh  Rh12  1  0.500019  0.999770  0.250000  1
  Rh  Rh13  1  0.999893  0.999893  0.750000  1
  Rh  Rh14  1  0.000235  0.499949  0.750000  1
  Rh  Rh15  1  0.999770  0.500019  0.250000  1
