# generated using pymatgen
data_Sm10TlBi5Cl2
_symmetry_space_group_name_H-M   'P 1'
_cell_length_a   9.47420000
_cell_length_b   9.41796590
_cell_length_c   6.60158900
_cell_angle_alpha   90.00000000
_cell_angle_beta   90.00000000
_cell_angle_gamma   120.19772147
_symmetry_Int_Tables_number   1
_chemical_formula_structural   Sm10TlBi5Cl2
_chemical_formula_sum   'Sm10 Tl1 Bi5 Cl2'
_cell_volume   509.10814744
_cell_formula_units_Z   1
loop_
 _symmetry_equiv_pos_site_id
 _symmetry_equiv_pos_as_xyz
  1  'x, y, z'
loop_
 _atom_site_type_symbol
 _atom_site_label
 _atom_site_symmetry_multiplicity
 _atom_site_fract_x
 _atom_site_fract_y
 _atom_site_fract_z
 _atom_site_occupancy
  Sm  Sm0  1  0.267370  0.000000  0.750000  1
  Sm  Sm1  1  0.734211  0.000000  0.250000  1
  Sm  Sm2  1  0.995069  0.260405  0.750000  1
  Sm  Sm3  1  0.000299  0.736491  0.250000  1
  Sm  Sm4  1  0.734663  0.739595  0.750000  1
  Sm  Sm5  1  0.263809  0.263509  0.250000  1
  Sm  Sm6  1  0.334481  0.668400  0.498988  1
  Sm  Sm7  1  0.666081  0.331600  0.498988  1
  Sm  Sm8  1  0.666081  0.331600  0.001012  1
  Sm  Sm9  1  0.334481  0.668400  0.001012  1
  Tl  Tl10  1  0.611971  0.000000  0.750000  1
  Bi  Bi11  1  0.388519  0.000000  0.250000  1
  Bi  Bi12  1  0.998101  0.612613  0.750000  1
  Bi  Bi13  1  0.999957  0.386323  0.250000  1
  Bi  Bi14  1  0.385487  0.387387  0.750000  1
  Bi  Bi15  1  0.613634  0.613677  0.250000  1
  Cl  Cl16  1  0.002892  0.000000  0.499206  1
  Cl  Cl17  1  0.002892  0.000000  0.000794  1
