# generated using pymatgen
data_Pr6Co2Re(P4Rh5)3
_symmetry_space_group_name_H-M   'P 1'
_cell_length_a   3.92151200
_cell_length_b   11.22420000
_cell_length_c   13.01079800
_cell_angle_alpha   90.00000000
_cell_angle_beta   90.00000000
_cell_angle_gamma   90.00000000
_symmetry_Int_Tables_number   1
_chemical_formula_structural   Pr6Co2Re(P4Rh5)3
_chemical_formula_sum   'Pr6 Co2 Re1 P12 Rh15'
_cell_volume   572.68113786
_cell_formula_units_Z   1
loop_
 _symmetry_equiv_pos_site_id
 _symmetry_equiv_pos_as_xyz
  1  'x, y, z'
loop_
 _atom_site_type_symbol
 _atom_site_label
 _atom_site_symmetry_multiplicity
 _atom_site_fract_x
 _atom_site_fract_y
 _atom_site_fract_z
 _atom_site_occupancy
  Pr  Pr0  1  0.000000  0.500000  0.519983  1
  Pr  Pr1  1  0.500000  0.000000  0.479725  1
  Pr  Pr2  1  0.500000  0.816413  0.202761  1
  Pr  Pr3  1  0.500000  0.183587  0.202761  1
  Pr  Pr4  1  0.000000  0.683114  0.799174  1
  Pr  Pr5  1  0.000000  0.316886  0.799174  1
  Co  Co6  1  0.000000  0.500000  0.993816  1
  Co  Co7  1  0.500000  0.000000  0.015952  1
  Re  Re8  1  0.500000  0.500000  0.158129  1
  P  P9  1  0.500000  0.500000  0.885458  1
  P  P10  1  0.000000  0.000000  0.113367  1
  P  P11  1  0.500000  0.500000  0.341353  1
  P  P12  1  0.000000  0.000000  0.654438  1
  P  P13  1  0.500000  0.312799  0.617702  1
  P  P14  1  0.500000  0.687201  0.617702  1
  P  P15  1  0.000000  0.188166  0.382026  1
  P  P16  1  0.000000  0.811834  0.382026  1
  P  P17  1  0.500000  0.855394  0.895947  1
  P  P18  1  0.500000  0.144606  0.895947  1
  P  P19  1  0.000000  0.647000  0.105617  1
  P  P20  1  0.000000  0.353000  0.105617  1
  Rh  Rh21  1  0.000000  0.000000  0.835145  1
  Rh  Rh22  1  0.500000  0.500000  0.704599  1
  Rh  Rh23  1  0.000000  0.000000  0.294193  1
  Rh  Rh24  1  0.500000  0.336502  0.993931  1
  Rh  Rh25  1  0.500000  0.663498  0.993931  1
  Rh  Rh26  1  0.000000  0.164843  0.006345  1
  Rh  Rh27  1  0.000000  0.835157  0.006345  1
  Rh  Rh28  1  0.500000  0.293281  0.429581  1
  Rh  Rh29  1  0.500000  0.706719  0.429581  1
  Rh  Rh30  1  0.000000  0.207353  0.569660  1
  Rh  Rh31  1  0.000000  0.792647  0.569660  1
  Rh  Rh32  1  0.500000  0.875497  0.711685  1
  Rh  Rh33  1  0.500000  0.124503  0.711685  1
  Rh  Rh34  1  0.000000  0.622123  0.287492  1
  Rh  Rh35  1  0.000000  0.377877  0.287492  1
