# generated using pymatgen
data_Zr4Ru10Pt2C3
_symmetry_space_group_name_H-M   'P 1'
_cell_length_a   4.09973600
_cell_length_b   4.09973600
_cell_length_c   16.23391200
_cell_angle_alpha   90.00000000
_cell_angle_beta   90.00000000
_cell_angle_gamma   90.00000000
_symmetry_Int_Tables_number   1
_chemical_formula_structural   Zr4Ru10Pt2C3
_chemical_formula_sum   'Zr4 Ru10 Pt2 C3'
_cell_volume   272.85691868
_cell_formula_units_Z   1
loop_
 _symmetry_equiv_pos_site_id
 _symmetry_equiv_pos_as_xyz
  1  'x, y, z'
loop_
 _atom_site_type_symbol
 _atom_site_label
 _atom_site_symmetry_multiplicity
 _atom_site_fract_x
 _atom_site_fract_y
 _atom_site_fract_z
 _atom_site_occupancy
  Zr  Zr0  1  0.000000  0.000000  0.877305  1
  Zr  Zr1  1  0.000000  0.000000  0.122695  1
  Zr  Zr2  1  0.000000  0.000000  0.373973  1
  Zr  Zr3  1  0.000000  0.000000  0.626027  1
  Ru  Ru4  1  0.500000  0.500000  0.878573  1
  Ru  Ru5  1  0.500000  0.500000  0.121427  1
  Ru  Ru6  1  0.500000  0.500000  0.373379  1
  Ru  Ru7  1  0.500000  0.500000  0.626621  1
  Ru  Ru8  1  0.500000  0.000000  0.249203  1
  Ru  Ru9  1  0.500000  0.000000  0.500000  1
  Ru  Ru10  1  0.500000  0.000000  0.750797  1
  Ru  Ru11  1  0.000000  0.500000  0.249203  1
  Ru  Ru12  1  0.000000  0.500000  0.500000  1
  Ru  Ru13  1  0.000000  0.500000  0.750797  1
  Pt  Pt14  1  0.500000  0.000000  0.000000  1
  Pt  Pt15  1  0.000000  0.500000  0.000000  1
  C  C16  1  0.500000  0.500000  0.242701  1
  C  C17  1  0.500000  0.500000  0.500000  1
  C  C18  1  0.500000  0.500000  0.757299  1
