# generated using pymatgen
data_CeSb12Ru3Pt
_symmetry_space_group_name_H-M   'P 1'
_cell_length_a   8.32989538
_cell_length_b   8.32989539
_cell_length_c   8.32625800
_cell_angle_alpha   109.46238013
_cell_angle_beta   109.46238015
_cell_angle_gamma   109.48006014
_symmetry_Int_Tables_number   1
_chemical_formula_structural   CeSb12Ru3Pt
_chemical_formula_sum   'Ce1 Sb12 Ru3 Pt1'
_cell_volume   444.78940764
_cell_formula_units_Z   1
loop_
 _symmetry_equiv_pos_site_id
 _symmetry_equiv_pos_as_xyz
  1  'x, y, z'
loop_
 _atom_site_type_symbol
 _atom_site_label
 _atom_site_symmetry_multiplicity
 _atom_site_fract_x
 _atom_site_fract_y
 _atom_site_fract_z
 _atom_site_occupancy
  Ce  Ce0  1  0.000000  0.000000  0.000000  1
  Sb  Sb1  1  0.493734  0.334581  0.158723  1
  Sb  Sb2  1  0.184837  0.344222  0.849661  1
  Sb  Sb3  1  0.506266  0.665419  0.841277  1
  Sb  Sb4  1  0.815162  0.655777  0.150339  1
  Sb  Sb5  1  0.159153  0.493734  0.335011  1
  Sb  Sb6  1  0.344222  0.159386  0.494561  1
  Sb  Sb7  1  0.159386  0.815162  0.664824  1
  Sb  Sb8  1  0.334581  0.840847  0.175858  1
  Sb  Sb9  1  0.840614  0.184837  0.335175  1
  Sb  Sb10  1  0.655778  0.840614  0.505439  1
  Sb  Sb11  1  0.840847  0.506266  0.664989  1
  Sb  Sb12  1  0.665418  0.159153  0.824141  1
  Ru  Ru13  1  0.499999  0.499999  0.499999  1
  Ru  Ru14  1  0.499999  0.000000  0.000000  1
  Ru  Ru15  1  0.000000  0.499999  0.000000  1
  Pt  Pt16  1  0.000000  0.000000  0.499999  1
