# generated using pymatgen
data_Zr4Ta3Nb(SiP)2
_symmetry_space_group_name_H-M   'P 1'
_cell_length_a   3.59992300
_cell_length_b   6.96089900
_cell_length_c   8.43461000
_cell_angle_alpha   89.99904030
_cell_angle_beta   90.00000000
_cell_angle_gamma   90.00000000
_symmetry_Int_Tables_number   1
_chemical_formula_structural   Zr4Ta3Nb(SiP)2
_chemical_formula_sum   'Zr4 Ta3 Nb1 Si2 P2'
_cell_volume   211.36036506
_cell_formula_units_Z   1
loop_
 _symmetry_equiv_pos_site_id
 _symmetry_equiv_pos_as_xyz
  1  'x, y, z'
loop_
 _atom_site_type_symbol
 _atom_site_label
 _atom_site_symmetry_multiplicity
 _atom_site_fract_x
 _atom_site_fract_y
 _atom_site_fract_z
 _atom_site_occupancy
  Zr  Zr0  1  0.250000  0.535428  0.833707  1
  Zr  Zr1  1  0.750000  0.964657  0.333170  1
  Zr  Zr2  1  0.250000  0.038708  0.669956  1
  Zr  Zr3  1  0.750000  0.461413  0.169930  1
  Ta  Ta4  1  0.250000  0.140548  0.059799  1
  Ta  Ta5  1  0.750000  0.868979  0.938854  1
  Ta  Ta6  1  0.250000  0.630922  0.439038  1
  Nb  Nb7  1  0.750000  0.359405  0.559300  1
  Si  Si8  1  0.750000  0.739981  0.639861  1
  Si  Si9  1  0.250000  0.760473  0.139993  1
  P  P10  1  0.750000  0.241273  0.858606  1
  P  P11  1  0.250000  0.258215  0.357784  1
