# generated using pymatgen
data_Tm6Zn21Ag2S
_symmetry_space_group_name_H-M   'P 1'
_cell_length_a   9.04825186
_cell_length_b   9.04460974
_cell_length_c   9.04461000
_cell_angle_alpha   59.99999904
_cell_angle_beta   60.01331347
_cell_angle_gamma   60.01331316
_symmetry_Int_Tables_number   1
_chemical_formula_structural   Tm6Zn21Ag2S
_chemical_formula_sum   'Tm6 Zn21 Ag2 S1'
_cell_volume   523.50004220
_cell_formula_units_Z   1
loop_
 _symmetry_equiv_pos_site_id
 _symmetry_equiv_pos_as_xyz
  1  'x, y, z'
loop_
 _atom_site_type_symbol
 _atom_site_label
 _atom_site_symmetry_multiplicity
 _atom_site_fract_x
 _atom_site_fract_y
 _atom_site_fract_z
 _atom_site_occupancy
  Tm  Tm0  1  0.709450  0.290101  0.290101  1
  Tm  Tm1  1  0.709450  0.290101  0.710347  1
  Tm  Tm2  1  0.709450  0.710347  0.290101  1
  Tm  Tm3  1  0.287922  0.711664  0.711664  1
  Tm  Tm4  1  0.287922  0.711664  0.288750  1
  Tm  Tm5  1  0.287922  0.288750  0.711664  1
  Zn  Zn6  1  0.124060  0.624687  0.125626  1
  Zn  Zn7  1  0.124060  0.125626  0.624687  1
  Zn  Zn8  1  0.124060  0.125626  0.125626  1
  Zn  Zn9  1  0.378248  0.873917  0.873917  1
  Zn  Zn10  1  0.873390  0.370838  0.877885  1
  Zn  Zn11  1  0.873390  0.877885  0.370838  1
  Zn  Zn12  1  0.873390  0.877885  0.877885  1
  Zn  Zn13  1  0.497334  0.999711  0.999711  1
  Zn  Zn14  1  0.497334  0.999711  0.503246  1
  Zn  Zn15  1  0.497334  0.503246  0.999711  1
  Zn  Zn16  1  0.999233  0.500529  0.500529  1
  Zn  Zn17  1  0.999233  0.500529  0.999708  1
  Zn  Zn18  1  0.999233  0.999708  0.500529  1
  Zn  Zn19  1  0.006354  0.331214  0.331214  1
  Zn  Zn20  1  0.330534  0.006870  0.331297  1
  Zn  Zn21  1  0.330534  0.331297  0.006870  1
  Zn  Zn22  1  0.330534  0.331297  0.331297  1
  Zn  Zn23  1  0.991277  0.669575  0.669575  1
  Zn  Zn24  1  0.668859  0.992779  0.669183  1
  Zn  Zn25  1  0.668859  0.669183  0.992779  1
  Zn  Zn26  1  0.668859  0.669183  0.669183  1
  Ag  Ag27  1  0.636172  0.121276  0.121276  1
  Ag  Ag28  1  0.017032  0.994323  0.994323  1
  S  S29  1  0.498572  0.500476  0.500476  1
