# generated using pymatgen
data_Tm6Nb2Co16Si11P
_symmetry_space_group_name_H-M   'P 1'
_cell_length_a   3.75610200
_cell_length_b   10.84593304
_cell_length_c   12.44435500
_cell_angle_alpha   90.04945133
_cell_angle_beta   90.00000000
_cell_angle_gamma   90.00000000
_symmetry_Int_Tables_number   1
_chemical_formula_structural   Tm6Nb2Co16Si11P
_chemical_formula_sum   'Tm6 Nb2 Co16 Si11 P1'
_cell_volume   506.96330597
_cell_formula_units_Z   1
loop_
 _symmetry_equiv_pos_site_id
 _symmetry_equiv_pos_as_xyz
  1  'x, y, z'
loop_
 _atom_site_type_symbol
 _atom_site_label
 _atom_site_symmetry_multiplicity
 _atom_site_fract_x
 _atom_site_fract_y
 _atom_site_fract_z
 _atom_site_occupancy
  Tm  Tm0  1  0.000000  0.499174  0.531079  1
  Tm  Tm1  1  0.500000  0.000680  0.468026  1
  Tm  Tm2  1  0.500000  0.823507  0.205098  1
  Tm  Tm3  1  0.500000  0.180028  0.203151  1
  Tm  Tm4  1  0.000000  0.675899  0.795827  1
  Tm  Tm5  1  0.000000  0.322953  0.794092  1
  Nb  Nb6  1  0.500000  0.497528  0.151516  1
  Nb  Nb7  1  0.000000  0.000369  0.848965  1
  Co  Co8  1  0.000000  0.496735  0.988987  1
  Co  Co9  1  0.500000  0.001429  0.013648  1
  Co  Co10  1  0.500000  0.300738  0.430944  1
  Co  Co11  1  0.500000  0.699049  0.432451  1
  Co  Co12  1  0.000000  0.199594  0.566560  1
  Co  Co13  1  0.000000  0.800746  0.567930  1
  Co  Co14  1  0.500000  0.882180  0.705404  1
  Co  Co15  1  0.500000  0.118412  0.704566  1
  Co  Co16  1  0.000000  0.617556  0.295495  1
  Co  Co17  1  0.000000  0.380816  0.291773  1
  Co  Co18  1  0.500000  0.330941  0.997989  1
  Co  Co19  1  0.500000  0.667141  0.997391  1
  Co  Co20  1  0.000000  0.172015  0.005738  1
  Co  Co21  1  0.000000  0.831343  0.003964  1
  Co  Co22  1  0.500000  0.499848  0.699459  1
  Co  Co23  1  0.000000  0.000333  0.300449  1
  Si  Si24  1  0.500000  0.304065  0.614566  1
  Si  Si25  1  0.500000  0.696074  0.616090  1
  Si  Si26  1  0.000000  0.196048  0.383359  1
  Si  Si27  1  0.000000  0.803925  0.384441  1
  Si  Si28  1  0.500000  0.499284  0.885855  1
  Si  Si29  1  0.000000  0.000482  0.114437  1
  Si  Si30  1  0.500000  0.839691  0.894848  1
  Si  Si31  1  0.500000  0.160670  0.893674  1
  Si  Si32  1  0.000000  0.659763  0.106833  1
  Si  Si33  1  0.500000  0.499903  0.354462  1
  Si  Si34  1  0.000000  0.000506  0.645019  1
  P  P35  1  0.000000  0.340577  0.105915  1
