# generated using pymatgen
data_Y3Ho13(In3Co)2
_symmetry_space_group_name_H-M   'P 1'
_cell_length_a   10.32891700
_cell_length_b   10.32891690
_cell_length_c   7.01102600
_cell_angle_alpha   90.00002774
_cell_angle_beta   89.99996672
_cell_angle_gamma   119.99997149
_symmetry_Int_Tables_number   1
_chemical_formula_structural   Y3Ho13(In3Co)2
_chemical_formula_sum   'Y3 Ho13 In6 Co2'
_cell_volume   647.77160248
_cell_formula_units_Z   1
loop_
 _symmetry_equiv_pos_site_id
 _symmetry_equiv_pos_as_xyz
  1  'x, y, z'
loop_
 _atom_site_type_symbol
 _atom_site_label
 _atom_site_symmetry_multiplicity
 _atom_site_fract_x
 _atom_site_fract_y
 _atom_site_fract_z
 _atom_site_occupancy
  Y  Y0  1  0.666667  0.333333  0.592836  1
  Y  Y1  1  0.000000  0.000000  0.495089  1
  Y  Y2  1  0.000000  0.000000  0.995312  1
  Ho  Ho3  1  0.463970  0.536030  0.482695  1
  Ho  Ho4  1  0.072060  0.536030  0.482695  1
  Ho  Ho5  1  0.463970  0.927940  0.482695  1
  Ho  Ho6  1  0.535644  0.464356  0.983321  1
  Ho  Ho7  1  0.928712  0.464356  0.983321  1
  Ho  Ho8  1  0.535644  0.071288  0.983321  1
  Ho  Ho9  1  0.821683  0.178317  0.275892  1
  Ho  Ho10  1  0.356633  0.178317  0.275892  1
  Ho  Ho11  1  0.821683  0.643368  0.275892  1
  Ho  Ho12  1  0.178378  0.821622  0.775959  1
  Ho  Ho13  1  0.643243  0.821622  0.775959  1
  Ho  Ho14  1  0.178378  0.356757  0.775959  1
  Ho  Ho15  1  0.333333  0.666667  0.091222  1
  In  In16  1  0.163026  0.836974  0.234185  1
  In  In17  1  0.673948  0.836974  0.234185  1
  In  In18  1  0.163026  0.326052  0.234184  1
  In  In19  1  0.837182  0.162818  0.734215  1
  In  In20  1  0.325634  0.162818  0.734215  1
  In  In21  1  0.837182  0.674366  0.734215  1
  Co  Co22  1  0.333333  0.666667  0.707078  1
  Co  Co23  1  0.666667  0.333333  0.204214  1
