# generated using pymatgen
data_K4HfSe4
_symmetry_space_group_name_H-M   'P 1'
_cell_length_a   8.54058700
_cell_length_b   10.29221900
_cell_length_c   15.09089500
_cell_angle_alpha   90.00000000
_cell_angle_beta   90.00000000
_cell_angle_gamma   90.00000000
_symmetry_Int_Tables_number   1
_chemical_formula_structural   K4HfSe4
_chemical_formula_sum   'K16 Hf4 Se16'
_cell_volume   1326.51369207
_cell_formula_units_Z   4
loop_
 _symmetry_equiv_pos_site_id
 _symmetry_equiv_pos_as_xyz
  1  'x, y, z'
loop_
 _atom_site_type_symbol
 _atom_site_label
 _atom_site_symmetry_multiplicity
 _atom_site_fract_x
 _atom_site_fract_y
 _atom_site_fract_z
 _atom_site_occupancy
  K  K0  1  0.000000  0.000000  0.000000  1
  K  K1  1  0.500000  0.000000  0.500000  1
  K  K2  1  0.000000  0.500000  0.000000  1
  K  K3  1  0.500000  0.500000  0.500000  1
  K  K4  1  0.981716  0.750000  0.430182  1
  K  K5  1  0.481716  0.250000  0.069818  1
  K  K6  1  0.018284  0.250000  0.569818  1
  K  K7  1  0.518284  0.750000  0.930182  1
  K  K8  1  0.846157  0.054394  0.275701  1
  K  K9  1  0.346157  0.945606  0.224299  1
  K  K10  1  0.153843  0.554394  0.724299  1
  K  K11  1  0.653843  0.445606  0.775701  1
  K  K12  1  0.153843  0.945606  0.724299  1
  K  K13  1  0.653843  0.054394  0.775701  1
  K  K14  1  0.846157  0.445606  0.275701  1
  K  K15  1  0.346157  0.554394  0.224299  1
  Hf  Hf16  1  0.753344  0.750000  0.667754  1
  Hf  Hf17  1  0.246656  0.250000  0.332246  1
  Hf  Hf18  1  0.746656  0.750000  0.167754  1
  Hf  Hf19  1  0.253344  0.250000  0.832246  1
  Se  Se20  1  0.958058  0.250000  0.824718  1
  Se  Se21  1  0.541942  0.250000  0.324718  1
  Se  Se22  1  0.458058  0.750000  0.675282  1
  Se  Se23  1  0.041942  0.750000  0.175282  1
  Se  Se24  1  0.655856  0.547359  0.090416  1
  Se  Se25  1  0.155856  0.452641  0.409584  1
  Se  Se26  1  0.344144  0.047359  0.909584  1
  Se  Se27  1  0.844144  0.952641  0.590416  1
  Se  Se28  1  0.344144  0.452641  0.909584  1
  Se  Se29  1  0.844144  0.547359  0.590416  1
  Se  Se30  1  0.655856  0.952641  0.090416  1
  Se  Se31  1  0.155856  0.047359  0.409584  1
  Se  Se32  1  0.631383  0.750000  0.322776  1
  Se  Se33  1  0.131383  0.250000  0.177224  1
  Se  Se34  1  0.368617  0.250000  0.677224  1
  Se  Se35  1  0.868617  0.750000  0.822776  1
