# generated using pymatgen
data_Sm2Cd5
_symmetry_space_group_name_H-M   'P 1'
_cell_length_a   18.25450616
_cell_length_b   18.25450597
_cell_length_c   5.15111200
_cell_angle_alpha   90.00000000
_cell_angle_beta   90.00000000
_cell_angle_gamma   168.10774087
_symmetry_Int_Tables_number   1
_chemical_formula_structural   Sm2Cd5
_chemical_formula_sum   'Sm4 Cd10'
_cell_volume   353.72040721
_cell_formula_units_Z   2
loop_
 _symmetry_equiv_pos_site_id
 _symmetry_equiv_pos_as_xyz
  1  'x, y, z'
loop_
 _atom_site_type_symbol
 _atom_site_label
 _atom_site_symmetry_multiplicity
 _atom_site_fract_x
 _atom_site_fract_y
 _atom_site_fract_z
 _atom_site_occupancy
  Sm  Sm0  1  0.929721  0.070279  0.500000  1
  Sm  Sm1  1  0.070279  0.929721  0.500000  1
  Sm  Sm2  1  0.790255  0.209745  0.500000  1
  Sm  Sm3  1  0.209745  0.790255  0.500000  1
  Cd  Cd4  1  0.639567  0.360433  0.500000  1
  Cd  Cd5  1  0.360433  0.639567  0.500000  1
  Cd  Cd6  1  0.714568  0.285432  0.000000  1
  Cd  Cd7  1  0.285432  0.714568  0.000000  1
  Cd  Cd8  1  0.500000  0.500000  0.500000  1
  Cd  Cd9  1  0.569128  0.430872  0.000000  1
  Cd  Cd10  1  0.430872  0.569128  0.000000  1
  Cd  Cd11  1  0.856464  0.143536  0.000000  1
  Cd  Cd12  1  0.143536  0.856464  0.000000  1
  Cd  Cd13  1  0.000000  0.000000  0.000000  1
