# generated using pymatgen
data_CeDy15CdCo4Hg3
_symmetry_space_group_name_H-M   'P 1'
_cell_length_a   9.44105772
_cell_length_b   9.52982146
_cell_length_c   9.44335500
_cell_angle_alpha   60.29969303
_cell_angle_beta   59.99195392
_cell_angle_gamma   60.37989513
_symmetry_Int_Tables_number   1
_chemical_formula_structural   CeDy15CdCo4Hg3
_chemical_formula_sum   'Ce1 Dy15 Cd1 Co4 Hg3'
_cell_volume   603.81120374
_cell_formula_units_Z   1
loop_
 _symmetry_equiv_pos_site_id
 _symmetry_equiv_pos_as_xyz
  1  'x, y, z'
loop_
 _atom_site_type_symbol
 _atom_site_label
 _atom_site_symmetry_multiplicity
 _atom_site_fract_x
 _atom_site_fract_y
 _atom_site_fract_z
 _atom_site_occupancy
  Ce  Ce0  1  0.159112  0.518053  0.161417  1
  Dy  Dy1  1  0.688537  0.313574  0.687478  1
  Dy  Dy2  1  0.688537  0.313574  0.310411  1
  Dy  Dy3  1  0.940137  0.560836  0.560588  1
  Dy  Dy4  1  0.548555  0.148077  0.151684  1
  Dy  Dy5  1  0.151632  0.149610  0.544780  1
  Dy  Dy6  1  0.938509  0.935783  0.562854  1
  Dy  Dy7  1  0.313220  0.691249  0.309154  1
  Dy  Dy8  1  0.562716  0.936801  0.937627  1
  Dy  Dy9  1  0.562716  0.936801  0.562857  1
  Dy  Dy10  1  0.688489  0.692274  0.309618  1
  Dy  Dy11  1  0.560918  0.560417  0.939333  1
  Dy  Dy12  1  0.940137  0.560836  0.938440  1
  Dy  Dy13  1  0.313220  0.691249  0.686376  1
  Dy  Dy14  1  0.151632  0.149610  0.153977  1
  Dy  Dy15  1  0.312696  0.312333  0.687486  1
  Cd  Cd16  1  0.239467  0.918430  0.921052  1
  Co  Co17  1  0.350630  0.367716  0.930111  1
  Co  Co18  1  0.357558  0.923671  0.359386  1
  Co  Co19  1  0.929724  0.368267  0.351005  1
  Co  Co20  1  0.350630  0.367716  0.351543  1
  Hg  Hg21  1  0.916255  0.254458  0.914643  1
  Hg  Hg22  1  0.917487  0.914331  0.915800  1
  Hg  Hg23  1  0.917487  0.914331  0.252383  1
