# generated using pymatgen
data_Rb8Li4Ho3InSb8
_symmetry_space_group_name_H-M   'P 1'
_cell_length_a   11.16861572
_cell_length_b   11.16861516
_cell_length_c   7.19028439
_cell_angle_alpha   89.94370919
_cell_angle_beta   90.05629129
_cell_angle_gamma   100.36657080
_symmetry_Int_Tables_number   1
_chemical_formula_structural   Rb8Li4Ho3InSb8
_chemical_formula_sum   'Rb8 Li4 Ho3 In1 Sb8'
_cell_volume   882.26030563
_cell_formula_units_Z   1
loop_
 _symmetry_equiv_pos_site_id
 _symmetry_equiv_pos_as_xyz
  1  'x, y, z'
loop_
 _atom_site_type_symbol
 _atom_site_label
 _atom_site_symmetry_multiplicity
 _atom_site_fract_x
 _atom_site_fract_y
 _atom_site_fract_z
 _atom_site_occupancy
  Rb  Rb0  1  0.571578  0.928369  0.747455  1
  Rb  Rb1  1  0.928369  0.571578  0.252545  1
  Rb  Rb2  1  0.428936  0.077878  0.255089  1
  Rb  Rb3  1  0.077878  0.428936  0.744911  1
  Rb  Rb4  1  0.670308  0.323951  0.772868  1
  Rb  Rb5  1  0.824840  0.175080  0.278841  1
  Rb  Rb6  1  0.323951  0.670308  0.227132  1
  Rb  Rb7  1  0.175080  0.824840  0.721159  1
  Li  Li8  1  0.618780  0.618780  0.000000  1
  Li  Li9  1  0.878638  0.878638  0.500000  1
  Li  Li10  1  0.378934  0.378934  0.000000  1
  Li  Li11  1  0.123473  0.123473  0.500000  1
  Ho  Ho12  1  0.869004  0.869004  0.000000  1
  Ho  Ho13  1  0.625348  0.625348  0.500000  1
  Ho  Ho14  1  0.131369  0.131369  0.000000  1
  In  In15  1  0.373259  0.373259  0.500000  1
  Sb  Sb16  1  0.348745  0.157588  0.745527  1
  Sb  Sb17  1  0.157588  0.348745  0.254473  1
  Sb  Sb18  1  0.651808  0.844913  0.249365  1
  Sb  Sb19  1  0.844913  0.651808  0.750635  1
  Sb  Sb20  1  0.905306  0.096531  0.761230  1
  Sb  Sb21  1  0.593048  0.402315  0.261268  1
  Sb  Sb22  1  0.096531  0.905306  0.238770  1
  Sb  Sb23  1  0.402315  0.593048  0.738732  1
