# generated using pymatgen
data_La2NdHo(Mo2O7)2
_symmetry_space_group_name_H-M   'P 1'
_cell_length_a   7.49213653
_cell_length_b   7.52081358
_cell_length_c   7.51521985
_cell_angle_alpha   119.82456960
_cell_angle_beta   120.07925386
_cell_angle_gamma   89.98025814
_symmetry_Int_Tables_number   1
_chemical_formula_structural   La2NdHo(Mo2O7)2
_chemical_formula_sum   'La2 Nd1 Ho1 Mo4 O14'
_cell_volume   299.91590090
_cell_formula_units_Z   1
loop_
 _symmetry_equiv_pos_site_id
 _symmetry_equiv_pos_as_xyz
  1  'x, y, z'
loop_
 _atom_site_type_symbol
 _atom_site_label
 _atom_site_symmetry_multiplicity
 _atom_site_fract_x
 _atom_site_fract_y
 _atom_site_fract_z
 _atom_site_occupancy
  La  La0  1  0.375000  0.625000  0.250000  1
  La  La1  1  0.375000  0.125000  0.750000  1
  Nd  Nd2  1  0.375000  0.625000  0.750000  1
  Ho  Ho3  1  0.875000  0.625000  0.250000  1
  Mo  Mo4  1  0.875000  0.625000  0.750000  1
  Mo  Mo5  1  0.375000  0.125000  0.250000  1
  Mo  Mo6  1  0.875000  0.125000  0.250000  1
  Mo  Mo7  1  0.875000  0.125000  0.750000  1
  O  O8  1  0.789697  0.206662  0.003768  1
  O  O9  1  0.545418  0.463864  0.499597  1
  O  O10  1  0.206533  0.206810  0.999733  1
  O  O11  1  0.956061  0.460782  0.497339  1
  O  O12  1  0.805434  0.795075  0.579232  1
  O  O13  1  0.537066  0.030718  0.082622  1
  O  O14  1  0.235600  0.745132  0.491707  1
  O  O15  1  0.944566  0.454925  0.920768  1
  O  O16  1  0.960303  0.043338  0.496232  1
  O  O17  1  0.543467  0.043190  0.500267  1
  O  O18  1  0.212934  0.219282  0.417378  1
  O  O19  1  0.514400  0.504868  0.008293  1
  O  O20  1  0.793939  0.789218  0.002661  1
  O  O21  1  0.204582  0.786136  0.000403  1
