# generated using pymatgen
data_Tb10CuBiPPb5
_symmetry_space_group_name_H-M   'P 1'
_cell_length_a   9.25783663
_cell_length_b   9.25619928
_cell_length_c   6.67880045
_cell_angle_alpha   89.97892807
_cell_angle_beta   90.04213023
_cell_angle_gamma   120.00585171
_symmetry_Int_Tables_number   1
_chemical_formula_structural   Tb10CuBiPPb5
_chemical_formula_sum   'Tb10 Cu1 Bi1 P1 Pb5'
_cell_volume   495.61629766
_cell_formula_units_Z   1
loop_
 _symmetry_equiv_pos_site_id
 _symmetry_equiv_pos_as_xyz
  1  'x, y, z'
loop_
 _atom_site_type_symbol
 _atom_site_label
 _atom_site_symmetry_multiplicity
 _atom_site_fract_x
 _atom_site_fract_y
 _atom_site_fract_z
 _atom_site_occupancy
  Tb  Tb0  1  0.246259  0.000000  0.237980  1
  Tb  Tb1  1  0.752566  0.000000  0.761447  1
  Tb  Tb2  1  0.002874  0.248451  0.238208  1
  Tb  Tb3  1  0.999715  0.752350  0.762032  1
  Tb  Tb4  1  0.754423  0.751549  0.238208  1
  Tb  Tb5  1  0.247364  0.247650  0.762032  1
  Tb  Tb6  1  0.331968  0.665090  0.999151  1
  Tb  Tb7  1  0.666878  0.334910  0.999151  1
  Tb  Tb8  1  0.667318  0.336323  0.501125  1
  Tb  Tb9  1  0.330994  0.663677  0.501125  1
  Cu  Cu10  1  0.000790  0.000000  0.500791  1
  Bi  Bi11  1  0.607108  0.000000  0.250134  1
  P  P12  1  0.999417  0.000000  0.999716  1
  Pb  Pb13  1  0.392965  0.000000  0.749556  1
  Pb  Pb14  1  0.000072  0.605655  0.249856  1
  Pb  Pb15  1  0.998839  0.392809  0.749816  1
  Pb  Pb16  1  0.394417  0.394345  0.249856  1
  Pb  Pb17  1  0.606030  0.607191  0.749816  1
