# generated using pymatgen
data_YEr2Zr(Ga3Rh)6
_symmetry_space_group_name_H-M   'P 1'
_cell_length_a   7.55421405
_cell_length_b   7.54066347
_cell_length_c   9.46867700
_cell_angle_alpha   90.00000000
_cell_angle_beta   90.00000000
_cell_angle_gamma   119.84632941
_symmetry_Int_Tables_number   1
_chemical_formula_structural   YEr2Zr(Ga3Rh)6
_chemical_formula_sum   'Y1 Er2 Zr1 Ga18 Rh6'
_cell_volume   467.83121705
_cell_formula_units_Z   1
loop_
 _symmetry_equiv_pos_site_id
 _symmetry_equiv_pos_as_xyz
  1  'x, y, z'
loop_
 _atom_site_type_symbol
 _atom_site_label
 _atom_site_symmetry_multiplicity
 _atom_site_fract_x
 _atom_site_fract_y
 _atom_site_fract_z
 _atom_site_occupancy
  Y  Y0  1  0.004015  0.330655  0.750000  1
  Er  Er1  1  0.669460  0.997544  0.250000  1
  Er  Er2  1  0.331338  0.003664  0.750000  1
  Zr  Zr3  1  0.996636  0.668417  0.250000  1
  Ga  Ga4  1  0.123563  0.122336  0.250000  1
  Ga  Ga5  1  0.873625  0.872887  0.750000  1
  Ga  Ga6  1  0.999223  0.337232  0.082985  1
  Ga  Ga7  1  0.000833  0.666115  0.922894  1
  Ga  Ga8  1  0.000833  0.666115  0.577106  1
  Ga  Ga9  1  0.331567  0.997034  0.417311  1
  Ga  Ga10  1  0.999223  0.337232  0.417015  1
  Ga  Ga11  1  0.664963  0.999489  0.579139  1
  Ga  Ga12  1  0.664963  0.999489  0.920861  1
  Ga  Ga13  1  0.331567  0.997034  0.082689  1
  Ga  Ga14  1  0.333329  0.332634  0.564177  1
  Ga  Ga15  1  0.669791  0.667843  0.431518  1
  Ga  Ga16  1  0.669791  0.667843  0.068482  1
  Ga  Ga17  1  0.333329  0.332634  0.935823  1
  Ga  Ga18  1  0.336987  0.548945  0.250000  1
  Ga  Ga19  1  0.661243  0.452791  0.750000  1
  Ga  Ga20  1  0.551885  0.340697  0.250000  1
  Ga  Ga21  1  0.452061  0.661220  0.750000  1
  Rh  Rh22  1  0.672267  0.328808  0.001008  1
  Rh  Rh23  1  0.327951  0.672121  0.001627  1
  Rh  Rh24  1  0.327951  0.672121  0.498373  1
  Rh  Rh25  1  0.672267  0.328808  0.498992  1
  Rh  Rh26  1  0.999669  0.999144  0.001067  1
  Rh  Rh27  1  0.999669  0.999144  0.498933  1
