# generated using pymatgen
data_Sm3Sn3HgIr2
_symmetry_space_group_name_H-M   'P 1'
_cell_length_a   7.68510000
_cell_length_b   7.68509928
_cell_length_c   4.10818300
_cell_angle_alpha   90.00000000
_cell_angle_beta   90.00000000
_cell_angle_gamma   120.00000310
_symmetry_Int_Tables_number   1
_chemical_formula_structural   Sm3Sn3HgIr2
_chemical_formula_sum   'Sm3 Sn3 Hg1 Ir2'
_cell_volume   210.12581194
_cell_formula_units_Z   1
loop_
 _symmetry_equiv_pos_site_id
 _symmetry_equiv_pos_as_xyz
  1  'x, y, z'
loop_
 _atom_site_type_symbol
 _atom_site_label
 _atom_site_symmetry_multiplicity
 _atom_site_fract_x
 _atom_site_fract_y
 _atom_site_fract_z
 _atom_site_occupancy
  Sm  Sm0  1  0.605199  0.019732  0.000000  1
  Sm  Sm1  1  0.980268  0.585467  0.000000  1
  Sm  Sm2  1  0.414533  0.394801  0.000000  1
  Sn  Sn3  1  0.251940  0.009843  0.500000  1
  Sn  Sn4  1  0.990157  0.242097  0.500000  1
  Sn  Sn5  1  0.757903  0.748060  0.500000  1
  Hg  Hg6  1  0.333333  0.666667  0.500000  1
  Ir  Ir7  1  0.666667  0.333333  0.500000  1
  Ir  Ir8  1  0.000000  0.000000  0.000000  1
