# generated using pymatgen
data_YbSmZr(Si3Pd10)2
_symmetry_space_group_name_H-M   'P 1'
_cell_length_a   8.69057103
_cell_length_b   8.69052020
_cell_length_c   8.68988802
_cell_angle_alpha   60.00445809
_cell_angle_beta   59.99591508
_cell_angle_gamma   59.99779790
_symmetry_Int_Tables_number   1
_chemical_formula_structural   YbSmZr(Si3Pd10)2
_chemical_formula_sum   'Yb1 Sm1 Zr1 Si6 Pd20'
_cell_volume   464.07402487
_cell_formula_units_Z   1
loop_
 _symmetry_equiv_pos_site_id
 _symmetry_equiv_pos_as_xyz
  1  'x, y, z'
loop_
 _atom_site_type_symbol
 _atom_site_label
 _atom_site_symmetry_multiplicity
 _atom_site_fract_x
 _atom_site_fract_y
 _atom_site_fract_z
 _atom_site_occupancy
  Yb  Yb0  1  0.749994  0.750008  0.749995  1
  Sm  Sm1  1  0.249999  0.250003  0.250001  1
  Zr  Zr2  1  0.000001  0.999999  0.000007  1
  Si  Si3  1  0.731338  0.268602  0.268679  1
  Si  Si4  1  0.268665  0.731395  0.731318  1
  Si  Si5  1  0.268624  0.731376  0.268643  1
  Si  Si6  1  0.731376  0.268624  0.731360  1
  Si  Si7  1  0.268660  0.268602  0.731339  1
  Si  Si8  1  0.731338  0.731399  0.268661  1
  Pd  Pd9  1  0.384055  0.384076  0.384071  1
  Pd  Pd10  1  0.616706  0.616679  0.616673  1
  Pd  Pd11  1  0.384055  0.384056  0.847826  1
  Pd  Pd12  1  0.384077  0.847772  0.384075  1
  Pd  Pd13  1  0.616691  0.616696  0.149918  1
  Pd  Pd14  1  0.616674  0.149964  0.616681  1
  Pd  Pd15  1  0.847830  0.384065  0.384063  1
  Pd  Pd16  1  0.149913  0.616686  0.616687  1
  Pd  Pd17  1  0.342107  0.000159  0.000152  1
  Pd  Pd18  1  0.657624  0.000105  0.000117  1
  Pd  Pd19  1  0.000092  0.342178  0.657650  1
  Pd  Pd20  1  0.000174  0.657563  0.342082  1
  Pd  Pd21  1  0.000119  0.342148  0.000106  1
  Pd  Pd22  1  0.657577  0.000124  0.342162  1
  Pd  Pd23  1  0.000147  0.657580  0.000165  1
  Pd  Pd24  1  0.342167  0.000136  0.657579  1
  Pd  Pd25  1  0.000159  0.000155  0.342112  1
  Pd  Pd26  1  0.000106  0.000110  0.657607  1
  Pd  Pd27  1  0.657642  0.342178  0.000092  1
  Pd  Pd28  1  0.342091  0.657559  0.000179  1
