# generated using pymatgen
data_Eu3ErMnW3O14
_symmetry_space_group_name_H-M   'P 1'
_cell_length_a   7.52234846
_cell_length_b   7.39828224
_cell_length_c   7.52235000
_cell_angle_alpha   59.44370026
_cell_angle_beta   60.00000204
_cell_angle_gamma   59.44369956
_symmetry_Int_Tables_number   1
_chemical_formula_structural   Eu3ErMnW3O14
_chemical_formula_sum   'Eu3 Er1 Mn1 W3 O14'
_cell_volume   293.50769570
_cell_formula_units_Z   1
loop_
 _symmetry_equiv_pos_site_id
 _symmetry_equiv_pos_as_xyz
  1  'x, y, z'
loop_
 _atom_site_type_symbol
 _atom_site_label
 _atom_site_symmetry_multiplicity
 _atom_site_fract_x
 _atom_site_fract_y
 _atom_site_fract_z
 _atom_site_occupancy
  Eu  Eu0  1  0.125000  0.125000  0.625000  1
  Eu  Eu1  1  0.625000  0.125000  0.125000  1
  Eu  Eu2  1  0.125000  0.125000  0.125000  1
  Er  Er3  1  0.125000  0.625000  0.125000  1
  Mn  Mn4  1  0.625000  0.125000  0.625000  1
  W  W5  1  0.625000  0.625000  0.625000  1
  W  W6  1  0.125000  0.625000  0.625000  1
  W  W7  1  0.625000  0.625000  0.125000  1
  O  O8  1  0.297728  0.683296  0.721249  1
  O  O9  1  0.540123  0.945071  0.974683  1
  O  O10  1  0.721249  0.683296  0.297728  1
  O  O11  1  0.275317  0.304929  0.709877  1
  O  O12  1  0.003874  0.988378  0.003874  1
  O  O13  1  0.297728  0.683296  0.297728  1
  O  O14  1  0.709877  0.304929  0.709877  1
  O  O15  1  0.952272  0.566704  0.952272  1
  O  O16  1  0.528751  0.566704  0.952272  1
  O  O17  1  0.974683  0.945071  0.540123  1
  O  O18  1  0.246126  0.261622  0.246126  1
  O  O19  1  0.540123  0.945071  0.540123  1
  O  O20  1  0.709877  0.304929  0.275317  1
  O  O21  1  0.952272  0.566704  0.528751  1
