# generated using pymatgen
data_Yb3LuMn3FeB16
_symmetry_space_group_name_H-M   'P 1'
_cell_length_a   3.34726700
_cell_length_b   5.88709071
_cell_length_c   11.39353701
_cell_angle_alpha   90.00437192
_cell_angle_beta   90.00000000
_cell_angle_gamma   90.00000000
_symmetry_Int_Tables_number   1
_chemical_formula_structural   Yb3LuMn3FeB16
_chemical_formula_sum   'Yb3 Lu1 Mn3 Fe1 B16'
_cell_volume   224.51721682
_cell_formula_units_Z   1
loop_
 _symmetry_equiv_pos_site_id
 _symmetry_equiv_pos_as_xyz
  1  'x, y, z'
loop_
 _atom_site_type_symbol
 _atom_site_label
 _atom_site_symmetry_multiplicity
 _atom_site_fract_x
 _atom_site_fract_y
 _atom_site_fract_z
 _atom_site_occupancy
  Yb  Yb0  1  0.000000  0.626428  0.349253  1
  Yb  Yb1  1  0.000000  0.374416  0.650734  1
  Yb  Yb2  1  0.000000  0.125928  0.151267  1
  Lu  Lu3  1  0.000000  0.873747  0.848581  1
  Mn  Mn4  1  0.000000  0.623788  0.078697  1
  Mn  Mn5  1  0.000000  0.377242  0.918251  1
  Mn  Mn6  1  0.000000  0.128326  0.417604  1
  Fe  Fe7  1  0.000000  0.873237  0.584876  1
  B  B8  1  0.500000  0.779781  0.182577  1
  B  B9  1  0.500000  0.218049  0.816611  1
  B  B10  1  0.500000  0.281468  0.316485  1
  B  B11  1  0.500000  0.719706  0.683534  1
  B  B12  1  0.500000  0.862641  0.031383  1
  B  B13  1  0.500000  0.137367  0.966906  1
  B  B14  1  0.500000  0.362865  0.468756  1
  B  B15  1  0.500000  0.638189  0.533264  1
  B  B16  1  0.500000  0.885480  0.455114  1
  B  B17  1  0.500000  0.110804  0.548616  1
  B  B18  1  0.500000  0.386861  0.045747  1
  B  B19  1  0.500000  0.613316  0.951826  1
  B  B20  1  0.500000  0.974760  0.309340  1
  B  B21  1  0.500000  0.023446  0.691937  1
  B  B22  1  0.500000  0.477094  0.190173  1
  B  B23  1  0.500000  0.525060  0.808463  1
