# generated using pymatgen
data_Tb2Nd(Ir2Rh)3
_symmetry_space_group_name_H-M   'P 1'
_cell_length_a   5.33293300
_cell_length_b   5.33853283
_cell_length_c   17.49942961
_cell_angle_alpha   90.02622091
_cell_angle_beta   90.00000000
_cell_angle_gamma   119.96531343
_symmetry_Int_Tables_number   1
_chemical_formula_structural   Tb2Nd(Ir2Rh)3
_chemical_formula_sum   'Tb4 Nd2 Ir12 Rh6'
_cell_volume   431.61268510
_cell_formula_units_Z   2
loop_
 _symmetry_equiv_pos_site_id
 _symmetry_equiv_pos_as_xyz
  1  'x, y, z'
loop_
 _atom_site_type_symbol
 _atom_site_label
 _atom_site_symmetry_multiplicity
 _atom_site_fract_x
 _atom_site_fract_y
 _atom_site_fract_z
 _atom_site_occupancy
  Tb  Tb0  1  0.333352  0.666706  0.541294  1
  Tb  Tb1  1  0.666646  0.333291  0.040501  1
  Tb  Tb2  1  0.666152  0.332303  0.458857  1
  Tb  Tb3  1  0.333401  0.666802  0.959463  1
  Nd  Nd4  1  0.333404  0.666810  0.750470  1
  Nd  Nd5  1  0.666675  0.333350  0.249211  1
  Ir  Ir6  1  0.167372  0.334742  0.125870  1
  Ir  Ir7  1  0.832534  0.665068  0.625478  1
  Ir  Ir8  1  0.664451  0.832346  0.125376  1
  Ir  Ir9  1  0.167897  0.832346  0.125376  1
  Ir  Ir10  1  0.832750  0.168025  0.625671  1
  Ir  Ir11  1  0.335274  0.168025  0.625671  1
  Ir  Ir12  1  0.832356  0.664714  0.874714  1
  Ir  Ir13  1  0.832071  0.167311  0.874579  1
  Ir  Ir14  1  0.335239  0.167311  0.874579  1
  Ir  Ir15  1  0.665822  0.834575  0.374203  1
  Ir  Ir16  1  0.168754  0.834575  0.374203  1
  Ir  Ir17  1  0.000383  0.000766  0.999939  1
  Rh  Rh18  1  0.168124  0.336246  0.374743  1
  Rh  Rh19  1  0.999022  0.998045  0.250080  1
  Rh  Rh20  1  0.000006  0.000011  0.749875  1
  Rh  Rh21  1  0.333435  0.666871  0.250503  1
  Rh  Rh22  1  0.666771  0.333541  0.749519  1
  Rh  Rh23  1  0.998110  0.996221  0.499824  1
