# generated using pymatgen
data_Tb(YbBi)3
_symmetry_space_group_name_H-M   'P 1'
_cell_length_a   8.29790181
_cell_length_b   8.29790141
_cell_length_c   8.37642013
_cell_angle_alpha   109.54948514
_cell_angle_beta   109.54948737
_cell_angle_gamma   109.07337583
_symmetry_Int_Tables_number   1
_chemical_formula_structural   Tb(YbBi)3
_chemical_formula_sum   'Tb2 Yb6 Bi6'
_cell_volume   445.29960142
_cell_formula_units_Z   2
loop_
 _symmetry_equiv_pos_site_id
 _symmetry_equiv_pos_as_xyz
  1  'x, y, z'
loop_
 _atom_site_type_symbol
 _atom_site_label
 _atom_site_symmetry_multiplicity
 _atom_site_fract_x
 _atom_site_fract_y
 _atom_site_fract_z
 _atom_site_occupancy
  Tb  Tb0  1  0.999428  0.856095  0.499444  1
  Tb  Tb1  1  0.356095  0.499428  0.999444  1
  Yb  Yb2  1  0.500072  0.002312  0.354570  1
  Yb  Yb3  1  0.502312  0.000072  0.854570  1
  Yb  Yb4  1  0.645741  0.644994  0.647864  1
  Yb  Yb5  1  0.997528  0.354133  0.497811  1
  Yb  Yb6  1  0.144994  0.145741  0.147864  1
  Yb  Yb7  1  0.854133  0.497528  0.997811  1
  Bi  Bi8  1  0.126697  0.748314  0.871595  1
  Bi  Bi9  1  0.881935  0.124851  0.750833  1
  Bi  Bi10  1  0.624851  0.381935  0.250833  1
  Bi  Bi11  1  0.370031  0.247868  0.627883  1
  Bi  Bi12  1  0.747868  0.870031  0.127883  1
  Bi  Bi13  1  0.248314  0.626697  0.371595  1
