# generated using pymatgen
data_CeSm3Dy4(ReB6)4
_symmetry_space_group_name_H-M   'P 1'
_cell_length_a   3.72196700
_cell_length_b   9.22618756
_cell_length_c   11.64027406
_cell_angle_alpha   90.05604048
_cell_angle_beta   90.00000000
_cell_angle_gamma   90.00000000
_symmetry_Int_Tables_number   1
_chemical_formula_structural   CeSm3Dy4(ReB6)4
_chemical_formula_sum   'Ce1 Sm3 Dy4 Re4 B24'
_cell_volume   399.72176387
_cell_formula_units_Z   1
loop_
 _symmetry_equiv_pos_site_id
 _symmetry_equiv_pos_as_xyz
  1  'x, y, z'
loop_
 _atom_site_type_symbol
 _atom_site_label
 _atom_site_symmetry_multiplicity
 _atom_site_fract_x
 _atom_site_fract_y
 _atom_site_fract_z
 _atom_site_occupancy
  Ce  Ce0  1  0.000000  0.323189  0.414077  1
  Sm  Sm1  1  0.000000  0.677540  0.586357  1
  Sm  Sm2  1  0.000000  0.822921  0.085678  1
  Sm  Sm3  1  0.000000  0.176642  0.913862  1
  Dy  Dy4  1  0.000000  0.942315  0.369655  1
  Dy  Dy5  1  0.000000  0.057299  0.630503  1
  Dy  Dy6  1  0.000000  0.442551  0.129870  1
  Dy  Dy7  1  0.000000  0.557486  0.869533  1
  Re  Re8  1  0.000000  0.636995  0.320671  1
  Re  Re9  1  0.000000  0.361617  0.678334  1
  Re  Re10  1  0.000000  0.139814  0.181257  1
  Re  Re11  1  0.000000  0.861390  0.820214  1
  B  B12  1  0.500000  0.553143  0.431318  1
  B  B13  1  0.500000  0.445358  0.567914  1
  B  B14  1  0.500000  0.054091  0.068432  1
  B  B15  1  0.500000  0.946315  0.931830  1
  B  B16  1  0.500000  0.748869  0.416842  1
  B  B17  1  0.500000  0.251428  0.582536  1
  B  B18  1  0.500000  0.248662  0.082878  1
  B  B19  1  0.500000  0.751106  0.917076  1
  B  B20  1  0.500000  0.790719  0.266145  1
  B  B21  1  0.500000  0.209379  0.734055  1
  B  B22  1  0.500000  0.290907  0.234430  1
  B  B23  1  0.500000  0.709082  0.765953  1
  B  B24  1  0.500000  0.630102  0.186090  1
  B  B25  1  0.500000  0.370254  0.813651  1
  B  B26  1  0.500000  0.130787  0.314118  1
  B  B27  1  0.500000  0.870013  0.686358  1
  B  B28  1  0.500000  0.983584  0.212502  1
  B  B29  1  0.500000  0.016678  0.787566  1
  B  B30  1  0.500000  0.483124  0.287690  1
  B  B31  1  0.500000  0.516637  0.712839  1
  B  B32  1  0.500000  0.598647  0.027432  1
  B  B33  1  0.500000  0.401459  0.972153  1
  B  B34  1  0.500000  0.099540  0.472211  1
  B  B35  1  0.500000  0.900360  0.527965  1
