# generated using pymatgen
data_Zr4Si8Os5Ru
_symmetry_space_group_name_H-M   'P 1'
_cell_length_a   9.96477839
_cell_length_b   9.96477845
_cell_length_c   13.44819115
_cell_angle_alpha   53.66300090
_cell_angle_beta   53.66300122
_cell_angle_gamma   31.53726680
_symmetry_Int_Tables_number   1
_chemical_formula_structural   Zr4Si8Os5Ru
_chemical_formula_sum   'Zr8 Si16 Os10 Ru2'
_cell_volume   550.37484507
_cell_formula_units_Z   2
loop_
 _symmetry_equiv_pos_site_id
 _symmetry_equiv_pos_as_xyz
  1  'x, y, z'
loop_
 _atom_site_type_symbol
 _atom_site_label
 _atom_site_symmetry_multiplicity
 _atom_site_fract_x
 _atom_site_fract_y
 _atom_site_fract_z
 _atom_site_occupancy
  Zr  Zr0  1  0.039584  0.294502  0.635713  1
  Zr  Zr1  1  0.705498  0.960416  0.864287  1
  Zr  Zr2  1  0.961251  0.705528  0.363704  1
  Zr  Zr3  1  0.294472  0.038749  0.136296  1
  Zr  Zr4  1  0.301383  0.551788  0.648316  1
  Zr  Zr5  1  0.448212  0.698617  0.851684  1
  Zr  Zr6  1  0.698262  0.447974  0.351225  1
  Zr  Zr7  1  0.552026  0.301738  0.148775  1
  Si  Si8  1  0.973887  0.252053  0.894238  1
  Si  Si9  1  0.747947  0.026113  0.605762  1
  Si  Si10  1  0.026690  0.748322  0.105423  1
  Si  Si11  1  0.251678  0.973310  0.394577  1
  Si  Si12  1  0.140945  0.388589  0.895654  1
  Si  Si13  1  0.611411  0.859055  0.604346  1
  Si  Si14  1  0.857083  0.611215  0.104779  1
  Si  Si15  1  0.388785  0.142917  0.395221  1
  Si  Si16  1  0.089031  0.572154  0.563783  1
  Si  Si17  1  0.427846  0.910969  0.936217  1
  Si  Si18  1  0.912900  0.426636  0.435322  1
  Si  Si19  1  0.573364  0.087100  0.064678  1
  Si  Si20  1  0.621316  0.378684  0.750000  1
  Si  Si21  1  0.377485  0.622515  0.250000  1
  Si  Si22  1  0.130091  0.869909  0.750000  1
  Si  Si23  1  0.869090  0.130910  0.250000  1
  Os  Os24  1  0.910161  0.130567  0.585761  1
  Os  Os25  1  0.869433  0.089839  0.914239  1
  Os  Os26  1  0.087655  0.871266  0.414792  1
  Os  Os27  1  0.128734  0.912345  0.085208  1
  Os  Os28  1  0.826798  0.647424  0.780968  1
  Os  Os29  1  0.352576  0.173202  0.719032  1
  Os  Os30  1  0.172930  0.353713  0.218584  1
  Os  Os31  1  0.646287  0.827070  0.281416  1
  Os  Os32  1  0.232854  0.517896  0.931413  1
  Os  Os33  1  0.482104  0.767146  0.568587  1
  Ru  Ru34  1  0.769999  0.479770  0.067933  1
  Ru  Ru35  1  0.520230  0.230001  0.432067  1
