# generated using pymatgen
data_Lu2ThU(AsPt)4
_symmetry_space_group_name_H-M   'P 1'
_cell_length_a   4.27909200
_cell_length_b   4.27909304
_cell_length_c   15.38882100
_cell_angle_alpha   90.00000000
_cell_angle_beta   90.00000000
_cell_angle_gamma   120.00000743
_symmetry_Int_Tables_number   1
_chemical_formula_structural   Lu2ThU(AsPt)4
_chemical_formula_sum   'Lu2 Th1 U1 As4 Pt4'
_cell_volume   244.02779767
_cell_formula_units_Z   1
loop_
 _symmetry_equiv_pos_site_id
 _symmetry_equiv_pos_as_xyz
  1  'x, y, z'
loop_
 _atom_site_type_symbol
 _atom_site_label
 _atom_site_symmetry_multiplicity
 _atom_site_fract_x
 _atom_site_fract_y
 _atom_site_fract_z
 _atom_site_occupancy
  Lu  Lu0  1  0.000000  0.000000  0.252839  1
  Lu  Lu1  1  0.000000  0.000000  0.747161  1
  Th  Th2  1  0.000000  0.000000  0.000000  1
  U  U3  1  0.000000  0.000000  0.500000  1
  As  As4  1  0.333333  0.666667  0.882338  1
  As  As5  1  0.666667  0.333333  0.117662  1
  As  As6  1  0.666667  0.333333  0.389881  1
  As  As7  1  0.333333  0.666667  0.610119  1
  Pt  Pt8  1  0.333333  0.666667  0.354986  1
  Pt  Pt9  1  0.666667  0.333333  0.645014  1
  Pt  Pt10  1  0.666667  0.333333  0.851882  1
  Pt  Pt11  1  0.333333  0.666667  0.148118  1
