# generated using pymatgen
data_Cs8SrSnI12
_symmetry_space_group_name_H-M   'P 1'
_cell_length_a   10.62317475
_cell_length_b   10.62317433
_cell_length_c   10.62317570
_cell_angle_alpha   89.13054554
_cell_angle_beta   89.13054472
_cell_angle_gamma   89.13053850
_symmetry_Int_Tables_number   1
_chemical_formula_structural   Cs8SrSnI12
_chemical_formula_sum   'Cs8 Sr1 Sn1 I12'
_cell_volume   1198.43494593
_cell_formula_units_Z   1
loop_
 _symmetry_equiv_pos_site_id
 _symmetry_equiv_pos_as_xyz
  1  'x, y, z'
loop_
 _atom_site_type_symbol
 _atom_site_label
 _atom_site_symmetry_multiplicity
 _atom_site_fract_x
 _atom_site_fract_y
 _atom_site_fract_z
 _atom_site_occupancy
  Cs  Cs0  1  0.248990  0.248990  0.248990  1
  Cs  Cs1  1  0.751010  0.751010  0.751010  1
  Cs  Cs2  1  0.870391  0.630984  0.249979  1
  Cs  Cs3  1  0.630984  0.249979  0.870391  1
  Cs  Cs4  1  0.249979  0.870391  0.630984  1
  Cs  Cs5  1  0.129609  0.369016  0.750021  1
  Cs  Cs6  1  0.369016  0.750021  0.129609  1
  Cs  Cs7  1  0.750021  0.129609  0.369016  1
  Sr  Sr8  1  0.500000  0.500000  0.500000  1
  Sn  Sn9  1  0.000000  0.000000  0.000000  1
  I  I10  1  0.201879  0.559040  0.429657  1
  I  I11  1  0.057671  0.709274  0.931740  1
  I  I12  1  0.931740  0.057671  0.709274  1
  I  I13  1  0.798121  0.440960  0.570343  1
  I  I14  1  0.709274  0.931740  0.057671  1
  I  I15  1  0.440960  0.570343  0.798121  1
  I  I16  1  0.570343  0.798121  0.440960  1
  I  I17  1  0.559040  0.429657  0.201879  1
  I  I18  1  0.068260  0.942329  0.290726  1
  I  I19  1  0.942329  0.290726  0.068260  1
  I  I20  1  0.290726  0.068260  0.942329  1
  I  I21  1  0.429657  0.201879  0.559040  1
