# generated using pymatgen
data_Ce2Nd3Ru2
_symmetry_space_group_name_H-M   'P 1'
_cell_length_a   9.13737015
_cell_length_b   9.13736994
_cell_length_c   7.14160608
_cell_angle_alpha   85.75594272
_cell_angle_beta   85.75594044
_cell_angle_gamma   41.75605949
_symmetry_Int_Tables_number   1
_chemical_formula_structural   Ce2Nd3Ru2
_chemical_formula_sum   'Ce4 Nd6 Ru4'
_cell_volume   395.84053015
_cell_formula_units_Z   2
loop_
 _symmetry_equiv_pos_site_id
 _symmetry_equiv_pos_as_xyz
  1  'x, y, z'
loop_
 _atom_site_type_symbol
 _atom_site_label
 _atom_site_symmetry_multiplicity
 _atom_site_fract_x
 _atom_site_fract_y
 _atom_site_fract_z
 _atom_site_occupancy
  Ce  Ce0  1  0.008699  0.808245  0.902628  1
  Ce  Ce1  1  0.191755  0.991301  0.597372  1
  Ce  Ce2  1  0.991301  0.191755  0.097372  1
  Ce  Ce3  1  0.808245  0.008699  0.402628  1
  Nd  Nd4  1  0.353371  0.215068  0.822090  1
  Nd  Nd5  1  0.784932  0.646629  0.677910  1
  Nd  Nd6  1  0.646629  0.784932  0.177910  1
  Nd  Nd7  1  0.215068  0.353371  0.322090  1
  Nd  Nd8  1  0.579257  0.420743  0.750000  1
  Nd  Nd9  1  0.420743  0.579257  0.250000  1
  Ru  Ru10  1  0.140976  0.643191  0.598237  1
  Ru  Ru11  1  0.356809  0.859024  0.901763  1
  Ru  Ru12  1  0.859024  0.356809  0.401763  1
  Ru  Ru13  1  0.643191  0.140976  0.098237  1
