# generated using pymatgen
data_ZrU(SbO5)2
_symmetry_space_group_name_H-M   'P 1'
_cell_length_a   5.45562662
_cell_length_b   5.45562682
_cell_length_c   7.50273663
_cell_angle_alpha   69.95983548
_cell_angle_beta   69.95983527
_cell_angle_gamma   72.77976136
_symmetry_Int_Tables_number   1
_chemical_formula_structural   ZrU(SbO5)2
_chemical_formula_sum   'Zr1 U1 Sb2 O10'
_cell_volume   193.00895545
_cell_formula_units_Z   1
loop_
 _symmetry_equiv_pos_site_id
 _symmetry_equiv_pos_as_xyz
  1  'x, y, z'
loop_
 _atom_site_type_symbol
 _atom_site_label
 _atom_site_symmetry_multiplicity
 _atom_site_fract_x
 _atom_site_fract_y
 _atom_site_fract_z
 _atom_site_occupancy
  Zr  Zr0  1  0.462115  0.537885  0.750000  1
  U  U1  1  0.531437  0.468563  0.250000  1
  Sb  Sb2  1  0.006130  0.012399  0.991983  1
  Sb  Sb3  1  0.987601  0.993870  0.508017  1
  O  O4  1  0.227523  0.271226  0.867566  1
  O  O5  1  0.769529  0.720744  0.126945  1
  O  O6  1  0.728774  0.772477  0.632434  1
  O  O7  1  0.279256  0.230471  0.373055  1
  O  O8  1  0.110156  0.889844  0.750000  1
  O  O9  1  0.904731  0.095269  0.250000  1
  O  O10  1  0.678840  0.291205  0.970465  1
  O  O11  1  0.305326  0.700212  0.042506  1
  O  O12  1  0.299788  0.694674  0.457494  1
  O  O13  1  0.708795  0.321160  0.529535  1
