# generated using pymatgen
data_La2TlPdAu
_symmetry_space_group_name_H-M   'P 1'
_cell_length_a   8.10863300
_cell_length_b   8.11616100
_cell_length_c   3.96055700
_cell_angle_alpha   90.00000000
_cell_angle_beta   90.00000000
_cell_angle_gamma   90.00000000
_symmetry_Int_Tables_number   1
_chemical_formula_structural   La2TlPdAu
_chemical_formula_sum   'La4 Tl2 Pd2 Au2'
_cell_volume   260.64810155
_cell_formula_units_Z   2
loop_
 _symmetry_equiv_pos_site_id
 _symmetry_equiv_pos_as_xyz
  1  'x, y, z'
loop_
 _atom_site_type_symbol
 _atom_site_label
 _atom_site_symmetry_multiplicity
 _atom_site_fract_x
 _atom_site_fract_y
 _atom_site_fract_z
 _atom_site_occupancy
  La  La0  1  0.326424  0.816587  0.500000  1
  La  La1  1  0.826424  0.683413  0.500000  1
  La  La2  1  0.175878  0.335480  0.500000  1
  La  La3  1  0.675878  0.164520  0.500000  1
  Tl  Tl4  1  0.997801  0.994466  0.000000  1
  Tl  Tl5  1  0.497801  0.505534  0.000000  1
  Pd  Pd6  1  0.125661  0.627994  0.000000  1
  Pd  Pd7  1  0.625661  0.872006  0.000000  1
  Au  Au8  1  0.374235  0.121737  0.000000  1
  Au  Au9  1  0.874235  0.378263  0.000000  1
