# generated using pymatgen
data_TbEr3C5
_symmetry_space_group_name_H-M   'P 1'
_cell_length_a   3.65243100
_cell_length_b   6.54062614
_cell_length_c   11.84949766
_cell_angle_alpha   90.76115510
_cell_angle_beta   90.00000000
_cell_angle_gamma   90.00000000
_symmetry_Int_Tables_number   1
_chemical_formula_structural   TbEr3C5
_chemical_formula_sum   'Tb2 Er6 C10'
_cell_volume   283.04987149
_cell_formula_units_Z   2
loop_
 _symmetry_equiv_pos_site_id
 _symmetry_equiv_pos_as_xyz
  1  'x, y, z'
loop_
 _atom_site_type_symbol
 _atom_site_label
 _atom_site_symmetry_multiplicity
 _atom_site_fract_x
 _atom_site_fract_y
 _atom_site_fract_z
 _atom_site_occupancy
  Tb  Tb0  1  0.500000  0.604861  0.698754  1
  Tb  Tb1  1  0.500000  0.395139  0.301246  1
  Er  Er2  1  0.000000  0.256377  0.542028  1
  Er  Er3  1  0.000000  0.743623  0.457972  1
  Er  Er4  1  0.000000  0.757735  0.957525  1
  Er  Er5  1  0.000000  0.242265  0.042475  1
  Er  Er6  1  0.500000  0.108732  0.804796  1
  Er  Er7  1  0.500000  0.891268  0.195204  1
  C  C8  1  0.500000  0.500000  0.500000  1
  C  C9  1  0.500000  0.000000  0.000000  1
  C  C10  1  0.000000  0.358913  0.734622  1
  C  C11  1  0.000000  0.641087  0.265378  1
  C  C12  1  0.000000  0.860607  0.763860  1
  C  C13  1  0.000000  0.139393  0.236140  1
  C  C14  1  0.000000  0.390387  0.846551  1
  C  C15  1  0.000000  0.609613  0.153449  1
  C  C16  1  0.000000  0.080289  0.343287  1
  C  C17  1  0.000000  0.919711  0.656713  1
