# generated using pymatgen
data_Tb2Dy3SiPb3
_symmetry_space_group_name_H-M   'P 1'
_cell_length_a   9.36505612
_cell_length_b   9.36505648
_cell_length_c   6.53625600
_cell_angle_alpha   90.00000000
_cell_angle_beta   90.00000000
_cell_angle_gamma   120.01832620
_symmetry_Int_Tables_number   1
_chemical_formula_structural   Tb2Dy3SiPb3
_chemical_formula_sum   'Tb4 Dy6 Si2 Pb6'
_cell_volume   496.36396034
_cell_formula_units_Z   2
loop_
 _symmetry_equiv_pos_site_id
 _symmetry_equiv_pos_as_xyz
  1  'x, y, z'
loop_
 _atom_site_type_symbol
 _atom_site_label
 _atom_site_symmetry_multiplicity
 _atom_site_fract_x
 _atom_site_fract_y
 _atom_site_fract_z
 _atom_site_occupancy
  Tb  Tb0  1  0.248814  0.000024  0.250000  1
  Tb  Tb1  1  0.999976  0.751186  0.750000  1
  Tb  Tb2  1  0.000024  0.248814  0.250000  1
  Tb  Tb3  1  0.751186  0.999976  0.750000  1
  Dy  Dy4  1  0.333366  0.666634  0.500000  1
  Dy  Dy5  1  0.666634  0.333366  0.500000  1
  Dy  Dy6  1  0.248486  0.248486  0.750000  1
  Dy  Dy7  1  0.333366  0.666634  0.000000  1
  Dy  Dy8  1  0.666634  0.333366  0.000000  1
  Dy  Dy9  1  0.751514  0.751514  0.250000  1
  Si  Si10  1  0.000000  0.000000  0.000000  1
  Si  Si11  1  0.000000  0.000000  0.500000  1
  Pb  Pb12  1  0.607803  0.999870  0.250000  1
  Pb  Pb13  1  0.392197  0.000130  0.750000  1
  Pb  Pb14  1  0.999870  0.607803  0.250000  1
  Pb  Pb15  1  0.607574  0.607574  0.750000  1
  Pb  Pb16  1  0.392426  0.392426  0.250000  1
  Pb  Pb17  1  0.000130  0.392197  0.750000  1
