# generated using pymatgen
data_Nb12Al7Ga(FeN)4
_symmetry_space_group_name_H-M   'P 1'
_cell_length_a   8.18948520
_cell_length_b   8.18937614
_cell_length_c   8.18929008
_cell_angle_alpha   59.98715746
_cell_angle_beta   59.98772583
_cell_angle_gamma   59.98753962
_symmetry_Int_Tables_number   1
_chemical_formula_structural   Nb12Al7Ga(FeN)4
_chemical_formula_sum   'Nb12 Al7 Ga1 Fe4 N4'
_cell_volume   388.25344323
_cell_formula_units_Z   1
loop_
 _symmetry_equiv_pos_site_id
 _symmetry_equiv_pos_as_xyz
  1  'x, y, z'
loop_
 _atom_site_type_symbol
 _atom_site_label
 _atom_site_symmetry_multiplicity
 _atom_site_fract_x
 _atom_site_fract_y
 _atom_site_fract_z
 _atom_site_occupancy
  Nb  Nb0  1  0.806214  0.806220  0.193863  1
  Nb  Nb1  1  0.193643  0.193637  0.806357  1
  Nb  Nb2  1  0.806216  0.193863  0.806221  1
  Nb  Nb3  1  0.193640  0.806360  0.193636  1
  Nb  Nb4  1  0.193867  0.806223  0.806221  1
  Nb  Nb5  1  0.806353  0.193638  0.193640  1
  Nb  Nb6  1  0.443623  0.443616  0.056851  1
  Nb  Nb7  1  0.056163  0.056170  0.443763  1
  Nb  Nb8  1  0.443624  0.056850  0.443619  1
  Nb  Nb9  1  0.056162  0.443764  0.056169  1
  Nb  Nb10  1  0.056844  0.443618  0.443620  1
  Nb  Nb11  1  0.443774  0.056161  0.056160  1
  Al  Al12  1  0.746240  0.417898  0.417900  1
  Al  Al13  1  0.417891  0.746238  0.417901  1
  Al  Al14  1  0.417889  0.417896  0.746236  1
  Al  Al15  1  0.418054  0.418067  0.418082  1
  Al  Al16  1  0.503648  0.831967  0.831953  1
  Al  Al17  1  0.831972  0.503651  0.831946  1
  Al  Al18  1  0.831963  0.831951  0.503653  1
  Ga  Ga19  1  0.833169  0.833164  0.833162  1
  Fe  Fe20  1  0.125744  0.624200  0.624203  1
  Fe  Fe21  1  0.624201  0.125740  0.624206  1
  Fe  Fe22  1  0.624199  0.624203  0.125739  1
  Fe  Fe23  1  0.625132  0.625130  0.625127  1
  N  N24  1  0.625007  0.124789  0.124780  1
  N  N25  1  0.124788  0.625007  0.124776  1
  N  N26  1  0.124779  0.124776  0.625008  1
  N  N27  1  0.125200  0.125204  0.125211  1
