# generated using pymatgen
data_NdDy5(Si3Os)8
_symmetry_space_group_name_H-M   'P 1'
_cell_length_a   10.14734441
_cell_length_b   10.14734445
_cell_length_c   8.18919011
_cell_angle_alpha   89.91757228
_cell_angle_beta   90.08242854
_cell_angle_gamma   132.36437091
_symmetry_Int_Tables_number   1
_chemical_formula_structural   NdDy5(Si3Os)8
_chemical_formula_sum   'Nd1 Dy5 Si24 Os8'
_cell_volume   623.03996270
_cell_formula_units_Z   1
loop_
 _symmetry_equiv_pos_site_id
 _symmetry_equiv_pos_as_xyz
  1  'x, y, z'
loop_
 _atom_site_type_symbol
 _atom_site_label
 _atom_site_symmetry_multiplicity
 _atom_site_fract_x
 _atom_site_fract_y
 _atom_site_fract_z
 _atom_site_occupancy
  Nd  Nd0  1  0.001609  0.501609  0.750000  1
  Dy  Dy1  1  0.500900  0.000900  0.750000  1
  Dy  Dy2  1  0.999119  0.499119  0.250000  1
  Dy  Dy3  1  0.499472  0.999472  0.250000  1
  Dy  Dy4  1  0.999988  0.999961  0.000183  1
  Dy  Dy5  1  0.499961  0.499988  0.499817  1
  Si  Si6  1  0.793537  0.203455  0.498416  1
  Si  Si7  1  0.703455  0.293537  0.001584  1
  Si  Si8  1  0.206743  0.796764  0.498216  1
  Si  Si9  1  0.296764  0.706743  0.001784  1
  Si  Si10  1  0.667836  0.668011  0.167092  1
  Si  Si11  1  0.168011  0.167836  0.332908  1
  Si  Si12  1  0.832196  0.832118  0.667454  1
  Si  Si13  1  0.332118  0.332196  0.832546  1
  Si  Si14  1  0.845675  0.611856  0.998151  1
  Si  Si15  1  0.111856  0.345675  0.501849  1
  Si  Si16  1  0.655953  0.888935  0.495788  1
  Si  Si17  1  0.388935  0.155953  0.004212  1
  Si  Si18  1  0.153335  0.388048  0.006576  1
  Si  Si19  1  0.888048  0.653335  0.493424  1
  Si  Si20  1  0.122941  0.888138  0.728961  1
  Si  Si21  1  0.388138  0.622941  0.771039  1
  Si  Si22  1  0.378586  0.612332  0.227342  1
  Si  Si23  1  0.112332  0.878586  0.272658  1
  Si  Si24  1  0.880148  0.113692  0.272527  1
  Si  Si25  1  0.613692  0.380148  0.227473  1
  Si  Si26  1  0.619090  0.384823  0.771766  1
  Si  Si27  1  0.884823  0.119090  0.728234  1
  Si  Si28  1  0.611307  0.844327  0.995412  1
  Si  Si29  1  0.344327  0.111307  0.504588  1
  Os  Os30  1  0.626184  0.626166  0.872499  1
  Os  Os31  1  0.126166  0.126184  0.627501  1
  Os  Os32  1  0.373297  0.373660  0.126873  1
  Os  Os33  1  0.873660  0.873297  0.373127  1
  Os  Os34  1  0.171214  0.834436  0.002769  1
  Os  Os35  1  0.334436  0.671214  0.497231  1
  Os  Os36  1  0.828633  0.165519  0.002006  1
  Os  Os37  1  0.665519  0.328633  0.497994  1
