# generated using pymatgen
data_LiHo2ErIn3Pd2
_symmetry_space_group_name_H-M   'P 1'
_cell_length_a   7.82931409
_cell_length_b   7.83139474
_cell_length_c   3.68554900
_cell_angle_alpha   90.00000000
_cell_angle_beta   90.00000000
_cell_angle_gamma   120.00879326
_symmetry_Int_Tables_number   1
_chemical_formula_structural   LiHo2ErIn3Pd2
_chemical_formula_sum   'Li1 Ho2 Er1 In3 Pd2'
_cell_volume   195.68483213
_cell_formula_units_Z   1
loop_
 _symmetry_equiv_pos_site_id
 _symmetry_equiv_pos_as_xyz
  1  'x, y, z'
loop_
 _atom_site_type_symbol
 _atom_site_label
 _atom_site_symmetry_multiplicity
 _atom_site_fract_x
 _atom_site_fract_y
 _atom_site_fract_z
 _atom_site_occupancy
  Li  Li0  1  0.000000  0.000017  0.500000  1
  Ho  Ho1  1  0.412506  0.999990  0.500000  1
  Ho  Ho2  1  0.587494  0.587485  0.500000  1
  Er  Er3  1  0.000000  0.412657  0.500000  1
  In  In4  1  0.258389  0.258491  0.000000  1
  In  In5  1  0.741611  0.000101  0.000000  1
  In  In6  1  0.000000  0.741386  0.000000  1
  Pd  Pd7  1  0.666939  0.333406  0.000000  1
  Pd  Pd8  1  0.333061  0.666468  0.000000  1
