# generated using pymatgen
data_Er5B(MoC3)2
_symmetry_space_group_name_H-M   'P 1'
_cell_length_a   8.34276606
_cell_length_b   8.34276540
_cell_length_c   3.40768400
_cell_angle_alpha   90.00000000
_cell_angle_beta   90.00000000
_cell_angle_gamma   122.12920301
_symmetry_Int_Tables_number   1
_chemical_formula_structural   Er5B(MoC3)2
_chemical_formula_sum   'Er5 B1 Mo2 C6'
_cell_volume   200.85673466
_cell_formula_units_Z   1
loop_
 _symmetry_equiv_pos_site_id
 _symmetry_equiv_pos_as_xyz
  1  'x, y, z'
loop_
 _atom_site_type_symbol
 _atom_site_label
 _atom_site_symmetry_multiplicity
 _atom_site_fract_x
 _atom_site_fract_y
 _atom_site_fract_z
 _atom_site_occupancy
  Er  Er0  1  0.500000  0.500000  0.000000  1
  Er  Er1  1  0.077933  0.328571  0.500000  1
  Er  Er2  1  0.922067  0.671429  0.500000  1
  Er  Er3  1  0.671429  0.922067  0.500000  1
  Er  Er4  1  0.328571  0.077933  0.500000  1
  B  B5  1  0.000000  0.000000  0.000000  1
  Mo  Mo6  1  0.712254  0.287746  0.000000  1
  Mo  Mo7  1  0.287746  0.712254  0.000000  1
  C  C8  1  0.625860  0.374140  0.500000  1
  C  C9  1  0.374140  0.625860  0.500000  1
  C  C10  1  0.182874  0.182874  0.000000  1
  C  C11  1  0.817126  0.817126  0.000000  1
  C  C12  1  0.000000  0.500000  0.000000  1
  C  C13  1  0.500000  0.000000  0.000000  1
