# generated using pymatgen
data_Sc4Ga2ReOs5
_symmetry_space_group_name_H-M   'P 1'
_cell_length_a   5.28384882
_cell_length_b   5.20826608
_cell_length_c   8.61826900
_cell_angle_alpha   90.00000000
_cell_angle_beta   90.00000000
_cell_angle_gamma   120.88402764
_symmetry_Int_Tables_number   1
_chemical_formula_structural   Sc4Ga2ReOs5
_chemical_formula_sum   'Sc4 Ga2 Re1 Os5'
_cell_volume   203.54299770
_cell_formula_units_Z   1
loop_
 _symmetry_equiv_pos_site_id
 _symmetry_equiv_pos_as_xyz
  1  'x, y, z'
loop_
 _atom_site_type_symbol
 _atom_site_label
 _atom_site_symmetry_multiplicity
 _atom_site_fract_x
 _atom_site_fract_y
 _atom_site_fract_z
 _atom_site_occupancy
  Sc  Sc0  1  0.326942  0.670990  0.442835  1
  Sc  Sc1  1  0.664844  0.339239  0.570290  1
  Sc  Sc2  1  0.664844  0.339239  0.929710  1
  Sc  Sc3  1  0.326942  0.670990  0.057165  1
  Ga  Ga4  1  0.349677  0.160213  0.250000  1
  Ga  Ga5  1  0.843800  0.652271  0.250000  1
  Re  Re6  1  0.163479  0.329932  0.750000  1
  Os  Os7  1  0.170918  0.820288  0.750000  1
  Os  Os8  1  0.653876  0.824221  0.750000  1
  Os  Os9  1  0.001153  0.015957  0.002752  1
  Os  Os10  1  0.832372  0.160704  0.250000  1
  Os  Os11  1  0.001153  0.015957  0.497248  1
