# generated using pymatgen
data_K16Hf3ZrSe16
_symmetry_space_group_name_H-M   'P 1'
_cell_length_a   8.52869703
_cell_length_b   10.28972600
_cell_length_c   15.06638405
_cell_angle_alpha   90.00000000
_cell_angle_beta   89.99063772
_cell_angle_gamma   90.00000000
_symmetry_Int_Tables_number   1
_chemical_formula_structural   K16Hf3ZrSe16
_chemical_formula_sum   'K16 Hf3 Zr1 Se16'
_cell_volume   1322.19504428
_cell_formula_units_Z   1
loop_
 _symmetry_equiv_pos_site_id
 _symmetry_equiv_pos_as_xyz
  1  'x, y, z'
loop_
 _atom_site_type_symbol
 _atom_site_label
 _atom_site_symmetry_multiplicity
 _atom_site_fract_x
 _atom_site_fract_y
 _atom_site_fract_z
 _atom_site_occupancy
  K  K0  1  0.999660  0.999640  0.000182  1
  K  K1  1  0.500006  0.000173  0.499992  1
  K  K2  1  0.999660  0.500360  0.000182  1
  K  K3  1  0.500006  0.499827  0.499992  1
  K  K4  1  0.983738  0.750000  0.429177  1
  K  K5  1  0.484231  0.250000  0.071159  1
  K  K6  1  0.015977  0.250000  0.570483  1
  K  K7  1  0.516729  0.750000  0.929358  1
  K  K8  1  0.846460  0.054976  0.275738  1
  K  K9  1  0.346439  0.944980  0.224209  1
  K  K10  1  0.153513  0.555297  0.724232  1
  K  K11  1  0.653447  0.445453  0.775572  1
  K  K12  1  0.153513  0.944703  0.724232  1
  K  K13  1  0.653447  0.054547  0.775572  1
  K  K14  1  0.846460  0.445024  0.275738  1
  K  K15  1  0.346439  0.555020  0.224209  1
  Hf  Hf16  1  0.753861  0.750000  0.667967  1
  Hf  Hf17  1  0.246181  0.250000  0.331904  1
  Hf  Hf18  1  0.746214  0.750000  0.168086  1
  Zr  Zr19  1  0.253693  0.250000  0.832017  1
  Se  Se20  1  0.955428  0.250000  0.824578  1
  Se  Se21  1  0.541763  0.250000  0.324150  1
  Se  Se22  1  0.458267  0.750000  0.675660  1
  Se  Se23  1  0.041766  0.750000  0.175745  1
  Se  Se24  1  0.655690  0.547123  0.090508  1
  Se  Se25  1  0.155526  0.452833  0.409508  1
  Se  Se26  1  0.344934  0.045452  0.910301  1
  Se  Se27  1  0.844588  0.952785  0.590358  1
  Se  Se28  1  0.344934  0.454548  0.910301  1
  Se  Se29  1  0.844588  0.547215  0.590358  1
  Se  Se30  1  0.655690  0.952877  0.090508  1
  Se  Se31  1  0.155526  0.047167  0.409508  1
  Se  Se32  1  0.629801  0.750000  0.323119  1
  Se  Se33  1  0.129876  0.250000  0.176837  1
  Se  Se34  1  0.371675  0.250000  0.675557  1
  Se  Se35  1  0.870276  0.750000  0.823000  1
