# generated using pymatgen
data_Sm3Dy(Ni12P5)2
_symmetry_space_group_name_H-M   'P 1'
_cell_length_a   3.65883700
_cell_length_b   10.75828031
_cell_length_c   13.13161094
_cell_angle_alpha   71.69503444
_cell_angle_beta   90.00000000
_cell_angle_gamma   90.00000000
_symmetry_Int_Tables_number   1
_chemical_formula_structural   Sm3Dy(Ni12P5)2
_chemical_formula_sum   'Sm3 Dy1 Ni24 P10'
_cell_volume   490.74101530
_cell_formula_units_Z   1
loop_
 _symmetry_equiv_pos_site_id
 _symmetry_equiv_pos_as_xyz
  1  'x, y, z'
loop_
 _atom_site_type_symbol
 _atom_site_label
 _atom_site_symmetry_multiplicity
 _atom_site_fract_x
 _atom_site_fract_y
 _atom_site_fract_z
 _atom_site_occupancy
  Sm  Sm0  1  0.750000  0.719203  0.317602  1
  Sm  Sm1  1  0.250000  0.245558  0.187278  1
  Sm  Sm2  1  0.750000  0.755654  0.812245  1
  Dy  Dy3  1  0.250000  0.280121  0.682318  1
  Ni  Ni4  1  0.250000  0.839352  0.137215  1
  Ni  Ni5  1  0.750000  0.163499  0.860391  1
  Ni  Ni6  1  0.250000  0.286622  0.440119  1
  Ni  Ni7  1  0.750000  0.711245  0.562174  1
  Ni  Ni8  1  0.250000  0.071157  0.015350  1
  Ni  Ni9  1  0.750000  0.930558  0.983899  1
  Ni  Ni10  1  0.250000  0.064176  0.446804  1
  Ni  Ni11  1  0.750000  0.935314  0.553494  1
  Ni  Ni12  1  0.250000  0.597074  0.696566  1
  Ni  Ni13  1  0.750000  0.401709  0.304363  1
  Ni  Ni14  1  0.250000  0.584203  0.006710  1
  Ni  Ni15  1  0.750000  0.416749  0.992585  1
  Ni  Ni16  1  0.250000  0.577204  0.510748  1
  Ni  Ni17  1  0.750000  0.419098  0.491558  1
  Ni  Ni18  1  0.250000  0.299053  0.916483  1
  Ni  Ni19  1  0.750000  0.701560  0.081782  1
  Ni  Ni20  1  0.250000  0.994610  0.660108  1
  Ni  Ni21  1  0.750000  0.006269  0.339639  1
  Ni  Ni22  1  0.250000  0.838643  0.438018  1
  Ni  Ni23  1  0.750000  0.161951  0.563350  1
  Ni  Ni24  1  0.250000  0.991331  0.848095  1
  Ni  Ni25  1  0.750000  0.011181  0.151138  1
  Ni  Ni26  1  0.250000  0.562715  0.203877  1
  Ni  Ni27  1  0.750000  0.434396  0.795753  1
  P  P28  1  0.250000  0.510280  0.870602  1
  P  P29  1  0.750000  0.489631  0.129636  1
  P  P30  1  0.250000  0.800918  0.982724  1
  P  P31  1  0.750000  0.200465  0.015861  1
  P  P32  1  0.250000  0.495457  0.378049  1
  P  P33  1  0.750000  0.501636  0.622707  1
  P  P34  1  0.250000  0.812228  0.611810  1
  P  P35  1  0.750000  0.186954  0.389323  1
  P  P36  1  0.250000  0.947878  0.259897  1
  P  P37  1  0.750000  0.054344  0.739731  1
