# generated using pymatgen
data_DyLu3Mg3ZnPt4
_symmetry_space_group_name_H-M   'P 1'
_cell_length_a   4.16125400
_cell_length_b   6.91402315
_cell_length_c   8.48249320
_cell_angle_alpha   88.57215077
_cell_angle_beta   90.00000000
_cell_angle_gamma   90.00000000
_symmetry_Int_Tables_number   1
_chemical_formula_structural   DyLu3Mg3ZnPt4
_chemical_formula_sum   'Dy1 Lu3 Mg3 Zn1 Pt4'
_cell_volume   243.97408859
_cell_formula_units_Z   1
loop_
 _symmetry_equiv_pos_site_id
 _symmetry_equiv_pos_as_xyz
  1  'x, y, z'
loop_
 _atom_site_type_symbol
 _atom_site_label
 _atom_site_symmetry_multiplicity
 _atom_site_fract_x
 _atom_site_fract_y
 _atom_site_fract_z
 _atom_site_occupancy
  Dy  Dy0  1  0.750000  0.450239  0.831303  1
  Lu  Lu1  1  0.250000  0.537099  0.171099  1
  Lu  Lu2  1  0.750000  0.960189  0.677738  1
  Lu  Lu3  1  0.250000  0.043766  0.320376  1
  Mg  Mg4  1  0.250000  0.636529  0.560042  1
  Mg  Mg5  1  0.750000  0.364592  0.439691  1
  Mg  Mg6  1  0.750000  0.872182  0.055118  1
  Zn  Zn7  1  0.250000  0.134400  0.942327  1
  Pt  Pt8  1  0.250000  0.750153  0.871035  1
  Pt  Pt9  1  0.750000  0.252590  0.132929  1
  Pt  Pt10  1  0.750000  0.759273  0.371547  1
  Pt  Pt11  1  0.250000  0.238988  0.626795  1
