# generated using pymatgen
data_Hf2Zr4FeBi2
_symmetry_space_group_name_H-M   'P 1'
_cell_length_a   3.67420800
_cell_length_b   7.91831753
_cell_length_c   7.92543106
_cell_angle_alpha   119.97031822
_cell_angle_beta   90.00000000
_cell_angle_gamma   90.00000000
_symmetry_Int_Tables_number   1
_chemical_formula_structural   Hf2Zr4FeBi2
_chemical_formula_sum   'Hf2 Zr4 Fe1 Bi2'
_cell_volume   199.74687475
_cell_formula_units_Z   1
loop_
 _symmetry_equiv_pos_site_id
 _symmetry_equiv_pos_as_xyz
  1  'x, y, z'
loop_
 _atom_site_type_symbol
 _atom_site_label
 _atom_site_symmetry_multiplicity
 _atom_site_fract_x
 _atom_site_fract_y
 _atom_site_fract_z
 _atom_site_occupancy
  Hf  Hf0  1  0.500000  0.767846  0.768327  1
  Hf  Hf1  1  0.500000  0.999519  0.231673  1
  Zr  Zr2  1  0.500000  0.234835  0.000000  1
  Zr  Zr3  1  0.000000  0.389104  0.389592  1
  Zr  Zr4  1  0.000000  0.999513  0.610408  1
  Zr  Zr5  1  0.000000  0.612386  0.000000  1
  Fe  Fe6  1  0.000000  0.996663  0.000000  1
  Bi  Bi7  1  0.500000  0.666985  0.333836  1
  Bi  Bi8  1  0.500000  0.333147  0.666164  1
