# generated using pymatgen
data_Nd5Te2I(ClO5)2
_symmetry_space_group_name_H-M   'P 1'
_cell_length_a   5.72854900
_cell_length_b   6.98747236
_cell_length_c   10.97712224
_cell_angle_alpha   91.31374801
_cell_angle_beta   90.00000000
_cell_angle_gamma   114.19954268
_symmetry_Int_Tables_number   1
_chemical_formula_structural   Nd5Te2I(ClO5)2
_chemical_formula_sum   'Nd5 Te2 I1 Cl2 O10'
_cell_volume   400.65409480
_cell_formula_units_Z   1
loop_
 _symmetry_equiv_pos_site_id
 _symmetry_equiv_pos_as_xyz
  1  'x, y, z'
loop_
 _atom_site_type_symbol
 _atom_site_label
 _atom_site_symmetry_multiplicity
 _atom_site_fract_x
 _atom_site_fract_y
 _atom_site_fract_z
 _atom_site_occupancy
  Nd  Nd0  1  0.000000  0.000000  0.000000  1
  Nd  Nd1  1  0.291864  0.583729  0.098766  1
  Nd  Nd2  1  0.605358  0.210717  0.214238  1
  Nd  Nd3  1  0.394641  0.789282  0.785761  1
  Nd  Nd4  1  0.708136  0.416272  0.901234  1
  Te  Te5  1  0.920637  0.841276  0.309166  1
  Te  Te6  1  0.079363  0.158725  0.690835  1
  I  I7  1  0.500000  0.000001  0.500000  1
  Cl  Cl8  1  0.161635  0.323270  0.325013  1
  Cl  Cl9  1  0.838364  0.676729  0.674987  1
  O  O10  1  0.401172  0.293390  0.053636  1
  O  O11  1  0.892217  0.293390  0.053636  1
  O  O12  1  0.190819  0.898508  0.191246  1
  O  O13  1  0.707689  0.898508  0.191246  1
  O  O14  1  0.776983  0.553966  0.273442  1
  O  O15  1  0.223017  0.446035  0.726558  1
  O  O16  1  0.292313  0.101493  0.808754  1
  O  O17  1  0.809181  0.101493  0.808754  1
  O  O18  1  0.107784  0.706610  0.946364  1
  O  O19  1  0.598827  0.706610  0.946364  1
