# generated using pymatgen
data_Li8Y7HoSn3Sb5
_symmetry_space_group_name_H-M   'P 1'
_cell_length_a   9.39734997
_cell_length_b   9.39898710
_cell_length_c   7.17030303
_cell_angle_alpha   89.99999888
_cell_angle_beta   89.91333762
_cell_angle_gamma   120.00576848
_symmetry_Int_Tables_number   1
_chemical_formula_structural   Li8Y7HoSn3Sb5
_chemical_formula_sum   'Li8 Y7 Ho1 Sn3 Sb5'
_cell_volume   548.43945004
_cell_formula_units_Z   1
loop_
 _symmetry_equiv_pos_site_id
 _symmetry_equiv_pos_as_xyz
  1  'x, y, z'
loop_
 _atom_site_type_symbol
 _atom_site_label
 _atom_site_symmetry_multiplicity
 _atom_site_fract_x
 _atom_site_fract_y
 _atom_site_fract_z
 _atom_site_occupancy
  Li  Li0  1  0.168122  0.334441  0.281778  1
  Li  Li1  1  0.168122  0.833682  0.281778  1
  Li  Li2  1  0.664749  0.832375  0.282901  1
  Li  Li3  1  0.832398  0.665375  0.783202  1
  Li  Li4  1  0.832398  0.167023  0.783202  1
  Li  Li5  1  0.334839  0.167418  0.782495  1
  Li  Li6  1  0.333619  0.666810  0.677568  1
  Li  Li7  1  0.665589  0.332794  0.178447  1
  Y  Y8  1  0.510340  0.023781  0.491950  1
  Y  Y9  1  0.510340  0.486557  0.491950  1
  Y  Y10  1  0.978154  0.489077  0.492172  1
  Y  Y11  1  0.487322  0.978118  0.993721  1
  Y  Y12  1  0.487322  0.509205  0.993721  1
  Y  Y13  1  0.021958  0.510980  0.993235  1
  Y  Y14  1  0.002184  0.001092  0.501563  1
  Ho  Ho15  1  0.002457  0.001229  0.003886  1
  Sn  Sn16  1  0.332243  0.166121  0.233150  1
  Sn  Sn17  1  0.332798  0.666400  0.259714  1
  Sn  Sn18  1  0.667472  0.333736  0.759554  1
  Sb  Sb19  1  0.165804  0.332553  0.735922  1
  Sb  Sb20  1  0.165804  0.833252  0.735922  1
  Sb  Sb21  1  0.667542  0.833771  0.735728  1
  Sb  Sb22  1  0.834212  0.667840  0.234207  1
  Sb  Sb23  1  0.834212  0.166371  0.234207  1
