# generated using pymatgen
data_CeDy3(MoN2)4
_symmetry_space_group_name_H-M   'P 1'
_cell_length_a   3.22972300
_cell_length_b   5.72190657
_cell_length_c   10.66613530
_cell_angle_alpha   89.64445392
_cell_angle_beta   90.00000000
_cell_angle_gamma   90.00000000
_symmetry_Int_Tables_number   1
_chemical_formula_structural   CeDy3(MoN2)4
_chemical_formula_sum   'Ce1 Dy3 Mo4 N8'
_cell_volume   197.10823293
_cell_formula_units_Z   1
loop_
 _symmetry_equiv_pos_site_id
 _symmetry_equiv_pos_as_xyz
  1  'x, y, z'
loop_
 _atom_site_type_symbol
 _atom_site_label
 _atom_site_symmetry_multiplicity
 _atom_site_fract_x
 _atom_site_fract_y
 _atom_site_fract_z
 _atom_site_occupancy
  Ce  Ce0  1  0.250000  0.076151  0.853927  1
  Dy  Dy1  1  0.250000  0.577159  0.644222  1
  Dy  Dy2  1  0.750000  0.921778  0.149363  1
  Dy  Dy3  1  0.750000  0.421357  0.352836  1
  Mo  Mo4  1  0.250000  0.434621  0.094733  1
  Mo  Mo5  1  0.250000  0.934041  0.406621  1
  Mo  Mo6  1  0.750000  0.569908  0.905702  1
  Mo  Mo7  1  0.750000  0.064932  0.590420  1
  N  N8  1  0.250000  0.164442  0.248902  1
  N  N9  1  0.250000  0.665244  0.251167  1
  N  N10  1  0.750000  0.833869  0.750576  1
  N  N11  1  0.750000  0.333727  0.748548  1
  N  N12  1  0.250000  0.756084  0.994266  1
  N  N13  1  0.250000  0.257252  0.505810  1
  N  N14  1  0.750000  0.247951  0.009618  1
  N  N15  1  0.750000  0.741483  0.493286  1
