# generated using pymatgen
data_TbSmReB6
_symmetry_space_group_name_H-M   'P 1'
_cell_length_a   3.72410100
_cell_length_b   9.24348500
_cell_length_c   11.66744800
_cell_angle_alpha   90.00000000
_cell_angle_beta   90.00000000
_cell_angle_gamma   90.00000000
_symmetry_Int_Tables_number   1
_chemical_formula_structural   TbSmReB6
_chemical_formula_sum   'Tb4 Sm4 Re4 B24'
_cell_volume   401.63639990
_cell_formula_units_Z   4
loop_
 _symmetry_equiv_pos_site_id
 _symmetry_equiv_pos_as_xyz
  1  'x, y, z'
loop_
 _atom_site_type_symbol
 _atom_site_label
 _atom_site_symmetry_multiplicity
 _atom_site_fract_x
 _atom_site_fract_y
 _atom_site_fract_z
 _atom_site_occupancy
  Tb  Tb0  1  0.000000  0.943282  0.369774  1
  Tb  Tb1  1  0.000000  0.056718  0.630226  1
  Tb  Tb2  1  0.000000  0.443282  0.130226  1
  Tb  Tb3  1  0.000000  0.556718  0.869774  1
  Sm  Sm4  1  0.000000  0.323558  0.413902  1
  Sm  Sm5  1  0.000000  0.676442  0.586098  1
  Sm  Sm6  1  0.000000  0.823558  0.086098  1
  Sm  Sm7  1  0.000000  0.176442  0.913902  1
  Re  Re8  1  0.000000  0.639216  0.320208  1
  Re  Re9  1  0.000000  0.360784  0.679792  1
  Re  Re10  1  0.000000  0.139216  0.179792  1
  Re  Re11  1  0.000000  0.860784  0.820208  1
  B  B12  1  0.500000  0.554283  0.431627  1
  B  B13  1  0.500000  0.445717  0.568373  1
  B  B14  1  0.500000  0.054283  0.068373  1
  B  B15  1  0.500000  0.945717  0.931627  1
  B  B16  1  0.500000  0.748740  0.417235  1
  B  B17  1  0.500000  0.251260  0.582765  1
  B  B18  1  0.500000  0.248740  0.082765  1
  B  B19  1  0.500000  0.751260  0.917235  1
  B  B20  1  0.500000  0.791474  0.266331  1
  B  B21  1  0.500000  0.208526  0.733669  1
  B  B22  1  0.500000  0.291474  0.233669  1
  B  B23  1  0.500000  0.708526  0.766331  1
  B  B24  1  0.500000  0.630875  0.186680  1
  B  B25  1  0.500000  0.369125  0.813320  1
  B  B26  1  0.500000  0.130875  0.313320  1
  B  B27  1  0.500000  0.869125  0.686680  1
  B  B28  1  0.500000  0.984112  0.212354  1
  B  B29  1  0.500000  0.015888  0.787646  1
  B  B30  1  0.500000  0.484112  0.287646  1
  B  B31  1  0.500000  0.515888  0.712354  1
  B  B32  1  0.500000  0.599061  0.027635  1
  B  B33  1  0.500000  0.400939  0.972365  1
  B  B34  1  0.500000  0.099061  0.472365  1
  B  B35  1  0.500000  0.900939  0.527635  1
