# generated using pymatgen
data_Pr2YHo(Zn5Sn)2
_symmetry_space_group_name_H-M   'P 1'
_cell_length_a   8.48383720
_cell_length_b   8.48383799
_cell_length_c   9.03618700
_cell_angle_alpha   90.00000000
_cell_angle_beta   90.00000000
_cell_angle_gamma   149.68508677
_symmetry_Int_Tables_number   1
_chemical_formula_structural   Pr2YHo(Zn5Sn)2
_chemical_formula_sum   'Pr2 Y1 Ho1 Zn10 Sn2'
_cell_volume   328.28288349
_cell_formula_units_Z   1
loop_
 _symmetry_equiv_pos_site_id
 _symmetry_equiv_pos_as_xyz
  1  'x, y, z'
loop_
 _atom_site_type_symbol
 _atom_site_label
 _atom_site_symmetry_multiplicity
 _atom_site_fract_x
 _atom_site_fract_y
 _atom_site_fract_z
 _atom_site_occupancy
  Pr  Pr0  1  0.999894  0.000106  0.500188  1
  Pr  Pr1  1  0.999894  0.000106  0.999812  1
  Y  Y2  1  0.204643  0.795357  0.250000  1
  Ho  Ho3  1  0.795043  0.204957  0.750000  1
  Zn  Zn4  1  0.812358  0.187642  0.390667  1
  Zn  Zn5  1  0.187920  0.812080  0.610010  1
  Zn  Zn6  1  0.812358  0.187642  0.109333  1
  Zn  Zn7  1  0.187920  0.812080  0.889990  1
  Zn  Zn8  1  0.658283  0.341717  0.482828  1
  Zn  Zn9  1  0.341703  0.658297  0.517833  1
  Zn  Zn10  1  0.658283  0.341717  0.017172  1
  Zn  Zn11  1  0.341703  0.658297  0.982167  1
  Zn  Zn12  1  0.393883  0.606117  0.250000  1
  Zn  Zn13  1  0.606319  0.393681  0.750000  1
  Sn  Sn14  1  0.556927  0.443073  0.250000  1
  Sn  Sn15  1  0.442869  0.557131  0.750000  1
