# generated using pymatgen
data_Tb8Si16RuW11
_symmetry_space_group_name_H-M   'P 1'
_cell_length_a   6.89440482
_cell_length_b   6.89440588
_cell_length_c   12.80080545
_cell_angle_alpha   90.05293884
_cell_angle_beta   89.94706131
_cell_angle_gamma   89.77518275
_symmetry_Int_Tables_number   1
_chemical_formula_structural   Tb8Si16RuW11
_chemical_formula_sum   'Tb8 Si16 Ru1 W11'
_cell_volume   608.45324204
_cell_formula_units_Z   1
loop_
 _symmetry_equiv_pos_site_id
 _symmetry_equiv_pos_as_xyz
  1  'x, y, z'
loop_
 _atom_site_type_symbol
 _atom_site_label
 _atom_site_symmetry_multiplicity
 _atom_site_fract_x
 _atom_site_fract_y
 _atom_site_fract_z
 _atom_site_occupancy
  Tb  Tb0  1  0.337576  0.999548  0.468829  1
  Tb  Tb1  1  0.500232  0.838385  0.719610  1
  Tb  Tb2  1  0.499874  0.161414  0.218152  1
  Tb  Tb3  1  0.838385  0.500232  0.280390  1
  Tb  Tb4  1  0.161414  0.499874  0.781848  1
  Tb  Tb5  1  0.660843  0.002899  0.968328  1
  Tb  Tb6  1  0.999548  0.337576  0.531171  1
  Tb  Tb7  1  0.002899  0.660843  0.031672  1
  Si  Si8  1  0.202223  0.126921  0.685703  1
  Si  Si9  1  0.378062  0.698141  0.935823  1
  Si  Si10  1  0.626400  0.300113  0.433988  1
  Si  Si11  1  0.698141  0.378062  0.064177  1
  Si  Si12  1  0.300113  0.626400  0.566012  1
  Si  Si13  1  0.799582  0.873214  0.183498  1
  Si  Si14  1  0.126921  0.202223  0.314297  1
  Si  Si15  1  0.873214  0.799582  0.816502  1
  Si  Si16  1  0.283945  0.963245  0.062633  1
  Si  Si17  1  0.538022  0.789487  0.314359  1
  Si  Si18  1  0.459980  0.213083  0.816796  1
  Si  Si19  1  0.789487  0.538022  0.685641  1
  Si  Si20  1  0.213083  0.459980  0.183204  1
  Si  Si21  1  0.711900  0.037060  0.563792  1
  Si  Si22  1  0.963245  0.283945  0.937367  1
  Si  Si23  1  0.037060  0.711900  0.436208  1
  Ru  Ru24  1  0.330476  0.330476  0.000000  1
  W  W25  1  0.166693  0.831895  0.250315  1
  W  W26  1  0.831895  0.166693  0.749685  1
  W  W27  1  0.668901  0.668901  0.500000  1
  W  W28  1  0.164859  0.993255  0.873765  1
  W  W29  1  0.500240  0.666193  0.125191  1
  W  W30  1  0.501379  0.335399  0.625281  1
  W  W31  1  0.666193  0.500240  0.874809  1
  W  W32  1  0.335399  0.501379  0.374719  1
  W  W33  1  0.837929  0.000632  0.373185  1
  W  W34  1  0.993255  0.164859  0.126235  1
  W  W35  1  0.000632  0.837929  0.626815  1
