# generated using pymatgen
data_Hf4AlV4As3
_symmetry_space_group_name_H-M   'P 1'
_cell_length_a   3.53273700
_cell_length_b   6.87336692
_cell_length_c   8.20067102
_cell_angle_alpha   89.68728960
_cell_angle_beta   90.00000000
_cell_angle_gamma   90.00000000
_symmetry_Int_Tables_number   1
_chemical_formula_structural   Hf4AlV4As3
_chemical_formula_sum   'Hf4 Al1 V4 As3'
_cell_volume   199.12406839
_cell_formula_units_Z   1
loop_
 _symmetry_equiv_pos_site_id
 _symmetry_equiv_pos_as_xyz
  1  'x, y, z'
loop_
 _atom_site_type_symbol
 _atom_site_label
 _atom_site_symmetry_multiplicity
 _atom_site_fract_x
 _atom_site_fract_y
 _atom_site_fract_z
 _atom_site_occupancy
  Hf  Hf0  1  0.250000  0.044705  0.831365  1
  Hf  Hf1  1  0.250000  0.546609  0.666925  1
  Hf  Hf2  1  0.750000  0.955567  0.162867  1
  Hf  Hf3  1  0.750000  0.449766  0.333472  1
  Al  Al4  1  0.250000  0.757064  0.362979  1
  V  V5  1  0.250000  0.126838  0.443100  1
  V  V6  1  0.250000  0.622617  0.055623  1
  V  V7  1  0.750000  0.880375  0.562634  1
  V  V8  1  0.750000  0.371408  0.940813  1
  As  As9  1  0.250000  0.257083  0.139074  1
  As  As10  1  0.750000  0.246733  0.639101  1
  As  As11  1  0.750000  0.741235  0.862046  1
