# generated using pymatgen
data_Li2UTc4Sn11
_symmetry_space_group_name_H-M   'P 1'
_cell_length_a   6.64790190
_cell_length_b   6.64790190
_cell_length_c   8.71842000
_cell_angle_alpha   90.00000000
_cell_angle_beta   90.00000000
_cell_angle_gamma   88.47342383
_symmetry_Int_Tables_number   1
_chemical_formula_structural   Li2UTc4Sn11
_chemical_formula_sum   'Li2 U1 Tc4 Sn11'
_cell_volume   385.17032698
_cell_formula_units_Z   1
loop_
 _symmetry_equiv_pos_site_id
 _symmetry_equiv_pos_as_xyz
  1  'x, y, z'
loop_
 _atom_site_type_symbol
 _atom_site_label
 _atom_site_symmetry_multiplicity
 _atom_site_fract_x
 _atom_site_fract_y
 _atom_site_fract_z
 _atom_site_occupancy
  Li  Li0  1  0.001958  0.995547  0.500000  1
  Li  Li1  1  0.495547  0.501958  0.500000  1
  U  U2  1  0.792795  0.292795  0.000000  1
  Tc  Tc3  1  0.518776  0.498556  0.161298  1
  Tc  Tc4  1  0.518776  0.498556  0.838702  1
  Tc  Tc5  1  0.998556  0.018776  0.161298  1
  Tc  Tc6  1  0.998556  0.018776  0.838702  1
  Sn  Sn7  1  0.657531  0.157531  0.328843  1
  Sn  Sn8  1  0.343056  0.843056  0.319649  1
  Sn  Sn9  1  0.165184  0.343299  0.685686  1
  Sn  Sn10  1  0.165184  0.343299  0.314314  1
  Sn  Sn11  1  0.343056  0.843056  0.680351  1
  Sn  Sn12  1  0.665479  0.833346  0.000000  1
  Sn  Sn13  1  0.158071  0.658071  0.000000  1
  Sn  Sn14  1  0.333346  0.165479  0.000000  1
  Sn  Sn15  1  0.657531  0.157531  0.671157  1
  Sn  Sn16  1  0.843299  0.665184  0.314314  1
  Sn  Sn17  1  0.843299  0.665184  0.685686  1
