# generated using pymatgen
data_CaY4Er(Si3Ru)8
_symmetry_space_group_name_H-M   'P 1'
_cell_length_a   10.13156880
_cell_length_b   10.13214860
_cell_length_c   8.13977216
_cell_angle_alpha   89.91159984
_cell_angle_beta   90.08161231
_cell_angle_gamma   132.62785405
_symmetry_Int_Tables_number   1
_chemical_formula_structural   CaY4Er(Si3Ru)8
_chemical_formula_sum   'Ca1 Y4 Er1 Si24 Ru8'
_cell_volume   614.79564516
_cell_formula_units_Z   1
loop_
 _symmetry_equiv_pos_site_id
 _symmetry_equiv_pos_as_xyz
  1  'x, y, z'
loop_
 _atom_site_type_symbol
 _atom_site_label
 _atom_site_symmetry_multiplicity
 _atom_site_fract_x
 _atom_site_fract_y
 _atom_site_fract_z
 _atom_site_occupancy
  Ca  Ca0  1  0.498157  0.998159  0.249977  1
  Y  Y1  1  0.001373  0.501358  0.750010  1
  Y  Y2  1  0.502742  0.002726  0.750029  1
  Y  Y3  1  0.997265  0.497291  0.249996  1
  Y  Y4  1  0.499813  0.499698  0.499550  1
  Er  Er5  1  0.999704  0.999788  0.000486  1
  Si  Si6  1  0.388357  0.155279  0.002627  1
  Si  Si7  1  0.655362  0.888572  0.497460  1
  Si  Si8  1  0.111581  0.344502  0.505186  1
  Si  Si9  1  0.844579  0.611807  0.994792  1
  Si  Si10  1  0.612053  0.845558  0.993418  1
  Si  Si11  1  0.345481  0.111848  0.506508  1
  Si  Si12  1  0.888235  0.655756  0.494829  1
  Si  Si13  1  0.155685  0.388044  0.005197  1
  Si  Si14  1  0.614068  0.379912  0.228026  1
  Si  Si15  1  0.879876  0.113892  0.271756  1
  Si  Si16  1  0.888455  0.121641  0.727832  1
  Si  Si17  1  0.621685  0.388327  0.772369  1
  Si  Si18  1  0.388439  0.621632  0.771752  1
  Si  Si19  1  0.121666  0.888602  0.728449  1
  Si  Si20  1  0.704851  0.294147  0.000850  1
  Si  Si21  1  0.794170  0.204846  0.499124  1
  Si  Si22  1  0.295359  0.705801  0.000048  1
  Si  Si23  1  0.205797  0.795384  0.499963  1
  Si  Si24  1  0.166032  0.167185  0.332939  1
  Si  Si25  1  0.667463  0.666288  0.166745  1
  Si  Si26  1  0.332843  0.331619  0.833365  1
  Si  Si27  1  0.831841  0.833106  0.666933  1
  Si  Si28  1  0.376363  0.610243  0.228215  1
  Si  Si29  1  0.110091  0.876381  0.271584  1
  Ru  Ru30  1  0.626470  0.626959  0.873556  1
  Ru  Ru31  1  0.126173  0.125640  0.627364  1
  Ru  Ru32  1  0.873491  0.873783  0.372331  1
  Ru  Ru33  1  0.372947  0.372697  0.126714  1
  Ru  Ru34  1  0.329329  0.668511  0.500911  1
  Ru  Ru35  1  0.168264  0.829678  0.999067  1
  Ru  Ru36  1  0.671102  0.332549  0.501735  1
  Ru  Ru37  1  0.832836  0.170793  0.998306  1
