# generated using pymatgen
data_Ho7Lu(MgSn4)2
_symmetry_space_group_name_H-M   'P 1'
_cell_length_a   7.64657606
_cell_length_b   8.21453305
_cell_length_c   15.23697500
_cell_angle_alpha   89.99980470
_cell_angle_beta   90.00711086
_cell_angle_gamma   90.00648671
_symmetry_Int_Tables_number   1
_chemical_formula_structural   Ho7Lu(MgSn4)2
_chemical_formula_sum   'Ho14 Lu2 Mg4 Sn16'
_cell_volume   957.08088607
_cell_formula_units_Z   2
loop_
 _symmetry_equiv_pos_site_id
 _symmetry_equiv_pos_as_xyz
  1  'x, y, z'
loop_
 _atom_site_type_symbol
 _atom_site_label
 _atom_site_symmetry_multiplicity
 _atom_site_fract_x
 _atom_site_fract_y
 _atom_site_fract_z
 _atom_site_occupancy
  Ho  Ho0  1  0.998510  0.184763  0.090594  1
  Ho  Ho1  1  0.001490  0.815237  0.909406  1
  Ho  Ho2  1  0.501334  0.684839  0.909169  1
  Ho  Ho3  1  0.001065  0.815285  0.590926  1
  Ho  Ho4  1  0.498666  0.315161  0.090831  1
  Ho  Ho5  1  0.998935  0.184715  0.409074  1
  Ho  Ho6  1  0.498779  0.315266  0.409037  1
  Ho  Ho7  1  0.501221  0.684734  0.590963  1
  Ho  Ho8  1  0.335200  0.168902  0.628868  1
  Ho  Ho9  1  0.664800  0.831098  0.371132  1
  Ho  Ho10  1  0.164521  0.669268  0.370946  1
  Ho  Ho11  1  0.664603  0.831020  0.128465  1
  Ho  Ho12  1  0.835479  0.330732  0.629054  1
  Ho  Ho13  1  0.335397  0.168980  0.871535  1
  Lu  Lu14  1  0.835223  0.331100  0.871357  1
  Lu  Lu15  1  0.164777  0.668900  0.128643  1
  Mg  Mg16  1  0.159496  0.505302  0.750016  1
  Mg  Mg17  1  0.840504  0.494698  0.249984  1
  Mg  Mg18  1  0.340643  0.005300  0.249986  1
  Mg  Mg19  1  0.659357  0.994700  0.750014  1
  Sn  Sn20  1  0.020866  0.092302  0.750854  1
  Sn  Sn21  1  0.979134  0.907698  0.249146  1
  Sn  Sn22  1  0.477181  0.591577  0.249352  1
  Sn  Sn23  1  0.522819  0.408423  0.750648  1
  Sn  Sn24  1  0.182353  0.462875  0.538841  1
  Sn  Sn25  1  0.817647  0.537125  0.461159  1
  Sn  Sn26  1  0.317913  0.963022  0.461203  1
  Sn  Sn27  1  0.818596  0.536701  0.038096  1
  Sn  Sn28  1  0.682087  0.036978  0.538797  1
  Sn  Sn29  1  0.181404  0.463299  0.961904  1
  Sn  Sn30  1  0.683309  0.038183  0.961045  1
  Sn  Sn31  1  0.316691  0.961817  0.038955  1
  Sn  Sn32  1  0.302455  0.846738  0.750348  1
  Sn  Sn33  1  0.697545  0.153262  0.249652  1
  Sn  Sn34  1  0.197169  0.347530  0.249489  1
  Sn  Sn35  1  0.802831  0.652470  0.750511  1
