# generated using pymatgen
data_Sc4Be3(BRu2)5
_symmetry_space_group_name_H-M   'P 1'
_cell_length_a   3.06465000
_cell_length_b   8.55329384
_cell_length_c   10.14429442
_cell_angle_alpha   90.36919659
_cell_angle_beta   90.00000000
_cell_angle_gamma   90.00000000
_symmetry_Int_Tables_number   1
_chemical_formula_structural   Sc4Be3(BRu2)5
_chemical_formula_sum   'Sc4 Be3 B5 Ru10'
_cell_volume   265.90536734
_cell_formula_units_Z   1
loop_
 _symmetry_equiv_pos_site_id
 _symmetry_equiv_pos_as_xyz
  1  'x, y, z'
loop_
 _atom_site_type_symbol
 _atom_site_label
 _atom_site_symmetry_multiplicity
 _atom_site_fract_x
 _atom_site_fract_y
 _atom_site_fract_z
 _atom_site_occupancy
  Sc  Sc0  1  0.500000  0.844431  0.183224  1
  Sc  Sc1  1  0.500000  0.157010  0.815281  1
  Sc  Sc2  1  0.500000  0.658831  0.679983  1
  Sc  Sc3  1  0.500000  0.344258  0.318880  1
  Be  Be4  1  0.500000  0.962356  0.594243  1
  Be  Be5  1  0.500000  0.038794  0.406097  1
  Be  Be6  1  0.500000  0.844969  0.901245  1
  B  B7  1  0.500000  0.146600  0.099442  1
  B  B8  1  0.500000  0.653630  0.402060  1
  B  B9  1  0.500000  0.347436  0.597639  1
  B  B10  1  0.500000  0.464005  0.911049  1
  B  B11  1  0.500000  0.534135  0.090238  1
  Ru  Ru12  1  0.000000  0.647620  0.959510  1
  Ru  Ru13  1  0.000000  0.340130  0.046138  1
  Ru  Ru14  1  0.000000  0.834001  0.447043  1
  Ru  Ru15  1  0.000000  0.168155  0.549376  1
  Ru  Ru16  1  0.000000  0.007000  0.001406  1
  Ru  Ru17  1  0.000000  0.405999  0.761106  1
  Ru  Ru18  1  0.000000  0.594786  0.239330  1
  Ru  Ru19  1  0.000000  0.500854  0.500047  1
  Ru  Ru20  1  0.000000  0.900514  0.743153  1
  Ru  Ru21  1  0.000000  0.104486  0.253507  1
