# generated using pymatgen
data_Hf20C17N
_symmetry_space_group_name_H-M   'P 1'
_cell_length_a   8.67863188
_cell_length_b   8.68163524
_cell_length_c   10.88611117
_cell_angle_alpha   62.98799652
_cell_angle_beta   62.99022175
_cell_angle_gamma   44.54575610
_symmetry_Int_Tables_number   1
_chemical_formula_structural   Hf20C17N
_chemical_formula_sum   'Hf20 C17 N1'
_cell_volume   501.30303520
_cell_formula_units_Z   1
loop_
 _symmetry_equiv_pos_site_id
 _symmetry_equiv_pos_as_xyz
  1  'x, y, z'
loop_
 _atom_site_type_symbol
 _atom_site_label
 _atom_site_symmetry_multiplicity
 _atom_site_fract_x
 _atom_site_fract_y
 _atom_site_fract_z
 _atom_site_occupancy
  Hf  Hf0  1  0.224096  0.479308  0.946410  1
  Hf  Hf1  1  0.721056  0.968110  0.955664  1
  Hf  Hf2  1  0.564515  0.330680  0.648559  1
  Hf  Hf3  1  0.435324  0.668782  0.351414  1
  Hf  Hf4  1  0.279074  0.032251  0.043759  1
  Hf  Hf5  1  0.081921  0.814202  0.645187  1
  Hf  Hf6  1  0.123453  0.372829  0.750053  1
  Hf  Hf7  1  0.917534  0.185537  0.355323  1
  Hf  Hf8  1  0.967735  0.720879  0.455997  1
  Hf  Hf9  1  0.776147  0.521491  0.052302  1
  Hf  Hf10  1  0.627240  0.876790  0.749558  1
  Hf  Hf11  1  0.814042  0.081850  0.145321  1
  Hf  Hf12  1  0.478728  0.223009  0.447481  1
  Hf  Hf13  1  0.669236  0.435971  0.851330  1
  Hf  Hf14  1  0.521325  0.776627  0.552873  1
  Hf  Hf15  1  0.330816  0.564574  0.148606  1
  Hf  Hf16  1  0.373067  0.122952  0.250641  1
  Hf  Hf17  1  0.186191  0.918210  0.854795  1
  Hf  Hf18  1  0.031919  0.279048  0.544332  1
  Hf  Hf19  1  0.875878  0.628658  0.250147  1
  C  C20  1  0.925032  0.677379  0.850825  1
  C  C21  1  0.574482  0.827428  0.147818  1
  C  C22  1  0.776382  0.025750  0.549868  1
  C  C23  1  0.424053  0.173061  0.853274  1
  C  C24  1  0.626192  0.375095  0.249557  1
  C  C25  1  0.275552  0.527935  0.550680  1
  C  C26  1  0.472473  0.724891  0.950085  1
  C  C27  1  0.321805  0.075223  0.650233  1
  C  C28  1  0.172402  0.425189  0.351448  1
  C  C29  1  0.974990  0.224146  0.950653  1
  C  C30  1  0.827199  0.574714  0.647838  1
  C  C31  1  0.025411  0.774569  0.050847  1
  C  C32  1  0.677949  0.924167  0.349022  1
  C  C33  1  0.725442  0.471640  0.448152  1
  C  C34  1  0.526663  0.275857  0.051147  1
  C  C35  1  0.375262  0.624114  0.750499  1
  C  C36  1  0.223711  0.975888  0.448303  1
  N  N37  1  0.075704  0.321200  0.150005  1
