# generated using pymatgen
data_CsRbY6(CBr6)2
_symmetry_space_group_name_H-M   'P 1'
_cell_length_a   8.79484736
_cell_length_b   8.84888503
_cell_length_c   9.44404167
_cell_angle_alpha   70.98900301
_cell_angle_beta   85.01367781
_cell_angle_gamma   89.16328676
_symmetry_Int_Tables_number   1
_chemical_formula_structural   CsRbY6(CBr6)2
_chemical_formula_sum   'Cs1 Rb1 Y6 C2 Br12'
_cell_volume   692.18689859
_cell_formula_units_Z   1
loop_
 _symmetry_equiv_pos_site_id
 _symmetry_equiv_pos_as_xyz
  1  'x, y, z'
loop_
 _atom_site_type_symbol
 _atom_site_label
 _atom_site_symmetry_multiplicity
 _atom_site_fract_x
 _atom_site_fract_y
 _atom_site_fract_z
 _atom_site_occupancy
  Cs  Cs0  1  0.531598  0.635147  0.667957  1
  Rb  Rb1  1  0.468062  0.357656  0.331416  1
  Y  Y2  1  0.915578  0.744025  0.004983  1
  Y  Y3  1  0.084247  0.256265  0.995191  1
  Y  Y4  1  0.742032  0.086823  0.000698  1
  Y  Y5  1  0.257841  0.913804  0.998905  1
  Y  Y6  1  0.973440  0.885902  0.325244  1
  Y  Y7  1  0.026310  0.114754  0.674659  1
  C  C8  1  0.006103  0.026870  0.920410  1
  C  C9  1  0.993634  0.973430  0.079597  1
  Br  Br10  1  0.080061  0.197017  0.329121  1
  Br  Br11  1  0.923573  0.803340  0.670576  1
  Br  Br12  1  0.205177  0.591149  0.001474  1
  Br  Br13  1  0.794710  0.408756  0.000239  1
  Br  Br14  1  0.404621  0.201224  0.003768  1
  Br  Br15  1  0.595265  0.799096  0.997821  1
  Br  Br16  1  0.665865  0.005160  0.326083  1
  Br  Br17  1  0.334622  0.001107  0.672805  1
  Br  Br18  1  0.281820  0.772249  0.323008  1
  Br  Br19  1  0.717348  0.225750  0.676042  1
  Br  Br20  1  0.848894  0.588955  0.327152  1
  Br  Br21  1  0.149195  0.411521  0.672852  1
