# generated using pymatgen
data_Tb7Ho(LuSn3)2
_symmetry_space_group_name_H-M   'P 1'
_cell_length_a   8.97358000
_cell_length_b   8.97357979
_cell_length_c   6.52870100
_cell_angle_alpha   90.00000000
_cell_angle_beta   90.00000000
_cell_angle_gamma   120.00000078
_symmetry_Int_Tables_number   1
_chemical_formula_structural   Tb7Ho(LuSn3)2
_chemical_formula_sum   'Tb7 Ho1 Lu2 Sn6'
_cell_volume   455.29080068
_cell_formula_units_Z   1
loop_
 _symmetry_equiv_pos_site_id
 _symmetry_equiv_pos_as_xyz
  1  'x, y, z'
loop_
 _atom_site_type_symbol
 _atom_site_label
 _atom_site_symmetry_multiplicity
 _atom_site_fract_x
 _atom_site_fract_y
 _atom_site_fract_z
 _atom_site_occupancy
  Tb  Tb0  1  0.333333  0.666667  0.000000  1
  Tb  Tb1  1  0.760261  0.760379  0.749027  1
  Tb  Tb2  1  0.239621  0.999881  0.749027  1
  Tb  Tb3  1  0.000119  0.239739  0.749027  1
  Tb  Tb4  1  0.239621  0.239739  0.250973  1
  Tb  Tb5  1  0.760261  0.999881  0.250973  1
  Tb  Tb6  1  0.000119  0.760379  0.250973  1
  Ho  Ho7  1  0.666667  0.333333  0.000000  1
  Lu  Lu8  1  0.333333  0.666667  0.500000  1
  Lu  Lu9  1  0.666667  0.333333  0.500000  1
  Sn  Sn10  1  0.396389  0.395836  0.745980  1
  Sn  Sn11  1  0.604164  0.000553  0.745980  1
  Sn  Sn12  1  0.999447  0.603611  0.745980  1
  Sn  Sn13  1  0.604164  0.603611  0.254020  1
  Sn  Sn14  1  0.396389  0.000553  0.254020  1
  Sn  Sn15  1  0.999447  0.395836  0.254020  1
