# generated using pymatgen
data_Zr10AlZnSiSb5
_symmetry_space_group_name_H-M   'P 1'
_cell_length_a   8.61841683
_cell_length_b   8.64135803
_cell_length_c   5.85754199
_cell_angle_alpha   89.91825046
_cell_angle_beta   90.16393447
_cell_angle_gamma   119.91221058
_symmetry_Int_Tables_number   1
_chemical_formula_structural   Zr10AlZnSiSb5
_chemical_formula_sum   'Zr10 Al1 Zn1 Si1 Sb5'
_cell_volume   378.12663240
_cell_formula_units_Z   1
loop_
 _symmetry_equiv_pos_site_id
 _symmetry_equiv_pos_as_xyz
  1  'x, y, z'
loop_
 _atom_site_type_symbol
 _atom_site_label
 _atom_site_symmetry_multiplicity
 _atom_site_fract_x
 _atom_site_fract_y
 _atom_site_fract_z
 _atom_site_occupancy
  Zr  Zr0  1  0.271531  0.000000  0.255585  1
  Zr  Zr1  1  0.260944  0.259424  0.743842  1
  Zr  Zr2  1  0.001519  0.740576  0.743842  1
  Zr  Zr3  1  0.992339  0.263948  0.254885  1
  Zr  Zr4  1  0.728390  0.736052  0.254885  1
  Zr  Zr5  1  0.740150  0.000000  0.744838  1
  Zr  Zr6  1  0.335144  0.668572  0.002696  1
  Zr  Zr7  1  0.666619  0.330957  0.497309  1
  Zr  Zr8  1  0.666574  0.331428  0.002696  1
  Zr  Zr9  1  0.335661  0.669043  0.497309  1
  Al  Al10  1  0.611250  0.000000  0.247586  1
  Zn  Zn11  1  0.999540  0.000000  0.011656  1
  Si  Si12  1  0.999638  0.000000  0.489796  1
  Sb  Sb13  1  0.609109  0.608702  0.752851  1
  Sb  Sb14  1  0.000406  0.391298  0.752851  1
  Sb  Sb15  1  0.998903  0.613653  0.246746  1
  Sb  Sb16  1  0.385249  0.386347  0.246746  1
  Sb  Sb17  1  0.397034  0.000000  0.753882  1
