# generated using pymatgen
data_Dy10Co4IrAu
_symmetry_space_group_name_H-M   'P 1'
_cell_length_a   8.72230151
_cell_length_b   8.72230243
_cell_length_c   8.72230200
_cell_angle_alpha   131.21617351
_cell_angle_beta   131.21617004
_cell_angle_gamma   71.46985230
_symmetry_Int_Tables_number   1
_chemical_formula_structural   Dy10Co4IrAu
_chemical_formula_sum   'Dy10 Co4 Ir1 Au1'
_cell_volume   367.46258121
_cell_formula_units_Z   1
loop_
 _symmetry_equiv_pos_site_id
 _symmetry_equiv_pos_as_xyz
  1  'x, y, z'
loop_
 _atom_site_type_symbol
 _atom_site_label
 _atom_site_symmetry_multiplicity
 _atom_site_fract_x
 _atom_site_fract_y
 _atom_site_fract_z
 _atom_site_occupancy
  Dy  Dy0  1  0.989270  0.989270  0.000000  1
  Dy  Dy1  1  0.510730  0.510730  0.000000  1
  Dy  Dy2  1  0.825719  0.303967  0.850525  1
  Dy  Dy3  1  0.196033  0.674281  0.149476  1
  Dy  Dy4  1  0.453443  0.975195  0.149476  1
  Dy  Dy5  1  0.303967  0.453443  0.478249  1
  Dy  Dy6  1  0.046557  0.196033  0.521751  1
  Dy  Dy7  1  0.524805  0.046557  0.850524  1
  Dy  Dy8  1  0.674281  0.524805  0.478249  1
  Dy  Dy9  1  0.975195  0.825719  0.521751  1
  Co  Co10  1  0.112155  0.612155  0.724311  1
  Co  Co11  1  0.887845  0.387845  0.275689  1
  Co  Co12  1  0.612155  0.887845  0.500000  1
  Co  Co13  1  0.387845  0.112155  0.500000  1
  Ir  Ir14  1  0.250000  0.250000  0.000000  1
  Au  Au15  1  0.750000  0.750000  0.000000  1
