# generated using pymatgen
data_Tb2MnFe(P3Rh4)2
_symmetry_space_group_name_H-M   'P 1'
_cell_length_a   3.87565200
_cell_length_b   10.73294400
_cell_length_c   12.44107100
_cell_angle_alpha   90.00000000
_cell_angle_beta   90.00000000
_cell_angle_gamma   90.00000000
_symmetry_Int_Tables_number   1
_chemical_formula_structural   Tb2MnFe(P3Rh4)2
_chemical_formula_sum   'Tb4 Mn2 Fe2 P12 Rh16'
_cell_volume   517.51316969
_cell_formula_units_Z   2
loop_
 _symmetry_equiv_pos_site_id
 _symmetry_equiv_pos_as_xyz
  1  'x, y, z'
loop_
 _atom_site_type_symbol
 _atom_site_label
 _atom_site_symmetry_multiplicity
 _atom_site_fract_x
 _atom_site_fract_y
 _atom_site_fract_z
 _atom_site_occupancy
  Tb  Tb0  1  0.250000  0.582008  0.708811  1
  Tb  Tb1  1  0.250000  0.917992  0.208811  1
  Tb  Tb2  1  0.750000  0.417704  0.290949  1
  Tb  Tb3  1  0.750000  0.082296  0.790949  1
  Mn  Mn4  1  0.250000  0.462474  0.935045  1
  Mn  Mn5  1  0.250000  0.037526  0.435045  1
  Fe  Fe6  1  0.750000  0.539033  0.065843  1
  Fe  Fe7  1  0.750000  0.960967  0.565843  1
  P  P8  1  0.250000  0.429552  0.107529  1
  P  P9  1  0.250000  0.070448  0.607529  1
  P  P10  1  0.750000  0.570060  0.892844  1
  P  P11  1  0.750000  0.929940  0.392844  1
  P  P12  1  0.250000  0.269750  0.868358  1
  P  P13  1  0.250000  0.230250  0.368358  1
  P  P14  1  0.750000  0.729996  0.131187  1
  P  P15  1  0.750000  0.770004  0.631187  1
  P  P16  1  0.250000  0.601187  0.389457  1
  P  P17  1  0.250000  0.898813  0.889457  1
  P  P18  1  0.750000  0.398412  0.610384  1
  P  P19  1  0.750000  0.101588  0.110384  1
  Rh  Rh20  1  0.250000  0.715158  0.990511  1
  Rh  Rh21  1  0.250000  0.784842  0.490511  1
  Rh  Rh22  1  0.750000  0.286143  0.009868  1
  Rh  Rh23  1  0.750000  0.213857  0.509868  1
  Rh  Rh24  1  0.250000  0.408230  0.479789  1
  Rh  Rh25  1  0.250000  0.091770  0.979789  1
  Rh  Rh26  1  0.750000  0.591585  0.520164  1
  Rh  Rh27  1  0.750000  0.908415  0.020164  1
  Rh  Rh28  1  0.250000  0.230250  0.174516  1
  Rh  Rh29  1  0.250000  0.269750  0.674516  1
  Rh  Rh30  1  0.750000  0.770056  0.825081  1
  Rh  Rh31  1  0.750000  0.729944  0.325081  1
  Rh  Rh32  1  0.250000  0.881852  0.700878  1
  Rh  Rh33  1  0.250000  0.618148  0.200878  1
  Rh  Rh34  1  0.750000  0.119031  0.298785  1
  Rh  Rh35  1  0.750000  0.380969  0.798785  1
