# generated using pymatgen
data_Dy6IrPd5Au2
_symmetry_space_group_name_H-M   'P 1'
_cell_length_a   7.91860160
_cell_length_b   7.99272635
_cell_length_c   7.94474600
_cell_angle_alpha   114.40483589
_cell_angle_beta   113.99938670
_cell_angle_gamma   114.25048360
_symmetry_Int_Tables_number   1
_chemical_formula_structural   Dy6IrPd5Au2
_chemical_formula_sum   'Dy6 Ir1 Pd5 Au2'
_cell_volume   300.48674026
_cell_formula_units_Z   1
loop_
 _symmetry_equiv_pos_site_id
 _symmetry_equiv_pos_as_xyz
  1  'x, y, z'
loop_
 _atom_site_type_symbol
 _atom_site_label
 _atom_site_symmetry_multiplicity
 _atom_site_fract_x
 _atom_site_fract_y
 _atom_site_fract_z
 _atom_site_occupancy
  Dy  Dy0  1  0.401287  0.024780  0.272024  1
  Dy  Dy1  1  0.016882  0.269201  0.394215  1
  Dy  Dy2  1  0.275346  0.395080  0.021078  1
  Dy  Dy3  1  0.608979  0.974263  0.731348  1
  Dy  Dy4  1  0.971096  0.724282  0.608135  1
  Dy  Dy5  1  0.732004  0.616711  0.974230  1
  Ir  Ir6  1  0.008147  0.008184  0.006028  1
  Pd  Pd7  1  0.496892  0.497975  0.496123  1
  Pd  Pd8  1  0.554893  0.226957  0.066653  1
  Pd  Pd9  1  0.769719  0.934114  0.444556  1
  Pd  Pd10  1  0.936846  0.442685  0.770073  1
  Pd  Pd11  1  0.440647  0.767566  0.931307  1
  Au  Au12  1  0.229971  0.067355  0.561650  1
  Au  Au13  1  0.057291  0.550847  0.222582  1
