# generated using pymatgen
data_NdYEr6(CdIr)2
_symmetry_space_group_name_H-M   'P 1'
_cell_length_a   9.62822957
_cell_length_b   9.61422361
_cell_length_c   9.60867491
_cell_angle_alpha   60.11552781
_cell_angle_beta   59.97080144
_cell_angle_gamma   59.91366758
_symmetry_Int_Tables_number   1
_chemical_formula_structural   NdYEr6(CdIr)2
_chemical_formula_sum   'Nd2 Y2 Er12 Cd4 Ir4'
_cell_volume   628.93574833
_cell_formula_units_Z   2
loop_
 _symmetry_equiv_pos_site_id
 _symmetry_equiv_pos_as_xyz
  1  'x, y, z'
loop_
 _atom_site_type_symbol
 _atom_site_label
 _atom_site_symmetry_multiplicity
 _atom_site_fract_x
 _atom_site_fract_y
 _atom_site_fract_z
 _atom_site_occupancy
  Nd  Nd0  1  0.566399  0.566399  0.933601  1
  Nd  Nd1  1  0.933601  0.933601  0.566399  1
  Y  Y2  1  0.559457  0.940543  0.559457  1
  Y  Y3  1  0.940543  0.559457  0.940543  1
  Er  Er4  1  0.351505  0.348781  0.344576  1
  Er  Er5  1  0.348781  0.351505  0.955137  1
  Er  Er6  1  0.344576  0.955137  0.351505  1
  Er  Er7  1  0.955137  0.344576  0.348781  1
  Er  Er8  1  0.812764  0.187236  0.187236  1
  Er  Er9  1  0.187236  0.812764  0.812764  1
  Er  Er10  1  0.188542  0.811458  0.188542  1
  Er  Er11  1  0.811458  0.188542  0.811458  1
  Er  Er12  1  0.190442  0.190442  0.809558  1
  Er  Er13  1  0.809558  0.809558  0.190442  1
  Er  Er14  1  0.944973  0.555027  0.555027  1
  Er  Er15  1  0.555027  0.944973  0.944973  1
  Cd  Cd16  1  0.581409  0.581663  0.577778  1
  Cd  Cd17  1  0.581663  0.581409  0.259148  1
  Cd  Cd18  1  0.577778  0.259148  0.581409  1
  Cd  Cd19  1  0.259148  0.577778  0.581663  1
  Ir  Ir20  1  0.146147  0.142123  0.136268  1
  Ir  Ir21  1  0.142123  0.146147  0.575461  1
  Ir  Ir22  1  0.136268  0.575461  0.146147  1
  Ir  Ir23  1  0.575461  0.136268  0.142123  1
