# generated using pymatgen
data_La3CoBr3
_symmetry_space_group_name_H-M   'P 1'
_cell_length_a   10.46198928
_cell_length_b   10.46199024
_cell_length_c   10.46198900
_cell_angle_alpha   109.47122017
_cell_angle_beta   109.47122203
_cell_angle_gamma   109.47122286
_symmetry_Int_Tables_number   1
_chemical_formula_structural   La3CoBr3
_chemical_formula_sum   'La12 Co4 Br12'
_cell_volume   881.49719057
_cell_formula_units_Z   4
loop_
 _symmetry_equiv_pos_site_id
 _symmetry_equiv_pos_as_xyz
  1  'x, y, z'
loop_
 _atom_site_type_symbol
 _atom_site_label
 _atom_site_symmetry_multiplicity
 _atom_site_fract_x
 _atom_site_fract_y
 _atom_site_fract_z
 _atom_site_occupancy
  La  La0  1  0.463543  0.481772  0.231772  1
  La  La1  1  0.750000  0.231772  0.268228  1
  La  La2  1  0.750000  0.018228  0.481772  1
  La  La3  1  0.231772  0.463543  0.481772  1
  La  La4  1  0.268228  0.750000  0.231772  1
  La  La5  1  0.036457  0.268228  0.018228  1
  La  La6  1  0.018228  0.036457  0.268228  1
  La  La7  1  0.481772  0.750000  0.018228  1
  La  La8  1  0.481772  0.231772  0.463543  1
  La  La9  1  0.018228  0.481772  0.750000  1
  La  La10  1  0.268228  0.018228  0.036457  1
  La  La11  1  0.231772  0.268228  0.750000  1
  Co  Co12  1  0.250000  0.250000  0.250000  1
  Co  Co13  1  0.500000  0.000000  0.250000  1
  Co  Co14  1  0.000000  0.250000  0.500000  1
  Co  Co15  1  0.250000  0.500000  0.000000  1
  Br  Br16  1  0.250000  0.757704  0.742296  1
  Br  Br17  1  0.515407  0.507704  0.757704  1
  Br  Br18  1  0.984593  0.742296  0.992296  1
  Br  Br19  1  0.742296  0.250000  0.757704  1
  Br  Br20  1  0.992296  0.984593  0.742296  1
  Br  Br21  1  0.250000  0.992296  0.507704  1
  Br  Br22  1  0.757704  0.515407  0.507704  1
  Br  Br23  1  0.507704  0.250000  0.992296  1
  Br  Br24  1  0.757704  0.742296  0.250000  1
  Br  Br25  1  0.742296  0.992296  0.984593  1
  Br  Br26  1  0.992296  0.507704  0.250000  1
  Br  Br27  1  0.507704  0.757704  0.515407  1
