# generated using pymatgen
data_Dy4GeSb5Rh7
_symmetry_space_group_name_H-M   'P 1'
_cell_length_a   7.56890859
_cell_length_b   7.56890901
_cell_length_c   7.56890826
_cell_angle_alpha   108.43198983
_cell_angle_beta   109.99331823
_cell_angle_gamma   109.99332723
_symmetry_Int_Tables_number   1
_chemical_formula_structural   Dy4GeSb5Rh7
_chemical_formula_sum   'Dy4 Ge1 Sb5 Rh7'
_cell_volume   333.71132831
_cell_formula_units_Z   1
loop_
 _symmetry_equiv_pos_site_id
 _symmetry_equiv_pos_as_xyz
  1  'x, y, z'
loop_
 _atom_site_type_symbol
 _atom_site_label
 _atom_site_symmetry_multiplicity
 _atom_site_fract_x
 _atom_site_fract_y
 _atom_site_fract_z
 _atom_site_occupancy
  Dy  Dy0  1  0.000000  0.991904  0.517019  1
  Dy  Dy1  1  0.000000  0.517019  0.991904  1
  Dy  Dy2  1  0.474885  0.991904  0.991904  1
  Dy  Dy3  1  0.525115  0.517019  0.517019  1
  Ge  Ge4  1  0.000000  0.663538  0.663538  1
  Sb  Sb5  1  0.684106  0.690750  0.006644  1
  Sb  Sb6  1  0.315894  0.006644  0.322538  1
  Sb  Sb7  1  0.000000  0.313432  0.313432  1
  Sb  Sb8  1  0.315894  0.322538  0.006644  1
  Sb  Sb9  1  0.684106  0.006644  0.690750  1
  Rh  Rh10  1  0.752740  0.255168  0.502428  1
  Rh  Rh11  1  0.752740  0.502428  0.255168  1
  Rh  Rh12  1  0.500000  0.254374  0.754374  1
  Rh  Rh13  1  0.247260  0.502428  0.749689  1
  Rh  Rh14  1  0.247260  0.749689  0.502428  1
  Rh  Rh15  1  0.500000  0.754374  0.254374  1
  Rh  Rh16  1  0.000000  0.960146  0.960146  1
