# generated using pymatgen
data_NdHo2Si2Ni
_symmetry_space_group_name_H-M   'P 1'
_cell_length_a   4.12229400
_cell_length_b   11.50007400
_cell_length_c   11.34364900
_cell_angle_alpha   90.00000000
_cell_angle_beta   90.00000000
_cell_angle_gamma   90.00000000
_symmetry_Int_Tables_number   1
_chemical_formula_structural   NdHo2Si2Ni
_chemical_formula_sum   'Nd4 Ho8 Si8 Ni4'
_cell_volume   537.76480680
_cell_formula_units_Z   4
loop_
 _symmetry_equiv_pos_site_id
 _symmetry_equiv_pos_as_xyz
  1  'x, y, z'
loop_
 _atom_site_type_symbol
 _atom_site_label
 _atom_site_symmetry_multiplicity
 _atom_site_fract_x
 _atom_site_fract_y
 _atom_site_fract_z
 _atom_site_occupancy
  Nd  Nd0  1  0.250000  0.125488  0.556310  1
  Nd  Nd1  1  0.250000  0.374512  0.056310  1
  Nd  Nd2  1  0.750000  0.874512  0.443690  1
  Nd  Nd3  1  0.750000  0.625488  0.943690  1
  Ho  Ho4  1  0.250000  0.804739  0.717234  1
  Ho  Ho5  1  0.250000  0.695261  0.217234  1
  Ho  Ho6  1  0.750000  0.195261  0.282766  1
  Ho  Ho7  1  0.750000  0.304739  0.782766  1
  Ho  Ho8  1  0.250000  0.057596  0.884148  1
  Ho  Ho9  1  0.250000  0.442404  0.384148  1
  Ho  Ho10  1  0.750000  0.942404  0.115852  1
  Ho  Ho11  1  0.750000  0.557596  0.615852  1
  Si  Si12  1  0.250000  0.492828  0.797924  1
  Si  Si13  1  0.250000  0.007172  0.297924  1
  Si  Si14  1  0.750000  0.507172  0.202076  1
  Si  Si15  1  0.750000  0.992828  0.702076  1
  Si  Si16  1  0.250000  0.817861  0.975956  1
  Si  Si17  1  0.250000  0.682139  0.475956  1
  Si  Si18  1  0.750000  0.182139  0.024044  1
  Si  Si19  1  0.750000  0.317861  0.524044  1
  Ni  Ni20  1  0.250000  0.368837  0.627747  1
  Ni  Ni21  1  0.250000  0.131163  0.127747  1
  Ni  Ni22  1  0.750000  0.631163  0.372253  1
  Ni  Ni23  1  0.750000  0.868837  0.872253  1
