# generated using pymatgen
data_SbTeCl9
_symmetry_space_group_name_H-M   'P 1'
_cell_length_a   11.81612535
_cell_length_b   11.81612540
_cell_length_c   20.10318800
_cell_angle_alpha   73.73587626
_cell_angle_beta   73.73587618
_cell_angle_gamma   32.86459455
_symmetry_Int_Tables_number   1
_chemical_formula_structural   SbTeCl9
_chemical_formula_sum   'Sb4 Te4 Cl36'
_cell_volume   1456.76098531
_cell_formula_units_Z   4
loop_
 _symmetry_equiv_pos_site_id
 _symmetry_equiv_pos_as_xyz
  1  'x, y, z'
loop_
 _atom_site_type_symbol
 _atom_site_label
 _atom_site_symmetry_multiplicity
 _atom_site_fract_x
 _atom_site_fract_y
 _atom_site_fract_z
 _atom_site_occupancy
  Sb  Sb0  1  0.441089  0.848120  0.626965  1
  Sb  Sb1  1  0.151880  0.558911  0.873035  1
  Sb  Sb2  1  0.558911  0.151880  0.373035  1
  Sb  Sb3  1  0.848120  0.441089  0.126965  1
  Te  Te4  1  0.277437  0.885455  0.840853  1
  Te  Te5  1  0.722563  0.114545  0.159147  1
  Te  Te6  1  0.114545  0.722563  0.659147  1
  Te  Te7  1  0.885455  0.277437  0.340853  1
  Cl  Cl8  1  0.777558  0.868392  0.173743  1
  Cl  Cl9  1  0.896464  0.050410  0.596445  1
  Cl  Cl10  1  0.057911  0.113177  0.205249  1
  Cl  Cl11  1  0.105367  0.367175  0.128379  1
  Cl  Cl12  1  0.982680  0.744307  0.971097  1
  Cl  Cl13  1  0.409151  0.502613  0.859705  1
  Cl  Cl14  1  0.479604  0.696749  0.936078  1
  Cl  Cl15  1  0.367175  0.105367  0.628379  1
  Cl  Cl16  1  0.590849  0.497387  0.140295  1
  Cl  Cl17  1  0.303251  0.520396  0.563922  1
  Cl  Cl18  1  0.868392  0.777558  0.673743  1
  Cl  Cl19  1  0.632825  0.894633  0.371621  1
  Cl  Cl20  1  0.255693  0.017320  0.528903  1
  Cl  Cl21  1  0.222442  0.131608  0.826257  1
  Cl  Cl22  1  0.894633  0.632825  0.871621  1
  Cl  Cl23  1  0.619159  0.771534  0.065159  1
  Cl  Cl24  1  0.696749  0.479604  0.436078  1
  Cl  Cl25  1  0.949590  0.103536  0.903555  1
  Cl  Cl26  1  0.664761  0.626471  0.236124  1
  Cl  Cl27  1  0.626471  0.664761  0.736124  1
  Cl  Cl28  1  0.103536  0.949590  0.403555  1
  Cl  Cl29  1  0.497387  0.590849  0.640295  1
  Cl  Cl30  1  0.373529  0.335239  0.263876  1
  Cl  Cl31  1  0.744307  0.982680  0.471097  1
  Cl  Cl32  1  0.050410  0.896464  0.096445  1
  Cl  Cl33  1  0.017320  0.255693  0.028903  1
  Cl  Cl34  1  0.942089  0.886823  0.794751  1
  Cl  Cl35  1  0.886823  0.942089  0.294751  1
  Cl  Cl36  1  0.502613  0.409151  0.359705  1
  Cl  Cl37  1  0.771534  0.619159  0.565159  1
  Cl  Cl38  1  0.335239  0.373529  0.763876  1
  Cl  Cl39  1  0.228466  0.380841  0.434841  1
  Cl  Cl40  1  0.113177  0.057911  0.705249  1
  Cl  Cl41  1  0.520396  0.303251  0.063922  1
  Cl  Cl42  1  0.380841  0.228466  0.934841  1
  Cl  Cl43  1  0.131608  0.222442  0.326257  1
