# generated using pymatgen
data_Sc4Ga3Si3Ir7
_symmetry_space_group_name_H-M   'P 1'
_cell_length_a   7.03292026
_cell_length_b   7.03292086
_cell_length_c   7.09575300
_cell_angle_alpha   109.65229061
_cell_angle_beta   109.65229236
_cell_angle_gamma   109.28954588
_symmetry_Int_Tables_number   1
_chemical_formula_structural   Sc4Ga3Si3Ir7
_chemical_formula_sum   'Sc4 Ga3 Si3 Ir7'
_cell_volume   269.57066616
_cell_formula_units_Z   1
loop_
 _symmetry_equiv_pos_site_id
 _symmetry_equiv_pos_as_xyz
  1  'x, y, z'
loop_
 _atom_site_type_symbol
 _atom_site_label
 _atom_site_symmetry_multiplicity
 _atom_site_fract_x
 _atom_site_fract_y
 _atom_site_fract_z
 _atom_site_occupancy
  Sc  Sc0  1  0.000000  0.000000  0.534734  1
  Sc  Sc1  1  0.000000  0.486719  0.002653  1
  Sc  Sc2  1  0.486719  0.000000  0.002653  1
  Sc  Sc3  1  0.513281  0.513281  0.515934  1
  Ga  Ga4  1  0.710231  0.710231  0.011696  1
  Ga  Ga5  1  0.289769  0.000000  0.301465  1
  Ga  Ga6  1  0.000000  0.289769  0.301465  1
  Si  Si7  1  0.326832  0.326832  0.004674  1
  Si  Si8  1  0.673168  0.000000  0.677842  1
  Si  Si9  1  0.000000  0.673168  0.677842  1
  Ir  Ir10  1  0.748704  0.249640  0.501935  1
  Ir  Ir11  1  0.750360  0.499064  0.252295  1
  Ir  Ir12  1  0.500936  0.251296  0.753231  1
  Ir  Ir13  1  0.251296  0.500936  0.753231  1
  Ir  Ir14  1  0.249640  0.748704  0.501935  1
  Ir  Ir15  1  0.499064  0.750360  0.252295  1
  Ir  Ir16  1  0.000000  0.000000  0.954121  1
