# generated using pymatgen
data_Pr11SmFe2Br17
_symmetry_space_group_name_H-M   'P 1'
_cell_length_a   9.61146353
_cell_length_b   11.58093129
_cell_length_c   11.58852995
_cell_angle_alpha   93.79727620
_cell_angle_beta   104.56239715
_cell_angle_gamma   114.19623108
_symmetry_Int_Tables_number   1
_chemical_formula_structural   Pr11SmFe2Br17
_chemical_formula_sum   'Pr11 Sm1 Fe2 Br17'
_cell_volume   1117.66378107
_cell_formula_units_Z   1
loop_
 _symmetry_equiv_pos_site_id
 _symmetry_equiv_pos_as_xyz
  1  'x, y, z'
loop_
 _atom_site_type_symbol
 _atom_site_label
 _atom_site_symmetry_multiplicity
 _atom_site_fract_x
 _atom_site_fract_y
 _atom_site_fract_z
 _atom_site_occupancy
  Pr  Pr0  1  0.981635  0.808312  0.576612  1
  Pr  Pr1  1  0.646184  0.239648  0.286153  1
  Pr  Pr2  1  0.021528  0.192262  0.426636  1
  Pr  Pr3  1  0.230708  0.673467  0.995805  1
  Pr  Pr4  1  0.258726  0.992445  0.892267  1
  Pr  Pr5  1  0.360454  0.761701  0.712402  1
  Pr  Pr6  1  0.942236  0.485562  0.678797  1
  Pr  Pr7  1  0.740221  0.003789  0.106858  1
  Pr  Pr8  1  0.149915  0.287776  0.148393  1
  Pr  Pr9  1  0.766548  0.327335  0.002477  1
  Pr  Pr10  1  0.844246  0.713092  0.853665  1
  Sm  Sm11  1  0.057485  0.514908  0.320355  1
  Fe  Fe12  1  0.104749  0.739523  0.786825  1
  Fe  Fe13  1  0.895639  0.261209  0.213615  1
  Br  Br14  1  0.797440  0.524965  0.420619  1
  Br  Br15  1  0.649706  0.426500  0.759191  1
  Br  Br16  1  0.848547  0.905502  0.327352  1
  Br  Br17  1  0.319185  0.214771  0.362990  1
  Br  Br18  1  0.152937  0.095561  0.673333  1
  Br  Br19  1  0.584474  0.048441  0.851247  1
  Br  Br20  1  0.763589  0.187423  0.533670  1
  Br  Br21  1  0.541553  0.707201  0.948072  1
  Br  Br22  1  0.344615  0.574302  0.243806  1
  Br  Br23  1  0.206436  0.477698  0.572305  1
  Br  Br24  1  0.052897  0.375455  0.903238  1
  Br  Br25  1  0.457742  0.291966  0.052835  1
  Br  Br26  1  0.000944  0.001191  0.001551  1
  Br  Br27  1  0.233908  0.805746  0.462353  1
  Br  Br28  1  0.419112  0.952382  0.149536  1
  Br  Br29  1  0.681136  0.785881  0.636678  1
  Br  Br30  1  0.945505  0.623982  0.100366  1
