# generated using pymatgen
data_Yb10Rh5Au
_symmetry_space_group_name_H-M   'P 1'
_cell_length_a   8.59541817
_cell_length_b   8.59541814
_cell_length_c   8.59541770
_cell_angle_alpha   128.60881849
_cell_angle_beta   128.60881728
_cell_angle_gamma   75.64082319
_symmetry_Int_Tables_number   1
_chemical_formula_structural   Yb10Rh5Au
_chemical_formula_sum   'Yb10 Rh5 Au1'
_cell_volume   377.23436134
_cell_formula_units_Z   1
loop_
 _symmetry_equiv_pos_site_id
 _symmetry_equiv_pos_as_xyz
  1  'x, y, z'
loop_
 _atom_site_type_symbol
 _atom_site_label
 _atom_site_symmetry_multiplicity
 _atom_site_fract_x
 _atom_site_fract_y
 _atom_site_fract_z
 _atom_site_occupancy
  Yb  Yb0  1  0.520092  0.040774  0.840307  1
  Yb  Yb1  1  0.299534  0.459226  0.479319  1
  Yb  Yb2  1  0.459226  0.979908  0.159693  1
  Yb  Yb3  1  0.040774  0.200466  0.520681  1
  Yb  Yb4  1  0.200466  0.679785  0.159693  1
  Yb  Yb5  1  0.679785  0.520092  0.479319  1
  Yb  Yb6  1  0.505199  0.505199  0.000000  1
  Yb  Yb7  1  0.979908  0.820215  0.520681  1
  Yb  Yb8  1  0.820215  0.299534  0.840307  1
  Yb  Yb9  1  0.994801  0.994801  0.000000  1
  Rh  Rh10  1  0.629400  0.870600  0.500000  1
  Rh  Rh11  1  0.250000  0.250000  0.000000  1
  Rh  Rh12  1  0.370600  0.129400  0.500000  1
  Rh  Rh13  1  0.129400  0.629400  0.758799  1
  Rh  Rh14  1  0.870600  0.370600  0.241201  1
  Au  Au15  1  0.750000  0.750000  0.000000  1
