# generated using pymatgen
data_Tb4Pr2EuFeI12
_symmetry_space_group_name_H-M   'P 1'
_cell_length_a   10.06025643
_cell_length_b   9.83936314
_cell_length_c   10.05957524
_cell_angle_alpha   106.25440566
_cell_angle_beta   106.64321221
_cell_angle_gamma   107.26241011
_symmetry_Int_Tables_number   1
_chemical_formula_structural   Tb4Pr2EuFeI12
_chemical_formula_sum   'Tb4 Pr2 Eu1 Fe1 I12'
_cell_volume   835.48224057
_cell_formula_units_Z   1
loop_
 _symmetry_equiv_pos_site_id
 _symmetry_equiv_pos_as_xyz
  1  'x, y, z'
loop_
 _atom_site_type_symbol
 _atom_site_label
 _atom_site_symmetry_multiplicity
 _atom_site_fract_x
 _atom_site_fract_y
 _atom_site_fract_z
 _atom_site_occupancy
  Tb  Tb0  1  0.795184  0.523996  0.595106  1
  Tb  Tb1  1  0.523895  0.596072  0.795748  1
  Tb  Tb2  1  0.204816  0.476004  0.404894  1
  Tb  Tb3  1  0.476105  0.403928  0.204252  1
  Pr  Pr4  1  0.589104  0.773571  0.522202  1
  Pr  Pr5  1  0.410896  0.226429  0.477798  1
  Eu  Eu6  1  0.000000  0.000000  0.000000  1
  Fe  Fe7  1  0.500000  0.500000  0.500000  1
  I  I8  1  0.725854  0.188965  0.574620  1
  I  I9  1  0.954608  0.872919  0.648795  1
  I  I10  1  0.572310  0.719161  0.180690  1
  I  I11  1  0.132390  0.360000  0.054543  1
  I  I12  1  0.647452  0.951068  0.876628  1
  I  I13  1  0.867610  0.640000  0.945457  1
  I  I14  1  0.045392  0.127081  0.351205  1
  I  I15  1  0.812688  0.428297  0.282627  1
  I  I16  1  0.352548  0.048932  0.123372  1
  I  I17  1  0.274146  0.811035  0.425380  1
  I  I18  1  0.187312  0.571703  0.717373  1
  I  I19  1  0.427690  0.280839  0.819310  1
