# generated using pymatgen
data_Dy2NiRhPb
_symmetry_space_group_name_H-M   'P 1'
_cell_length_a   7.53025176
_cell_length_b   7.53025138
_cell_length_c   3.77375600
_cell_angle_alpha   90.00000000
_cell_angle_beta   90.00000000
_cell_angle_gamma   149.29087471
_symmetry_Int_Tables_number   1
_chemical_formula_structural   Dy2NiRhPb
_chemical_formula_sum   'Dy2 Ni1 Rh1 Pb1'
_cell_volume   109.28020853
_cell_formula_units_Z   1
loop_
 _symmetry_equiv_pos_site_id
 _symmetry_equiv_pos_as_xyz
  1  'x, y, z'
loop_
 _atom_site_type_symbol
 _atom_site_label
 _atom_site_symmetry_multiplicity
 _atom_site_fract_x
 _atom_site_fract_y
 _atom_site_fract_z
 _atom_site_occupancy
  Dy  Dy0  1  0.360455  0.639545  0.500000  1
  Dy  Dy1  1  0.642059  0.357941  0.500000  1
  Ni  Ni2  1  0.192833  0.807167  0.000000  1
  Rh  Rh3  1  0.801772  0.198228  0.000000  1
  Pb  Pb4  1  0.002881  0.997119  0.000000  1
