# generated using pymatgen
data_EuHo5Co16(P6Ru)2
_symmetry_space_group_name_H-M   'P 1'
_cell_length_a   3.70055600
_cell_length_b   10.49835400
_cell_length_c   12.21418500
_cell_angle_alpha   90.00000000
_cell_angle_beta   90.00000000
_cell_angle_gamma   90.00000000
_symmetry_Int_Tables_number   1
_chemical_formula_structural   EuHo5Co16(P6Ru)2
_chemical_formula_sum   'Eu1 Ho5 Co16 P12 Ru2'
_cell_volume   474.51799565
_cell_formula_units_Z   1
loop_
 _symmetry_equiv_pos_site_id
 _symmetry_equiv_pos_as_xyz
  1  'x, y, z'
loop_
 _atom_site_type_symbol
 _atom_site_label
 _atom_site_symmetry_multiplicity
 _atom_site_fract_x
 _atom_site_fract_y
 _atom_site_fract_z
 _atom_site_occupancy
  Eu  Eu0  1  0.000000  0.500000  0.526777  1
  Ho  Ho1  1  0.500000  0.000000  0.475179  1
  Ho  Ho2  1  0.500000  0.817456  0.206146  1
  Ho  Ho3  1  0.500000  0.182544  0.206146  1
  Ho  Ho4  1  0.000000  0.683024  0.793985  1
  Ho  Ho5  1  0.000000  0.316976  0.793985  1
  Co  Co6  1  0.000000  0.500000  0.985721  1
  Co  Co7  1  0.500000  0.000000  0.014168  1
  Co  Co8  1  0.500000  0.293770  0.430077  1
  Co  Co9  1  0.500000  0.706230  0.430077  1
  Co  Co10  1  0.000000  0.200216  0.569385  1
  Co  Co11  1  0.000000  0.799784  0.569385  1
  Co  Co12  1  0.500000  0.879451  0.708273  1
  Co  Co13  1  0.500000  0.120549  0.708273  1
  Co  Co14  1  0.000000  0.621715  0.291416  1
  Co  Co15  1  0.000000  0.378285  0.291416  1
  Co  Co16  1  0.500000  0.332270  0.990377  1
  Co  Co17  1  0.500000  0.667730  0.990377  1
  Co  Co18  1  0.000000  0.167494  0.009528  1
  Co  Co19  1  0.000000  0.832506  0.009528  1
  Co  Co20  1  0.500000  0.500000  0.705144  1
  Co  Co21  1  0.000000  0.000000  0.296218  1
  P  P22  1  0.500000  0.308368  0.616794  1
  P  P23  1  0.500000  0.691632  0.616794  1
  P  P24  1  0.000000  0.187650  0.383527  1
  P  P25  1  0.000000  0.812350  0.383527  1
  P  P26  1  0.500000  0.500000  0.882071  1
  P  P27  1  0.000000  0.000000  0.118464  1
  P  P28  1  0.500000  0.846619  0.893384  1
  P  P29  1  0.500000  0.153381  0.893384  1
  P  P30  1  0.000000  0.653667  0.106476  1
  P  P31  1  0.000000  0.346333  0.106476  1
  P  P32  1  0.500000  0.500000  0.348741  1
  P  P33  1  0.000000  0.000000  0.649616  1
  Ru  Ru34  1  0.500000  0.500000  0.158575  1
  Ru  Ru35  1  0.000000  0.000000  0.840588  1
