# generated using pymatgen
data_Ca6Nd2Cu3Si12Au
_symmetry_space_group_name_H-M   'P 1'
_cell_length_a   8.15057500
_cell_length_b   8.15057611
_cell_length_c   8.61414600
_cell_angle_alpha   90.00000000
_cell_angle_beta   90.00000000
_cell_angle_gamma   119.99999955
_symmetry_Int_Tables_number   1
_chemical_formula_structural   Ca6Nd2Cu3Si12Au
_chemical_formula_sum   'Ca6 Nd2 Cu3 Si12 Au1'
_cell_volume   495.58644274
_cell_formula_units_Z   1
loop_
 _symmetry_equiv_pos_site_id
 _symmetry_equiv_pos_as_xyz
  1  'x, y, z'
loop_
 _atom_site_type_symbol
 _atom_site_label
 _atom_site_symmetry_multiplicity
 _atom_site_fract_x
 _atom_site_fract_y
 _atom_site_fract_z
 _atom_site_occupancy
  Ca  Ca0  1  0.499229  0.500771  0.751036  1
  Ca  Ca1  1  0.499380  0.500620  0.248999  1
  Ca  Ca2  1  0.001542  0.500771  0.751036  1
  Ca  Ca3  1  0.001239  0.500620  0.248999  1
  Ca  Ca4  1  0.499229  0.998458  0.751036  1
  Ca  Ca5  1  0.499380  0.998761  0.248999  1
  Nd  Nd6  1  0.000000  0.000000  0.752022  1
  Nd  Nd7  1  0.000000  0.000000  0.248098  1
  Cu  Cu8  1  0.666667  0.333333  0.999597  1
  Cu  Cu9  1  0.333333  0.666667  0.000460  1
  Cu  Cu10  1  0.333333  0.666667  0.499238  1
  Si  Si11  1  0.831327  0.168673  0.000062  1
  Si  Si12  1  0.168485  0.831515  0.000010  1
  Si  Si13  1  0.337347  0.168673  0.000062  1
  Si  Si14  1  0.169248  0.830752  0.500027  1
  Si  Si15  1  0.663032  0.831515  0.000010  1
  Si  Si16  1  0.837569  0.162431  0.499982  1
  Si  Si17  1  0.831327  0.662653  0.000062  1
  Si  Si18  1  0.661502  0.830752  0.500027  1
  Si  Si19  1  0.168485  0.336968  0.000010  1
  Si  Si20  1  0.324863  0.162431  0.499982  1
  Si  Si21  1  0.169248  0.338498  0.500027  1
  Si  Si22  1  0.837569  0.675137  0.499982  1
  Au  Au23  1  0.666667  0.333333  0.500233  1
