# generated using pymatgen
data_Al7Ga5(CoRu)6
_symmetry_space_group_name_H-M   'P 1'
_cell_length_a   4.17434641
_cell_length_b   5.87949415
_cell_length_c   12.53167256
_cell_angle_alpha   89.97347924
_cell_angle_beta   89.94977609
_cell_angle_gamma   89.99526561
_symmetry_Int_Tables_number   1
_chemical_formula_structural   Al7Ga5(CoRu)6
_chemical_formula_sum   'Al7 Ga5 Co6 Ru6'
_cell_volume   307.56525490
_cell_formula_units_Z   1
loop_
 _symmetry_equiv_pos_site_id
 _symmetry_equiv_pos_as_xyz
  1  'x, y, z'
loop_
 _atom_site_type_symbol
 _atom_site_label
 _atom_site_symmetry_multiplicity
 _atom_site_fract_x
 _atom_site_fract_y
 _atom_site_fract_z
 _atom_site_occupancy
  Al  Al0  1  0.499932  0.749769  0.335116  1
  Al  Al1  1  0.000093  0.250247  0.501771  1
  Al  Al2  1  0.000051  0.749881  0.500315  1
  Al  Al3  1  0.500042  0.250008  0.666667  1
  Al  Al4  1  0.500044  0.750233  0.666488  1
  Al  Al5  1  0.999958  0.250071  0.831519  1
  Al  Al6  1  0.999949  0.749948  0.831465  1
  Ga  Ga7  1  0.500069  0.250095  0.997983  1
  Ga  Ga8  1  0.500019  0.749758  0.998288  1
  Ga  Ga9  1  0.999912  0.249752  0.166661  1
  Ga  Ga10  1  0.999957  0.750106  0.168361  1
  Ga  Ga11  1  0.499954  0.250105  0.335373  1
  Co  Co12  1  0.999913  0.500512  0.999623  1
  Co  Co13  1  0.500075  0.999901  0.166664  1
  Co  Co14  1  0.999967  0.499408  0.334004  1
  Co  Co15  1  0.500052  0.999843  0.500589  1
  Co  Co16  1  0.999948  0.500447  0.666453  1
  Co  Co17  1  0.500055  0.999939  0.832669  1
  Ru  Ru18  1  0.000099  0.999668  0.999428  1
  Ru  Ru19  1  0.499891  0.499771  0.166832  1
  Ru  Ru20  1  0.999982  0.000345  0.334133  1
  Ru  Ru21  1  0.500089  0.500219  0.500734  1
  Ru  Ru22  1  0.000064  0.999963  0.666476  1
  Ru  Ru23  1  0.499885  0.500015  0.832386  1
