# generated using pymatgen
data_ThTcBr
_symmetry_space_group_name_H-M   'P 1'
_cell_length_a   4.18700400
_cell_length_b   4.18700328
_cell_length_c   12.03357100
_cell_angle_alpha   90.00000000
_cell_angle_beta   90.00000000
_cell_angle_gamma   120.00000568
_symmetry_Int_Tables_number   1
_chemical_formula_structural   ThTcBr
_chemical_formula_sum   'Th2 Tc2 Br2'
_cell_volume   182.69716515
_cell_formula_units_Z   2
loop_
 _symmetry_equiv_pos_site_id
 _symmetry_equiv_pos_as_xyz
  1  'x, y, z'
loop_
 _atom_site_type_symbol
 _atom_site_label
 _atom_site_symmetry_multiplicity
 _atom_site_fract_x
 _atom_site_fract_y
 _atom_site_fract_z
 _atom_site_occupancy
  Th  Th0  1  0.000000  0.000000  0.171505  1
  Th  Th1  1  0.000000  0.000000  0.828495  1
  Tc  Tc2  1  0.666666  0.333333  0.025734  1
  Tc  Tc3  1  0.333333  0.666667  0.974266  1
  Br  Br4  1  0.333333  0.666667  0.339756  1
  Br  Br5  1  0.666666  0.333333  0.660244  1
