# generated using pymatgen
data_Dy3Er2Co19(SiP3)3
_symmetry_space_group_name_H-M   'P 1'
_cell_length_a   12.03962400
_cell_length_b   12.03960098
_cell_length_c   3.68441400
_cell_angle_alpha   90.00000000
_cell_angle_beta   90.00000000
_cell_angle_gamma   119.99993619
_symmetry_Int_Tables_number   1
_chemical_formula_structural   Dy3Er2Co19(SiP3)3
_chemical_formula_sum   'Dy3 Er2 Co19 Si3 P9'
_cell_volume   462.51343472
_cell_formula_units_Z   1
loop_
 _symmetry_equiv_pos_site_id
 _symmetry_equiv_pos_as_xyz
  1  'x, y, z'
loop_
 _atom_site_type_symbol
 _atom_site_label
 _atom_site_symmetry_multiplicity
 _atom_site_fract_x
 _atom_site_fract_y
 _atom_site_fract_z
 _atom_site_occupancy
  Dy  Dy0  1  0.333299  0.666576  0.000000  1
  Dy  Dy1  1  0.666701  0.333276  0.000000  1
  Dy  Dy2  1  0.000000  0.184784  0.500000  1
  Er  Er3  1  0.814895  0.814888  0.500000  1
  Er  Er4  1  0.185105  0.999993  0.500000  1
  Co  Co5  1  0.622532  0.824631  0.000000  1
  Co  Co6  1  0.175195  0.798029  0.000000  1
  Co  Co7  1  0.202640  0.377619  0.000000  1
  Co  Co8  1  0.377468  0.202098  0.000000  1
  Co  Co9  1  0.824805  0.622834  0.000000  1
  Co  Co10  1  0.797360  0.174979  0.000000  1
  Co  Co11  1  0.000000  0.556924  0.000000  1
  Co  Co12  1  0.443481  0.443369  0.000000  1
  Co  Co13  1  0.556519  0.999888  0.000000  1
  Co  Co14  1  0.515053  0.642004  0.500000  1
  Co  Co15  1  0.357966  0.873123  0.500000  1
  Co  Co16  1  0.127007  0.485161  0.500000  1
  Co  Co17  1  0.484947  0.126951  0.500000  1
  Co  Co18  1  0.642034  0.515156  0.500000  1
  Co  Co19  1  0.872993  0.358154  0.500000  1
  Co  Co20  1  0.000000  0.716257  0.500000  1
  Co  Co21  1  0.284273  0.283951  0.500000  1
  Co  Co22  1  0.715727  0.999678  0.500000  1
  Co  Co23  1  0.000000  0.999575  0.000000  1
  Si  Si24  1  0.000000  0.369318  0.000000  1
  Si  Si25  1  0.631175  0.631263  0.000000  1
  Si  Si26  1  0.368825  0.000088  0.000000  1
  P  P27  1  0.520461  0.834596  0.500000  1
  P  P28  1  0.165350  0.686061  0.500000  1
  P  P29  1  0.314035  0.479347  0.500000  1
  P  P30  1  0.479539  0.314135  0.500000  1
  P  P31  1  0.834650  0.520710  0.500000  1
  P  P32  1  0.685965  0.165311  0.500000  1
  P  P33  1  0.000000  0.818600  0.000000  1
  P  P34  1  0.181975  0.181324  0.000000  1
  P  P35  1  0.818025  0.999348  0.000000  1
