# generated using pymatgen
data_Li29AlSi7Ge
_symmetry_space_group_name_H-M   'P 1'
_cell_length_a   9.17439889
_cell_length_b   9.19972316
_cell_length_c   9.11094850
_cell_angle_alpha   109.17781393
_cell_angle_beta   109.67227532
_cell_angle_gamma   109.75047394
_symmetry_Int_Tables_number   1
_chemical_formula_structural   Li29AlSi7Ge
_chemical_formula_sum   'Li29 Al1 Si7 Ge1'
_cell_volume   590.57998458
_cell_formula_units_Z   1
loop_
 _symmetry_equiv_pos_site_id
 _symmetry_equiv_pos_as_xyz
  1  'x, y, z'
loop_
 _atom_site_type_symbol
 _atom_site_label
 _atom_site_symmetry_multiplicity
 _atom_site_fract_x
 _atom_site_fract_y
 _atom_site_fract_z
 _atom_site_occupancy
  Li  Li0  1  0.119289  0.748868  0.877539  1
  Li  Li1  1  0.724817  0.342048  0.812073  1
  Li  Li2  1  0.614670  0.770947  0.590771  1
  Li  Li3  1  0.035045  0.919758  0.694323  1
  Li  Li4  1  0.088017  0.274325  0.113386  1
  Li  Li5  1  0.911806  0.688830  0.027670  1
  Li  Li6  1  0.272290  0.112860  0.082977  1
  Li  Li7  1  0.199532  0.419264  0.533864  1
  Li  Li8  1  0.779162  0.586094  0.620375  1
  Li  Li9  1  0.699589  0.033999  0.918555  1
  Li  Li10  1  0.524704  0.184411  0.413727  1
  Li  Li11  1  0.620937  0.377500  0.248042  1
  Li  Li12  1  0.477025  0.172403  0.890816  1
  Li  Li13  1  0.876924  0.124998  0.751123  1
  Li  Li14  1  0.974272  0.384052  0.662260  1
  Li  Li15  1  0.413923  0.526850  0.188079  1
  Li  Li16  1  0.114028  0.087967  0.274936  1
  Li  Li17  1  0.301086  0.834480  0.218817  1
  Li  Li18  1  0.754078  0.873756  0.123198  1
  Li  Li19  1  0.888002  0.474832  0.162822  1
  Li  Li20  1  0.585003  0.617739  0.777474  1
  Li  Li21  1  0.380631  0.656021  0.964067  1
  Li  Li22  1  0.807970  0.728529  0.341019  1
  Li  Li23  1  0.654739  0.957077  0.378051  1
  Li  Li24  1  0.152047  0.884154  0.461741  1
  Li  Li25  1  0.223343  0.308697  0.841376  1
  Li  Li26  1  0.371236  0.252825  0.628621  1
  Li  Li27  1  0.843614  0.221762  0.307956  1
  Li  Li28  1  0.249365  0.619291  0.369584  1
  Al  Al29  1  0.337481  0.818446  0.724681  1
  Si  Si30  1  0.587244  0.502382  0.002868  1
  Si  Si31  1  0.495176  0.995985  0.071632  1
  Si  Si32  1  0.996685  0.088606  0.498615  1
  Si  Si33  1  0.012702  0.593245  0.508402  1
  Si  Si34  1  0.084870  0.498883  0.999495  1
  Si  Si35  1  0.418396  0.408710  0.411921  1
  Si  Si36  1  0.915925  0.914474  0.914656  1
  Ge  Ge37  1  0.494375  0.994933  0.592486  1
