# generated using pymatgen
data_Li2Zn(BiPt)2
_symmetry_space_group_name_H-M   'P 1'
_cell_length_a   4.43011800
_cell_length_b   4.43011860
_cell_length_c   16.41987000
_cell_angle_alpha   90.00000000
_cell_angle_beta   90.00000000
_cell_angle_gamma   119.99998059
_symmetry_Int_Tables_number   1
_chemical_formula_structural   Li2Zn(BiPt)2
_chemical_formula_sum   'Li4 Zn2 Bi4 Pt4'
_cell_volume   279.08151908
_cell_formula_units_Z   2
loop_
 _symmetry_equiv_pos_site_id
 _symmetry_equiv_pos_as_xyz
  1  'x, y, z'
loop_
 _atom_site_type_symbol
 _atom_site_label
 _atom_site_symmetry_multiplicity
 _atom_site_fract_x
 _atom_site_fract_y
 _atom_site_fract_z
 _atom_site_occupancy
  Li  Li0  1  0.000000  0.000000  0.169231  1
  Li  Li1  1  0.000000  0.000000  0.830769  1
  Li  Li2  1  0.000000  0.000000  0.669231  1
  Li  Li3  1  0.000000  0.000000  0.330769  1
  Zn  Zn4  1  0.333333  0.666667  0.750000  1
  Zn  Zn5  1  0.666667  0.333333  0.250000  1
  Bi  Bi6  1  0.333333  0.666667  0.076778  1
  Bi  Bi7  1  0.666667  0.333333  0.923222  1
  Bi  Bi8  1  0.666667  0.333333  0.576778  1
  Bi  Bi9  1  0.333333  0.666667  0.423222  1
  Pt  Pt10  1  0.000000  0.000000  0.000000  1
  Pt  Pt11  1  0.000000  0.000000  0.500000  1
  Pt  Pt12  1  0.333333  0.666667  0.250000  1
  Pt  Pt13  1  0.666667  0.333333  0.750000  1
