# generated using pymatgen
data_Ho3ErSi4(IrRh)2
_symmetry_space_group_name_H-M   'P 1'
_cell_length_a   4.23307200
_cell_length_b   6.84269654
_cell_length_c   7.43771160
_cell_angle_alpha   89.95426851
_cell_angle_beta   90.00000000
_cell_angle_gamma   90.00000000
_symmetry_Int_Tables_number   1
_chemical_formula_structural   Ho3ErSi4(IrRh)2
_chemical_formula_sum   'Ho3 Er1 Si4 Ir2 Rh2'
_cell_volume   215.43791220
_cell_formula_units_Z   1
loop_
 _symmetry_equiv_pos_site_id
 _symmetry_equiv_pos_as_xyz
  1  'x, y, z'
loop_
 _atom_site_type_symbol
 _atom_site_label
 _atom_site_symmetry_multiplicity
 _atom_site_fract_x
 _atom_site_fract_y
 _atom_site_fract_z
 _atom_site_occupancy
  Ho  Ho0  1  0.750000  0.500821  0.810286  1
  Ho  Ho1  1  0.250000  0.998230  0.310399  1
  Ho  Ho2  1  0.750000  0.000939  0.689960  1
  Er  Er3  1  0.250000  0.498387  0.189894  1
  Si  Si4  1  0.250000  0.703271  0.603996  1
  Si  Si5  1  0.250000  0.203765  0.896339  1
  Si  Si6  1  0.750000  0.296488  0.390205  1
  Si  Si7  1  0.750000  0.795675  0.109304  1
  Ir  Ir8  1  0.750000  0.656782  0.431451  1
  Ir  Ir9  1  0.750000  0.157082  0.068292  1
  Rh  Rh10  1  0.250000  0.844252  0.932585  1
  Rh  Rh11  1  0.250000  0.344308  0.567289  1
