# generated using pymatgen
data_LiTm3Cd4Rh
_symmetry_space_group_name_H-M   'P 1'
_cell_length_a   8.06522200
_cell_length_b   8.06522188
_cell_length_c   3.48864100
_cell_angle_alpha   90.00000000
_cell_angle_beta   90.00000000
_cell_angle_gamma   120.00000049
_symmetry_Int_Tables_number   1
_chemical_formula_structural   LiTm3Cd4Rh
_chemical_formula_sum   'Li1 Tm3 Cd4 Rh1'
_cell_volume   196.52579227
_cell_formula_units_Z   1
loop_
 _symmetry_equiv_pos_site_id
 _symmetry_equiv_pos_as_xyz
  1  'x, y, z'
loop_
 _atom_site_type_symbol
 _atom_site_label
 _atom_site_symmetry_multiplicity
 _atom_site_fract_x
 _atom_site_fract_y
 _atom_site_fract_z
 _atom_site_occupancy
  Li  Li0  1  0.333333  0.666667  0.500000  1
  Tm  Tm1  1  0.290891  0.241723  0.500000  1
  Tm  Tm2  1  0.758277  0.049167  0.500000  1
  Tm  Tm3  1  0.950833  0.709109  0.500000  1
  Cd  Cd4  1  0.064325  0.410525  0.000000  1
  Cd  Cd5  1  0.589475  0.653799  0.000000  1
  Cd  Cd6  1  0.346201  0.935675  0.000000  1
  Cd  Cd7  1  0.666667  0.333333  0.000000  1
  Rh  Rh8  1  0.000000  0.000000  0.000000  1
