# generated using pymatgen
data_MnCo2Sb12Os
_symmetry_space_group_name_H-M   'P 1'
_cell_length_a   8.01012666
_cell_length_b   8.01738152
_cell_length_c   9.29232537
_cell_angle_alpha   55.08934692
_cell_angle_beta   55.16803593
_cell_angle_gamma   70.94154047
_symmetry_Int_Tables_number   1
_chemical_formula_structural   MnCo2Sb12Os
_chemical_formula_sum   'Mn1 Co2 Sb12 Os1'
_cell_volume   401.68703240
_cell_formula_units_Z   1
loop_
 _symmetry_equiv_pos_site_id
 _symmetry_equiv_pos_as_xyz
  1  'x, y, z'
loop_
 _atom_site_type_symbol
 _atom_site_label
 _atom_site_symmetry_multiplicity
 _atom_site_fract_x
 _atom_site_fract_y
 _atom_site_fract_z
 _atom_site_occupancy
  Mn  Mn0  1  0.500000  0.000000  0.000000  1
  Co  Co1  1  0.500000  0.000000  0.500000  1
  Co  Co2  1  0.000000  0.500000  0.500000  1
  Sb  Sb3  1  0.667578  0.667643  0.492026  1
  Sb  Sb4  1  0.332422  0.332357  0.507974  1
  Sb  Sb5  1  0.660439  0.657267  0.186496  1
  Sb  Sb6  1  0.339561  0.342733  0.813504  1
  Sb  Sb7  1  0.161763  0.847180  0.661490  1
  Sb  Sb8  1  0.838237  0.152820  0.338510  1
  Sb  Sb9  1  0.851029  0.164365  0.652903  1
  Sb  Sb10  1  0.148971  0.835635  0.347097  1
  Sb  Sb11  1  0.823231  0.490460  0.837434  1
  Sb  Sb12  1  0.176769  0.509540  0.162566  1
  Sb  Sb13  1  0.504080  0.181504  0.165677  1
  Sb  Sb14  1  0.495920  0.818496  0.834323  1
  Os  Os15  1  0.000000  0.500000  0.000000  1
