# generated using pymatgen
data_CaCd(GaBr4)4
_symmetry_space_group_name_H-M   'P 1'
_cell_length_a   7.62715425
_cell_length_b   7.70479025
_cell_length_c   14.16880725
_cell_angle_alpha   87.76151087
_cell_angle_beta   89.51027272
_cell_angle_gamma   89.75351541
_symmetry_Int_Tables_number   1
_chemical_formula_structural   CaCd(GaBr4)4
_chemical_formula_sum   'Ca1 Cd1 Ga4 Br16'
_cell_volume   831.96645931
_cell_formula_units_Z   1
loop_
 _symmetry_equiv_pos_site_id
 _symmetry_equiv_pos_as_xyz
  1  'x, y, z'
loop_
 _atom_site_type_symbol
 _atom_site_label
 _atom_site_symmetry_multiplicity
 _atom_site_fract_x
 _atom_site_fract_y
 _atom_site_fract_z
 _atom_site_occupancy
  Ca  Ca0  1  0.757467  0.078058  0.813901  1
  Cd  Cd1  1  0.244936  0.076985  0.311918  1
  Ga  Ga2  1  0.938990  0.224651  0.574368  1
  Ga  Ga3  1  0.069877  0.220125  0.081346  1
  Ga  Ga4  1  0.570740  0.639095  0.776395  1
  Ga  Ga5  1  0.419003  0.638576  0.277078  1
  Br  Br6  1  0.423180  0.614209  0.637233  1
  Br  Br7  1  0.577788  0.612055  0.139828  1
  Br  Br8  1  0.870567  0.727948  0.760031  1
  Br  Br9  1  0.122581  0.737356  0.261312  1
  Br  Br10  1  0.936699  0.488603  0.493708  1
  Br  Br11  1  0.059542  0.480229  0.996977  1
  Br  Br12  1  0.921052  0.995549  0.001461  1
  Br  Br13  1  0.088495  0.999773  0.491607  1
  Br  Br14  1  0.649023  0.123990  0.614875  1
  Br  Br15  1  0.361076  0.123368  0.120050  1
  Br  Br16  1  0.561476  0.381757  0.877989  1
  Br  Br17  1  0.426630  0.374033  0.374286  1
  Br  Br18  1  0.447414  0.867711  0.867607  1
  Br  Br19  1  0.537198  0.871479  0.367348  1
  Br  Br20  1  0.942199  0.230708  0.237718  1
  Br  Br21  1  0.074068  0.228542  0.727368  1
