# generated using pymatgen
data_Zr3Fe(Co4P3)2
_symmetry_space_group_name_H-M   'P 1'
_cell_length_a   3.63258600
_cell_length_b   10.32651900
_cell_length_c   11.93398800
_cell_angle_alpha   90.00000000
_cell_angle_beta   90.00000000
_cell_angle_gamma   90.00000000
_symmetry_Int_Tables_number   1
_chemical_formula_structural   Zr3Fe(Co4P3)2
_chemical_formula_sum   'Zr6 Fe2 Co16 P12'
_cell_volume   447.66738012
_cell_formula_units_Z   2
loop_
 _symmetry_equiv_pos_site_id
 _symmetry_equiv_pos_as_xyz
  1  'x, y, z'
loop_
 _atom_site_type_symbol
 _atom_site_label
 _atom_site_symmetry_multiplicity
 _atom_site_fract_x
 _atom_site_fract_y
 _atom_site_fract_z
 _atom_site_occupancy
  Zr  Zr0  1  0.000000  0.500000  0.526224  1
  Zr  Zr1  1  0.500000  0.000000  0.473776  1
  Zr  Zr2  1  0.500000  0.820885  0.206914  1
  Zr  Zr3  1  0.500000  0.179115  0.206914  1
  Zr  Zr4  1  0.000000  0.679115  0.793086  1
  Zr  Zr5  1  0.000000  0.320885  0.793086  1
  Fe  Fe6  1  0.500000  0.500000  0.161184  1
  Fe  Fe7  1  0.000000  0.000000  0.838816  1
  Co  Co8  1  0.000000  0.500000  0.988039  1
  Co  Co9  1  0.500000  0.000000  0.011961  1
  Co  Co10  1  0.500000  0.299077  0.432530  1
  Co  Co11  1  0.500000  0.700923  0.432530  1
  Co  Co12  1  0.000000  0.200923  0.567470  1
  Co  Co13  1  0.000000  0.799077  0.567470  1
  Co  Co14  1  0.500000  0.875911  0.707131  1
  Co  Co15  1  0.500000  0.124089  0.707131  1
  Co  Co16  1  0.000000  0.624089  0.292869  1
  Co  Co17  1  0.000000  0.375911  0.292869  1
  Co  Co18  1  0.500000  0.332481  0.994078  1
  Co  Co19  1  0.500000  0.667519  0.994078  1
  Co  Co20  1  0.000000  0.167519  0.005922  1
  Co  Co21  1  0.000000  0.832481  0.005922  1
  Co  Co22  1  0.500000  0.500000  0.702688  1
  Co  Co23  1  0.000000  0.000000  0.297312  1
  P  P24  1  0.500000  0.316180  0.617203  1
  P  P25  1  0.500000  0.683820  0.617203  1
  P  P26  1  0.000000  0.183820  0.382797  1
  P  P27  1  0.000000  0.816180  0.382797  1
  P  P28  1  0.500000  0.500000  0.879487  1
  P  P29  1  0.000000  0.000000  0.120513  1
  P  P30  1  0.500000  0.844597  0.889134  1
  P  P31  1  0.500000  0.155403  0.889134  1
  P  P32  1  0.000000  0.655403  0.110866  1
  P  P33  1  0.000000  0.344597  0.110866  1
  P  P34  1  0.500000  0.500000  0.349831  1
  P  P35  1  0.000000  0.000000  0.650169  1
