# generated using pymatgen
data_Tb4Os3Ru3W2
_symmetry_space_group_name_H-M   'P 1'
_cell_length_a   5.55215300
_cell_length_b   5.19524117
_cell_length_c   9.13725000
_cell_angle_alpha   90.00000000
_cell_angle_beta   90.00000000
_cell_angle_gamma   122.04744806
_symmetry_Int_Tables_number   1
_chemical_formula_structural   Tb4Os3Ru3W2
_chemical_formula_sum   'Tb4 Os3 Ru3 W2'
_cell_volume   223.39743807
_cell_formula_units_Z   1
loop_
 _symmetry_equiv_pos_site_id
 _symmetry_equiv_pos_as_xyz
  1  'x, y, z'
loop_
 _atom_site_type_symbol
 _atom_site_label
 _atom_site_symmetry_multiplicity
 _atom_site_fract_x
 _atom_site_fract_y
 _atom_site_fract_z
 _atom_site_occupancy
  Tb  Tb0  1  0.668647  0.337073  0.565531  1
  Tb  Tb1  1  0.331073  0.662018  0.434558  1
  Tb  Tb2  1  0.331073  0.662018  0.065442  1
  Tb  Tb3  1  0.668647  0.337073  0.934469  1
  Os  Os4  1  0.169926  0.814734  0.750000  1
  Os  Os5  1  0.644519  0.815440  0.750000  1
  Os  Os6  1  0.832397  0.187061  0.250000  1
  Ru  Ru7  1  0.995849  0.998247  0.499695  1
  Ru  Ru8  1  0.995849  0.998247  0.000305  1
  Ru  Ru9  1  0.357643  0.185709  0.250000  1
  W  W10  1  0.153273  0.305736  0.750000  1
  W  W11  1  0.851102  0.696645  0.250000  1
