# generated using pymatgen
data_LuBi3Ru2O11
_symmetry_space_group_name_H-M   'P 1'
_cell_length_a   6.51477917
_cell_length_b   7.48195464
_cell_length_c   9.72683815
_cell_angle_alpha   100.72843806
_cell_angle_beta   90.53539883
_cell_angle_gamma   90.24605077
_symmetry_Int_Tables_number   1
_chemical_formula_structural   LuBi3Ru2O11
_chemical_formula_sum   'Lu2 Bi6 Ru4 O22'
_cell_volume   465.80155915
_cell_formula_units_Z   2
loop_
 _symmetry_equiv_pos_site_id
 _symmetry_equiv_pos_as_xyz
  1  'x, y, z'
loop_
 _atom_site_type_symbol
 _atom_site_label
 _atom_site_symmetry_multiplicity
 _atom_site_fract_x
 _atom_site_fract_y
 _atom_site_fract_z
 _atom_site_occupancy
  Lu  Lu0  1  0.744789  0.372933  0.479263  1
  Lu  Lu1  1  0.255211  0.627067  0.520737  1
  Bi  Bi2  1  0.759192  0.868523  0.497828  1
  Bi  Bi3  1  0.240808  0.131477  0.502172  1
  Bi  Bi4  1  0.453540  0.950547  0.821847  1
  Bi  Bi5  1  0.546460  0.049453  0.178153  1
  Bi  Bi6  1  0.390292  0.450723  0.825542  1
  Bi  Bi7  1  0.609708  0.549277  0.174458  1
  Ru  Ru8  1  0.924455  0.701150  0.811913  1
  Ru  Ru9  1  0.075545  0.298850  0.188087  1
  Ru  Ru10  1  0.920979  0.202391  0.811574  1
  Ru  Ru11  1  0.079021  0.797609  0.188426  1
  O  O12  1  0.219256  0.714864  0.754680  1
  O  O13  1  0.780744  0.285136  0.245320  1
  O  O14  1  0.628421  0.676148  0.844700  1
  O  O15  1  0.371579  0.323852  0.155300  1
  O  O16  1  0.625573  0.240468  0.850724  1
  O  O17  1  0.374427  0.759532  0.149276  1
  O  O18  1  0.874288  0.188716  0.606598  1
  O  O19  1  0.125712  0.811284  0.393402  1
  O  O20  1  0.215738  0.157308  0.756851  1
  O  O21  1  0.784262  0.842692  0.243149  1
  O  O22  1  0.894402  0.620390  0.601590  1
  O  O23  1  0.105598  0.379610  0.398410  1
  O  O24  1  0.020088  0.542558  0.165088  1
  O  O25  1  0.979912  0.457442  0.834912  1
  O  O26  1  0.000506  0.794064  0.999208  1
  O  O27  1  0.999494  0.205936  0.000792  1
  O  O28  1  0.566917  0.597037  0.398553  1
  O  O29  1  0.433083  0.402963  0.601447  1
  O  O30  1  0.166008  0.058064  0.226751  1
  O  O31  1  0.833992  0.941936  0.773249  1
  O  O32  1  0.552446  0.109637  0.401845  1
  O  O33  1  0.447554  0.890363  0.598155  1
