# generated using pymatgen
data_CrB2Mo4P
_symmetry_space_group_name_H-M   'P 1'
_cell_length_a   5.86922771
_cell_length_b   5.86922795
_cell_length_c   6.96407234
_cell_angle_alpha   114.92258899
_cell_angle_beta   114.92258523
_cell_angle_gamma   89.99999658
_symmetry_Int_Tables_number   1
_chemical_formula_structural   CrB2Mo4P
_chemical_formula_sum   'Cr2 B4 Mo8 P2'
_cell_volume   192.64438173
_cell_formula_units_Z   2
loop_
 _symmetry_equiv_pos_site_id
 _symmetry_equiv_pos_as_xyz
  1  'x, y, z'
loop_
 _atom_site_type_symbol
 _atom_site_label
 _atom_site_symmetry_multiplicity
 _atom_site_fract_x
 _atom_site_fract_y
 _atom_site_fract_z
 _atom_site_occupancy
  Cr  Cr0  1  0.500000  0.500000  0.000000  1
  Cr  Cr1  1  0.000000  0.000000  0.000000  1
  B  B2  1  0.379029  0.879029  0.000000  1
  B  B3  1  0.620971  0.120971  0.000000  1
  B  B4  1  0.120971  0.379029  0.000000  1
  B  B5  1  0.879029  0.620971  0.000000  1
  Mo  Mo6  1  0.032548  0.532548  0.725434  1
  Mo  Mo7  1  0.692886  0.192886  0.725434  1
  Mo  Mo8  1  0.192886  0.032548  0.725434  1
  Mo  Mo9  1  0.532548  0.692886  0.725434  1
  Mo  Mo10  1  0.967452  0.467452  0.274566  1
  Mo  Mo11  1  0.307114  0.807114  0.274566  1
  Mo  Mo12  1  0.807114  0.967452  0.274566  1
  Mo  Mo13  1  0.467452  0.307114  0.274566  1
  P  P14  1  0.250000  0.250000  0.500000  1
  P  P15  1  0.750000  0.750000  0.500000  1
