# generated using pymatgen
data_NaPr6RhI12
_symmetry_space_group_name_H-M   'P 1'
_cell_length_a   10.12401950
_cell_length_b   10.12401781
_cell_length_c   10.12401906
_cell_angle_alpha   106.98119095
_cell_angle_beta   106.98118306
_cell_angle_gamma   106.98117677
_symmetry_Int_Tables_number   1
_chemical_formula_structural   NaPr6RhI12
_chemical_formula_sum   'Na1 Pr6 Rh1 I12'
_cell_volume   864.62383802
_cell_formula_units_Z   1
loop_
 _symmetry_equiv_pos_site_id
 _symmetry_equiv_pos_as_xyz
  1  'x, y, z'
loop_
 _atom_site_type_symbol
 _atom_site_label
 _atom_site_symmetry_multiplicity
 _atom_site_fract_x
 _atom_site_fract_y
 _atom_site_fract_z
 _atom_site_occupancy
  Na  Na0  1  0.500000  0.500000  0.500000  1
  Pr  Pr1  1  0.898296  0.972303  0.692342  1
  Pr  Pr2  1  0.972303  0.692342  0.898296  1
  Pr  Pr3  1  0.692342  0.898296  0.972303  1
  Pr  Pr4  1  0.101704  0.027697  0.307658  1
  Pr  Pr5  1  0.027697  0.307658  0.101704  1
  Pr  Pr6  1  0.307658  0.101704  0.027697  1
  Rh  Rh7  1  0.000000  0.000000  0.000000  1
  I  I8  1  0.546963  0.854427  0.626367  1
  I  I9  1  0.854427  0.626367  0.546963  1
  I  I10  1  0.626367  0.546963  0.854427  1
  I  I11  1  0.453037  0.145573  0.373633  1
  I  I12  1  0.145573  0.373633  0.453037  1
  I  I13  1  0.373633  0.453037  0.145573  1
  I  I14  1  0.680942  0.225087  0.073613  1
  I  I15  1  0.225087  0.073613  0.680942  1
  I  I16  1  0.073613  0.680942  0.225087  1
  I  I17  1  0.319058  0.774913  0.926387  1
  I  I18  1  0.774913  0.926387  0.319058  1
  I  I19  1  0.926387  0.319058  0.774913  1
