# generated using pymatgen
data_La2GdHo3Nb2O14
_symmetry_space_group_name_H-M   'P 1'
_cell_length_a   6.52993236
_cell_length_b   6.54135791
_cell_length_c   7.66716200
_cell_angle_alpha   90.00000000
_cell_angle_beta   90.00000000
_cell_angle_gamma   109.08447736
_symmetry_Int_Tables_number   1
_chemical_formula_structural   La2GdHo3Nb2O14
_chemical_formula_sum   'La2 Gd1 Ho3 Nb2 O14'
_cell_volume   309.49974093
_cell_formula_units_Z   1
loop_
 _symmetry_equiv_pos_site_id
 _symmetry_equiv_pos_as_xyz
  1  'x, y, z'
loop_
 _atom_site_type_symbol
 _atom_site_label
 _atom_site_symmetry_multiplicity
 _atom_site_fract_x
 _atom_site_fract_y
 _atom_site_fract_z
 _atom_site_occupancy
  La  La0  1  0.502303  0.501886  0.498972  1
  La  La1  1  0.502303  0.501886  0.001028  1
  Gd  Gd2  1  0.999482  0.467871  0.750000  1
  Ho  Ho3  1  0.534534  0.001742  0.750000  1
  Ho  Ho4  1  0.001130  0.535668  0.250000  1
  Ho  Ho5  1  0.466222  0.998330  0.250000  1
  Nb  Nb6  1  0.000536  0.001331  0.498868  1
  Nb  Nb7  1  0.000536  0.001331  0.001132  1
  O  O8  1  0.679320  0.934591  0.466326  1
  O  O9  1  0.928259  0.677618  0.527548  1
  O  O10  1  0.679320  0.934591  0.033674  1
  O  O11  1  0.928259  0.677618  0.972452  1
  O  O12  1  0.318823  0.064692  0.535403  1
  O  O13  1  0.067547  0.318275  0.462608  1
  O  O14  1  0.318823  0.064692  0.964597  1
  O  O15  1  0.067547  0.318275  0.037392  1
  O  O16  1  0.367827  0.641147  0.750000  1
  O  O17  1  0.637441  0.360807  0.250000  1
  O  O18  1  0.640956  0.355385  0.750000  1
  O  O19  1  0.355550  0.645406  0.250000  1
  O  O20  1  0.932720  0.063061  0.750000  1
  O  O21  1  0.070560  0.933800  0.250000  1
