# generated using pymatgen
data_Tb11Dy(InSi2)2
_symmetry_space_group_name_H-M   'P 1'
_cell_length_a   8.57214665
_cell_length_b   8.57184494
_cell_length_c   8.57214660
_cell_angle_alpha   112.34322849
_cell_angle_beta   110.79309942
_cell_angle_gamma   105.35947869
_symmetry_Int_Tables_number   1
_chemical_formula_structural   Tb11Dy(InSi2)2
_chemical_formula_sum   'Tb11 Dy1 In2 Si4'
_cell_volume   482.91748725
_cell_formula_units_Z   1
loop_
 _symmetry_equiv_pos_site_id
 _symmetry_equiv_pos_as_xyz
  1  'x, y, z'
loop_
 _atom_site_type_symbol
 _atom_site_label
 _atom_site_symmetry_multiplicity
 _atom_site_fract_x
 _atom_site_fract_y
 _atom_site_fract_z
 _atom_site_occupancy
  Tb  Tb0  1  0.443140  0.238644  0.204377  1
  Tb  Tb1  1  0.556960  0.761346  0.795758  1
  Tb  Tb2  1  0.034266  0.238644  0.795502  1
  Tb  Tb3  1  0.965589  0.761346  0.204387  1
  Tb  Tb4  1  0.185828  0.277856  0.463876  1
  Tb  Tb5  1  0.814001  0.722078  0.535992  1
  Tb  Tb6  1  0.186086  0.722078  0.908077  1
  Tb  Tb7  1  0.813980  0.277856  0.092028  1
  Tb  Tb8  1  0.319947  0.616652  0.296705  1
  Tb  Tb9  1  0.680082  0.383320  0.703238  1
  Tb  Tb10  1  0.319915  0.023201  0.703285  1
  Dy  Dy11  1  0.680080  0.977133  0.297054  1
  In  In12  1  0.500071  0.500214  0.000143  1
  In  In13  1  0.000037  0.999967  0.999929  1
  Si  Si14  1  0.369412  0.999994  0.369200  1
  Si  Si15  1  0.630794  0.999994  0.630582  1
  Si  Si16  1  0.114870  0.614855  0.499985  1
  Si  Si17  1  0.884942  0.384823  0.499881  1
