# generated using pymatgen
data_TbDyY6(CdPt)2
_symmetry_space_group_name_H-M   'P 1'
_cell_length_a   9.72201625
_cell_length_b   9.72201606
_cell_length_c   9.73054300
_cell_angle_alpha   59.97098575
_cell_angle_beta   59.97098638
_cell_angle_gamma   60.01072833
_symmetry_Int_Tables_number   1
_chemical_formula_structural   TbDyY6(CdPt)2
_chemical_formula_sum   'Tb2 Dy2 Y12 Cd4 Pt4'
_cell_volume   650.09874399
_cell_formula_units_Z   2
loop_
 _symmetry_equiv_pos_site_id
 _symmetry_equiv_pos_as_xyz
  1  'x, y, z'
loop_
 _atom_site_type_symbol
 _atom_site_label
 _atom_site_symmetry_multiplicity
 _atom_site_fract_x
 _atom_site_fract_y
 _atom_site_fract_z
 _atom_site_occupancy
  Tb  Tb0  1  0.354971  0.939920  0.352554  1
  Tb  Tb1  1  0.939920  0.354971  0.352554  1
  Dy  Dy2  1  0.352434  0.352434  0.350189  1
  Dy  Dy3  1  0.352434  0.352434  0.944942  1
  Y  Y4  1  0.810563  0.189642  0.190458  1
  Y  Y5  1  0.189642  0.810563  0.809337  1
  Y  Y6  1  0.189642  0.810563  0.190458  1
  Y  Y7  1  0.810563  0.189642  0.809337  1
  Y  Y8  1  0.191108  0.191108  0.808892  1
  Y  Y9  1  0.811176  0.811176  0.188824  1
  Y  Y10  1  0.936414  0.563441  0.564215  1
  Y  Y11  1  0.563441  0.936414  0.935930  1
  Y  Y12  1  0.563441  0.936414  0.564215  1
  Y  Y13  1  0.936414  0.563441  0.935930  1
  Y  Y14  1  0.564515  0.564515  0.935485  1
  Y  Y15  1  0.936776  0.936776  0.563224  1
  Cd  Cd16  1  0.581057  0.581057  0.582901  1
  Cd  Cd17  1  0.581057  0.581057  0.254984  1
  Cd  Cd18  1  0.580725  0.254237  0.582519  1
  Cd  Cd19  1  0.254237  0.580725  0.582519  1
  Pt  Pt20  1  0.143786  0.143786  0.144820  1
  Pt  Pt21  1  0.143786  0.143786  0.567608  1
  Pt  Pt22  1  0.142936  0.568959  0.144052  1
  Pt  Pt23  1  0.568959  0.142936  0.144052  1
