# generated using pymatgen
data_AlVAs2(SeO3)8
_symmetry_space_group_name_H-M   'P 1'
_cell_length_a   7.95756369
_cell_length_b   8.02665014
_cell_length_c   7.98538408
_cell_angle_alpha   89.42905680
_cell_angle_beta   89.83340499
_cell_angle_gamma   90.19061555
_symmetry_Int_Tables_number   1
_chemical_formula_structural   AlVAs2(SeO3)8
_chemical_formula_sum   'Al1 V1 As2 Se8 O24'
_cell_volume   510.01673006
_cell_formula_units_Z   1
loop_
 _symmetry_equiv_pos_site_id
 _symmetry_equiv_pos_as_xyz
  1  'x, y, z'
loop_
 _atom_site_type_symbol
 _atom_site_label
 _atom_site_symmetry_multiplicity
 _atom_site_fract_x
 _atom_site_fract_y
 _atom_site_fract_z
 _atom_site_occupancy
  Al  Al0  1  0.000000  0.500000  0.000000  1
  V  V1  1  0.500000  0.500000  0.500000  1
  As  As2  1  0.000000  0.000000  0.500000  1
  As  As3  1  0.500000  0.000000  0.000000  1
  Se  Se4  1  0.326697  0.673215  0.164201  1
  Se  Se5  1  0.837864  0.326277  0.325679  1
  Se  Se6  1  0.677246  0.837506  0.676770  1
  Se  Se7  1  0.179343  0.172951  0.822451  1
  Se  Se8  1  0.673303  0.326785  0.835799  1
  Se  Se9  1  0.162136  0.673723  0.674321  1
  Se  Se10  1  0.322754  0.162494  0.323230  1
  Se  Se11  1  0.820657  0.827049  0.177549  1
  O  O12  1  0.233042  0.545356  0.023546  1
  O  O13  1  0.749834  0.459744  0.465448  1
  O  O14  1  0.766647  0.990832  0.537567  1
  O  O15  1  0.266288  0.021924  0.964435  1
  O  O16  1  0.535487  0.984624  0.767159  1
  O  O17  1  0.468473  0.539618  0.251720  1
  O  O18  1  0.982423  0.453525  0.232619  1
  O  O19  1  0.034838  0.027211  0.733474  1
  O  O20  1  0.989531  0.228178  0.470220  1
  O  O21  1  0.543806  0.750590  0.539625  1
  O  O22  1  0.475755  0.770981  0.016533  1
  O  O23  1  0.048123  0.264571  0.958209  1
  O  O24  1  0.766958  0.454644  0.976454  1
  O  O25  1  0.250166  0.540256  0.534552  1
  O  O26  1  0.233353  0.009168  0.462433  1
  O  O27  1  0.733712  0.978076  0.035565  1
  O  O28  1  0.464513  0.015376  0.232841  1
  O  O29  1  0.531527  0.460382  0.748280  1
  O  O30  1  0.017577  0.546475  0.767381  1
  O  O31  1  0.965162  0.972789  0.266526  1
  O  O32  1  0.010469  0.771822  0.529780  1
  O  O33  1  0.456194  0.249410  0.460375  1
  O  O34  1  0.524245  0.229019  0.983467  1
  O  O35  1  0.951877  0.735429  0.041791  1
