# generated using pymatgen
data_MgZrMoH6
_symmetry_space_group_name_H-M   'P 1'
_cell_length_a   4.77784116
_cell_length_b   4.77783975
_cell_length_c   4.77784100
_cell_angle_alpha   59.99995127
_cell_angle_beta   59.99995635
_cell_angle_gamma   59.99994983
_symmetry_Int_Tables_number   1
_chemical_formula_structural   MgZrMoH6
_chemical_formula_sum   'Mg1 Zr1 Mo1 H6'
_cell_volume   77.12221850
_cell_formula_units_Z   1
loop_
 _symmetry_equiv_pos_site_id
 _symmetry_equiv_pos_as_xyz
  1  'x, y, z'
loop_
 _atom_site_type_symbol
 _atom_site_label
 _atom_site_symmetry_multiplicity
 _atom_site_fract_x
 _atom_site_fract_y
 _atom_site_fract_z
 _atom_site_occupancy
  Mg  Mg0  1  0.750000  0.750000  0.750000  1
  Zr  Zr1  1  0.250000  0.250000  0.250000  1
  Mo  Mo2  1  0.000000  0.000000  0.000000  1
  H  H3  1  0.732604  0.267396  0.267396  1
  H  H4  1  0.732604  0.732604  0.267396  1
  H  H5  1  0.267394  0.732602  0.267397  1
  H  H6  1  0.267396  0.732604  0.732604  1
  H  H7  1  0.267396  0.267396  0.732604  1
  H  H8  1  0.732603  0.267394  0.732605  1
