# generated using pymatgen
data_Ho7Er2Lu7(Ga3Co)2
_symmetry_space_group_name_H-M   'P 1'
_cell_length_a   9.83957605
_cell_length_b   9.84158068
_cell_length_c   6.92699002
_cell_angle_alpha   90.00447941
_cell_angle_beta   89.99135177
_cell_angle_gamma   119.97835936
_symmetry_Int_Tables_number   1
_chemical_formula_structural   Ho7Er2Lu7(Ga3Co)2
_chemical_formula_sum   'Ho7 Er2 Lu7 Ga6 Co2'
_cell_volume   581.04677638
_cell_formula_units_Z   1
loop_
 _symmetry_equiv_pos_site_id
 _symmetry_equiv_pos_as_xyz
  1  'x, y, z'
loop_
 _atom_site_type_symbol
 _atom_site_label
 _atom_site_symmetry_multiplicity
 _atom_site_fract_x
 _atom_site_fract_y
 _atom_site_fract_z
 _atom_site_occupancy
  Ho  Ho0  1  0.073120  0.536496  0.207703  1
  Ho  Ho1  1  0.463297  0.926964  0.207663  1
  Ho  Ho2  1  0.535629  0.463998  0.708751  1
  Ho  Ho3  1  0.928137  0.463914  0.708831  1
  Ho  Ho4  1  0.535735  0.071762  0.709188  1
  Ho  Ho5  1  0.000211  0.999853  0.232989  1
  Ho  Ho6  1  0.000206  0.000108  0.730940  1
  Er  Er7  1  0.666479  0.333464  0.328523  1
  Er  Er8  1  0.463320  0.536783  0.207424  1
  Lu  Lu9  1  0.174049  0.825337  0.513365  1
  Lu  Lu10  1  0.651238  0.825516  0.512866  1
  Lu  Lu11  1  0.174554  0.348567  0.512707  1
  Lu  Lu12  1  0.826667  0.173402  0.012265  1
  Lu  Lu13  1  0.347019  0.173765  0.012653  1
  Lu  Lu14  1  0.826206  0.653191  0.012373  1
  Lu  Lu15  1  0.333236  0.666531  0.825486  1
  Ga  Ga16  1  0.164225  0.836813  0.954820  1
  Ga  Ga17  1  0.671695  0.835712  0.954875  1
  Ga  Ga18  1  0.164617  0.328160  0.954662  1
  Ga  Ga19  1  0.837328  0.163101  0.457702  1
  Ga  Ga20  1  0.325655  0.162161  0.457036  1
  Ga  Ga21  1  0.837296  0.674733  0.456815  1
  Co  Co22  1  0.333486  0.666387  0.446139  1
  Co  Co23  1  0.666598  0.333279  0.948265  1
