# generated using pymatgen
data_Ga2Cu(Ni10B3)2
_symmetry_space_group_name_H-M   'P 1'
_cell_length_a   7.40652492
_cell_length_b   7.40652540
_cell_length_c   7.40652500
_cell_angle_alpha   60.00000627
_cell_angle_beta   60.00000411
_cell_angle_gamma   60.00000233
_symmetry_Int_Tables_number   1
_chemical_formula_structural   Ga2Cu(Ni10B3)2
_chemical_formula_sum   'Ga2 Cu1 Ni20 B6'
_cell_volume   287.29531388
_cell_formula_units_Z   1
loop_
 _symmetry_equiv_pos_site_id
 _symmetry_equiv_pos_as_xyz
  1  'x, y, z'
loop_
 _atom_site_type_symbol
 _atom_site_label
 _atom_site_symmetry_multiplicity
 _atom_site_fract_x
 _atom_site_fract_y
 _atom_site_fract_z
 _atom_site_occupancy
  Ga  Ga0  1  0.750000  0.750000  0.750000  1
  Ga  Ga1  1  0.250000  0.250000  0.250000  1
  Cu  Cu2  1  0.000000  0.000000  0.000000  1
  Ni  Ni3  1  0.000000  0.337311  0.662689  1
  Ni  Ni4  1  0.000000  0.000000  0.662689  1
  Ni  Ni5  1  0.662689  0.337311  0.000000  1
  Ni  Ni6  1  0.000000  0.337311  0.000000  1
  Ni  Ni7  1  0.337311  0.000000  0.662689  1
  Ni  Ni8  1  0.337311  0.000000  0.000000  1
  Ni  Ni9  1  0.662689  0.000000  0.000000  1
  Ni  Ni10  1  0.337311  0.662689  0.000000  1
  Ni  Ni11  1  0.662689  0.000000  0.337311  1
  Ni  Ni12  1  0.000000  0.000000  0.337311  1
  Ni  Ni13  1  0.000000  0.662689  0.000000  1
  Ni  Ni14  1  0.000000  0.662689  0.337311  1
  Ni  Ni15  1  0.617401  0.147795  0.617401  1
  Ni  Ni16  1  0.382599  0.382599  0.852205  1
  Ni  Ni17  1  0.852205  0.382599  0.382599  1
  Ni  Ni18  1  0.382599  0.382599  0.382599  1
  Ni  Ni19  1  0.147795  0.617401  0.617401  1
  Ni  Ni20  1  0.617401  0.617401  0.617401  1
  Ni  Ni21  1  0.617401  0.617401  0.147795  1
  Ni  Ni22  1  0.382599  0.852205  0.382599  1
  B  B23  1  0.726292  0.273708  0.726292  1
  B  B24  1  0.726292  0.273708  0.273708  1
  B  B25  1  0.273708  0.726292  0.726292  1
  B  B26  1  0.273708  0.273708  0.726292  1
  B  B27  1  0.726292  0.726292  0.273708  1
  B  B28  1  0.273708  0.726292  0.273708  1
