# generated using pymatgen
data_Li3Yb2DyPt3
_symmetry_space_group_name_H-M   'P 1'
_cell_length_a   7.11480593
_cell_length_b   7.14824305
_cell_length_c   4.05183900
_cell_angle_alpha   90.00000000
_cell_angle_beta   90.00000000
_cell_angle_gamma   120.15556355
_symmetry_Int_Tables_number   1
_chemical_formula_structural   Li3Yb2DyPt3
_chemical_formula_sum   'Li3 Yb2 Dy1 Pt3'
_cell_volume   178.18135658
_cell_formula_units_Z   1
loop_
 _symmetry_equiv_pos_site_id
 _symmetry_equiv_pos_as_xyz
  1  'x, y, z'
loop_
 _atom_site_type_symbol
 _atom_site_label
 _atom_site_symmetry_multiplicity
 _atom_site_fract_x
 _atom_site_fract_y
 _atom_site_fract_z
 _atom_site_occupancy
  Li  Li0  1  0.759658  0.760851  0.500000  1
  Li  Li1  1  0.240342  0.001193  0.500000  1
  Li  Li2  1  0.000000  0.233571  0.500000  1
  Yb  Yb3  1  0.413538  0.414895  0.000000  1
  Yb  Yb4  1  0.586462  0.001358  0.000000  1
  Dy  Dy5  1  0.000000  0.590102  0.000000  1
  Pt  Pt6  1  0.000000  0.990305  0.000000  1
  Pt  Pt7  1  0.678408  0.343065  0.500000  1
  Pt  Pt8  1  0.321592  0.664658  0.500000  1
