# generated using pymatgen
data_Nd15Lu5Pt16
_symmetry_space_group_name_H-M   'P 1'
_cell_length_a   7.65672915
_cell_length_b   7.79176393
_cell_length_c   14.88038171
_cell_angle_alpha   89.95308782
_cell_angle_beta   90.01889791
_cell_angle_gamma   89.89228089
_symmetry_Int_Tables_number   1
_chemical_formula_structural   Nd15Lu5Pt16
_chemical_formula_sum   'Nd15 Lu5 Pt16'
_cell_volume   887.75311608
_cell_formula_units_Z   1
loop_
 _symmetry_equiv_pos_site_id
 _symmetry_equiv_pos_as_xyz
  1  'x, y, z'
loop_
 _atom_site_type_symbol
 _atom_site_label
 _atom_site_symmetry_multiplicity
 _atom_site_fract_x
 _atom_site_fract_y
 _atom_site_fract_z
 _atom_site_occupancy
  Nd  Nd0  1  0.159848  0.669841  0.876243  1
  Nd  Nd1  1  0.838587  0.328297  0.379232  1
  Nd  Nd2  1  0.339932  0.170112  0.122548  1
  Nd  Nd3  1  0.341434  0.168120  0.379320  1
  Nd  Nd4  1  0.840103  0.328544  0.122271  1
  Nd  Nd5  1  0.157655  0.669825  0.620105  1
  Nd  Nd6  1  0.660240  0.830105  0.877284  1
  Nd  Nd7  1  0.994393  0.823608  0.402213  1
  Nd  Nd8  1  0.497077  0.675530  0.097927  1
  Nd  Nd9  1  0.503696  0.322874  0.599083  1
  Nd  Nd10  1  0.004964  0.178377  0.899343  1
  Nd  Nd11  1  0.999307  0.172577  0.599015  1
  Nd  Nd12  1  0.504587  0.322529  0.898763  1
  Nd  Nd13  1  0.498067  0.679040  0.406315  1
  Nd  Nd14  1  0.995703  0.822600  0.098239  1
  Lu  Lu15  1  0.678785  0.982209  0.250139  1
  Lu  Lu16  1  0.179652  0.516964  0.251169  1
  Lu  Lu17  1  0.819734  0.488189  0.747369  1
  Lu  Lu18  1  0.323245  0.012494  0.747898  1
  Lu  Lu19  1  0.659601  0.831156  0.625096  1
  Pt  Pt20  1  0.814393  0.643258  0.250707  1
  Pt  Pt21  1  0.318226  0.856158  0.250838  1
  Pt  Pt22  1  0.687232  0.140490  0.747104  1
  Pt  Pt23  1  0.188147  0.358532  0.747957  1
  Pt  Pt24  1  0.540511  0.390950  0.250930  1
  Pt  Pt25  1  0.039795  0.107260  0.250771  1
  Pt  Pt26  1  0.954658  0.885494  0.746821  1
  Pt  Pt27  1  0.461260  0.617773  0.746392  1
  Pt  Pt28  1  0.813092  0.535911  0.548218  1
  Pt  Pt29  1  0.323960  0.977459  0.950439  1
  Pt  Pt30  1  0.679673  0.022842  0.461377  1
  Pt  Pt31  1  0.176235  0.476011  0.047370  1
  Pt  Pt32  1  0.174070  0.476208  0.450923  1
  Pt  Pt33  1  0.675353  0.022837  0.048289  1
  Pt  Pt34  1  0.333234  0.973607  0.551309  1
  Pt  Pt35  1  0.823553  0.522220  0.950985  1
