# generated using pymatgen
data_Tb3HoAl24Pt7Au2
_symmetry_space_group_name_H-M   'P 1'
_cell_length_a   7.56373724
_cell_length_b   7.58064311
_cell_length_c   13.15502110
_cell_angle_alpha   84.52798926
_cell_angle_beta   78.98744488
_cell_angle_gamma   59.92865496
_symmetry_Int_Tables_number   1
_chemical_formula_structural   Tb3HoAl24Pt7Au2
_chemical_formula_sum   'Tb3 Ho1 Al24 Pt7 Au2'
_cell_volume   640.73732159
_cell_formula_units_Z   1
loop_
 _symmetry_equiv_pos_site_id
 _symmetry_equiv_pos_as_xyz
  1  'x, y, z'
loop_
 _atom_site_type_symbol
 _atom_site_label
 _atom_site_symmetry_multiplicity
 _atom_site_fract_x
 _atom_site_fract_y
 _atom_site_fract_z
 _atom_site_occupancy
  Tb  Tb0  1  0.392679  0.169329  0.809194  1
  Tb  Tb1  1  0.607337  0.830679  0.190802  1
  Tb  Tb2  1  0.733466  0.499022  0.809903  1
  Ho  Ho3  1  0.266474  0.500938  0.190252  1
  Al  Al4  1  0.683267  0.834298  0.944906  1
  Al  Al5  1  0.316674  0.165989  0.055246  1
  Al  Al6  1  0.145735  0.839319  0.562305  1
  Al  Al7  1  0.854282  0.160640  0.437688  1
  Al  Al8  1  0.488167  0.159462  0.559416  1
  Al  Al9  1  0.511799  0.840569  0.440578  1
  Al  Al10  1  0.223005  0.160772  0.325531  1
  Al  Al11  1  0.777060  0.839445  0.674321  1
  Al  Al12  1  0.439870  0.506952  0.674373  1
  Al  Al13  1  0.559892  0.493072  0.325460  1
  Al  Al14  1  0.109012  0.154836  0.672947  1
  Al  Al15  1  0.891287  0.844915  0.326899  1
  Al  Al16  1  0.352883  0.499100  0.944855  1
  Al  Al17  1  0.646734  0.500905  0.055457  1
  Al  Al18  1  0.015431  0.167387  0.953651  1
  Al  Al19  1  0.984772  0.832369  0.046511  1
  Al  Al20  1  0.195571  0.499198  0.437557  1
  Al  Al21  1  0.804485  0.500808  0.562344  1
  Al  Al22  1  0.732688  0.164702  0.183100  1
  Al  Al23  1  0.267001  0.835532  0.816907  1
  Al  Al24  1  0.060296  0.634089  0.817865  1
  Al  Al25  1  0.939947  0.365984  0.182145  1
  Al  Al26  1  0.854366  0.042409  0.816388  1
  Al  Al27  1  0.145710  0.957252  0.183615  1
  Pt  Pt28  1  0.657063  0.171711  0.999869  1
  Pt  Pt29  1  0.342777  0.828325  0.000263  1
  Pt  Pt30  1  0.537322  0.166878  0.362039  1
  Pt  Pt31  1  0.462500  0.833354  0.637808  1
  Pt  Pt32  1  0.779810  0.175298  0.636539  1
  Pt  Pt33  1  0.220264  0.824456  0.363309  1
  Pt  Pt34  1  0.000072  0.500017  0.000070  1
  Au  Au35  1  0.120066  0.491086  0.637926  1
  Au  Au36  1  0.880236  0.508905  0.361960  1
