# generated using pymatgen
data_CaPr3(BeSi3)2
_symmetry_space_group_name_H-M   'P 1'
_cell_length_a   8.14684385
_cell_length_b   7.94265144
_cell_length_c   5.88868482
_cell_angle_alpha   70.39224989
_cell_angle_beta   66.69350539
_cell_angle_gamma   42.91426860
_symmetry_Int_Tables_number   1
_chemical_formula_structural   CaPr3(BeSi3)2
_chemical_formula_sum   'Ca1 Pr3 Be2 Si6'
_cell_volume   237.64161610
_cell_formula_units_Z   1
loop_
 _symmetry_equiv_pos_site_id
 _symmetry_equiv_pos_as_xyz
  1  'x, y, z'
loop_
 _atom_site_type_symbol
 _atom_site_label
 _atom_site_symmetry_multiplicity
 _atom_site_fract_x
 _atom_site_fract_y
 _atom_site_fract_z
 _atom_site_occupancy
  Ca  Ca0  1  0.244968  0.755032  0.244968  1
  Pr  Pr1  1  0.750078  0.749922  0.750078  1
  Pr  Pr2  1  0.755160  0.244840  0.755160  1
  Pr  Pr3  1  0.250078  0.249922  0.250078  1
  Be  Be4  1  0.666003  0.667118  0.332882  1
  Be  Be5  1  0.332882  0.333997  0.666003  1
  Si  Si6  1  0.824678  0.347051  0.174589  1
  Si  Si7  1  0.652949  0.175322  0.346317  1
  Si  Si8  1  0.174589  0.653683  0.824678  1
  Si  Si9  1  0.346317  0.825411  0.652949  1
  Si  Si10  1  0.173433  0.171137  0.828863  1
  Si  Si11  1  0.828863  0.826567  0.173433  1
