# generated using pymatgen
data_NdSmBi2(TeO4)4
_symmetry_space_group_name_H-M   'P 1'
_cell_length_a   7.07813422
_cell_length_b   7.07813407
_cell_length_c   10.34927106
_cell_angle_alpha   66.70742497
_cell_angle_beta   66.70742595
_cell_angle_gamma   47.43055878
_symmetry_Int_Tables_number   1
_chemical_formula_structural   NdSmBi2(TeO4)4
_chemical_formula_sum   'Nd1 Sm1 Bi2 Te4 O16'
_cell_volume   344.40110627
_cell_formula_units_Z   1
loop_
 _symmetry_equiv_pos_site_id
 _symmetry_equiv_pos_as_xyz
  1  'x, y, z'
loop_
 _atom_site_type_symbol
 _atom_site_label
 _atom_site_symmetry_multiplicity
 _atom_site_fract_x
 _atom_site_fract_y
 _atom_site_fract_z
 _atom_site_occupancy
  Nd  Nd0  1  0.056513  0.943487  0.500000  1
  Sm  Sm1  1  0.945943  0.054057  0.000000  1
  Bi  Bi2  1  0.669264  0.775749  0.903763  1
  Bi  Bi3  1  0.224251  0.330736  0.096237  1
  Te  Te4  1  0.507954  0.498813  0.749511  1
  Te  Te5  1  0.501187  0.492046  0.250489  1
  Te  Te6  1  0.361568  0.189034  0.627187  1
  Te  Te7  1  0.810966  0.638432  0.372813  1
  O  O8  1  0.793303  0.352590  0.591457  1
  O  O9  1  0.647410  0.206697  0.408543  1
  O  O10  1  0.199397  0.653966  0.902297  1
  O  O11  1  0.346034  0.800603  0.097703  1
  O  O12  1  0.720952  0.479391  0.836777  1
  O  O13  1  0.520609  0.279048  0.163223  1
  O  O14  1  0.294874  0.492505  0.664649  1
  O  O15  1  0.507495  0.705126  0.335351  1
  O  O16  1  0.911656  0.722702  0.160643  1
  O  O17  1  0.277298  0.088344  0.839357  1
  O  O18  1  0.077755  0.284867  0.345277  1
  O  O19  1  0.715133  0.922245  0.654723  1
  O  O20  1  0.154387  0.644206  0.369468  1
  O  O21  1  0.355794  0.845613  0.630532  1
  O  O22  1  0.842513  0.362456  0.122621  1
  O  O23  1  0.637544  0.157487  0.877379  1
