# generated using pymatgen
data_HoFeNi4P3
_symmetry_space_group_name_H-M   'P 1'
_cell_length_a   3.69112500
_cell_length_b   10.29894400
_cell_length_c   11.86921400
_cell_angle_alpha   90.00000000
_cell_angle_beta   90.00000000
_cell_angle_gamma   90.00000000
_symmetry_Int_Tables_number   1
_chemical_formula_structural   HoFeNi4P3
_chemical_formula_sum   'Ho4 Fe4 Ni16 P12'
_cell_volume   451.20448686
_cell_formula_units_Z   4
loop_
 _symmetry_equiv_pos_site_id
 _symmetry_equiv_pos_as_xyz
  1  'x, y, z'
loop_
 _atom_site_type_symbol
 _atom_site_label
 _atom_site_symmetry_multiplicity
 _atom_site_fract_x
 _atom_site_fract_y
 _atom_site_fract_z
 _atom_site_occupancy
  Ho  Ho0  1  0.250000  0.579408  0.704783  1
  Ho  Ho1  1  0.250000  0.920592  0.204783  1
  Ho  Ho2  1  0.750000  0.420592  0.295217  1
  Ho  Ho3  1  0.750000  0.079408  0.795217  1
  Fe  Fe4  1  0.250000  0.463858  0.931691  1
  Fe  Fe5  1  0.250000  0.036142  0.431691  1
  Fe  Fe6  1  0.750000  0.536142  0.068309  1
  Fe  Fe7  1  0.750000  0.963858  0.568309  1
  Ni  Ni8  1  0.250000  0.714131  0.994862  1
  Ni  Ni9  1  0.250000  0.785869  0.494862  1
  Ni  Ni10  1  0.750000  0.285869  0.005138  1
  Ni  Ni11  1  0.750000  0.214131  0.505138  1
  Ni  Ni12  1  0.250000  0.407338  0.487151  1
  Ni  Ni13  1  0.250000  0.092662  0.987151  1
  Ni  Ni14  1  0.750000  0.592662  0.512849  1
  Ni  Ni15  1  0.750000  0.907338  0.012849  1
  Ni  Ni16  1  0.250000  0.225364  0.176699  1
  Ni  Ni17  1  0.250000  0.274636  0.676699  1
  Ni  Ni18  1  0.750000  0.774636  0.823301  1
  Ni  Ni19  1  0.750000  0.725364  0.323301  1
  Ni  Ni20  1  0.250000  0.877777  0.701853  1
  Ni  Ni21  1  0.250000  0.622223  0.201853  1
  Ni  Ni22  1  0.750000  0.122223  0.298147  1
  Ni  Ni23  1  0.750000  0.377777  0.798147  1
  P  P24  1  0.250000  0.425902  0.111971  1
  P  P25  1  0.250000  0.074098  0.611971  1
  P  P26  1  0.750000  0.574098  0.888029  1
  P  P27  1  0.750000  0.925902  0.388029  1
  P  P28  1  0.250000  0.268575  0.868750  1
  P  P29  1  0.250000  0.231425  0.368750  1
  P  P30  1  0.750000  0.731425  0.131250  1
  P  P31  1  0.750000  0.768575  0.631250  1
  P  P32  1  0.250000  0.603625  0.392897  1
  P  P33  1  0.250000  0.896375  0.892897  1
  P  P34  1  0.750000  0.396375  0.607103  1
  P  P35  1  0.750000  0.103625  0.107103  1
