# generated using pymatgen
data_La2Ho3Os2
_symmetry_space_group_name_H-M   'P 1'
_cell_length_a   6.50604697
_cell_length_b   7.33684494
_cell_length_c   8.69792319
_cell_angle_alpha   96.82718781
_cell_angle_beta   111.96252977
_cell_angle_gamma   89.99999577
_symmetry_Int_Tables_number   1
_chemical_formula_structural   La2Ho3Os2
_chemical_formula_sum   'La4 Ho6 Os4'
_cell_volume   381.87865445
_cell_formula_units_Z   2
loop_
 _symmetry_equiv_pos_site_id
 _symmetry_equiv_pos_as_xyz
  1  'x, y, z'
loop_
 _atom_site_type_symbol
 _atom_site_label
 _atom_site_symmetry_multiplicity
 _atom_site_fract_x
 _atom_site_fract_y
 _atom_site_fract_z
 _atom_site_occupancy
  La  La0  1  0.979778  0.913171  0.194033  1
  La  La1  1  0.785743  0.586829  0.805967  1
  La  La2  1  0.020222  0.086829  0.805967  1
  La  La3  1  0.214257  0.413171  0.194033  1
  Ho  Ho4  1  0.635851  0.815509  0.431547  1
  Ho  Ho5  1  0.204303  0.684491  0.568453  1
  Ho  Ho6  1  0.364149  0.184491  0.568453  1
  Ho  Ho7  1  0.795697  0.315509  0.431547  1
  Ho  Ho8  1  0.428693  0.750000  0.000000  1
  Ho  Ho9  1  0.571307  0.250000  0.000000  1
  Os  Os10  1  0.822158  0.577835  0.224276  1
  Os  Os11  1  0.597882  0.922165  0.775724  1
  Os  Os12  1  0.177842  0.422165  0.775724  1
  Os  Os13  1  0.402118  0.077835  0.224276  1
