# generated using pymatgen
data_Ho3Zn2(SiAu)2
_symmetry_space_group_name_H-M   'P 1'
_cell_length_a   4.23517600
_cell_length_b   7.05247203
_cell_length_c   6.93418916
_cell_angle_alpha   120.56589857
_cell_angle_beta   90.00000000
_cell_angle_gamma   90.00000000
_symmetry_Int_Tables_number   1
_chemical_formula_structural   Ho3Zn2(SiAu)2
_chemical_formula_sum   'Ho3 Zn2 Si2 Au2'
_cell_volume   178.33405809
_cell_formula_units_Z   1
loop_
 _symmetry_equiv_pos_site_id
 _symmetry_equiv_pos_as_xyz
  1  'x, y, z'
loop_
 _atom_site_type_symbol
 _atom_site_label
 _atom_site_symmetry_multiplicity
 _atom_site_fract_x
 _atom_site_fract_y
 _atom_site_fract_z
 _atom_site_occupancy
  Ho  Ho0  1  0.000000  0.421744  0.000000  1
  Ho  Ho1  1  0.000000  0.583956  0.586082  1
  Ho  Ho2  1  0.000000  0.997875  0.413918  1
  Zn  Zn3  1  0.500000  0.249862  0.250286  1
  Zn  Zn4  1  0.500000  0.999576  0.749714  1
  Si  Si5  1  0.500000  0.669158  0.342025  1
  Si  Si6  1  0.500000  0.327132  0.657975  1
  Au  Au7  1  0.000000  0.018262  0.000000  1
  Au  Au8  1  0.500000  0.732532  0.000000  1
