# generated using pymatgen
data_SrIr2Pd2Pb3O14
_symmetry_space_group_name_H-M   'P 1'
_cell_length_a   7.41806663
_cell_length_b   7.30685382
_cell_length_c   7.41806668
_cell_angle_alpha   59.82782264
_cell_angle_beta   60.20161980
_cell_angle_gamma   59.82782166
_symmetry_Int_Tables_number   1
_chemical_formula_structural   SrIr2Pd2Pb3O14
_chemical_formula_sum   'Sr1 Ir2 Pd2 Pb3 O14'
_cell_volume   283.99823069
_cell_formula_units_Z   1
loop_
 _symmetry_equiv_pos_site_id
 _symmetry_equiv_pos_as_xyz
  1  'x, y, z'
loop_
 _atom_site_type_symbol
 _atom_site_label
 _atom_site_symmetry_multiplicity
 _atom_site_fract_x
 _atom_site_fract_y
 _atom_site_fract_z
 _atom_site_occupancy
  Sr  Sr0  1  0.125000  0.625000  0.125000  1
  Ir  Ir1  1  0.125000  0.625000  0.625000  1
  Ir  Ir2  1  0.625000  0.625000  0.125000  1
  Pd  Pd3  1  0.625000  0.125000  0.625000  1
  Pd  Pd4  1  0.625000  0.625000  0.625000  1
  Pb  Pb5  1  0.625000  0.125000  0.125000  1
  Pb  Pb6  1  0.125000  0.125000  0.625000  1
  Pb  Pb7  1  0.125000  0.125000  0.125000  1
  O  O8  1  0.703200  0.708462  0.288232  1
  O  O9  1  0.291232  0.299004  0.706967  1
  O  O10  1  0.708664  0.289845  0.708664  1
  O  O11  1  0.298514  0.708031  0.298514  1
  O  O12  1  0.288232  0.708462  0.703200  1
  O  O13  1  0.706967  0.299004  0.291232  1
  O  O14  1  0.546800  0.541538  0.961768  1
  O  O15  1  0.958768  0.950996  0.543033  1
  O  O16  1  0.541336  0.960155  0.541336  1
  O  O17  1  0.951486  0.541969  0.951486  1
  O  O18  1  0.961768  0.541538  0.546800  1
  O  O19  1  0.543033  0.950996  0.958768  1
  O  O20  1  0.261229  0.224166  0.261229  1
  O  O21  1  0.988771  0.025834  0.988771  1
