# generated using pymatgen
data_La3Sn3HgIr2
_symmetry_space_group_name_H-M   'P 1'
_cell_length_a   7.78056400
_cell_length_b   7.78056530
_cell_length_c   4.24398000
_cell_angle_alpha   90.00000000
_cell_angle_beta   90.00000000
_cell_angle_gamma   120.00000299
_symmetry_Int_Tables_number   1
_chemical_formula_structural   La3Sn3HgIr2
_chemical_formula_sum   'La3 Sn3 Hg1 Ir2'
_cell_volume   222.49803427
_cell_formula_units_Z   1
loop_
 _symmetry_equiv_pos_site_id
 _symmetry_equiv_pos_as_xyz
  1  'x, y, z'
loop_
 _atom_site_type_symbol
 _atom_site_label
 _atom_site_symmetry_multiplicity
 _atom_site_fract_x
 _atom_site_fract_y
 _atom_site_fract_z
 _atom_site_occupancy
  La  La0  1  0.601846  0.021481  0.000000  1
  La  La1  1  0.978519  0.580364  0.000000  1
  La  La2  1  0.419636  0.398154  0.000000  1
  Sn  Sn3  1  0.246028  0.009232  0.500000  1
  Sn  Sn4  1  0.990768  0.236796  0.500000  1
  Sn  Sn5  1  0.763204  0.753972  0.500000  1
  Hg  Hg6  1  0.333333  0.666667  0.500000  1
  Ir  Ir7  1  0.666667  0.333333  0.500000  1
  Ir  Ir8  1  0.000000  0.000000  0.000000  1
