# generated using pymatgen
data_Tm6Lu6InFe3Bi
_symmetry_space_group_name_H-M   'P 1'
_cell_length_a   8.25575250
_cell_length_b   8.25065496
_cell_length_c   8.25575273
_cell_angle_alpha   108.60535702
_cell_angle_beta   108.24410169
_cell_angle_gamma   111.61145133
_symmetry_Int_Tables_number   1
_chemical_formula_structural   Tm6Lu6InFe3Bi
_chemical_formula_sum   'Tm6 Lu6 In1 Fe3 Bi1'
_cell_volume   432.29910869
_cell_formula_units_Z   1
loop_
 _symmetry_equiv_pos_site_id
 _symmetry_equiv_pos_as_xyz
  1  'x, y, z'
loop_
 _atom_site_type_symbol
 _atom_site_label
 _atom_site_symmetry_multiplicity
 _atom_site_fract_x
 _atom_site_fract_y
 _atom_site_fract_z
 _atom_site_occupancy
  Tm  Tm0  1  0.312572  0.302920  0.615788  1
  Tm  Tm1  1  0.687428  0.697080  0.384212  1
  Tm  Tm2  1  0.687133  0.302920  0.990348  1
  Tm  Tm3  1  0.312867  0.697080  0.009652  1
  Tm  Tm4  1  0.194031  0.425353  0.231322  1
  Tm  Tm5  1  0.805969  0.574647  0.768678  1
  Lu  Lu6  1  0.194084  0.962973  0.768890  1
  Lu  Lu7  1  0.954983  0.190573  0.764072  1
  Lu  Lu8  1  0.805916  0.037027  0.231110  1
  Lu  Lu9  1  0.045017  0.809427  0.235928  1
  Lu  Lu10  1  0.426501  0.190573  0.235588  1
  Lu  Lu11  1  0.573499  0.809427  0.764412  1
  In  In12  1  0.500000  0.000000  0.500000  1
  Fe  Fe13  1  0.383319  0.383190  0.999871  1
  Fe  Fe14  1  0.616681  0.616810  0.000129  1
  Fe  Fe15  1  0.000000  0.000000  0.000000  1
  Bi  Bi16  1  0.000000  0.500000  0.500000  1
