# generated using pymatgen
data_Tb2YbDyOs8
_symmetry_space_group_name_H-M   'P 1'
_cell_length_a   5.31940200
_cell_length_b   5.31940040
_cell_length_c   8.85838800
_cell_angle_alpha   90.00000000
_cell_angle_beta   90.00000000
_cell_angle_gamma   119.99999748
_symmetry_Int_Tables_number   1
_chemical_formula_structural   Tb2YbDyOs8
_chemical_formula_sum   'Tb2 Yb1 Dy1 Os8'
_cell_volume   217.07551274
_cell_formula_units_Z   1
loop_
 _symmetry_equiv_pos_site_id
 _symmetry_equiv_pos_as_xyz
  1  'x, y, z'
loop_
 _atom_site_type_symbol
 _atom_site_label
 _atom_site_symmetry_multiplicity
 _atom_site_fract_x
 _atom_site_fract_y
 _atom_site_fract_z
 _atom_site_occupancy
  Tb  Tb0  1  0.333333  0.666667  0.429200  1
  Tb  Tb1  1  0.666667  0.333333  0.565753  1
  Yb  Yb2  1  0.333333  0.666667  0.063275  1
  Dy  Dy3  1  0.666667  0.333333  0.939217  1
  Os  Os4  1  0.000000  0.000000  0.501207  1
  Os  Os5  1  0.000000  0.000000  0.000627  1
  Os  Os6  1  0.828209  0.171791  0.249695  1
  Os  Os7  1  0.828209  0.656417  0.249695  1
  Os  Os8  1  0.343583  0.171791  0.249695  1
  Os  Os9  1  0.172637  0.827363  0.750545  1
  Os  Os10  1  0.172637  0.345272  0.750545  1
  Os  Os11  1  0.654728  0.827363  0.750545  1
