# generated using pymatgen
data_Y5Sc5Si20IrPt7
_symmetry_space_group_name_H-M   'P 1'
_cell_length_a   12.53439904
_cell_length_b   12.53515504
_cell_length_c   4.22081300
_cell_angle_alpha   90.00000000
_cell_angle_beta   90.00000000
_cell_angle_gamma   90.00928816
_symmetry_Int_Tables_number   1
_chemical_formula_structural   Y5Sc5Si20IrPt7
_chemical_formula_sum   'Y5 Sc5 Si20 Ir1 Pt7'
_cell_volume   663.17681145
_cell_formula_units_Z   1
loop_
 _symmetry_equiv_pos_site_id
 _symmetry_equiv_pos_as_xyz
  1  'x, y, z'
loop_
 _atom_site_type_symbol
 _atom_site_label
 _atom_site_symmetry_multiplicity
 _atom_site_fract_x
 _atom_site_fract_y
 _atom_site_fract_z
 _atom_site_occupancy
  Y  Y0  1  0.999846  0.997335  0.000000  1
  Y  Y1  1  0.886001  0.387337  0.500000  1
  Y  Y2  1  0.112842  0.613521  0.500000  1
  Y  Y3  1  0.387238  0.114035  0.500000  1
  Y  Y4  1  0.613354  0.886100  0.500000  1
  Sc  Sc5  1  0.500017  0.500430  0.000000  1
  Sc  Sc6  1  0.673877  0.175477  0.500000  1
  Sc  Sc7  1  0.326353  0.824650  0.500000  1
  Sc  Sc8  1  0.175243  0.326647  0.500000  1
  Sc  Sc9  1  0.825826  0.673785  0.500000  1
  Si  Si10  1  0.565275  0.067432  0.000000  1
  Si  Si11  1  0.434745  0.932636  0.000000  1
  Si  Si12  1  0.066599  0.435027  0.000000  1
  Si  Si13  1  0.933104  0.567741  0.000000  1
  Si  Si14  1  0.667643  0.703005  0.000000  1
  Si  Si15  1  0.333116  0.298286  0.000000  1
  Si  Si16  1  0.163855  0.798303  0.000000  1
  Si  Si17  1  0.833545  0.201708  0.000000  1
  Si  Si18  1  0.297381  0.667972  0.000000  1
  Si  Si19  1  0.702134  0.333338  0.000000  1
  Si  Si20  1  0.201779  0.166437  0.000000  1
  Si  Si21  1  0.801351  0.833280  0.000000  1
  Si  Si22  1  0.647797  0.506724  0.500000  1
  Si  Si23  1  0.351985  0.492710  0.500000  1
  Si  Si24  1  0.154422  0.993064  0.500000  1
  Si  Si25  1  0.845420  0.005658  0.500000  1
  Si  Si26  1  0.492852  0.647942  0.500000  1
  Si  Si27  1  0.507132  0.352443  0.500000  1
  Si  Si28  1  0.005619  0.153939  0.500000  1
  Si  Si29  1  0.993378  0.841974  0.500000  1
  Ir  Ir30  1  0.978236  0.754899  0.000000  1
  Pt  Pt31  1  0.740819  0.521406  0.000000  1
  Pt  Pt32  1  0.259027  0.479171  0.000000  1
  Pt  Pt33  1  0.245392  0.978567  0.000000  1
  Pt  Pt34  1  0.754714  0.021842  0.000000  1
  Pt  Pt35  1  0.479106  0.741018  0.000000  1
  Pt  Pt36  1  0.521093  0.259289  0.000000  1
  Pt  Pt37  1  0.021885  0.244871  0.000000  1
