# generated using pymatgen
data_Dy5Y3Ta10(TiSi8)2
_symmetry_space_group_name_H-M   'P 1'
_cell_length_a   7.05134658
_cell_length_b   7.05126805
_cell_length_c   12.98551502
_cell_angle_alpha   89.95053882
_cell_angle_beta   90.05830672
_cell_angle_gamma   89.99921567
_symmetry_Int_Tables_number   1
_chemical_formula_structural   Dy5Y3Ta10(TiSi8)2
_chemical_formula_sum   'Dy5 Y3 Ta10 Ti2 Si16'
_cell_volume   645.65137183
_cell_formula_units_Z   1
loop_
 _symmetry_equiv_pos_site_id
 _symmetry_equiv_pos_as_xyz
  1  'x, y, z'
loop_
 _atom_site_type_symbol
 _atom_site_label
 _atom_site_symmetry_multiplicity
 _atom_site_fract_x
 _atom_site_fract_y
 _atom_site_fract_z
 _atom_site_occupancy
  Dy  Dy0  1  0.159604  0.502941  0.782258  1
  Dy  Dy1  1  0.841308  0.497890  0.281940  1
  Dy  Dy2  1  0.502956  0.159551  0.217771  1
  Dy  Dy3  1  0.497890  0.841347  0.718028  1
  Dy  Dy4  1  0.341299  0.001855  0.467985  1
  Y  Y5  1  0.998428  0.657975  0.032470  1
  Y  Y6  1  0.002046  0.341154  0.531974  1
  Y  Y7  1  0.657977  0.998447  0.967510  1
  Ta  Ta8  1  0.346401  0.508581  0.375965  1
  Ta  Ta9  1  0.847123  0.992163  0.374516  1
  Ta  Ta10  1  0.008300  0.153116  0.126367  1
  Ta  Ta11  1  0.992375  0.847225  0.625437  1
  Ta  Ta12  1  0.508584  0.346269  0.624002  1
  Ta  Ta13  1  0.153134  0.008328  0.873624  1
  Ta  Ta14  1  0.672019  0.672370  0.499994  1
  Ta  Ta15  1  0.829375  0.170371  0.750026  1
  Ta  Ta16  1  0.170466  0.829435  0.250050  1
  Ta  Ta17  1  0.326243  0.326234  0.999985  1
  Ti  Ti18  1  0.492492  0.652871  0.124110  1
  Ti  Ti19  1  0.652881  0.492559  0.875888  1
  Si  Si20  1  0.045624  0.705892  0.435962  1
  Si  Si21  1  0.952778  0.294895  0.935770  1
  Si  Si22  1  0.705570  0.045404  0.564023  1
  Si  Si23  1  0.208334  0.455193  0.185453  1
  Si  Si24  1  0.793476  0.545407  0.687390  1
  Si  Si25  1  0.455138  0.208290  0.814541  1
  Si  Si26  1  0.545292  0.793677  0.312692  1
  Si  Si27  1  0.294912  0.952734  0.064232  1
  Si  Si28  1  0.794878  0.865527  0.181880  1
  Si  Si29  1  0.296790  0.633545  0.568456  1
  Si  Si30  1  0.701172  0.368486  0.066450  1
  Si  Si31  1  0.633186  0.296575  0.431508  1
  Si  Si32  1  0.368458  0.701196  0.933596  1
  Si  Si33  1  0.133651  0.204130  0.317756  1
  Si  Si34  1  0.204314  0.133437  0.682276  1
  Si  Si35  1  0.865528  0.794935  0.818118  1
