# generated using pymatgen
data_HfSc3Mn5Re3
_symmetry_space_group_name_H-M   'P 1'
_cell_length_a   5.15053200
_cell_length_b   5.04545081
_cell_length_c   8.29301319
_cell_angle_alpha   89.97893392
_cell_angle_beta   90.00000000
_cell_angle_gamma   120.69137398
_symmetry_Int_Tables_number   1
_chemical_formula_structural   HfSc3Mn5Re3
_chemical_formula_sum   'Hf1 Sc3 Mn5 Re3'
_cell_volume   185.32202661
_cell_formula_units_Z   1
loop_
 _symmetry_equiv_pos_site_id
 _symmetry_equiv_pos_as_xyz
  1  'x, y, z'
loop_
 _atom_site_type_symbol
 _atom_site_label
 _atom_site_symmetry_multiplicity
 _atom_site_fract_x
 _atom_site_fract_y
 _atom_site_fract_z
 _atom_site_occupancy
  Hf  Hf0  1  0.332605  0.665211  0.437512  1
  Sc  Sc1  1  0.665739  0.331478  0.936340  1
  Sc  Sc2  1  0.665832  0.331663  0.565228  1
  Sc  Sc3  1  0.332893  0.665787  0.061542  1
  Mn  Mn4  1  0.653932  0.824418  0.749411  1
  Mn  Mn5  1  0.338360  0.167849  0.250689  1
  Mn  Mn6  1  0.829489  0.167849  0.250689  1
  Mn  Mn7  1  0.182422  0.364845  0.749472  1
  Mn  Mn8  1  0.170486  0.824418  0.749411  1
  Re  Re9  1  0.823738  0.647475  0.250110  1
  Re  Re10  1  0.002441  0.004881  0.509507  1
  Re  Re11  1  0.002064  0.004127  0.990089  1
