# generated using pymatgen
data_Y10TlPb5
_symmetry_space_group_name_H-M   'P 1'
_cell_length_a   9.10400800
_cell_length_b   9.09908182
_cell_length_c   6.61956600
_cell_angle_alpha   90.00007556
_cell_angle_beta   90.00032726
_cell_angle_gamma   120.01724899
_symmetry_Int_Tables_number   1
_chemical_formula_structural   Y10TlPb5
_chemical_formula_sum   'Y10 Tl1 Pb5'
_cell_volume   474.80451179
_cell_formula_units_Z   1
loop_
 _symmetry_equiv_pos_site_id
 _symmetry_equiv_pos_as_xyz
  1  'x, y, z'
loop_
 _atom_site_type_symbol
 _atom_site_label
 _atom_site_symmetry_multiplicity
 _atom_site_fract_x
 _atom_site_fract_y
 _atom_site_fract_z
 _atom_site_occupancy
  Y  Y0  1  0.666099  0.330417  0.001212  1
  Y  Y1  1  0.335693  0.669580  0.001214  1
  Y  Y2  1  0.761137  0.765088  0.250003  1
  Y  Y3  1  0.996049  0.234899  0.250012  1
  Y  Y4  1  0.239326  0.000002  0.249991  1
  Y  Y5  1  0.666101  0.330404  0.498784  1
  Y  Y6  1  0.335699  0.669586  0.498788  1
  Y  Y7  1  0.237739  0.237515  0.749993  1
  Y  Y8  1  0.762143  0.000002  0.750013  1
  Y  Y9  1  0.000221  0.762492  0.749998  1
  Tl  Tl10  1  0.605216  0.999996  0.249992  1
  Pb  Pb11  1  0.999884  0.605964  0.250002  1
  Pb  Pb12  1  0.393935  0.394045  0.250001  1
  Pb  Pb13  1  0.394155  0.000010  0.750000  1
  Pb  Pb14  1  0.000871  0.395118  0.750003  1
  Pb  Pb15  1  0.605731  0.604878  0.750000  1
