# generated using pymatgen
data_Pr17Tm3Si15Ru
_symmetry_space_group_name_H-M   'P 1'
_cell_length_a   7.89517042
_cell_length_b   7.85130583
_cell_length_c   15.14800468
_cell_angle_alpha   90.25988829
_cell_angle_beta   89.82539240
_cell_angle_gamma   90.17610898
_symmetry_Int_Tables_number   1
_chemical_formula_structural   Pr17Tm3Si15Ru
_chemical_formula_sum   'Pr17 Tm3 Si15 Ru1'
_cell_volume   938.96697237
_cell_formula_units_Z   1
loop_
 _symmetry_equiv_pos_site_id
 _symmetry_equiv_pos_as_xyz
  1  'x, y, z'
loop_
 _atom_site_type_symbol
 _atom_site_label
 _atom_site_symmetry_multiplicity
 _atom_site_fract_x
 _atom_site_fract_y
 _atom_site_fract_z
 _atom_site_occupancy
  Pr  Pr0  1  0.697109  0.688900  0.501549  1
  Pr  Pr1  1  0.373150  0.011372  0.449095  1
  Pr  Pr2  1  0.487143  0.878801  0.699405  1
  Pr  Pr3  1  0.511488  0.124619  0.197839  1
  Pr  Pr4  1  0.875807  0.486818  0.299641  1
  Pr  Pr5  1  0.126528  0.501854  0.798397  1
  Pr  Pr6  1  0.625617  0.988665  0.948541  1
  Pr  Pr7  1  0.004833  0.376259  0.552909  1
  Pr  Pr8  1  0.988251  0.625927  0.050871  1
  Pr  Pr9  1  0.133564  0.984331  0.872448  1
  Pr  Pr10  1  0.518545  0.630580  0.125982  1
  Pr  Pr11  1  0.470257  0.361629  0.631012  1
  Pr  Pr12  1  0.628736  0.516395  0.874823  1
  Pr  Pr13  1  0.374228  0.481546  0.371885  1
  Pr  Pr14  1  0.874191  0.022167  0.377160  1
  Pr  Pr15  1  0.981027  0.126646  0.122737  1
  Pr  Pr16  1  0.028119  0.884219  0.626639  1
  Tm  Tm17  1  0.309025  0.308438  0.998771  1
  Tm  Tm18  1  0.188424  0.810262  0.250178  1
  Tm  Tm19  1  0.822103  0.189160  0.749126  1
  Si  Si20  1  0.330186  0.690356  0.952848  1
  Si  Si21  1  0.663610  0.303075  0.453185  1
  Si  Si22  1  0.692799  0.331080  0.047858  1
  Si  Si23  1  0.305284  0.669061  0.546183  1
  Si  Si24  1  0.810435  0.830513  0.204506  1
  Si  Si25  1  0.170016  0.192083  0.294899  1
  Si  Si26  1  0.830614  0.806527  0.798193  1
  Si  Si27  1  0.286906  0.923154  0.061763  1
  Si  Si28  1  0.574733  0.788813  0.309605  1
  Si  Si29  1  0.426138  0.209906  0.815933  1
  Si  Si30  1  0.781308  0.578017  0.691661  1
  Si  Si31  1  0.212688  0.424162  0.186059  1
  Si  Si32  1  0.706183  0.076519  0.562939  1
  Si  Si33  1  0.922191  0.285026  0.938481  1
  Si  Si34  1  0.083926  0.718109  0.436147  1
  Ru  Ru35  1  0.184841  0.175012  0.700735  1
