# generated using pymatgen
data_La3TbNdIr3
_symmetry_space_group_name_H-M   'P 1'
_cell_length_a   11.35341800
_cell_length_b   11.33729900
_cell_length_c   6.54555400
_cell_angle_alpha   90.00000000
_cell_angle_beta   90.00000000
_cell_angle_gamma   90.00000000
_symmetry_Int_Tables_number   1
_chemical_formula_structural   La3TbNdIr3
_chemical_formula_sum   'La12 Tb4 Nd4 Ir12'
_cell_volume   842.52469302
_cell_formula_units_Z   4
loop_
 _symmetry_equiv_pos_site_id
 _symmetry_equiv_pos_as_xyz
  1  'x, y, z'
loop_
 _atom_site_type_symbol
 _atom_site_label
 _atom_site_symmetry_multiplicity
 _atom_site_fract_x
 _atom_site_fract_y
 _atom_site_fract_z
 _atom_site_occupancy
  La  La0  1  0.588684  0.789794  0.886483  1
  La  La1  1  0.588684  0.210206  0.386483  1
  La  La2  1  0.411316  0.789794  0.386483  1
  La  La3  1  0.411316  0.210206  0.886483  1
  La  La4  1  0.211787  0.410642  0.613496  1
  La  La5  1  0.211787  0.589358  0.113496  1
  La  La6  1  0.788213  0.410642  0.113496  1
  La  La7  1  0.788213  0.589358  0.613496  1
  La  La8  1  0.911124  0.712190  0.114034  1
  La  La9  1  0.911124  0.287810  0.614034  1
  La  La10  1  0.088876  0.712190  0.614034  1
  La  La11  1  0.088876  0.287810  0.114034  1
  Tb  Tb12  1  0.000000  0.000000  0.500008  1
  Tb  Tb13  1  0.000000  0.000000  0.000008  1
  Tb  Tb14  1  0.500000  0.500000  0.999506  1
  Tb  Tb15  1  0.500000  0.500000  0.499506  1
  Nd  Nd16  1  0.288747  0.087665  0.385714  1
  Nd  Nd17  1  0.288747  0.912335  0.885714  1
  Nd  Nd18  1  0.711253  0.087665  0.885714  1
  Nd  Nd19  1  0.711253  0.912335  0.385714  1
  Ir  Ir20  1  0.851059  0.149261  0.250995  1
  Ir  Ir21  1  0.851059  0.850739  0.750995  1
  Ir  Ir22  1  0.148941  0.149261  0.750995  1
  Ir  Ir23  1  0.148941  0.850739  0.250995  1
  Ir  Ir24  1  0.649514  0.350484  0.750070  1
  Ir  Ir25  1  0.649514  0.649516  0.250070  1
  Ir  Ir26  1  0.350486  0.350484  0.250070  1
  Ir  Ir27  1  0.350486  0.649516  0.750070  1
  Ir  Ir28  1  0.500000  0.000000  0.117565  1
  Ir  Ir29  1  0.500000  0.000000  0.617565  1
  Ir  Ir30  1  0.000000  0.500000  0.881336  1
  Ir  Ir31  1  0.000000  0.500000  0.381336  1
