# generated using pymatgen
data_Tb10In2Bi3Sb
_symmetry_space_group_name_H-M   'P 1'
_cell_length_a   9.12146016
_cell_length_b   9.14255584
_cell_length_c   6.56032200
_cell_angle_alpha   90.00000000
_cell_angle_beta   90.00000000
_cell_angle_gamma   119.99089811
_symmetry_Int_Tables_number   1
_chemical_formula_structural   Tb10In2Bi3Sb
_chemical_formula_sum   'Tb10 In2 Bi3 Sb1'
_cell_volume   473.83550559
_cell_formula_units_Z   1
loop_
 _symmetry_equiv_pos_site_id
 _symmetry_equiv_pos_as_xyz
  1  'x, y, z'
loop_
 _atom_site_type_symbol
 _atom_site_label
 _atom_site_symmetry_multiplicity
 _atom_site_fract_x
 _atom_site_fract_y
 _atom_site_fract_z
 _atom_site_occupancy
  Tb  Tb0  1  0.659491  0.331076  0.999477  1
  Tb  Tb1  1  0.342086  0.667327  0.999600  1
  Tb  Tb2  1  0.342086  0.667327  0.500400  1
  Tb  Tb3  1  0.659491  0.331076  0.500523  1
  Tb  Tb4  1  0.754326  0.762898  0.750000  1
  Tb  Tb5  1  0.242016  0.007639  0.750000  1
  Tb  Tb6  1  0.999868  0.235051  0.750000  1
  Tb  Tb7  1  0.243144  0.241710  0.250000  1
  Tb  Tb8  1  0.761089  0.994945  0.250000  1
  Tb  Tb9  1  0.995984  0.759875  0.250000  1
  In  In10  1  0.393057  0.394615  0.750000  1
  In  In11  1  0.606084  0.002408  0.750000  1
  Bi  Bi12  1  0.001289  0.609961  0.750000  1
  Bi  Bi13  1  0.391508  0.995978  0.250000  1
  Bi  Bi14  1  0.999034  0.391360  0.250000  1
  Sb  Sb15  1  0.609447  0.606751  0.250000  1
