# generated using pymatgen
data_Pr2Pd(SeO3)4
_symmetry_space_group_name_H-M   'P 1'
_cell_length_a   7.13909600
_cell_length_b   8.38673886
_cell_length_c   11.00967530
_cell_angle_alpha   70.80049809
_cell_angle_beta   90.00000000
_cell_angle_gamma   90.00000000
_symmetry_Int_Tables_number   1
_chemical_formula_structural   Pr2Pd(SeO3)4
_chemical_formula_sum   'Pr4 Pd2 Se8 O24'
_cell_volume   622.52569227
_cell_formula_units_Z   2
loop_
 _symmetry_equiv_pos_site_id
 _symmetry_equiv_pos_as_xyz
  1  'x, y, z'
loop_
 _atom_site_type_symbol
 _atom_site_label
 _atom_site_symmetry_multiplicity
 _atom_site_fract_x
 _atom_site_fract_y
 _atom_site_fract_z
 _atom_site_occupancy
  Pr  Pr0  1  0.664568  0.761994  0.083063  1
  Pr  Pr1  1  0.164568  0.738006  0.916937  1
  Pr  Pr2  1  0.335432  0.238006  0.916937  1
  Pr  Pr3  1  0.835432  0.261994  0.083063  1
  Pd  Pd4  1  0.500000  0.500000  0.500000  1
  Pd  Pd5  1  0.000000  0.000000  0.500000  1
  Se  Se6  1  0.679475  0.628231  0.820897  1
  Se  Se7  1  0.179475  0.871769  0.179103  1
  Se  Se8  1  0.320525  0.371769  0.179103  1
  Se  Se9  1  0.820525  0.128231  0.820897  1
  Se  Se10  1  0.324752  0.124809  0.633926  1
  Se  Se11  1  0.824752  0.375191  0.366074  1
  Se  Se12  1  0.675248  0.875191  0.366074  1
  Se  Se13  1  0.175248  0.624809  0.633926  1
  O  O14  1  0.390633  0.316500  0.656051  1
  O  O15  1  0.890633  0.183500  0.343949  1
  O  O16  1  0.609367  0.683500  0.343949  1
  O  O17  1  0.109367  0.816500  0.656051  1
  O  O18  1  0.614224  0.422851  0.852249  1
  O  O19  1  0.114224  0.077149  0.147751  1
  O  O20  1  0.385776  0.577149  0.147751  1
  O  O21  1  0.885776  0.922851  0.852249  1
  O  O22  1  0.842523  0.589094  0.947721  1
  O  O23  1  0.342523  0.910906  0.052279  1
  O  O24  1  0.157477  0.410906  0.052279  1
  O  O25  1  0.657477  0.089094  0.947721  1
  O  O26  1  0.101447  0.180391  0.569760  1
  O  O27  1  0.601447  0.319609  0.430240  1
  O  O28  1  0.898553  0.819609  0.430240  1
  O  O29  1  0.398553  0.680391  0.569760  1
  O  O30  1  0.509352  0.718692  0.889953  1
  O  O31  1  0.009352  0.781308  0.110047  1
  O  O32  1  0.490648  0.281308  0.110047  1
  O  O33  1  0.990648  0.218692  0.889953  1
  O  O34  1  0.285131  0.029753  0.795593  1
  O  O35  1  0.785131  0.470247  0.204407  1
  O  O36  1  0.714869  0.970247  0.204407  1
  O  O37  1  0.214869  0.529753  0.795593  1
