# generated using pymatgen
data_HoEr15Cd4NiIr3
_symmetry_space_group_name_H-M   'P 1'
_cell_length_a   9.50842549
_cell_length_b   9.50842650
_cell_length_c   9.50957688
_cell_angle_alpha   60.20907382
_cell_angle_beta   60.20907090
_cell_angle_gamma   60.19373105
_symmetry_Int_Tables_number   1
_chemical_formula_structural   HoEr15Cd4NiIr3
_chemical_formula_sum   'Ho1 Er15 Cd4 Ni1 Ir3'
_cell_volume   610.75145206
_cell_formula_units_Z   1
loop_
 _symmetry_equiv_pos_site_id
 _symmetry_equiv_pos_as_xyz
  1  'x, y, z'
loop_
 _atom_site_type_symbol
 _atom_site_label
 _atom_site_symmetry_multiplicity
 _atom_site_fract_x
 _atom_site_fract_y
 _atom_site_fract_z
 _atom_site_occupancy
  Ho  Ho0  1  0.187040  0.187040  0.814229  1
  Er  Er1  1  0.598937  0.598937  0.598919  1
  Er  Er2  1  0.598168  0.598168  0.202818  1
  Er  Er3  1  0.598215  0.202881  0.598109  1
  Er  Er4  1  0.202881  0.598215  0.598109  1
  Er  Er5  1  0.061413  0.439767  0.439643  1
  Er  Er6  1  0.438668  0.060277  0.060385  1
  Er  Er7  1  0.439767  0.061413  0.439643  1
  Er  Er8  1  0.060277  0.438668  0.060385  1
  Er  Er9  1  0.439714  0.439714  0.061489  1
  Er  Er10  1  0.060317  0.060317  0.438614  1
  Er  Er11  1  0.188612  0.811904  0.811982  1
  Er  Er12  1  0.814304  0.186984  0.187114  1
  Er  Er13  1  0.811904  0.188612  0.811982  1
  Er  Er14  1  0.186984  0.814304  0.187114  1
  Er  Er15  1  0.811997  0.811997  0.188597  1
  Cd  Cd16  1  0.830568  0.830568  0.830538  1
  Cd  Cd17  1  0.831717  0.831717  0.505763  1
  Cd  Cd18  1  0.831517  0.505951  0.831694  1
  Cd  Cd19  1  0.505951  0.831517  0.831694  1
  Ni  Ni20  1  0.391934  0.391934  0.392114  1
  Ir  Ir21  1  0.392295  0.392295  0.824620  1
  Ir  Ir22  1  0.392285  0.824535  0.392223  1
  Ir  Ir23  1  0.824535  0.392285  0.392223  1
