# generated using pymatgen
data_La12Os2I17
_symmetry_space_group_name_H-M   'P 1'
_cell_length_a   10.06556607
_cell_length_b   12.12124441
_cell_length_c   12.29280017
_cell_angle_alpha   73.44510148
_cell_angle_beta   74.55250660
_cell_angle_gamma   66.62340755
_symmetry_Int_Tables_number   1
_chemical_formula_structural   La12Os2I17
_chemical_formula_sum   'La12 Os2 I17'
_cell_volume   1299.44828392
_cell_formula_units_Z   1
loop_
 _symmetry_equiv_pos_site_id
 _symmetry_equiv_pos_as_xyz
  1  'x, y, z'
loop_
 _atom_site_type_symbol
 _atom_site_label
 _atom_site_symmetry_multiplicity
 _atom_site_fract_x
 _atom_site_fract_y
 _atom_site_fract_z
 _atom_site_occupancy
  La  La0  1  0.451292  0.480771  0.327567  1
  La  La1  1  0.562272  0.669474  0.001215  1
  La  La2  1  0.289104  0.998510  0.089690  1
  La  La3  1  0.857581  0.285392  0.850992  1
  La  La4  1  0.406934  0.237509  0.724585  1
  La  La5  1  0.710896  0.001490  0.910310  1
  La  La6  1  0.548708  0.519229  0.672433  1
  La  La7  1  0.437728  0.330526  0.998785  1
  La  La8  1  0.593066  0.762491  0.275415  1
  La  La9  1  0.827036  0.186664  0.579005  1
  La  La10  1  0.172964  0.813336  0.420995  1
  La  La11  1  0.142419  0.714608  0.149008  1
  Os  Os12  1  0.367720  0.737206  0.212464  1
  Os  Os13  1  0.632280  0.262794  0.787536  1
  I  I14  1  0.056109  0.106428  0.319008  1
  I  I15  1  0.460775  0.941655  0.825112  1
  I  I16  1  0.427765  0.822813  0.531493  1
  I  I17  1  0.572235  0.177187  0.468507  1
  I  I18  1  0.855867  0.695729  0.047033  1
  I  I19  1  0.214031  0.417187  0.246982  1
  I  I20  1  0.689453  0.365304  0.106303  1
  I  I21  1  0.539225  0.058345  0.174888  1
  I  I22  1  0.744778  0.472935  0.413415  1
  I  I23  1  0.885974  0.786076  0.369453  1
  I  I24  1  0.943891  0.893572  0.680992  1
  I  I25  1  0.144133  0.304271  0.952967  1
  I  I26  1  0.310547  0.634696  0.893697  1
  I  I27  1  0.000000  0.000000  0.000000  1
  I  I28  1  0.114026  0.213924  0.630547  1
  I  I29  1  0.785969  0.582813  0.753018  1
  I  I30  1  0.255222  0.527065  0.586585  1
