# generated using pymatgen
data_Ho8Ta7Ge16Mo5
_symmetry_space_group_name_H-M   'P 1'
_cell_length_a   6.93520789
_cell_length_b   7.15306158
_cell_length_c   13.45500200
_cell_angle_alpha   89.94185565
_cell_angle_beta   89.93194934
_cell_angle_gamma   89.94012056
_symmetry_Int_Tables_number   1
_chemical_formula_structural   Ho8Ta7Ge16Mo5
_chemical_formula_sum   'Ho8 Ta7 Ge16 Mo5'
_cell_volume   667.47414561
_cell_formula_units_Z   1
loop_
 _symmetry_equiv_pos_site_id
 _symmetry_equiv_pos_as_xyz
  1  'x, y, z'
loop_
 _atom_site_type_symbol
 _atom_site_label
 _atom_site_symmetry_multiplicity
 _atom_site_fract_x
 _atom_site_fract_y
 _atom_site_fract_z
 _atom_site_occupancy
  Ho  Ho0  1  0.996449  0.171350  0.094165  1
  Ho  Ho1  1  0.003191  0.826687  0.905626  1
  Ho  Ho2  1  0.502885  0.672802  0.906800  1
  Ho  Ho3  1  0.003954  0.825776  0.592718  1
  Ho  Ho4  1  0.498278  0.325870  0.093912  1
  Ho  Ho5  1  0.996260  0.173878  0.407531  1
  Ho  Ho6  1  0.496374  0.326630  0.406915  1
  Ho  Ho7  1  0.503145  0.674422  0.592494  1
  Ta  Ta8  1  0.160118  0.486803  0.748253  1
  Ta  Ta9  1  0.839653  0.513505  0.251169  1
  Ta  Ta10  1  0.339081  0.986009  0.251107  1
  Ta  Ta11  1  0.660070  0.013009  0.748885  1
  Ta  Ta12  1  0.335659  0.165971  0.872043  1
  Ta  Ta13  1  0.834235  0.331357  0.872881  1
  Ta  Ta14  1  0.163336  0.667872  0.127978  1
  Ge  Ge15  1  0.034341  0.123911  0.746295  1
  Ge  Ge16  1  0.964182  0.876014  0.253391  1
  Ge  Ge17  1  0.467847  0.624799  0.251901  1
  Ge  Ge18  1  0.533710  0.376657  0.746062  1
  Ge  Ge19  1  0.303297  0.858476  0.749553  1
  Ge  Ge20  1  0.695512  0.139940  0.250505  1
  Ge  Ge21  1  0.196884  0.359682  0.250214  1
  Ge  Ge22  1  0.802087  0.640291  0.749781  1
  Ge  Ge23  1  0.171971  0.456001  0.543826  1
  Ge  Ge24  1  0.828556  0.544835  0.455513  1
  Ge  Ge25  1  0.328861  0.955717  0.455623  1
  Ge  Ge26  1  0.826262  0.542871  0.044525  1
  Ge  Ge27  1  0.671468  0.044866  0.544103  1
  Ge  Ge28  1  0.172592  0.459563  0.957247  1
  Ge  Ge29  1  0.673590  0.038709  0.958595  1
  Ge  Ge30  1  0.329569  0.959569  0.044106  1
  Mo  Mo31  1  0.335675  0.161374  0.623127  1
  Mo  Mo32  1  0.664251  0.838389  0.374818  1
  Mo  Mo33  1  0.163403  0.662992  0.375729  1
  Mo  Mo34  1  0.666477  0.835616  0.129048  1
  Mo  Mo35  1  0.836778  0.337784  0.623558  1
