# generated using pymatgen
data_Ho6CuSi4Ni
_symmetry_space_group_name_H-M   'P 1'
_cell_length_a   4.12664800
_cell_length_b   11.21697500
_cell_length_c   11.21813400
_cell_angle_alpha   90.00000000
_cell_angle_beta   90.00000000
_cell_angle_gamma   90.00000000
_symmetry_Int_Tables_number   1
_chemical_formula_structural   Ho6CuSi4Ni
_chemical_formula_sum   'Ho12 Cu2 Si8 Ni2'
_cell_volume   519.27067923
_cell_formula_units_Z   2
loop_
 _symmetry_equiv_pos_site_id
 _symmetry_equiv_pos_as_xyz
  1  'x, y, z'
loop_
 _atom_site_type_symbol
 _atom_site_label
 _atom_site_symmetry_multiplicity
 _atom_site_fract_x
 _atom_site_fract_y
 _atom_site_fract_z
 _atom_site_occupancy
  Ho  Ho0  1  0.250000  0.058822  0.877944  1
  Ho  Ho1  1  0.250000  0.441178  0.377944  1
  Ho  Ho2  1  0.750000  0.936461  0.117125  1
  Ho  Ho3  1  0.750000  0.563539  0.617125  1
  Ho  Ho4  1  0.250000  0.119670  0.558010  1
  Ho  Ho5  1  0.250000  0.380330  0.058010  1
  Ho  Ho6  1  0.750000  0.873848  0.440543  1
  Ho  Ho7  1  0.750000  0.626152  0.940543  1
  Ho  Ho8  1  0.250000  0.804330  0.714084  1
  Ho  Ho9  1  0.250000  0.695670  0.214084  1
  Ho  Ho10  1  0.750000  0.196426  0.290207  1
  Ho  Ho11  1  0.750000  0.303574  0.790207  1
  Cu  Cu12  1  0.250000  0.364781  0.630487  1
  Cu  Cu13  1  0.250000  0.135219  0.130487  1
  Si  Si14  1  0.250000  0.814869  0.975420  1
  Si  Si15  1  0.250000  0.685131  0.475420  1
  Si  Si16  1  0.750000  0.188191  0.024348  1
  Si  Si17  1  0.750000  0.311809  0.524348  1
  Si  Si18  1  0.250000  0.496198  0.805766  1
  Si  Si19  1  0.250000  0.003802  0.305766  1
  Si  Si20  1  0.750000  0.506953  0.195634  1
  Si  Si21  1  0.750000  0.993047  0.695634  1
  Ni  Ni22  1  0.750000  0.633686  0.370430  1
  Ni  Ni23  1  0.750000  0.866314  0.870430  1
