# generated using pymatgen
data_Th4SnPd4Pb
_symmetry_space_group_name_H-M   'P 1'
_cell_length_a   7.93866300
_cell_length_b   7.93866300
_cell_length_c   3.89704600
_cell_angle_alpha   90.00000000
_cell_angle_beta   90.00000000
_cell_angle_gamma   90.00000000
_symmetry_Int_Tables_number   1
_chemical_formula_structural   Th4SnPd4Pb
_chemical_formula_sum   'Th4 Sn1 Pd4 Pb1'
_cell_volume   245.60107581
_cell_formula_units_Z   1
loop_
 _symmetry_equiv_pos_site_id
 _symmetry_equiv_pos_as_xyz
  1  'x, y, z'
loop_
 _atom_site_type_symbol
 _atom_site_label
 _atom_site_symmetry_multiplicity
 _atom_site_fract_x
 _atom_site_fract_y
 _atom_site_fract_z
 _atom_site_occupancy
  Th  Th0  1  0.678177  0.173668  0.500000  1
  Th  Th1  1  0.173668  0.321823  0.500000  1
  Th  Th2  1  0.826332  0.678177  0.500000  1
  Th  Th3  1  0.321823  0.826332  0.500000  1
  Sn  Sn4  1  0.000000  0.000000  0.000000  1
  Pd  Pd5  1  0.370281  0.122958  0.000000  1
  Pd  Pd6  1  0.122958  0.629719  0.000000  1
  Pd  Pd7  1  0.629719  0.877042  0.000000  1
  Pd  Pd8  1  0.877042  0.370281  0.000000  1
  Pb  Pb9  1  0.500000  0.500000  0.000000  1
