# generated using pymatgen
data_Li4Yb(TmPt)4
_symmetry_space_group_name_H-M   'P 1'
_cell_length_a   8.21610053
_cell_length_b   8.21610832
_cell_length_c   8.16965824
_cell_angle_alpha   93.94341391
_cell_angle_beta   93.70439683
_cell_angle_gamma   150.15578545
_symmetry_Int_Tables_number   1
_chemical_formula_structural   Li4Yb(TmPt)4
_chemical_formula_sum   'Li4 Yb1 Tm4 Pt4'
_cell_volume   265.07990466
_cell_formula_units_Z   1
loop_
 _symmetry_equiv_pos_site_id
 _symmetry_equiv_pos_as_xyz
  1  'x, y, z'
loop_
 _atom_site_type_symbol
 _atom_site_label
 _atom_site_symmetry_multiplicity
 _atom_site_fract_x
 _atom_site_fract_y
 _atom_site_fract_z
 _atom_site_occupancy
  Li  Li0  1  0.603831  0.077598  0.681423  1
  Li  Li1  1  0.922752  0.603435  0.526182  1
  Li  Li2  1  0.078230  0.396980  0.475208  1
  Li  Li3  1  0.396984  0.922549  0.319530  1
  Yb  Yb4  1  0.794603  0.872612  0.667208  1
  Tm  Tm5  1  0.127132  0.795105  0.922234  1
  Tm  Tm6  1  0.203813  0.126677  0.330502  1
  Tm  Tm7  1  0.871719  0.205336  0.077060  1
  Tm  Tm8  1  0.498997  0.498954  0.997959  1
  Pt  Pt9  1  0.440725  0.249925  0.690660  1
  Pt  Pt10  1  0.562291  0.742809  0.305088  1
  Pt  Pt11  1  0.253885  0.572813  0.826710  1
  Pt  Pt12  1  0.745037  0.435208  0.180236  1
