# generated using pymatgen
data_TmZnCu3Hg
_symmetry_space_group_name_H-M   'P 1'
_cell_length_a   5.09747675
_cell_length_b   5.09747624
_cell_length_c   5.09747600
_cell_angle_alpha   60.39056768
_cell_angle_beta   60.39057275
_cell_angle_gamma   60.39056666
_symmetry_Int_Tables_number   1
_chemical_formula_structural   TmZnCu3Hg
_chemical_formula_sum   'Tm1 Zn1 Cu3 Hg1'
_cell_volume   94.48654762
_cell_formula_units_Z   1
loop_
 _symmetry_equiv_pos_site_id
 _symmetry_equiv_pos_as_xyz
  1  'x, y, z'
loop_
 _atom_site_type_symbol
 _atom_site_label
 _atom_site_symmetry_multiplicity
 _atom_site_fract_x
 _atom_site_fract_y
 _atom_site_fract_z
 _atom_site_occupancy
  Tm  Tm0  1  0.248309  0.248309  0.248309  1
  Zn  Zn1  1  0.626390  0.626390  0.626390  1
  Cu  Cu2  1  0.625522  0.625522  0.124718  1
  Cu  Cu3  1  0.625522  0.124718  0.625522  1
  Cu  Cu4  1  0.124718  0.625522  0.625522  1
  Hg  Hg5  1  0.999541  0.999541  0.999541  1
