# generated using pymatgen
data_YbDy3Tm4(B6Ru)4
_symmetry_space_group_name_H-M   'P 1'
_cell_length_a   3.63630500
_cell_length_b   9.10005592
_cell_length_c   11.49020400
_cell_angle_alpha   89.92352911
_cell_angle_beta   90.00000000
_cell_angle_gamma   90.00000000
_symmetry_Int_Tables_number   1
_chemical_formula_structural   YbDy3Tm4(B6Ru)4
_chemical_formula_sum   'Yb1 Dy3 Tm4 B24 Ru4'
_cell_volume   380.21716261
_cell_formula_units_Z   1
loop_
 _symmetry_equiv_pos_site_id
 _symmetry_equiv_pos_as_xyz
  1  'x, y, z'
loop_
 _atom_site_type_symbol
 _atom_site_label
 _atom_site_symmetry_multiplicity
 _atom_site_fract_x
 _atom_site_fract_y
 _atom_site_fract_z
 _atom_site_occupancy
  Yb  Yb0  1  0.000000  0.323186  0.413747  1
  Dy  Dy1  1  0.000000  0.676154  0.584977  1
  Dy  Dy2  1  0.000000  0.822337  0.086375  1
  Dy  Dy3  1  0.000000  0.178187  0.914541  1
  Tm  Tm4  1  0.000000  0.944213  0.371410  1
  Tm  Tm5  1  0.000000  0.057893  0.627742  1
  Tm  Tm6  1  0.000000  0.443056  0.129488  1
  Tm  Tm7  1  0.000000  0.556023  0.872159  1
  B  B8  1  0.500000  0.554050  0.432328  1
  B  B9  1  0.500000  0.445439  0.567420  1
  B  B10  1  0.500000  0.053682  0.066913  1
  B  B11  1  0.500000  0.945632  0.932378  1
  B  B12  1  0.500000  0.749006  0.418980  1
  B  B13  1  0.500000  0.251368  0.580927  1
  B  B14  1  0.500000  0.248518  0.080877  1
  B  B15  1  0.500000  0.750864  0.919327  1
  B  B16  1  0.500000  0.791788  0.266072  1
  B  B17  1  0.500000  0.209221  0.734134  1
  B  B18  1  0.500000  0.290530  0.233924  1
  B  B19  1  0.500000  0.708786  0.766148  1
  B  B20  1  0.500000  0.631294  0.185504  1
  B  B21  1  0.500000  0.369053  0.815476  1
  B  B22  1  0.500000  0.130940  0.314570  1
  B  B23  1  0.500000  0.869076  0.684771  1
  B  B24  1  0.500000  0.983218  0.212369  1
  B  B25  1  0.500000  0.016848  0.786855  1
  B  B26  1  0.500000  0.483294  0.287425  1
  B  B27  1  0.500000  0.516638  0.713031  1
  B  B28  1  0.500000  0.605736  0.029348  1
  B  B29  1  0.500000  0.394404  0.971266  1
  B  B30  1  0.500000  0.103095  0.471509  1
  B  B31  1  0.500000  0.896116  0.528605  1
  Ru  Ru32  1  0.000000  0.639697  0.319911  1
  Ru  Ru33  1  0.000000  0.361596  0.680637  1
  Ru  Ru34  1  0.000000  0.137375  0.178381  1
  Ru  Ru35  1  0.000000  0.861689  0.820475  1
