# generated using pymatgen
data_Ce3Zn3IrPd2
_symmetry_space_group_name_H-M   'P 1'
_cell_length_a   7.35065600
_cell_length_b   7.35089782
_cell_length_c   3.93107600
_cell_angle_alpha   90.00000000
_cell_angle_beta   90.00000000
_cell_angle_gamma   120.00125103
_symmetry_Int_Tables_number   1
_chemical_formula_structural   Ce3Zn3IrPd2
_chemical_formula_sum   'Ce3 Zn3 Ir1 Pd2'
_cell_volume   183.95139329
_cell_formula_units_Z   1
loop_
 _symmetry_equiv_pos_site_id
 _symmetry_equiv_pos_as_xyz
  1  'x, y, z'
loop_
 _atom_site_type_symbol
 _atom_site_label
 _atom_site_symmetry_multiplicity
 _atom_site_fract_x
 _atom_site_fract_y
 _atom_site_fract_z
 _atom_site_occupancy
  Ce  Ce0  1  0.990887  0.409804  0.000000  1
  Ce  Ce1  1  0.590274  0.581120  0.000000  1
  Ce  Ce2  1  0.418892  0.009160  0.000000  1
  Zn  Zn3  1  0.999601  0.754902  0.500000  1
  Zn  Zn4  1  0.245087  0.244680  0.500000  1
  Zn  Zn5  1  0.755301  0.000396  0.500000  1
  Ir  Ir6  1  0.666634  0.333281  0.500000  1
  Pd  Pd7  1  0.000004  0.999996  0.000000  1
  Pd  Pd8  1  0.333320  0.666660  0.500000  1
