# generated using pymatgen
data_LaB2PtRhC
_symmetry_space_group_name_H-M   'P 1'
_cell_length_a   3.92470809
_cell_length_b   3.92470911
_cell_length_c   5.89708590
_cell_angle_alpha   109.43680198
_cell_angle_beta   109.43680757
_cell_angle_gamma   89.99999347
_symmetry_Int_Tables_number   1
_chemical_formula_structural   LaB2PtRhC
_chemical_formula_sum   'La1 B2 Pt1 Rh1 C1'
_cell_volume   80.14761710
_cell_formula_units_Z   1
loop_
 _symmetry_equiv_pos_site_id
 _symmetry_equiv_pos_as_xyz
  1  'x, y, z'
loop_
 _atom_site_type_symbol
 _atom_site_label
 _atom_site_symmetry_multiplicity
 _atom_site_fract_x
 _atom_site_fract_y
 _atom_site_fract_z
 _atom_site_occupancy
  La  La0  1  0.000000  0.000000  0.000000  1
  B  B1  1  0.644400  0.644400  0.288800  1
  B  B2  1  0.355599  0.355599  0.711198  1
  Pt  Pt3  1  0.750000  0.250000  0.500000  1
  Rh  Rh4  1  0.250000  0.750000  0.500000  1
  C  C5  1  0.500000  0.500000  0.000000  1
