# generated using pymatgen
data_La4YbPr2FeI12
_symmetry_space_group_name_H-M   'P 1'
_cell_length_a   10.04928750
_cell_length_b   10.23740066
_cell_length_c   10.07028224
_cell_angle_alpha   107.30733757
_cell_angle_beta   107.04842590
_cell_angle_gamma   106.72119290
_symmetry_Int_Tables_number   1
_chemical_formula_structural   La4YbPr2FeI12
_chemical_formula_sum   'La4 Yb1 Pr2 Fe1 I12'
_cell_volume   862.18235051
_cell_formula_units_Z   1
loop_
 _symmetry_equiv_pos_site_id
 _symmetry_equiv_pos_as_xyz
  1  'x, y, z'
loop_
 _atom_site_type_symbol
 _atom_site_label
 _atom_site_symmetry_multiplicity
 _atom_site_fract_x
 _atom_site_fract_y
 _atom_site_fract_z
 _atom_site_occupancy
  La  La0  1  0.793456  0.526098  0.596976  1
  La  La1  1  0.526416  0.597122  0.794691  1
  La  La2  1  0.206544  0.473902  0.403024  1
  La  La3  1  0.473584  0.402878  0.205309  1
  Yb  Yb4  1  0.000000  0.000000  0.000000  1
  Pr  Pr5  1  0.602336  0.809803  0.527242  1
  Pr  Pr6  1  0.397664  0.190197  0.472758  1
  Fe  Fe7  1  0.500000  0.500000  0.500000  1
  I  I8  1  0.725784  0.183158  0.573056  1
  I  I9  1  0.961588  0.883553  0.660302  1
  I  I10  1  0.573508  0.725332  0.182434  1
  I  I11  1  0.112169  0.333728  0.034497  1
  I  I12  1  0.660918  0.961271  0.884236  1
  I  I13  1  0.887831  0.666272  0.965503  1
  I  I14  1  0.038412  0.116447  0.339698  1
  I  I15  1  0.818900  0.425829  0.271854  1
  I  I16  1  0.339082  0.038729  0.115764  1
  I  I17  1  0.274216  0.816842  0.426944  1
  I  I18  1  0.181100  0.574171  0.728146  1
  I  I19  1  0.426492  0.274668  0.817566  1
