# generated using pymatgen
data_Ho2PdPt5
_symmetry_space_group_name_H-M   'P 1'
_cell_length_a   5.82017487
_cell_length_b   5.82017520
_cell_length_c   5.80014700
_cell_angle_alpha   60.11376210
_cell_angle_beta   60.11376025
_cell_angle_gamma   59.77247069
_symmetry_Int_Tables_number   1
_chemical_formula_structural   Ho2PdPt5
_chemical_formula_sum   'Ho2 Pd1 Pt5'
_cell_volume   138.92673266
_cell_formula_units_Z   1
loop_
 _symmetry_equiv_pos_site_id
 _symmetry_equiv_pos_as_xyz
  1  'x, y, z'
loop_
 _atom_site_type_symbol
 _atom_site_label
 _atom_site_symmetry_multiplicity
 _atom_site_fract_x
 _atom_site_fract_y
 _atom_site_fract_z
 _atom_site_occupancy
  Ho  Ho0  1  0.000000  0.000000  0.500000  1
  Ho  Ho1  1  0.500000  0.500000  0.000000  1
  Pd  Pd2  1  0.500000  0.500000  0.500000  1
  Pt  Pt3  1  0.000000  0.000000  0.000000  1
  Pt  Pt4  1  0.000000  0.500000  0.000000  1
  Pt  Pt5  1  0.500000  0.000000  0.000000  1
  Pt  Pt6  1  0.000000  0.500000  0.500000  1
  Pt  Pt7  1  0.500000  0.000000  0.500000  1
