# generated using pymatgen
data_Nd2CrRu3C4
_symmetry_space_group_name_H-M   'P 1'
_cell_length_a   6.59072900
_cell_length_b   5.77769213
_cell_length_c   5.36924809
_cell_angle_alpha   72.38769441
_cell_angle_beta   56.67289732
_cell_angle_gamma   53.48550304
_symmetry_Int_Tables_number   1
_chemical_formula_structural   Nd2CrRu3C4
_chemical_formula_sum   'Nd2 Cr1 Ru3 C4'
_cell_volume   137.20955236
_cell_formula_units_Z   1
loop_
 _symmetry_equiv_pos_site_id
 _symmetry_equiv_pos_as_xyz
  1  'x, y, z'
loop_
 _atom_site_type_symbol
 _atom_site_label
 _atom_site_symmetry_multiplicity
 _atom_site_fract_x
 _atom_site_fract_y
 _atom_site_fract_z
 _atom_site_occupancy
  Nd  Nd0  1  0.005625  0.005625  0.994375  1
  Nd  Nd1  1  0.248473  0.248473  0.251527  1
  Cr  Cr2  1  0.612169  0.612169  0.887831  1
  Ru  Ru3  1  0.640705  0.640705  0.359295  1
  Ru  Ru4  1  0.367051  0.367051  0.632949  1
  Ru  Ru5  1  0.886553  0.886553  0.613447  1
  C  C6  1  0.701988  0.315636  0.679653  1
  C  C7  1  0.315636  0.701988  0.302724  1
  C  C8  1  0.931154  0.540647  0.911506  1
  C  C9  1  0.540647  0.931154  0.616693  1
