# generated using pymatgen
data_HoTa3(Co4P3)2
_symmetry_space_group_name_H-M   'P 1'
_cell_length_a   11.95003600
_cell_length_b   11.95003621
_cell_length_c   3.63116900
_cell_angle_alpha   90.00000000
_cell_angle_beta   90.00000000
_cell_angle_gamma   119.99999941
_symmetry_Int_Tables_number   1
_chemical_formula_structural   HoTa3(Co4P3)2
_chemical_formula_sum   'Ho2 Ta6 Co16 P12'
_cell_volume   449.07153896
_cell_formula_units_Z   2
loop_
 _symmetry_equiv_pos_site_id
 _symmetry_equiv_pos_as_xyz
  1  'x, y, z'
loop_
 _atom_site_type_symbol
 _atom_site_label
 _atom_site_symmetry_multiplicity
 _atom_site_fract_x
 _atom_site_fract_y
 _atom_site_fract_z
 _atom_site_occupancy
  Ho  Ho0  1  0.333333  0.666667  0.000000  1
  Ho  Ho1  1  0.666667  0.333333  0.000000  1
  Ta  Ta2  1  0.821446  0.000000  0.500000  1
  Ta  Ta3  1  0.000000  0.821446  0.500000  1
  Ta  Ta4  1  0.178554  0.178554  0.500000  1
  Ta  Ta5  1  0.444708  0.000000  0.000000  1
  Ta  Ta6  1  0.000000  0.444708  0.000000  1
  Ta  Ta7  1  0.555292  0.555292  0.000000  1
  Co  Co8  1  0.272133  0.000000  0.500000  1
  Co  Co9  1  0.000000  0.272133  0.500000  1
  Co  Co10  1  0.727867  0.727867  0.500000  1
  Co  Co11  1  0.635175  0.811404  0.000000  1
  Co  Co12  1  0.188596  0.823772  0.000000  1
  Co  Co13  1  0.176228  0.364825  0.000000  1
  Co  Co14  1  0.364825  0.176228  0.000000  1
  Co  Co15  1  0.811404  0.635175  0.000000  1
  Co  Co16  1  0.823772  0.188596  0.000000  1
  Co  Co17  1  0.520359  0.874933  0.500000  1
  Co  Co18  1  0.125067  0.645427  0.500000  1
  Co  Co19  1  0.354573  0.479641  0.500000  1
  Co  Co20  1  0.479641  0.354573  0.500000  1
  Co  Co21  1  0.874933  0.520359  0.500000  1
  Co  Co22  1  0.645427  0.125067  0.500000  1
  Co  Co23  1  0.000000  0.000000  0.000000  1
  P  P24  1  0.172024  0.000000  0.000000  1
  P  P25  1  0.000000  0.172024  0.000000  1
  P  P26  1  0.827976  0.827976  0.000000  1
  P  P27  1  0.522757  0.690469  0.500000  1
  P  P28  1  0.309531  0.832287  0.500000  1
  P  P29  1  0.167713  0.477243  0.500000  1
  P  P30  1  0.477243  0.167713  0.500000  1
  P  P31  1  0.690469  0.522757  0.500000  1
  P  P32  1  0.832287  0.309531  0.500000  1
  P  P33  1  0.648809  0.000000  0.000000  1
  P  P34  1  0.000000  0.648809  0.000000  1
  P  P35  1  0.351191  0.351191  0.000000  1
