# generated using pymatgen
data_Dy(NbCl3)6
_symmetry_space_group_name_H-M   'P 1'
_cell_length_a   10.19914622
_cell_length_b   10.20076881
_cell_length_c   10.19826324
_cell_angle_alpha   55.92514516
_cell_angle_beta   55.92214280
_cell_angle_gamma   55.90340570
_symmetry_Int_Tables_number   1
_chemical_formula_structural   Dy(NbCl3)6
_chemical_formula_sum   'Dy1 Nb6 Cl18'
_cell_volume   679.25766484
_cell_formula_units_Z   1
loop_
 _symmetry_equiv_pos_site_id
 _symmetry_equiv_pos_as_xyz
  1  'x, y, z'
loop_
 _atom_site_type_symbol
 _atom_site_label
 _atom_site_symmetry_multiplicity
 _atom_site_fract_x
 _atom_site_fract_y
 _atom_site_fract_z
 _atom_site_occupancy
  Dy  Dy0  1  0.000000  0.000000  0.000000  1
  Nb  Nb1  1  0.408734  0.299330  0.650093  1
  Nb  Nb2  1  0.349873  0.591298  0.700684  1
  Nb  Nb3  1  0.700694  0.349873  0.591296  1
  Nb  Nb4  1  0.299306  0.650127  0.408704  1
  Nb  Nb5  1  0.650127  0.408702  0.299316  1
  Nb  Nb6  1  0.591266  0.700670  0.349907  1
  Cl  Cl7  1  0.568953  0.162549  0.441294  1
  Cl  Cl8  1  0.224310  0.370488  0.907261  1
  Cl  Cl9  1  0.907455  0.224191  0.370425  1
  Cl  Cl10  1  0.370480  0.907296  0.224265  1
  Cl  Cl11  1  0.775690  0.629512  0.092739  1
  Cl  Cl12  1  0.092545  0.775809  0.629575  1
  Cl  Cl13  1  0.702296  0.959213  0.159673  1
  Cl  Cl14  1  0.959429  0.159583  0.702299  1
  Cl  Cl15  1  0.159545  0.702319  0.959394  1
  Cl  Cl16  1  0.297704  0.040787  0.840327  1
  Cl  Cl17  1  0.040571  0.840417  0.297701  1
  Cl  Cl18  1  0.840455  0.297681  0.040606  1
  Cl  Cl19  1  0.558713  0.431019  0.837584  1
  Cl  Cl20  1  0.162553  0.441295  0.568950  1
  Cl  Cl21  1  0.441287  0.568981  0.162416  1
  Cl  Cl22  1  0.431047  0.837451  0.558706  1
  Cl  Cl23  1  0.837447  0.558705  0.431050  1
  Cl  Cl24  1  0.629520  0.092704  0.775735  1
