# generated using pymatgen
data_La3Y7(Ho5Bi6)2
_symmetry_space_group_name_H-M   'P 1'
_cell_length_a   8.30500665
_cell_length_b   9.51977348
_cell_length_c   12.16083300
_cell_angle_alpha   90.00445377
_cell_angle_beta   89.95425999
_cell_angle_gamma   89.98244126
_symmetry_Int_Tables_number   1
_chemical_formula_structural   La3Y7(Ho5Bi6)2
_chemical_formula_sum   'La3 Y7 Ho10 Bi12'
_cell_volume   961.45677302
_cell_formula_units_Z   1
loop_
 _symmetry_equiv_pos_site_id
 _symmetry_equiv_pos_as_xyz
  1  'x, y, z'
loop_
 _atom_site_type_symbol
 _atom_site_label
 _atom_site_symmetry_multiplicity
 _atom_site_fract_x
 _atom_site_fract_y
 _atom_site_fract_z
 _atom_site_occupancy
  La  La0  1  0.181797  0.749913  0.720764  1
  La  La1  1  0.682695  0.750133  0.778848  1
  La  La2  1  0.817313  0.249795  0.279338  1
  Y  Y3  1  0.314806  0.250240  0.218860  1
  Y  Y4  1  0.307741  0.061379  0.940062  1
  Y  Y5  1  0.809208  0.437779  0.560036  1
  Y  Y6  1  0.352009  0.750102  0.217492  1
  Y  Y7  1  0.853308  0.749833  0.281400  1
  Y  Y8  1  0.647594  0.249709  0.784103  1
  Y  Y9  1  0.147991  0.250242  0.716582  1
  Ho  Ho10  1  0.024531  0.749792  0.988882  1
  Ho  Ho11  1  0.522233  0.750227  0.511073  1
  Ho  Ho12  1  0.976031  0.250040  0.013780  1
  Ho  Ho13  1  0.476559  0.249912  0.487945  1
  Ho  Ho14  1  0.307433  0.435246  0.939858  1
  Ho  Ho15  1  0.809271  0.065528  0.560376  1
  Ho  Ho16  1  0.692906  0.935506  0.060474  1
  Ho  Ho17  1  0.191126  0.564876  0.438946  1
  Ho  Ho18  1  0.693519  0.563424  0.060876  1
  Ho  Ho19  1  0.191514  0.936294  0.438582  1
  Bi  Bi20  1  0.434608  0.009724  0.670363  1
  Bi  Bi21  1  0.934006  0.489868  0.830373  1
  Bi  Bi22  1  0.562280  0.507005  0.328032  1
  Bi  Bi23  1  0.070400  0.993203  0.171627  1
  Bi  Bi24  1  0.562491  0.993136  0.328195  1
  Bi  Bi25  1  0.070697  0.506643  0.171417  1
  Bi  Bi26  1  0.434174  0.490185  0.670415  1
  Bi  Bi27  1  0.933607  0.010216  0.830348  1
  Bi  Bi28  1  0.405618  0.747779  0.964421  1
  Bi  Bi29  1  0.903791  0.752083  0.535186  1
  Bi  Bi30  1  0.590198  0.249850  0.039981  1
  Bi  Bi31  1  0.098542  0.250337  0.461365  1
