# generated using pymatgen
data_LaTm5(P2Rh3)6
_symmetry_space_group_name_H-M   'P 1'
_cell_length_a   3.92242700
_cell_length_b   11.20763100
_cell_length_c   12.79535200
_cell_angle_alpha   90.00000000
_cell_angle_beta   90.00000000
_cell_angle_gamma   90.00000000
_symmetry_Int_Tables_number   1
_chemical_formula_structural   LaTm5(P2Rh3)6
_chemical_formula_sum   'La1 Tm5 P12 Rh18'
_cell_volume   562.49793358
_cell_formula_units_Z   1
loop_
 _symmetry_equiv_pos_site_id
 _symmetry_equiv_pos_as_xyz
  1  'x, y, z'
loop_
 _atom_site_type_symbol
 _atom_site_label
 _atom_site_symmetry_multiplicity
 _atom_site_fract_x
 _atom_site_fract_y
 _atom_site_fract_z
 _atom_site_occupancy
  La  La0  1  0.000000  0.500000  0.523228  1
  Tm  Tm1  1  0.500000  0.000000  0.478640  1
  Tm  Tm2  1  0.500000  0.814899  0.204843  1
  Tm  Tm3  1  0.500000  0.185101  0.204843  1
  Tm  Tm4  1  0.000000  0.686663  0.795890  1
  Tm  Tm5  1  0.000000  0.313337  0.795890  1
  P  P6  1  0.500000  0.500000  0.879067  1
  P  P7  1  0.000000  0.000000  0.122963  1
  P  P8  1  0.500000  0.500000  0.346143  1
  P  P9  1  0.000000  0.000000  0.646941  1
  P  P10  1  0.500000  0.312067  0.621507  1
  P  P11  1  0.500000  0.687933  0.621507  1
  P  P12  1  0.000000  0.183752  0.380951  1
  P  P13  1  0.000000  0.816248  0.380951  1
  P  P14  1  0.500000  0.847185  0.892732  1
  P  P15  1  0.500000  0.152815  0.892732  1
  P  P16  1  0.000000  0.654896  0.106779  1
  P  P17  1  0.000000  0.345104  0.106779  1
  Rh  Rh18  1  0.500000  0.500000  0.166583  1
  Rh  Rh19  1  0.000000  0.000000  0.829483  1
  Rh  Rh20  1  0.500000  0.500000  0.704687  1
  Rh  Rh21  1  0.000000  0.000000  0.299352  1
  Rh  Rh22  1  0.000000  0.500000  0.979125  1
  Rh  Rh23  1  0.500000  0.000000  0.023399  1
  Rh  Rh24  1  0.500000  0.333216  0.993023  1
  Rh  Rh25  1  0.500000  0.666784  0.993023  1
  Rh  Rh26  1  0.000000  0.165250  0.006031  1
  Rh  Rh27  1  0.000000  0.834750  0.006031  1
  Rh  Rh28  1  0.500000  0.288183  0.429628  1
  Rh  Rh29  1  0.500000  0.711817  0.429628  1
  Rh  Rh30  1  0.000000  0.200650  0.569643  1
  Rh  Rh31  1  0.000000  0.799350  0.569643  1
  Rh  Rh32  1  0.500000  0.873009  0.712157  1
  Rh  Rh33  1  0.500000  0.126991  0.712157  1
  Rh  Rh34  1  0.000000  0.628587  0.287010  1
  Rh  Rh35  1  0.000000  0.371413  0.287010  1
