# generated using pymatgen
data_LiTm2Si3Ag
_symmetry_space_group_name_H-M   'P 1'
_cell_length_a   9.18164925
_cell_length_b   9.18164998
_cell_length_c   6.76284013
_cell_angle_alpha   89.59273242
_cell_angle_beta   90.40726831
_cell_angle_gamma   153.46969871
_symmetry_Int_Tables_number   1
_chemical_formula_structural   LiTm2Si3Ag
_chemical_formula_sum   'Li2 Tm4 Si6 Ag2'
_cell_volume   254.65181094
_cell_formula_units_Z   2
loop_
 _symmetry_equiv_pos_site_id
 _symmetry_equiv_pos_as_xyz
  1  'x, y, z'
loop_
 _atom_site_type_symbol
 _atom_site_label
 _atom_site_symmetry_multiplicity
 _atom_site_fract_x
 _atom_site_fract_y
 _atom_site_fract_z
 _atom_site_occupancy
  Li  Li0  1  0.189065  0.810935  0.057289  1
  Li  Li1  1  0.810935  0.189065  0.942711  1
  Tm  Tm2  1  0.551947  0.448053  0.250347  1
  Tm  Tm3  1  0.448053  0.551947  0.749653  1
  Tm  Tm4  1  0.346921  0.653079  0.239433  1
  Tm  Tm5  1  0.653079  0.346921  0.760567  1
  Si  Si6  1  0.940414  0.059586  0.069107  1
  Si  Si7  1  0.059586  0.940414  0.930893  1
  Si  Si8  1  0.058284  0.941716  0.579575  1
  Si  Si9  1  0.941716  0.058284  0.420425  1
  Si  Si10  1  0.721373  0.278627  0.232462  1
  Si  Si11  1  0.278627  0.721373  0.767538  1
  Ag  Ag12  1  0.812230  0.187770  0.564695  1
  Ag  Ag13  1  0.187770  0.812230  0.435305  1
