# generated using pymatgen
data_ScPa(Mn2P)4
_symmetry_space_group_name_H-M   'P 1'
_cell_length_a   7.02780635
_cell_length_b   7.02780635
_cell_length_c   3.69927600
_cell_angle_alpha   90.00000000
_cell_angle_beta   90.00000000
_cell_angle_gamma   90.63925856
_symmetry_Int_Tables_number   1
_chemical_formula_structural   ScPa(Mn2P)4
_chemical_formula_sum   'Sc1 Pa1 Mn8 P4'
_cell_volume   182.69609976
_cell_formula_units_Z   1
loop_
 _symmetry_equiv_pos_site_id
 _symmetry_equiv_pos_as_xyz
  1  'x, y, z'
loop_
 _atom_site_type_symbol
 _atom_site_label
 _atom_site_symmetry_multiplicity
 _atom_site_fract_x
 _atom_site_fract_y
 _atom_site_fract_z
 _atom_site_occupancy
  Sc  Sc0  1  0.500000  0.500000  0.000000  1
  Pa  Pa1  1  0.000000  0.000000  0.500000  1
  Mn  Mn2  1  0.583055  0.156359  0.500000  1
  Mn  Mn3  1  0.416945  0.843641  0.500000  1
  Mn  Mn4  1  0.088960  0.345089  0.000000  1
  Mn  Mn5  1  0.911040  0.654911  0.000000  1
  Mn  Mn6  1  0.156359  0.583055  0.500000  1
  Mn  Mn7  1  0.843641  0.416945  0.500000  1
  Mn  Mn8  1  0.345089  0.088960  0.000000  1
  Mn  Mn9  1  0.654911  0.911040  0.000000  1
  P  P10  1  0.706619  0.706619  0.500000  1
  P  P11  1  0.293381  0.293381  0.500000  1
  P  P12  1  0.224307  0.775693  0.000000  1
  P  P13  1  0.775693  0.224307  0.000000  1
