# generated using pymatgen
data_TbYb3(GaNi)4
_symmetry_space_group_name_H-M   'P 1'
_cell_length_a   4.06372500
_cell_length_b   6.84465747
_cell_length_c   7.57478228
_cell_angle_alpha   90.59920460
_cell_angle_beta   90.00000000
_cell_angle_gamma   90.00000000
_symmetry_Int_Tables_number   1
_chemical_formula_structural   TbYb3(GaNi)4
_chemical_formula_sum   'Tb1 Yb3 Ga4 Ni4'
_cell_volume   210.67957546
_cell_formula_units_Z   1
loop_
 _symmetry_equiv_pos_site_id
 _symmetry_equiv_pos_as_xyz
  1  'x, y, z'
loop_
 _atom_site_type_symbol
 _atom_site_label
 _atom_site_symmetry_multiplicity
 _atom_site_fract_x
 _atom_site_fract_y
 _atom_site_fract_z
 _atom_site_occupancy
  Tb  Tb0  1  0.250000  0.029393  0.317802  1
  Yb  Yb1  1  0.250000  0.526861  0.180304  1
  Yb  Yb2  1  0.750000  0.971842  0.684550  1
  Yb  Yb3  1  0.750000  0.472001  0.818057  1
  Ga  Ga4  1  0.250000  0.151261  0.932262  1
  Ga  Ga5  1  0.250000  0.648358  0.566103  1
  Ga  Ga6  1  0.750000  0.847124  0.064469  1
  Ga  Ga7  1  0.750000  0.353811  0.434733  1
  Ni  Ni8  1  0.250000  0.280661  0.620509  1
  Ni  Ni9  1  0.250000  0.782808  0.881459  1
  Ni  Ni10  1  0.750000  0.719577  0.379486  1
  Ni  Ni11  1  0.750000  0.216302  0.120266  1
