# generated using pymatgen
data_Tm10GaSi3Sb4
_symmetry_space_group_name_H-M   'P 1'
_cell_length_a   8.42849182
_cell_length_b   8.42849185
_cell_length_c   7.78111935
_cell_angle_alpha   89.81194698
_cell_angle_beta   89.81194093
_cell_angle_gamma   125.08386339
_symmetry_Int_Tables_number   1
_chemical_formula_structural   Tm10GaSi3Sb4
_chemical_formula_sum   'Tm10 Ga1 Si3 Sb4'
_cell_volume   452.32390143
_cell_formula_units_Z   1
loop_
 _symmetry_equiv_pos_site_id
 _symmetry_equiv_pos_as_xyz
  1  'x, y, z'
loop_
 _atom_site_type_symbol
 _atom_site_label
 _atom_site_symmetry_multiplicity
 _atom_site_fract_x
 _atom_site_fract_y
 _atom_site_fract_z
 _atom_site_occupancy
  Tm  Tm0  1  0.540186  0.791685  0.166693  1
  Tm  Tm1  1  0.290141  0.040656  0.334842  1
  Tm  Tm2  1  0.207431  0.458475  0.834683  1
  Tm  Tm3  1  0.961514  0.709886  0.664339  1
  Tm  Tm4  1  0.709886  0.961514  0.664339  1
  Tm  Tm5  1  0.458475  0.207431  0.834683  1
  Tm  Tm6  1  0.791685  0.540186  0.166693  1
  Tm  Tm7  1  0.040656  0.290141  0.334842  1
  Tm  Tm8  1  0.498800  0.498800  0.498369  1
  Tm  Tm9  1  0.001256  0.001256  0.001189  1
  Ga  Ga10  1  0.632750  0.632750  0.868081  1
  Si  Si11  1  0.133039  0.133039  0.633235  1
  Si  Si12  1  0.865993  0.865993  0.367614  1
  Si  Si13  1  0.367938  0.367938  0.131272  1
  Sb  Sb14  1  0.293598  0.705211  0.499428  1
  Sb  Sb15  1  0.206618  0.794823  0.000136  1
  Sb  Sb16  1  0.705211  0.293598  0.499428  1
  Sb  Sb17  1  0.794823  0.206618  0.000136  1
