# generated using pymatgen
data_Tb2Y13Pa(CdIr)4
_symmetry_space_group_name_H-M   'P 1'
_cell_length_a   9.72165748
_cell_length_b   9.72393934
_cell_length_c   9.72382077
_cell_angle_alpha   59.59892893
_cell_angle_beta   59.59140837
_cell_angle_gamma   59.59200265
_symmetry_Int_Tables_number   1
_chemical_formula_structural   Tb2Y13Pa(CdIr)4
_chemical_formula_sum   'Tb2 Y13 Pa1 Cd4 Ir4'
_cell_volume   643.99018403
_cell_formula_units_Z   1
loop_
 _symmetry_equiv_pos_site_id
 _symmetry_equiv_pos_as_xyz
  1  'x, y, z'
loop_
 _atom_site_type_symbol
 _atom_site_label
 _atom_site_symmetry_multiplicity
 _atom_site_fract_x
 _atom_site_fract_y
 _atom_site_fract_z
 _atom_site_occupancy
  Tb  Tb0  1  0.350301  0.350258  0.948963  1
  Tb  Tb1  1  0.350322  0.948944  0.350265  1
  Y  Y2  1  0.948038  0.350720  0.350708  1
  Y  Y3  1  0.810923  0.190292  0.190280  1
  Y  Y4  1  0.189723  0.810983  0.810995  1
  Y  Y5  1  0.190232  0.811011  0.190165  1
  Y  Y6  1  0.811024  0.189646  0.811002  1
  Y  Y7  1  0.190223  0.190168  0.811024  1
  Y  Y8  1  0.811032  0.810997  0.189632  1
  Y  Y9  1  0.941162  0.562569  0.562566  1
  Y  Y10  1  0.561719  0.938234  0.938240  1
  Y  Y11  1  0.562472  0.941067  0.562586  1
  Y  Y12  1  0.938256  0.561745  0.938110  1
  Y  Y13  1  0.562469  0.562586  0.941067  1
  Y  Y14  1  0.938260  0.938105  0.561743  1
  Pa  Pa15  1  0.342280  0.342434  0.342394  1
  Cd  Cd16  1  0.579575  0.579328  0.579332  1
  Cd  Cd17  1  0.578773  0.578638  0.256175  1
  Cd  Cd18  1  0.578783  0.256170  0.578634  1
  Cd  Cd19  1  0.256131  0.578679  0.578669  1
  Ir  Ir20  1  0.142832  0.142527  0.142538  1
  Ir  Ir21  1  0.148237  0.147705  0.569253  1
  Ir  Ir22  1  0.148233  0.569259  0.147712  1
  Ir  Ir23  1  0.569000  0.147937  0.147945  1
