# generated using pymatgen
data_PrGa3CoHg
_symmetry_space_group_name_H-M   'P 1'
_cell_length_a   4.21794417
_cell_length_b   6.65401300
_cell_length_c   8.42500332
_cell_angle_alpha   90.00000000
_cell_angle_beta   104.49422510
_cell_angle_gamma   90.00000000
_symmetry_Int_Tables_number   1
_chemical_formula_structural   PrGa3CoHg
_chemical_formula_sum   'Pr2 Ga6 Co2 Hg2'
_cell_volume   228.93250587
_cell_formula_units_Z   2
loop_
 _symmetry_equiv_pos_site_id
 _symmetry_equiv_pos_as_xyz
  1  'x, y, z'
loop_
 _atom_site_type_symbol
 _atom_site_label
 _atom_site_symmetry_multiplicity
 _atom_site_fract_x
 _atom_site_fract_y
 _atom_site_fract_z
 _atom_site_occupancy
  Pr  Pr0  1  0.877672  0.750000  0.755504  1
  Pr  Pr1  1  0.122328  0.250000  0.244496  1
  Ga  Ga2  1  0.079635  0.750000  0.159256  1
  Ga  Ga3  1  0.920365  0.250000  0.840744  1
  Ga  Ga4  1  0.693799  0.552777  0.387561  1
  Ga  Ga5  1  0.306201  0.447223  0.612439  1
  Ga  Ga6  1  0.693799  0.947223  0.387561  1
  Ga  Ga7  1  0.306201  0.052777  0.612439  1
  Co  Co8  1  0.222960  0.750000  0.445941  1
  Co  Co9  1  0.777040  0.250000  0.554059  1
  Hg  Hg10  1  0.500000  0.500000  0.000000  1
  Hg  Hg11  1  0.500000  0.000000  0.000000  1
