# generated using pymatgen
data_Pr10InBi5Cl2
_symmetry_space_group_name_H-M   'P 1'
_cell_length_a   9.70168100
_cell_length_b   9.64610108
_cell_length_c   6.72044300
_cell_angle_alpha   90.00000000
_cell_angle_beta   90.00000000
_cell_angle_gamma   120.19078947
_symmetry_Int_Tables_number   1
_chemical_formula_structural   Pr10InBi5Cl2
_chemical_formula_sum   'Pr10 In1 Bi5 Cl2'
_cell_volume   543.61217868
_cell_formula_units_Z   1
loop_
 _symmetry_equiv_pos_site_id
 _symmetry_equiv_pos_as_xyz
  1  'x, y, z'
loop_
 _atom_site_type_symbol
 _atom_site_label
 _atom_site_symmetry_multiplicity
 _atom_site_fract_x
 _atom_site_fract_y
 _atom_site_fract_z
 _atom_site_occupancy
  Pr  Pr0  1  0.267709  0.000000  0.750000  1
  Pr  Pr1  1  0.733446  0.000000  0.250000  1
  Pr  Pr2  1  0.995830  0.261607  0.750000  1
  Pr  Pr3  1  0.000170  0.735688  0.250000  1
  Pr  Pr4  1  0.734223  0.738393  0.750000  1
  Pr  Pr5  1  0.264483  0.264312  0.250000  1
  Pr  Pr6  1  0.334601  0.668117  0.498468  1
  Pr  Pr7  1  0.666485  0.331883  0.498468  1
  Pr  Pr8  1  0.666485  0.331883  0.001532  1
  Pr  Pr9  1  0.334601  0.668117  0.001532  1
  In  In10  1  0.612873  0.000000  0.750000  1
  Bi  Bi11  1  0.387364  0.000000  0.250000  1
  Bi  Bi12  1  0.998405  0.614479  0.750000  1
  Bi  Bi13  1  0.999570  0.384343  0.250000  1
  Bi  Bi14  1  0.383925  0.385521  0.750000  1
  Bi  Bi15  1  0.615227  0.615657  0.250000  1
  Cl  Cl16  1  0.002301  0.000000  0.499275  1
  Cl  Cl17  1  0.002301  0.000000  0.000725  1
