# generated using pymatgen
data_Yb2CdBiSb
_symmetry_space_group_name_H-M   'P 1'
_cell_length_a   9.12687104
_cell_length_b   9.12687204
_cell_length_c   7.25272000
_cell_angle_alpha   90.00000000
_cell_angle_beta   90.00000000
_cell_angle_gamma   149.76742914
_symmetry_Int_Tables_number   1
_chemical_formula_structural   Yb2CdBiSb
_chemical_formula_sum   'Yb4 Cd2 Bi2 Sb2'
_cell_volume   304.19628380
_cell_formula_units_Z   2
loop_
 _symmetry_equiv_pos_site_id
 _symmetry_equiv_pos_as_xyz
  1  'x, y, z'
loop_
 _atom_site_type_symbol
 _atom_site_label
 _atom_site_symmetry_multiplicity
 _atom_site_fract_x
 _atom_site_fract_y
 _atom_site_fract_z
 _atom_site_occupancy
  Yb  Yb0  1  0.480310  0.519690  0.721048  1
  Yb  Yb1  1  0.519690  0.480310  0.221048  1
  Yb  Yb2  1  0.695397  0.304603  0.531218  1
  Yb  Yb3  1  0.304603  0.695397  0.031218  1
  Cd  Cd4  1  0.903955  0.096045  0.393139  1
  Cd  Cd5  1  0.096045  0.903955  0.893139  1
  Bi  Bi6  1  0.318464  0.681536  0.516187  1
  Bi  Bi7  1  0.681536  0.318464  0.016187  1
  Sb  Sb8  1  0.067898  0.932102  0.495918  1
  Sb  Sb9  1  0.932102  0.067898  0.995918  1
