# generated using pymatgen
data_Li3La4ZnPd3Ru
_symmetry_space_group_name_H-M   'P 1'
_cell_length_a   7.32334174
_cell_length_b   4.16491700
_cell_length_c   8.68160085
_cell_angle_alpha   90.00000000
_cell_angle_beta   90.61718738
_cell_angle_gamma   90.00000000
_symmetry_Int_Tables_number   1
_chemical_formula_structural   Li3La4ZnPd3Ru
_chemical_formula_sum   'Li3 La4 Zn1 Pd3 Ru1'
_cell_volume   264.78310389
_cell_formula_units_Z   1
loop_
 _symmetry_equiv_pos_site_id
 _symmetry_equiv_pos_as_xyz
  1  'x, y, z'
loop_
 _atom_site_type_symbol
 _atom_site_label
 _atom_site_symmetry_multiplicity
 _atom_site_fract_x
 _atom_site_fract_y
 _atom_site_fract_z
 _atom_site_occupancy
  Li  Li0  1  0.621822  0.250000  0.548791  1
  Li  Li1  1  0.371605  0.750000  0.447029  1
  Li  Li2  1  0.883202  0.750000  0.052442  1
  La  La3  1  0.052426  0.250000  0.322161  1
  La  La4  1  0.545894  0.250000  0.178036  1
  La  La5  1  0.971754  0.750000  0.684204  1
  La  La6  1  0.442509  0.750000  0.803177  1
  Zn  Zn7  1  0.126456  0.250000  0.942542  1
  Pd  Pd8  1  0.752834  0.250000  0.886095  1
  Pd  Pd9  1  0.748807  0.750000  0.371921  1
  Pd  Pd10  1  0.247355  0.750000  0.119315  1
  Ru  Ru11  1  0.235336  0.250000  0.644289  1
