# generated using pymatgen
data_Tm2Co3P6Ru4Rh3
_symmetry_space_group_name_H-M   'P 1'
_cell_length_a   3.79821600
_cell_length_b   10.66697400
_cell_length_c   12.19692100
_cell_angle_alpha   90.00000000
_cell_angle_beta   90.00000000
_cell_angle_gamma   90.00000000
_symmetry_Int_Tables_number   1
_chemical_formula_structural   Tm2Co3P6Ru4Rh3
_chemical_formula_sum   'Tm4 Co6 P12 Ru8 Rh6'
_cell_volume   494.16400295
_cell_formula_units_Z   2
loop_
 _symmetry_equiv_pos_site_id
 _symmetry_equiv_pos_as_xyz
  1  'x, y, z'
loop_
 _atom_site_type_symbol
 _atom_site_label
 _atom_site_symmetry_multiplicity
 _atom_site_fract_x
 _atom_site_fract_y
 _atom_site_fract_z
 _atom_site_occupancy
  Tm  Tm0  1  0.250000  0.581793  0.707964  1
  Tm  Tm1  1  0.250000  0.918207  0.207964  1
  Tm  Tm2  1  0.750000  0.411847  0.293722  1
  Tm  Tm3  1  0.750000  0.088153  0.793722  1
  Co  Co4  1  0.750000  0.113321  0.302365  1
  Co  Co5  1  0.750000  0.386679  0.802365  1
  Co  Co6  1  0.250000  0.461395  0.931525  1
  Co  Co7  1  0.250000  0.038605  0.431525  1
  Co  Co8  1  0.750000  0.535771  0.063426  1
  Co  Co9  1  0.750000  0.964229  0.563426  1
  P  P10  1  0.250000  0.418741  0.107215  1
  P  P11  1  0.250000  0.081259  0.607215  1
  P  P12  1  0.750000  0.568090  0.887228  1
  P  P13  1  0.750000  0.931910  0.387228  1
  P  P14  1  0.250000  0.269627  0.871337  1
  P  P15  1  0.250000  0.230373  0.371337  1
  P  P16  1  0.750000  0.728379  0.124697  1
  P  P17  1  0.750000  0.771621  0.624697  1
  P  P18  1  0.250000  0.594700  0.390799  1
  P  P19  1  0.250000  0.905300  0.890799  1
  P  P20  1  0.750000  0.395831  0.615569  1
  P  P21  1  0.750000  0.104169  0.115569  1
  Ru  Ru22  1  0.250000  0.715353  0.988737  1
  Ru  Ru23  1  0.250000  0.784647  0.488737  1
  Ru  Ru24  1  0.750000  0.289853  0.010955  1
  Ru  Ru25  1  0.750000  0.210147  0.510955  1
  Ru  Ru26  1  0.250000  0.405403  0.486695  1
  Ru  Ru27  1  0.250000  0.094597  0.986695  1
  Ru  Ru28  1  0.250000  0.223597  0.180968  1
  Ru  Ru29  1  0.250000  0.276403  0.680968  1
  Rh  Rh30  1  0.750000  0.592110  0.517406  1
  Rh  Rh31  1  0.750000  0.907890  0.017406  1
  Rh  Rh32  1  0.750000  0.767314  0.819464  1
  Rh  Rh33  1  0.750000  0.732686  0.319464  1
  Rh  Rh34  1  0.250000  0.890605  0.699929  1
  Rh  Rh35  1  0.250000  0.609395  0.199929  1
