# generated using pymatgen
data_Pr3(AlPt)4
_symmetry_space_group_name_H-M   'P 1'
_cell_length_a   8.38078481
_cell_length_b   8.38078442
_cell_length_c   8.38078421
_cell_angle_alpha   150.64760180
_cell_angle_beta   128.32729602
_cell_angle_gamma   60.54273184
_symmetry_Int_Tables_number   1
_chemical_formula_structural   Pr3(AlPt)4
_chemical_formula_sum   'Pr3 Al4 Pt4'
_cell_volume   224.52846716
_cell_formula_units_Z   1
loop_
 _symmetry_equiv_pos_site_id
 _symmetry_equiv_pos_as_xyz
  1  'x, y, z'
loop_
 _atom_site_type_symbol
 _atom_site_label
 _atom_site_symmetry_multiplicity
 _atom_site_fract_x
 _atom_site_fract_y
 _atom_site_fract_z
 _atom_site_occupancy
  Pr  Pr0  1  0.500000  0.000000  0.500000  1
  Pr  Pr1  1  0.879446  0.879446  0.000000  1
  Pr  Pr2  1  0.120554  0.120554  0.000000  1
  Al  Al3  1  0.485089  0.678155  0.806933  1
  Al  Al4  1  0.871221  0.678155  0.193067  1
  Al  Al5  1  0.128779  0.321845  0.806933  1
  Al  Al6  1  0.514911  0.321845  0.193067  1
  Pt  Pt7  1  0.281206  0.781206  0.500000  1
  Pt  Pt8  1  0.718794  0.218794  0.500000  1
  Pt  Pt9  1  0.789845  0.500000  0.289845  1
  Pt  Pt10  1  0.210155  0.500000  0.710155  1
