# generated using pymatgen
data_Ho2PaSn3Ir2Pt
_symmetry_space_group_name_H-M   'P 1'
_cell_length_a   7.48638145
_cell_length_b   7.46272038
_cell_length_c   4.00355600
_cell_angle_alpha   90.00000000
_cell_angle_beta   90.00000000
_cell_angle_gamma   119.61853053
_symmetry_Int_Tables_number   1
_chemical_formula_structural   Ho2PaSn3Ir2Pt
_chemical_formula_sum   'Ho2 Pa1 Sn3 Ir2 Pt1'
_cell_volume   194.44745368
_cell_formula_units_Z   1
loop_
 _symmetry_equiv_pos_site_id
 _symmetry_equiv_pos_as_xyz
  1  'x, y, z'
loop_
 _atom_site_type_symbol
 _atom_site_label
 _atom_site_symmetry_multiplicity
 _atom_site_fract_x
 _atom_site_fract_y
 _atom_site_fract_z
 _atom_site_occupancy
  Ho  Ho0  1  0.594940  0.997119  0.500000  1
  Ho  Ho1  1  0.002672  0.597202  0.500000  1
  Pa  Pa2  1  0.405625  0.414853  0.500000  1
  Sn  Sn3  1  0.754676  0.756916  0.000000  1
  Sn  Sn4  1  0.254706  0.985677  0.000000  1
  Sn  Sn5  1  0.988296  0.255852  0.000000  1
  Ir  Ir6  1  0.335930  0.643781  0.000000  1
  Ir  Ir7  1  0.014676  0.014189  0.500000  1
  Pt  Pt8  1  0.648477  0.334413  0.000000  1
