# generated using pymatgen
data_Th5ScPtBr15
_symmetry_space_group_name_H-M   'P 1'
_cell_length_a   10.14204744
_cell_length_b   10.14205402
_cell_length_c   10.14205378
_cell_angle_alpha   110.70517751
_cell_angle_beta   108.85749612
_cell_angle_gamma   108.85750201
_symmetry_Int_Tables_number   1
_chemical_formula_structural   Th5ScPtBr15
_chemical_formula_sum   'Th5 Sc1 Pt1 Br15'
_cell_volume   802.79962897
_cell_formula_units_Z   1
loop_
 _symmetry_equiv_pos_site_id
 _symmetry_equiv_pos_as_xyz
  1  'x, y, z'
loop_
 _atom_site_type_symbol
 _atom_site_label
 _atom_site_symmetry_multiplicity
 _atom_site_fract_x
 _atom_site_fract_y
 _atom_site_fract_z
 _atom_site_occupancy
  Th  Th0  1  0.000003  0.746514  0.746514  1
  Th  Th1  1  0.242179  0.005733  0.247914  1
  Th  Th2  1  0.757823  0.005734  0.763556  1
  Th  Th3  1  0.242179  0.247914  0.005733  1
  Th  Th4  1  0.757823  0.763556  0.005734  1
  Sc  Sc5  1  0.000012  0.232885  0.232885  1
  Pt  Pt6  1  0.000003  0.996730  0.996730  1
  Br  Br7  1  0.497816  0.248490  0.248490  1
  Br  Br8  1  0.502182  0.750674  0.750674  1
  Br  Br9  1  0.999998  0.248491  0.750672  1
  Br  Br10  1  0.999998  0.750672  0.248491  1
  Br  Br11  1  0.231795  0.486700  0.254903  1
  Br  Br12  1  0.768203  0.023108  0.254902  1
  Br  Br13  1  0.750344  0.499797  0.749451  1
  Br  Br14  1  0.249654  0.999107  0.749450  1
  Br  Br15  1  0.231795  0.254903  0.486700  1
  Br  Br16  1  0.750344  0.749451  0.499797  1
  Br  Br17  1  0.768203  0.254902  0.023108  1
  Br  Br18  1  0.249654  0.749450  0.999107  1
  Br  Br19  1  0.000000  0.491379  0.491379  1
  Br  Br20  1  0.499996  0.996905  0.496904  1
  Br  Br21  1  0.499996  0.496904  0.996905  1
