# generated using pymatgen
data_Nd12Si3GeI12
_symmetry_space_group_name_H-M   'P 1'
_cell_length_a   10.83799572
_cell_length_b   10.79922139
_cell_length_c   10.83799467
_cell_angle_alpha   109.39876936
_cell_angle_beta   109.54357869
_cell_angle_gamma   109.39876766
_symmetry_Int_Tables_number   1
_chemical_formula_structural   Nd12Si3GeI12
_chemical_formula_sum   'Nd12 Si3 Ge1 I12'
_cell_volume   977.36321799
_cell_formula_units_Z   1
loop_
 _symmetry_equiv_pos_site_id
 _symmetry_equiv_pos_as_xyz
  1  'x, y, z'
loop_
 _atom_site_type_symbol
 _atom_site_label
 _atom_site_symmetry_multiplicity
 _atom_site_fract_x
 _atom_site_fract_y
 _atom_site_fract_z
 _atom_site_occupancy
  Nd  Nd0  1  0.267777  0.017777  0.035553  1
  Nd  Nd1  1  0.036015  0.268008  0.018008  1
  Nd  Nd2  1  0.481992  0.750000  0.018008  1
  Nd  Nd3  1  0.746221  0.231337  0.265257  1
  Nd  Nd4  1  0.019036  0.033919  0.265257  1
  Nd  Nd5  1  0.019036  0.485116  0.753779  1
  Nd  Nd6  1  0.234743  0.268663  0.753779  1
  Nd  Nd7  1  0.267777  0.750000  0.232223  1
  Nd  Nd8  1  0.234743  0.466081  0.480964  1
  Nd  Nd9  1  0.464447  0.482223  0.232223  1
  Nd  Nd10  1  0.746221  0.014884  0.480964  1
  Nd  Nd11  1  0.481992  0.231992  0.463985  1
  Si  Si12  1  0.250006  0.500006  0.000013  1
  Si  Si13  1  0.499987  0.999994  0.249994  1
  Si  Si14  1  0.250006  0.250000  0.249994  1
  Ge  Ge15  1  0.000000  0.250000  0.500000  1
  I  I16  1  0.757618  0.742611  0.250128  1
  I  I17  1  0.507705  0.250000  0.992295  1
  I  I18  1  0.249872  0.992483  0.507491  1
  I  I19  1  0.515137  0.507568  0.757568  1
  I  I20  1  0.992509  0.984993  0.742382  1
  I  I21  1  0.742432  0.992432  0.984863  1
  I  I22  1  0.507705  0.757705  0.515409  1
  I  I23  1  0.757618  0.515007  0.507491  1
  I  I24  1  0.992509  0.507517  0.250128  1
  I  I25  1  0.984591  0.742295  0.992295  1
  I  I26  1  0.249872  0.757389  0.742382  1
  I  I27  1  0.742432  0.250000  0.757568  1
