# generated using pymatgen
data_Ho4AlZn11
_symmetry_space_group_name_H-M   'P 1'
_cell_length_a   4.42988100
_cell_length_b   6.66988529
_cell_length_c   10.01978598
_cell_angle_alpha   89.92836842
_cell_angle_beta   90.00000000
_cell_angle_gamma   90.00000000
_symmetry_Int_Tables_number   1
_chemical_formula_structural   Ho4AlZn11
_chemical_formula_sum   'Ho4 Al1 Zn11'
_cell_volume   296.05236210
_cell_formula_units_Z   1
loop_
 _symmetry_equiv_pos_site_id
 _symmetry_equiv_pos_as_xyz
  1  'x, y, z'
loop_
 _atom_site_type_symbol
 _atom_site_label
 _atom_site_symmetry_multiplicity
 _atom_site_fract_x
 _atom_site_fract_y
 _atom_site_fract_z
 _atom_site_occupancy
  Ho  Ho0  1  0.250000  0.279967  0.660242  1
  Ho  Ho1  1  0.750000  0.717929  0.338290  1
  Ho  Ho2  1  0.250000  0.781861  0.835277  1
  Ho  Ho3  1  0.750000  0.217510  0.163990  1
  Al  Al4  1  0.250000  0.537039  0.105981  1
  Zn  Zn5  1  0.750000  0.463650  0.895522  1
  Zn  Zn6  1  0.250000  0.035271  0.395751  1
  Zn  Zn7  1  0.750000  0.964086  0.603559  1
  Zn  Zn8  1  0.750000  0.283087  0.457547  1
  Zn  Zn9  1  0.250000  0.717305  0.542846  1
  Zn  Zn10  1  0.750000  0.782739  0.042235  1
  Zn  Zn11  1  0.250000  0.215775  0.956679  1
  Zn  Zn12  1  0.750000  0.580559  0.647516  1
  Zn  Zn13  1  0.250000  0.420191  0.354712  1
  Zn  Zn14  1  0.750000  0.080444  0.852233  1
  Zn  Zn15  1  0.250000  0.922586  0.147618  1
