# generated using pymatgen
data_Ce3Y(B4W)4
_symmetry_space_group_name_H-M   'P 1'
_cell_length_a   6.06337128
_cell_length_b   11.72850847
_cell_length_c   3.67844000
_cell_angle_alpha   90.00000000
_cell_angle_beta   90.00000000
_cell_angle_gamma   89.92559708
_symmetry_Int_Tables_number   1
_chemical_formula_structural   Ce3Y(B4W)4
_chemical_formula_sum   'Ce3 Y1 B16 W4'
_cell_volume   261.58947030
_cell_formula_units_Z   1
loop_
 _symmetry_equiv_pos_site_id
 _symmetry_equiv_pos_as_xyz
  1  'x, y, z'
loop_
 _atom_site_type_symbol
 _atom_site_label
 _atom_site_symmetry_multiplicity
 _atom_site_fract_x
 _atom_site_fract_y
 _atom_site_fract_z
 _atom_site_occupancy
  Ce  Ce0  1  0.624989  0.349216  0.000000  1
  Ce  Ce1  1  0.374593  0.651317  0.000000  1
  Ce  Ce2  1  0.124895  0.150253  0.000000  1
  Y  Y3  1  0.874846  0.849758  0.000000  1
  B  B4  1  0.786884  0.184927  0.500000  1
  B  B5  1  0.213840  0.814540  0.500000  1
  B  B6  1  0.285698  0.314274  0.500000  1
  B  B7  1  0.713621  0.686041  0.500000  1
  B  B8  1  0.865005  0.032095  0.500000  1
  B  B9  1  0.135529  0.967618  0.500000  1
  B  B10  1  0.364151  0.468118  0.500000  1
  B  B11  1  0.635619  0.532403  0.500000  1
  B  B12  1  0.885912  0.453563  0.500000  1
  B  B13  1  0.113457  0.547350  0.500000  1
  B  B14  1  0.386589  0.046062  0.500000  1
  B  B15  1  0.615331  0.952684  0.500000  1
  B  B16  1  0.974563  0.308107  0.500000  1
  B  B17  1  0.025258  0.692574  0.500000  1
  B  B18  1  0.474782  0.191421  0.500000  1
  B  B19  1  0.523717  0.807995  0.500000  1
  W  W20  1  0.630694  0.085163  0.000000  1
  W  W21  1  0.370597  0.914560  0.000000  1
  W  W22  1  0.130954  0.414342  0.000000  1
  W  W23  1  0.868475  0.585622  0.000000  1
