# generated using pymatgen
data_TiCr3GaS8
_symmetry_space_group_name_H-M   'P 1'
_cell_length_a   7.00498720
_cell_length_b   7.00498675
_cell_length_c   7.00498700
_cell_angle_alpha   60.56404121
_cell_angle_beta   60.56404829
_cell_angle_gamma   60.56404251
_symmetry_Int_Tables_number   1
_chemical_formula_structural   TiCr3GaS8
_chemical_formula_sum   'Ti1 Cr3 Ga1 S8'
_cell_volume   246.15338750
_cell_formula_units_Z   1
loop_
 _symmetry_equiv_pos_site_id
 _symmetry_equiv_pos_as_xyz
  1  'x, y, z'
loop_
 _atom_site_type_symbol
 _atom_site_label
 _atom_site_symmetry_multiplicity
 _atom_site_fract_x
 _atom_site_fract_y
 _atom_site_fract_z
 _atom_site_occupancy
  Ti  Ti0  1  0.395418  0.395418  0.395418  1
  Cr  Cr1  1  0.855810  0.379759  0.379759  1
  Cr  Cr2  1  0.379759  0.855810  0.379759  1
  Cr  Cr3  1  0.379759  0.379759  0.855810  1
  Ga  Ga4  1  0.996099  0.996099  0.996099  1
  S  S5  1  0.131870  0.131870  0.131870  1
  S  S6  1  0.592253  0.134344  0.134344  1
  S  S7  1  0.134344  0.592253  0.134344  1
  S  S8  1  0.134344  0.134344  0.592253  1
  S  S9  1  0.615320  0.615320  0.615320  1
  S  S10  1  0.132892  0.626065  0.626065  1
  S  S11  1  0.626065  0.132892  0.626065  1
  S  S12  1  0.626065  0.626065  0.132892  1
