# generated using pymatgen
data_CrFe4P4Ru3
_symmetry_space_group_name_H-M   'P 1'
_cell_length_a   3.67183100
_cell_length_b   5.76793275
_cell_length_c   6.62142031
_cell_angle_alpha   90.76371495
_cell_angle_beta   90.00000000
_cell_angle_gamma   90.00000000
_symmetry_Int_Tables_number   1
_chemical_formula_structural   CrFe4P4Ru3
_chemical_formula_sum   'Cr1 Fe4 P4 Ru3'
_cell_volume   140.22177064
_cell_formula_units_Z   1
loop_
 _symmetry_equiv_pos_site_id
 _symmetry_equiv_pos_as_xyz
  1  'x, y, z'
loop_
 _atom_site_type_symbol
 _atom_site_label
 _atom_site_symmetry_multiplicity
 _atom_site_fract_x
 _atom_site_fract_y
 _atom_site_fract_z
 _atom_site_occupancy
  Cr  Cr0  1  0.250000  0.529962  0.675054  1
  Fe  Fe1  1  0.250000  0.642770  0.064600  1
  Fe  Fe2  1  0.750000  0.360608  0.930100  1
  Fe  Fe3  1  0.250000  0.141117  0.436569  1
  Fe  Fe4  1  0.750000  0.854348  0.563210  1
  P  P5  1  0.250000  0.268747  0.120593  1
  P  P6  1  0.750000  0.734964  0.879115  1
  P  P7  1  0.250000  0.764808  0.379939  1
  P  P8  1  0.750000  0.232521  0.619260  1
  Ru  Ru9  1  0.750000  0.980068  0.167206  1
  Ru  Ru10  1  0.250000  0.025516  0.832123  1
  Ru  Ru11  1  0.750000  0.464572  0.332232  1
