# generated using pymatgen
data_Ho8PPdPt23
_symmetry_space_group_name_H-M   'P 1'
_cell_length_a   8.34428800
_cell_length_b   8.34428800
_cell_length_c   8.35234100
_cell_angle_alpha   90.00000000
_cell_angle_beta   90.00000000
_cell_angle_gamma   90.00000000
_symmetry_Int_Tables_number   1
_chemical_formula_structural   Ho8PPdPt23
_chemical_formula_sum   'Ho8 P1 Pd1 Pt23'
_cell_volume   581.54963473
_cell_formula_units_Z   1
loop_
 _symmetry_equiv_pos_site_id
 _symmetry_equiv_pos_as_xyz
  1  'x, y, z'
loop_
 _atom_site_type_symbol
 _atom_site_label
 _atom_site_symmetry_multiplicity
 _atom_site_fract_x
 _atom_site_fract_y
 _atom_site_fract_z
 _atom_site_occupancy
  Ho  Ho0  1  0.254525  0.254525  0.254518  1
  Ho  Ho1  1  0.745134  0.745134  0.744727  1
  Ho  Ho2  1  0.745475  0.745475  0.254518  1
  Ho  Ho3  1  0.745134  0.254866  0.744727  1
  Ho  Ho4  1  0.254866  0.254866  0.744727  1
  Ho  Ho5  1  0.254525  0.745475  0.254518  1
  Ho  Ho6  1  0.254866  0.745134  0.744727  1
  Ho  Ho7  1  0.745475  0.254525  0.254518  1
  P  P8  1  0.000000  0.000000  0.006577  1
  Pd  Pd9  1  0.000000  0.000000  0.728119  1
  Pt  Pt10  1  0.255753  0.500000  0.999850  1
  Pt  Pt11  1  0.744247  0.500000  0.999850  1
  Pt  Pt12  1  0.000000  0.255891  0.500110  1
  Pt  Pt13  1  0.500000  0.255753  0.999850  1
  Pt  Pt14  1  0.000000  0.744109  0.500110  1
  Pt  Pt15  1  0.500000  0.744247  0.999850  1
  Pt  Pt16  1  0.500000  0.000000  0.255068  1
  Pt  Pt17  1  0.255891  0.000000  0.500110  1
  Pt  Pt18  1  0.500000  0.000000  0.742998  1
  Pt  Pt19  1  0.744109  0.000000  0.500110  1
  Pt  Pt20  1  0.000000  0.500000  0.255068  1
  Pt  Pt21  1  0.000000  0.500000  0.742998  1
  Pt  Pt22  1  0.251169  0.500000  0.499516  1
  Pt  Pt23  1  0.748831  0.500000  0.499516  1
  Pt  Pt24  1  0.500000  0.251169  0.499516  1
  Pt  Pt25  1  0.500000  0.748831  0.499516  1
  Pt  Pt26  1  0.500000  0.500000  0.251227  1
  Pt  Pt27  1  0.500000  0.500000  0.748626  1
  Pt  Pt28  1  0.275047  0.000000  0.998536  1
  Pt  Pt29  1  0.724953  0.000000  0.998536  1
  Pt  Pt30  1  0.000000  0.275047  0.998536  1
  Pt  Pt31  1  0.000000  0.724953  0.998536  1
  Pt  Pt32  1  0.000000  0.000000  0.280294  1
