# generated using pymatgen
data_Li3B3Pd2Pt7
_symmetry_space_group_name_H-M   'P 1'
_cell_length_a   9.31987900
_cell_length_b   9.31841833
_cell_length_c   2.80855400
_cell_angle_alpha   90.00000000
_cell_angle_beta   90.00000000
_cell_angle_gamma   120.00518898
_symmetry_Int_Tables_number   1
_chemical_formula_structural   Li3B3Pd2Pt7
_chemical_formula_sum   'Li3 B3 Pd2 Pt7'
_cell_volume   211.22395811
_cell_formula_units_Z   1
loop_
 _symmetry_equiv_pos_site_id
 _symmetry_equiv_pos_as_xyz
  1  'x, y, z'
loop_
 _atom_site_type_symbol
 _atom_site_label
 _atom_site_symmetry_multiplicity
 _atom_site_fract_x
 _atom_site_fract_y
 _atom_site_fract_z
 _atom_site_occupancy
  Li  Li0  1  0.000102  0.363270  0.000000  1
  Li  Li1  1  0.636832  0.636730  0.000000  1
  Li  Li2  1  0.363432  0.000000  0.000000  1
  B  B3  1  0.997610  0.000000  0.500000  1
  B  B4  1  0.666625  0.334502  0.000000  1
  B  B5  1  0.332121  0.665498  0.000000  1
  Pd  Pd6  1  0.001716  0.825280  0.000000  1
  Pd  Pd7  1  0.176437  0.174720  0.000000  1
  Pt  Pt8  1  0.681611  0.165246  0.500000  1
  Pt  Pt9  1  0.482784  0.317911  0.500000  1
  Pt  Pt10  1  0.836348  0.517096  0.500000  1
  Pt  Pt11  1  0.164873  0.682089  0.500000  1
  Pt  Pt12  1  0.319252  0.482904  0.500000  1
  Pt  Pt13  1  0.516365  0.834754  0.500000  1
  Pt  Pt14  1  0.823891  0.000000  0.000000  1
