# generated using pymatgen
data_Cs3K9(FeSe3)4
_symmetry_space_group_name_H-M   'P 1'
_cell_length_a   13.96983562
_cell_length_b   8.27425769
_cell_length_c   10.49228900
_cell_angle_alpha   53.34092179
_cell_angle_beta   89.46781206
_cell_angle_gamma   89.96807417
_symmetry_Int_Tables_number   1
_chemical_formula_structural   Cs3K9(FeSe3)4
_chemical_formula_sum   'Cs3 K9 Fe4 Se12'
_cell_volume   972.85326243
_cell_formula_units_Z   1
loop_
 _symmetry_equiv_pos_site_id
 _symmetry_equiv_pos_as_xyz
  1  'x, y, z'
loop_
 _atom_site_type_symbol
 _atom_site_label
 _atom_site_symmetry_multiplicity
 _atom_site_fract_x
 _atom_site_fract_y
 _atom_site_fract_z
 _atom_site_occupancy
  Cs  Cs0  1  0.311371  0.189826  0.051212  1
  Cs  Cs1  1  0.683149  0.815157  0.950543  1
  Cs  Cs2  1  0.814905  0.814938  0.456729  1
  K  K3  1  0.899384  0.309230  0.407749  1
  K  K4  1  0.612376  0.366483  0.471783  1
  K  K5  1  0.112179  0.638967  0.022731  1
  K  K6  1  0.385314  0.638335  0.528094  1
  K  K7  1  0.891928  0.350302  0.978952  1
  K  K8  1  0.610280  0.307366  0.909058  1
  K  K9  1  0.107729  0.686967  0.592580  1
  K  K10  1  0.386517  0.702647  0.087386  1
  K  K11  1  0.187034  0.178307  0.552619  1
  Fe  Fe12  1  0.067919  0.947605  0.153793  1
  Fe  Fe13  1  0.563425  0.046175  0.348643  1
  Fe  Fe14  1  0.430502  0.969274  0.647460  1
  Fe  Fe15  1  0.937565  0.039478  0.846905  1
  Se  Se16  1  0.415532  0.210108  0.355370  1
  Se  Se17  1  0.915001  0.807034  0.140179  1
  Se  Se18  1  0.577495  0.803974  0.641616  1
  Se  Se19  1  0.090962  0.181218  0.858143  1
  Se  Se20  1  0.694340  0.281016  0.221186  1
  Se  Se21  1  0.188191  0.691733  0.291067  1
  Se  Se22  1  0.299017  0.736163  0.771469  1
  Se  Se23  1  0.812075  0.282818  0.718948  1
  Se  Se24  1  0.544016  0.864095  0.241198  1
  Se  Se25  1  0.055486  0.137418  0.256917  1
  Se  Se26  1  0.452300  0.147440  0.757621  1
  Se  Se27  1  0.954011  0.855925  0.740049  1
