# generated using pymatgen
data_CeNd3HgIr
_symmetry_space_group_name_H-M   'P 1'
_cell_length_a   9.91332004
_cell_length_b   9.91332091
_cell_length_c   9.91332000
_cell_angle_alpha   60.00000305
_cell_angle_beta   60.00000013
_cell_angle_gamma   60.00000301
_symmetry_Int_Tables_number   1
_chemical_formula_structural   CeNd3HgIr
_chemical_formula_sum   'Ce4 Nd12 Hg4 Ir4'
_cell_volume   688.87819808
_cell_formula_units_Z   4
loop_
 _symmetry_equiv_pos_site_id
 _symmetry_equiv_pos_as_xyz
  1  'x, y, z'
loop_
 _atom_site_type_symbol
 _atom_site_label
 _atom_site_symmetry_multiplicity
 _atom_site_fract_x
 _atom_site_fract_y
 _atom_site_fract_z
 _atom_site_occupancy
  Ce  Ce0  1  0.597229  0.597229  0.597229  1
  Ce  Ce1  1  0.597229  0.597229  0.208313  1
  Ce  Ce2  1  0.597229  0.208313  0.597229  1
  Ce  Ce3  1  0.208313  0.597229  0.597229  1
  Nd  Nd4  1  0.058762  0.441238  0.441238  1
  Nd  Nd5  1  0.441238  0.058762  0.058762  1
  Nd  Nd6  1  0.441238  0.058762  0.441238  1
  Nd  Nd7  1  0.058762  0.441238  0.058762  1
  Nd  Nd8  1  0.441238  0.441238  0.058762  1
  Nd  Nd9  1  0.058762  0.058762  0.441238  1
  Nd  Nd10  1  0.189870  0.810130  0.810130  1
  Nd  Nd11  1  0.810130  0.189870  0.189870  1
  Nd  Nd12  1  0.810130  0.189870  0.810130  1
  Nd  Nd13  1  0.189870  0.810130  0.189870  1
  Nd  Nd14  1  0.810130  0.810130  0.189870  1
  Nd  Nd15  1  0.189870  0.189870  0.810130  1
  Hg  Hg16  1  0.833684  0.833684  0.833684  1
  Hg  Hg17  1  0.833684  0.833684  0.498946  1
  Hg  Hg18  1  0.833684  0.498946  0.833684  1
  Hg  Hg19  1  0.498946  0.833684  0.833684  1
  Ir  Ir20  1  0.395141  0.395141  0.395141  1
  Ir  Ir21  1  0.395141  0.395141  0.814576  1
  Ir  Ir22  1  0.395141  0.814576  0.395141  1
  Ir  Ir23  1  0.814576  0.395141  0.395141  1
