# generated using pymatgen
data_Ho12TcOsRu2
_symmetry_space_group_name_H-M   'P 1'
_cell_length_a   6.27133109
_cell_length_b   7.33723833
_cell_length_c   9.08437300
_cell_angle_alpha   90.00000000
_cell_angle_beta   90.00000000
_cell_angle_gamma   89.95574419
_symmetry_Int_Tables_number   1
_chemical_formula_structural   Ho12TcOsRu2
_chemical_formula_sum   'Ho12 Tc1 Os1 Ru2'
_cell_volume   418.01049347
_cell_formula_units_Z   1
loop_
 _symmetry_equiv_pos_site_id
 _symmetry_equiv_pos_as_xyz
  1  'x, y, z'
loop_
 _atom_site_type_symbol
 _atom_site_label
 _atom_site_symmetry_multiplicity
 _atom_site_fract_x
 _atom_site_fract_y
 _atom_site_fract_z
 _atom_site_occupancy
  Ho  Ho0  1  0.333236  0.676178  0.064501  1
  Ho  Ho1  1  0.166575  0.175525  0.437009  1
  Ho  Ho2  1  0.668843  0.323317  0.564495  1
  Ho  Ho3  1  0.833870  0.825068  0.937149  1
  Ho  Ho4  1  0.668843  0.323317  0.935505  1
  Ho  Ho5  1  0.833870  0.825068  0.562851  1
  Ho  Ho6  1  0.333236  0.676178  0.435499  1
  Ho  Ho7  1  0.166575  0.175525  0.062991  1
  Ho  Ho8  1  0.867758  0.540066  0.250000  1
  Ho  Ho9  1  0.628149  0.041828  0.250000  1
  Ho  Ho10  1  0.134594  0.458768  0.750000  1
  Ho  Ho11  1  0.367049  0.958112  0.750000  1
  Tc  Tc12  1  0.037312  0.884304  0.250000  1
  Os  Os13  1  0.959826  0.117229  0.750000  1
  Ru  Ru14  1  0.461991  0.384142  0.250000  1
  Ru  Ru15  1  0.538274  0.615377  0.750000  1
