# generated using pymatgen
data_La2InCuRh
_symmetry_space_group_name_H-M   'P 1'
_cell_length_a   7.82570300
_cell_length_b   7.86363700
_cell_length_c   3.92926000
_cell_angle_alpha   90.00000000
_cell_angle_beta   90.00000000
_cell_angle_gamma   90.00000000
_symmetry_Int_Tables_number   1
_chemical_formula_structural   La2InCuRh
_chemical_formula_sum   'La4 In2 Cu2 Rh2'
_cell_volume   241.80071803
_cell_formula_units_Z   2
loop_
 _symmetry_equiv_pos_site_id
 _symmetry_equiv_pos_as_xyz
  1  'x, y, z'
loop_
 _atom_site_type_symbol
 _atom_site_label
 _atom_site_symmetry_multiplicity
 _atom_site_fract_x
 _atom_site_fract_y
 _atom_site_fract_z
 _atom_site_occupancy
  La  La0  1  0.178506  0.309567  0.500000  1
  La  La1  1  0.678506  0.190433  0.500000  1
  La  La2  1  0.821133  0.661353  0.500000  1
  La  La3  1  0.321133  0.838647  0.500000  1
  In  In4  1  0.995189  0.994484  0.000000  1
  In  In5  1  0.495189  0.505516  0.000000  1
  Cu  Cu6  1  0.127361  0.615090  0.000000  1
  Cu  Cu7  1  0.627361  0.884910  0.000000  1
  Rh  Rh8  1  0.377811  0.116738  0.000000  1
  Rh  Rh9  1  0.877811  0.383262  0.000000  1
