# generated using pymatgen
data_TbLu15(In3Ni)2
_symmetry_space_group_name_H-M   'P 1'
_cell_length_a   10.21958000
_cell_length_b   10.21958059
_cell_length_c   6.82656800
_cell_angle_alpha   90.00000000
_cell_angle_beta   90.00000000
_cell_angle_gamma   120.00000456
_symmetry_Int_Tables_number   1
_chemical_formula_structural   TbLu15(In3Ni)2
_chemical_formula_sum   'Tb1 Lu15 In6 Ni2'
_cell_volume   617.44624364
_cell_formula_units_Z   1
loop_
 _symmetry_equiv_pos_site_id
 _symmetry_equiv_pos_as_xyz
  1  'x, y, z'
loop_
 _atom_site_type_symbol
 _atom_site_label
 _atom_site_symmetry_multiplicity
 _atom_site_fract_x
 _atom_site_fract_y
 _atom_site_fract_z
 _atom_site_occupancy
  Tb  Tb0  1  0.000000  0.000000  0.998849  1
  Lu  Lu1  1  0.467331  0.532669  0.478874  1
  Lu  Lu2  1  0.065337  0.532669  0.478874  1
  Lu  Lu3  1  0.467331  0.934663  0.478874  1
  Lu  Lu4  1  0.532907  0.467093  0.978857  1
  Lu  Lu5  1  0.934185  0.467093  0.978857  1
  Lu  Lu6  1  0.532907  0.065815  0.978857  1
  Lu  Lu7  1  0.821323  0.178677  0.276719  1
  Lu  Lu8  1  0.357354  0.178677  0.276719  1
  Lu  Lu9  1  0.821323  0.642646  0.276719  1
  Lu  Lu10  1  0.178764  0.821236  0.774786  1
  Lu  Lu11  1  0.642472  0.821236  0.774786  1
  Lu  Lu12  1  0.178764  0.357528  0.774786  1
  Lu  Lu13  1  0.333333  0.666667  0.094117  1
  Lu  Lu14  1  0.666667  0.333333  0.593436  1
  Lu  Lu15  1  0.000000  0.000000  0.498885  1
  In  In16  1  0.162608  0.837392  0.237696  1
  In  In17  1  0.674783  0.837392  0.237696  1
  In  In18  1  0.162608  0.325217  0.237696  1
  In  In19  1  0.837473  0.162527  0.734247  1
  In  In20  1  0.325055  0.162527  0.734247  1
  In  In21  1  0.837473  0.674945  0.734247  1
  Ni  Ni22  1  0.333333  0.666667  0.708392  1
  Ni  Ni23  1  0.666667  0.333333  0.207332  1
