# generated using pymatgen
data_Hf4SnPRh10
_symmetry_space_group_name_H-M   'P 1'
_cell_length_a   4.07126500
_cell_length_b   5.62948062
_cell_length_c   10.95979565
_cell_angle_alpha   89.36251252
_cell_angle_beta   90.00000000
_cell_angle_gamma   90.00000000
_symmetry_Int_Tables_number   1
_chemical_formula_structural   Hf4SnPRh10
_chemical_formula_sum   'Hf4 Sn1 P1 Rh10'
_cell_volume   251.17318630
_cell_formula_units_Z   1
loop_
 _symmetry_equiv_pos_site_id
 _symmetry_equiv_pos_as_xyz
  1  'x, y, z'
loop_
 _atom_site_type_symbol
 _atom_site_label
 _atom_site_symmetry_multiplicity
 _atom_site_fract_x
 _atom_site_fract_y
 _atom_site_fract_z
 _atom_site_occupancy
  Hf  Hf0  1  0.500000  0.178061  0.645003  1
  Hf  Hf1  1  0.500000  0.821939  0.354997  1
  Hf  Hf2  1  0.500000  0.673291  0.860370  1
  Hf  Hf3  1  0.500000  0.326709  0.139630  1
  Sn  Sn4  1  0.000000  0.500000  0.500000  1
  P  P5  1  0.000000  0.000000  0.000000  1
  Rh  Rh6  1  0.500000  0.180535  0.900694  1
  Rh  Rh7  1  0.500000  0.819465  0.099306  1
  Rh  Rh8  1  0.500000  0.704831  0.616137  1
  Rh  Rh9  1  0.500000  0.295169  0.383863  1
  Rh  Rh10  1  0.000000  0.431108  0.749588  1
  Rh  Rh11  1  0.000000  0.568892  0.250412  1
  Rh  Rh12  1  0.000000  0.000000  0.500000  1
  Rh  Rh13  1  0.000000  0.500000  0.000000  1
  Rh  Rh14  1  0.000000  0.064118  0.234273  1
  Rh  Rh15  1  0.000000  0.935882  0.765727  1
