# generated using pymatgen
data_Tb12Tc3Te
_symmetry_space_group_name_H-M   'P 1'
_cell_length_a   6.36007590
_cell_length_b   7.63007095
_cell_length_c   9.32027200
_cell_angle_alpha   90.00000000
_cell_angle_beta   90.00000000
_cell_angle_gamma   90.95682775
_symmetry_Int_Tables_number   1
_chemical_formula_structural   Tb12Tc3Te
_chemical_formula_sum   'Tb12 Tc3 Te1'
_cell_volume   452.22951150
_cell_formula_units_Z   1
loop_
 _symmetry_equiv_pos_site_id
 _symmetry_equiv_pos_as_xyz
  1  'x, y, z'
loop_
 _atom_site_type_symbol
 _atom_site_label
 _atom_site_symmetry_multiplicity
 _atom_site_fract_x
 _atom_site_fract_y
 _atom_site_fract_z
 _atom_site_occupancy
  Tb  Tb0  1  0.608606  0.053348  0.250000  1
  Tb  Tb1  1  0.363521  0.958325  0.750000  1
  Tb  Tb2  1  0.120777  0.468171  0.750000  1
  Tb  Tb3  1  0.862081  0.509555  0.250000  1
  Tb  Tb4  1  0.160107  0.201519  0.052838  1
  Tb  Tb5  1  0.831044  0.824490  0.929084  1
  Tb  Tb6  1  0.667966  0.318279  0.932158  1
  Tb  Tb7  1  0.831044  0.824490  0.570916  1
  Tb  Tb8  1  0.360209  0.657560  0.054125  1
  Tb  Tb9  1  0.160107  0.201519  0.447162  1
  Tb  Tb10  1  0.360209  0.657560  0.445875  1
  Tb  Tb11  1  0.667966  0.318279  0.567842  1
  Tc  Tc12  1  0.440320  0.383140  0.250000  1
  Tc  Tc13  1  0.534470  0.619490  0.750000  1
  Tc  Tc14  1  0.964326  0.120335  0.750000  1
  Te  Te15  1  0.067248  0.883936  0.250000  1
