# generated using pymatgen
data_Tb17Y3(CoSb2)4
_symmetry_space_group_name_H-M   'P 1'
_cell_length_a   7.93707909
_cell_length_b   8.76432200
_cell_length_c   12.25459214
_cell_angle_alpha   90.00000000
_cell_angle_beta   89.98274230
_cell_angle_gamma   90.00000000
_symmetry_Int_Tables_number   1
_chemical_formula_structural   Tb17Y3(CoSb2)4
_chemical_formula_sum   'Tb17 Y3 Co4 Sb8'
_cell_volume   852.46758666
_cell_formula_units_Z   1
loop_
 _symmetry_equiv_pos_site_id
 _symmetry_equiv_pos_as_xyz
  1  'x, y, z'
loop_
 _atom_site_type_symbol
 _atom_site_label
 _atom_site_symmetry_multiplicity
 _atom_site_fract_x
 _atom_site_fract_y
 _atom_site_fract_z
 _atom_site_occupancy
  Tb  Tb0  1  0.345158  0.750000  0.703612  1
  Tb  Tb1  1  0.453947  0.750000  0.998244  1
  Tb  Tb2  1  0.954038  0.250000  0.501648  1
  Tb  Tb3  1  0.545837  0.250000  0.001677  1
  Tb  Tb4  1  0.045552  0.750000  0.498467  1
  Tb  Tb5  1  0.620301  0.750000  0.305745  1
  Tb  Tb6  1  0.120509  0.250000  0.194440  1
  Tb  Tb7  1  0.379492  0.250000  0.694590  1
  Tb  Tb8  1  0.879414  0.750000  0.805531  1
  Tb  Tb9  1  0.820670  0.964019  0.064979  1
  Tb  Tb10  1  0.320729  0.036281  0.434863  1
  Tb  Tb11  1  0.179136  0.463849  0.935044  1
  Tb  Tb12  1  0.679317  0.535697  0.564949  1
  Tb  Tb13  1  0.179136  0.036151  0.935044  1
  Tb  Tb14  1  0.679317  0.964303  0.564949  1
  Tb  Tb15  1  0.820670  0.535981  0.064979  1
  Tb  Tb16  1  0.320729  0.463719  0.434863  1
  Y  Y17  1  0.155450  0.750000  0.204731  1
  Y  Y18  1  0.655742  0.250000  0.295197  1
  Y  Y19  1  0.844624  0.250000  0.795509  1
  Co  Co20  1  0.431632  0.750000  0.489812  1
  Co  Co21  1  0.932113  0.250000  0.010711  1
  Co  Co22  1  0.568317  0.250000  0.510546  1
  Co  Co23  1  0.068017  0.750000  0.989603  1
  Sb  Sb24  1  0.926986  0.990933  0.326832  1
  Sb  Sb25  1  0.427040  0.008950  0.173220  1
  Sb  Sb26  1  0.072710  0.490780  0.673207  1
  Sb  Sb27  1  0.573341  0.508752  0.826875  1
  Sb  Sb28  1  0.072710  0.009220  0.673207  1
  Sb  Sb29  1  0.573341  0.991248  0.826875  1
  Sb  Sb30  1  0.926986  0.509067  0.326832  1
  Sb  Sb31  1  0.427040  0.491050  0.173220  1
