# generated using pymatgen
data_Na5Yb(CuS)8
_symmetry_space_group_name_H-M   'P 1'
_cell_length_a   3.79888800
_cell_length_b   7.01601985
_cell_length_c   14.56898228
_cell_angle_alpha   90.49794725
_cell_angle_beta   90.00000000
_cell_angle_gamma   90.00000000
_symmetry_Int_Tables_number   1
_chemical_formula_structural   Na5Yb(CuS)8
_chemical_formula_sum   'Na5 Yb1 Cu8 S8'
_cell_volume   388.29349304
_cell_formula_units_Z   1
loop_
 _symmetry_equiv_pos_site_id
 _symmetry_equiv_pos_as_xyz
  1  'x, y, z'
loop_
 _atom_site_type_symbol
 _atom_site_label
 _atom_site_symmetry_multiplicity
 _atom_site_fract_x
 _atom_site_fract_y
 _atom_site_fract_z
 _atom_site_occupancy
  Na  Na0  1  0.000000  0.477813  0.742125  1
  Na  Na1  1  0.000000  0.522187  0.257875  1
  Na  Na2  1  0.000000  0.019649  0.234429  1
  Na  Na3  1  0.500000  0.000000  0.000000  1
  Na  Na4  1  0.000000  0.980351  0.765571  1
  Yb  Yb5  1  0.500000  0.500000  0.500000  1
  Cu  Cu6  1  0.500000  0.914459  0.586141  1
  Cu  Cu7  1  0.000000  0.331052  0.063981  1
  Cu  Cu8  1  0.500000  0.420331  0.911416  1
  Cu  Cu9  1  0.000000  0.829443  0.440331  1
  Cu  Cu10  1  0.500000  0.085541  0.413859  1
  Cu  Cu11  1  0.000000  0.170557  0.559669  1
  Cu  Cu12  1  0.000000  0.668948  0.936019  1
  Cu  Cu13  1  0.500000  0.579669  0.088584  1
  S  S14  1  0.500000  0.779124  0.352733  1
  S  S15  1  0.500000  0.720009  0.847016  1
  S  S16  1  0.500000  0.279991  0.152984  1
  S  S17  1  0.000000  0.729887  0.590383  1
  S  S18  1  0.000000  0.244965  0.910551  1
  S  S19  1  0.000000  0.270113  0.409617  1
  S  S20  1  0.000000  0.755035  0.089449  1
  S  S21  1  0.500000  0.220876  0.647267  1
