# generated using pymatgen
data_Ho3AgSn3IrRu
_symmetry_space_group_name_H-M   'P 1'
_cell_length_a   7.77724900
_cell_length_b   7.77724857
_cell_length_c   3.76511500
_cell_angle_alpha   90.00000000
_cell_angle_beta   90.00000000
_cell_angle_gamma   119.99999757
_symmetry_Int_Tables_number   1
_chemical_formula_structural   Ho3AgSn3IrRu
_chemical_formula_sum   'Ho3 Ag1 Sn3 Ir1 Ru1'
_cell_volume   197.22450357
_cell_formula_units_Z   1
loop_
 _symmetry_equiv_pos_site_id
 _symmetry_equiv_pos_as_xyz
  1  'x, y, z'
loop_
 _atom_site_type_symbol
 _atom_site_label
 _atom_site_symmetry_multiplicity
 _atom_site_fract_x
 _atom_site_fract_y
 _atom_site_fract_z
 _atom_site_occupancy
  Ho  Ho0  1  0.385146  0.411114  0.500000  1
  Ho  Ho1  1  0.588886  0.974032  0.500000  1
  Ho  Ho2  1  0.025968  0.614854  0.500000  1
  Ag  Ag3  1  0.666667  0.333333  0.000000  1
  Sn  Sn4  1  0.741658  0.737053  0.000000  1
  Sn  Sn5  1  0.262947  0.004605  0.000000  1
  Sn  Sn6  1  0.995395  0.258342  0.000000  1
  Ir  Ir7  1  0.333333  0.666667  0.000000  1
  Ru  Ru8  1  0.000000  0.000000  0.500000  1
