# generated using pymatgen
data_Lu4Th2NiRh17
_symmetry_space_group_name_H-M   'P 1'
_cell_length_a   5.23602900
_cell_length_b   5.23602950
_cell_length_c   17.32924900
_cell_angle_alpha   90.00000000
_cell_angle_beta   90.00000000
_cell_angle_gamma   119.99999050
_symmetry_Int_Tables_number   1
_chemical_formula_structural   Lu4Th2NiRh17
_chemical_formula_sum   'Lu4 Th2 Ni1 Rh17'
_cell_volume   411.44760972
_cell_formula_units_Z   1
loop_
 _symmetry_equiv_pos_site_id
 _symmetry_equiv_pos_as_xyz
  1  'x, y, z'
loop_
 _atom_site_type_symbol
 _atom_site_label
 _atom_site_symmetry_multiplicity
 _atom_site_fract_x
 _atom_site_fract_y
 _atom_site_fract_z
 _atom_site_occupancy
  Lu  Lu0  1  0.333333  0.666667  0.960505  1
  Lu  Lu1  1  0.666667  0.333333  0.039991  1
  Lu  Lu2  1  0.666667  0.333333  0.460009  1
  Lu  Lu3  1  0.333333  0.666667  0.539495  1
  Th  Th4  1  0.333333  0.666667  0.750000  1
  Th  Th5  1  0.666667  0.333333  0.250000  1
  Ni  Ni6  1  0.333333  0.666667  0.250000  1
  Rh  Rh7  1  0.169126  0.830874  0.374022  1
  Rh  Rh8  1  0.169126  0.338253  0.374022  1
  Rh  Rh9  1  0.661747  0.830874  0.374022  1
  Rh  Rh10  1  0.832423  0.167577  0.622243  1
  Rh  Rh11  1  0.832423  0.664846  0.622243  1
  Rh  Rh12  1  0.335154  0.167577  0.622243  1
  Rh  Rh13  1  0.832423  0.167577  0.877757  1
  Rh  Rh14  1  0.832423  0.664846  0.877757  1
  Rh  Rh15  1  0.335154  0.167577  0.877757  1
  Rh  Rh16  1  0.169126  0.830874  0.125978  1
  Rh  Rh17  1  0.169126  0.338253  0.125978  1
  Rh  Rh18  1  0.661747  0.830874  0.125978  1
  Rh  Rh19  1  0.666667  0.333333  0.750000  1
  Rh  Rh20  1  0.000000  0.000000  0.250000  1
  Rh  Rh21  1  0.000000  0.000000  0.750000  1
  Rh  Rh22  1  0.000000  0.000000  0.497513  1
  Rh  Rh23  1  0.000000  0.000000  0.002487  1
