# generated using pymatgen
data_Ho6MgCo17P12
_symmetry_space_group_name_H-M   'P 1'
_cell_length_a   3.71983900
_cell_length_b   10.56566600
_cell_length_c   12.24803000
_cell_angle_alpha   90.00000000
_cell_angle_beta   90.00000000
_cell_angle_gamma   90.00000000
_symmetry_Int_Tables_number   1
_chemical_formula_structural   Ho6MgCo17P12
_chemical_formula_sum   'Ho6 Mg1 Co17 P12'
_cell_volume   481.37913541
_cell_formula_units_Z   1
loop_
 _symmetry_equiv_pos_site_id
 _symmetry_equiv_pos_as_xyz
  1  'x, y, z'
loop_
 _atom_site_type_symbol
 _atom_site_label
 _atom_site_symmetry_multiplicity
 _atom_site_fract_x
 _atom_site_fract_y
 _atom_site_fract_z
 _atom_site_occupancy
  Ho  Ho0  1  0.000000  0.500000  0.524835  1
  Ho  Ho1  1  0.500000  0.000000  0.478302  1
  Ho  Ho2  1  0.500000  0.821772  0.207781  1
  Ho  Ho3  1  0.500000  0.178228  0.207781  1
  Ho  Ho4  1  0.000000  0.682505  0.794345  1
  Ho  Ho5  1  0.000000  0.317495  0.794345  1
  Mg  Mg6  1  0.500000  0.500000  0.153624  1
  Co  Co7  1  0.000000  0.500000  0.986077  1
  Co  Co8  1  0.500000  0.000000  0.012426  1
  Co  Co9  1  0.500000  0.295893  0.433065  1
  Co  Co10  1  0.500000  0.704107  0.433065  1
  Co  Co11  1  0.000000  0.202155  0.570272  1
  Co  Co12  1  0.000000  0.797845  0.570272  1
  Co  Co13  1  0.500000  0.879825  0.708507  1
  Co  Co14  1  0.500000  0.120175  0.708507  1
  Co  Co15  1  0.000000  0.623047  0.293388  1
  Co  Co16  1  0.000000  0.376953  0.293388  1
  Co  Co17  1  0.500000  0.329084  0.993059  1
  Co  Co18  1  0.500000  0.670916  0.993059  1
  Co  Co19  1  0.000000  0.163113  0.001746  1
  Co  Co20  1  0.000000  0.836887  0.001746  1
  Co  Co21  1  0.000000  0.000000  0.838047  1
  Co  Co22  1  0.500000  0.500000  0.704586  1
  Co  Co23  1  0.000000  0.000000  0.296050  1
  P  P24  1  0.500000  0.309927  0.617262  1
  P  P25  1  0.500000  0.690073  0.617262  1
  P  P26  1  0.000000  0.189081  0.385744  1
  P  P27  1  0.000000  0.810919  0.385744  1
  P  P28  1  0.500000  0.500000  0.883448  1
  P  P29  1  0.000000  0.000000  0.116427  1
  P  P30  1  0.500000  0.849485  0.889985  1
  P  P31  1  0.500000  0.150515  0.889985  1
  P  P32  1  0.000000  0.663312  0.103399  1
  P  P33  1  0.000000  0.336688  0.103399  1
  P  P34  1  0.500000  0.500000  0.354237  1
  P  P35  1  0.000000  0.000000  0.654836  1
