# generated using pymatgen
data_HoTh2Sb3
_symmetry_space_group_name_H-M   'P 1'
_cell_length_a   4.47117700
_cell_length_b   4.47117687
_cell_length_c   10.86986300
_cell_angle_alpha   90.00000000
_cell_angle_beta   90.00000000
_cell_angle_gamma   119.99999360
_symmetry_Int_Tables_number   1
_chemical_formula_structural   HoTh2Sb3
_chemical_formula_sum   'Ho1 Th2 Sb3'
_cell_volume   188.19082330
_cell_formula_units_Z   1
loop_
 _symmetry_equiv_pos_site_id
 _symmetry_equiv_pos_as_xyz
  1  'x, y, z'
loop_
 _atom_site_type_symbol
 _atom_site_label
 _atom_site_symmetry_multiplicity
 _atom_site_fract_x
 _atom_site_fract_y
 _atom_site_fract_z
 _atom_site_occupancy
  Ho  Ho0  1  0.000000  0.000000  0.000000  1
  Th  Th1  1  0.333333  0.666667  0.670203  1
  Th  Th2  1  0.666667  0.333333  0.329797  1
  Sb  Sb3  1  0.333333  0.666667  0.158172  1
  Sb  Sb4  1  0.666667  0.333333  0.841828  1
  Sb  Sb5  1  0.000000  0.000000  0.500000  1
