# generated using pymatgen
data_Er4TmLu7Ir4
_symmetry_space_group_name_H-M   'P 1'
_cell_length_a   6.30866787
_cell_length_b   7.16538220
_cell_length_c   8.95820885
_cell_angle_alpha   89.98204898
_cell_angle_beta   89.96815202
_cell_angle_gamma   89.96238279
_symmetry_Int_Tables_number   1
_chemical_formula_structural   Er4TmLu7Ir4
_chemical_formula_sum   'Er4 Tm1 Lu7 Ir4'
_cell_volume   404.94685091
_cell_formula_units_Z   1
loop_
 _symmetry_equiv_pos_site_id
 _symmetry_equiv_pos_as_xyz
  1  'x, y, z'
loop_
 _atom_site_type_symbol
 _atom_site_label
 _atom_site_symmetry_multiplicity
 _atom_site_fract_x
 _atom_site_fract_y
 _atom_site_fract_z
 _atom_site_occupancy
  Er  Er0  1  0.873530  0.533118  0.250117  1
  Er  Er1  1  0.626331  0.032968  0.250270  1
  Er  Er2  1  0.126078  0.467039  0.749761  1
  Er  Er3  1  0.374038  0.966790  0.749715  1
  Tm  Tm4  1  0.172142  0.177897  0.061403  1
  Lu  Lu5  1  0.327882  0.677677  0.062003  1
  Lu  Lu6  1  0.172337  0.177460  0.437974  1
  Lu  Lu7  1  0.672331  0.322460  0.562247  1
  Lu  Lu8  1  0.827595  0.822105  0.938003  1
  Lu  Lu9  1  0.671992  0.322551  0.937834  1
  Lu  Lu10  1  0.827710  0.822401  0.562284  1
  Lu  Lu11  1  0.327672  0.677579  0.437960  1
  Ir  Ir12  1  0.044012  0.883967  0.250188  1
  Ir  Ir13  1  0.456492  0.384983  0.250296  1
  Ir  Ir14  1  0.955868  0.115486  0.750001  1
  Ir  Ir15  1  0.543990  0.615521  0.749942  1
