# generated using pymatgen
data_Sr4LuTa2InO12
_symmetry_space_group_name_H-M   'P 1'
_cell_length_a   5.80286426
_cell_length_b   5.84321075
_cell_length_c   8.22652759
_cell_angle_alpha   90.08837964
_cell_angle_beta   90.11217908
_cell_angle_gamma   90.00727520
_symmetry_Int_Tables_number   1
_chemical_formula_structural   Sr4LuTa2InO12
_chemical_formula_sum   'Sr4 Lu1 Ta2 In1 O12'
_cell_volume   278.93895367
_cell_formula_units_Z   1
loop_
 _symmetry_equiv_pos_site_id
 _symmetry_equiv_pos_as_xyz
  1  'x, y, z'
loop_
 _atom_site_type_symbol
 _atom_site_label
 _atom_site_symmetry_multiplicity
 _atom_site_fract_x
 _atom_site_fract_y
 _atom_site_fract_z
 _atom_site_occupancy
  Sr  Sr0  1  0.994434  0.470236  0.248645  1
  Sr  Sr1  1  0.493621  0.028826  0.750966  1
  Sr  Sr2  1  0.005566  0.529764  0.751355  1
  Sr  Sr3  1  0.506379  0.971174  0.249034  1
  Lu  Lu4  1  0.500000  0.500000  0.500000  1
  Ta  Ta5  1  0.500000  0.500000  0.000000  1
  Ta  Ta6  1  0.000000  0.000000  0.500000  1
  In  In7  1  0.000000  0.000000  0.000000  1
  O  O8  1  0.201711  0.274911  0.538083  1
  O  O9  1  0.702139  0.225454  0.038633  1
  O  O10  1  0.798289  0.725089  0.461917  1
  O  O11  1  0.297861  0.774546  0.961367  1
  O  O12  1  0.273975  0.796617  0.536013  1
  O  O13  1  0.773768  0.704221  0.036264  1
  O  O14  1  0.726025  0.203383  0.463987  1
  O  O15  1  0.226232  0.295779  0.963736  1
  O  O16  1  0.429678  0.517129  0.238274  1
  O  O17  1  0.928594  0.982592  0.738789  1
  O  O18  1  0.570322  0.482871  0.761726  1
  O  O19  1  0.071406  0.017408  0.261211  1
