# generated using pymatgen
data_Ho8Cd2PdRu
_symmetry_space_group_name_H-M   'P 1'
_cell_length_a   9.61474019
_cell_length_b   9.61471511
_cell_length_c   9.67331500
_cell_angle_alpha   59.79678299
_cell_angle_beta   59.79663671
_cell_angle_gamma   59.58833039
_symmetry_Int_Tables_number   1
_chemical_formula_structural   Ho8Cd2PdRu
_chemical_formula_sum   'Ho16 Cd4 Pd2 Ru2'
_cell_volume   628.39376806
_cell_formula_units_Z   2
loop_
 _symmetry_equiv_pos_site_id
 _symmetry_equiv_pos_as_xyz
  1  'x, y, z'
loop_
 _atom_site_type_symbol
 _atom_site_label
 _atom_site_symmetry_multiplicity
 _atom_site_fract_x
 _atom_site_fract_y
 _atom_site_fract_z
 _atom_site_occupancy
  Ho  Ho0  1  0.349150  0.349152  0.354757  1
  Ho  Ho1  1  0.349208  0.349208  0.946854  1
  Ho  Ho2  1  0.346130  0.952061  0.350952  1
  Ho  Ho3  1  0.952062  0.346129  0.350949  1
  Ho  Ho4  1  0.817124  0.187557  0.188807  1
  Ho  Ho5  1  0.187573  0.817149  0.806478  1
  Ho  Ho6  1  0.187558  0.817122  0.188808  1
  Ho  Ho7  1  0.817150  0.187571  0.806479  1
  Ho  Ho8  1  0.187256  0.187258  0.812734  1
  Ho  Ho9  1  0.810124  0.810123  0.189872  1
  Ho  Ho10  1  0.936360  0.560176  0.567406  1
  Ho  Ho11  1  0.560108  0.936393  0.936097  1
  Ho  Ho12  1  0.560177  0.936361  0.567405  1
  Ho  Ho13  1  0.936394  0.560110  0.936095  1
  Ho  Ho14  1  0.564986  0.564986  0.935012  1
  Ho  Ho15  1  0.938219  0.938218  0.561760  1
  Cd  Cd16  1  0.580204  0.580205  0.581760  1
  Cd  Cd17  1  0.580193  0.580193  0.257834  1
  Cd  Cd18  1  0.580936  0.255140  0.581948  1
  Cd  Cd19  1  0.255139  0.580935  0.581949  1
  Pd  Pd20  1  0.145192  0.570433  0.142179  1
  Pd  Pd21  1  0.570432  0.145192  0.142180  1
  Ru  Ru22  1  0.144163  0.144160  0.140087  1
  Ru  Ru23  1  0.144163  0.144166  0.571598  1
