# generated using pymatgen
data_Tb3Er3Al24(RuRh3)2
_symmetry_space_group_name_H-M   'P 1'
_cell_length_a   8.82295300
_cell_length_b   8.82295374
_cell_length_c   9.49512800
_cell_angle_alpha   90.00000000
_cell_angle_beta   90.00000000
_cell_angle_gamma   120.00000098
_symmetry_Int_Tables_number   1
_chemical_formula_structural   Tb3Er3Al24(RuRh3)2
_chemical_formula_sum   'Tb3 Er3 Al24 Ru2 Rh6'
_cell_volume   640.11708519
_cell_formula_units_Z   1
loop_
 _symmetry_equiv_pos_site_id
 _symmetry_equiv_pos_as_xyz
  1  'x, y, z'
loop_
 _atom_site_type_symbol
 _atom_site_label
 _atom_site_symmetry_multiplicity
 _atom_site_fract_x
 _atom_site_fract_y
 _atom_site_fract_z
 _atom_site_occupancy
  Tb  Tb0  1  0.618573  0.809287  0.750000  1
  Tb  Tb1  1  0.190713  0.809287  0.750000  1
  Tb  Tb2  1  0.190713  0.381427  0.750000  1
  Er  Er3  1  0.385050  0.192525  0.250000  1
  Er  Er4  1  0.807475  0.192525  0.250000  1
  Er  Er5  1  0.807475  0.614950  0.250000  1
  Al  Al6  1  0.438439  0.876878  0.250000  1
  Al  Al7  1  0.123122  0.561561  0.250000  1
  Al  Al8  1  0.438439  0.561561  0.250000  1
  Al  Al9  1  0.562070  0.124141  0.750000  1
  Al  Al10  1  0.875859  0.437930  0.750000  1
  Al  Al11  1  0.562070  0.437930  0.750000  1
  Al  Al12  1  0.162875  0.837125  0.423257  1
  Al  Al13  1  0.162875  0.325752  0.423257  1
  Al  Al14  1  0.674248  0.837125  0.423257  1
  Al  Al15  1  0.836764  0.163236  0.574903  1
  Al  Al16  1  0.836764  0.673526  0.574903  1
  Al  Al17  1  0.326474  0.163236  0.574903  1
  Al  Al18  1  0.836764  0.163236  0.925097  1
  Al  Al19  1  0.836764  0.673526  0.925097  1
  Al  Al20  1  0.326474  0.163236  0.925097  1
  Al  Al21  1  0.162875  0.837125  0.076743  1
  Al  Al22  1  0.162875  0.325752  0.076743  1
  Al  Al23  1  0.674248  0.837125  0.076743  1
  Al  Al24  1  0.333333  0.666667  0.529390  1
  Al  Al25  1  0.666667  0.333333  0.468700  1
  Al  Al26  1  0.666667  0.333333  0.031300  1
  Al  Al27  1  0.333333  0.666667  0.970610  1
  Al  Al28  1  0.000000  0.000000  0.250000  1
  Al  Al29  1  0.000000  0.000000  0.750000  1
  Ru  Ru30  1  0.000000  0.000000  0.499408  1
  Ru  Ru31  1  0.000000  0.000000  0.000592  1
  Rh  Rh32  1  0.500405  0.000810  0.499024  1
  Rh  Rh33  1  0.999190  0.499595  0.499024  1
  Rh  Rh34  1  0.500405  0.499595  0.499024  1
  Rh  Rh35  1  0.500405  0.000810  0.000976  1
  Rh  Rh36  1  0.999190  0.499595  0.000976  1
  Rh  Rh37  1  0.500405  0.499595  0.000976  1
