# generated using pymatgen
data_YbEu(CoN)2
_symmetry_space_group_name_H-M   'P 1'
_cell_length_a   3.54497300
_cell_length_b   3.54497300
_cell_length_c   7.20209400
_cell_angle_alpha   90.00000000
_cell_angle_beta   90.00000000
_cell_angle_gamma   90.00000000
_symmetry_Int_Tables_number   1
_chemical_formula_structural   YbEu(CoN)2
_chemical_formula_sum   'Yb1 Eu1 Co2 N2'
_cell_volume   90.50751666
_cell_formula_units_Z   1
loop_
 _symmetry_equiv_pos_site_id
 _symmetry_equiv_pos_as_xyz
  1  'x, y, z'
loop_
 _atom_site_type_symbol
 _atom_site_label
 _atom_site_symmetry_multiplicity
 _atom_site_fract_x
 _atom_site_fract_y
 _atom_site_fract_z
 _atom_site_occupancy
  Yb  Yb0  1  0.000000  0.000000  0.750001  1
  Eu  Eu1  1  0.000000  0.000000  0.250001  1
  Co  Co2  1  0.500001  0.500001  0.988877  1
  Co  Co3  1  0.500001  0.500001  0.511123  1
  N  N4  1  0.500001  0.000000  0.989750  1
  N  N5  1  0.000000  0.500001  0.510250  1
