# generated using pymatgen
data_LaSm3Al13Au9
_symmetry_space_group_name_H-M   'P 1'
_cell_length_a   11.75972000
_cell_length_b   11.75971927
_cell_length_c   4.24295400
_cell_angle_alpha   90.00000000
_cell_angle_beta   90.00000000
_cell_angle_gamma   119.99999642
_symmetry_Int_Tables_number   1
_chemical_formula_structural   LaSm3Al13Au9
_chemical_formula_sum   'La1 Sm3 Al13 Au9'
_cell_volume   508.15114264
_cell_formula_units_Z   1
loop_
 _symmetry_equiv_pos_site_id
 _symmetry_equiv_pos_as_xyz
  1  'x, y, z'
loop_
 _atom_site_type_symbol
 _atom_site_label
 _atom_site_symmetry_multiplicity
 _atom_site_fract_x
 _atom_site_fract_y
 _atom_site_fract_z
 _atom_site_occupancy
  La  La0  1  0.666667  0.333333  0.000000  1
  Sm  Sm1  1  0.204902  0.795098  0.500000  1
  Sm  Sm2  1  0.590196  0.795098  0.500000  1
  Sm  Sm3  1  0.204902  0.409804  0.500000  1
  Al  Al4  1  0.949135  0.292045  0.000000  1
  Al  Al5  1  0.707955  0.657090  0.000000  1
  Al  Al6  1  0.949135  0.657090  0.000000  1
  Al  Al7  1  0.342910  0.050865  0.000000  1
  Al  Al8  1  0.165321  0.082660  0.500000  1
  Al  Al9  1  0.917340  0.834679  0.500000  1
  Al  Al10  1  0.707955  0.050865  0.000000  1
  Al  Al11  1  0.531010  0.062019  0.500000  1
  Al  Al12  1  0.917340  0.082660  0.500000  1
  Al  Al13  1  0.342910  0.292045  0.000000  1
  Al  Al14  1  0.531010  0.468990  0.500000  1
  Al  Al15  1  0.937981  0.468990  0.500000  1
  Al  Al16  1  0.333333  0.666667  0.000000  1
  Au  Au17  1  0.457058  0.542942  0.000000  1
  Au  Au18  1  0.826271  0.913136  0.000000  1
  Au  Au19  1  0.457058  0.914115  0.000000  1
  Au  Au20  1  0.086864  0.173729  0.000000  1
  Au  Au21  1  0.086864  0.913136  0.000000  1
  Au  Au22  1  0.790095  0.580189  0.500000  1
  Au  Au23  1  0.085885  0.542942  0.000000  1
  Au  Au24  1  0.790095  0.209905  0.500000  1
  Au  Au25  1  0.419811  0.209905  0.500000  1
