# generated using pymatgen
data_Pm4V3CrO12
_symmetry_space_group_name_H-M   'P 1'
_cell_length_a   5.44599904
_cell_length_b   5.72011123
_cell_length_c   7.79003900
_cell_angle_alpha   90.00024040
_cell_angle_beta   90.32206169
_cell_angle_gamma   90.14857195
_symmetry_Int_Tables_number   1
_chemical_formula_structural   Pm4V3CrO12
_chemical_formula_sum   'Pm4 V3 Cr1 O12'
_cell_volume   242.66846606
_cell_formula_units_Z   1
loop_
 _symmetry_equiv_pos_site_id
 _symmetry_equiv_pos_as_xyz
  1  'x, y, z'
loop_
 _atom_site_type_symbol
 _atom_site_label
 _atom_site_symmetry_multiplicity
 _atom_site_fract_x
 _atom_site_fract_y
 _atom_site_fract_z
 _atom_site_occupancy
  Pm  Pm0  1  0.983386  0.060961  0.250139  1
  Pm  Pm1  1  0.518451  0.563467  0.247982  1
  Pm  Pm2  1  0.481548  0.436533  0.752018  1
  Pm  Pm3  1  0.016613  0.939039  0.749861  1
  V  V4  1  0.000000  0.500000  0.000000  1
  V  V5  1  0.500001  0.000000  0.499999  1
  V  V6  1  0.000000  0.500000  0.499999  1
  Cr  Cr7  1  0.500001  0.000000  0.000000  1
  O  O8  1  0.696043  0.296353  0.052433  1
  O  O9  1  0.799837  0.800375  0.051671  1
  O  O10  1  0.098807  0.469669  0.248583  1
  O  O11  1  0.399762  0.969474  0.248569  1
  O  O12  1  0.698462  0.300826  0.449489  1
  O  O13  1  0.801166  0.799945  0.448061  1
  O  O14  1  0.198834  0.200054  0.551939  1
  O  O15  1  0.301539  0.699174  0.550511  1
  O  O16  1  0.600237  0.030524  0.751431  1
  O  O17  1  0.901194  0.530331  0.751417  1
  O  O18  1  0.200163  0.199624  0.948329  1
  O  O19  1  0.303958  0.703647  0.947567  1
