# generated using pymatgen
data_Tb5YAl17Si7Os8
_symmetry_space_group_name_H-M   'P 1'
_cell_length_a   8.69588777
_cell_length_b   8.68521382
_cell_length_c   9.49103800
_cell_angle_alpha   89.99996807
_cell_angle_beta   90.00001316
_cell_angle_gamma   120.11682133
_symmetry_Int_Tables_number   1
_chemical_formula_structural   Tb5YAl17Si7Os8
_chemical_formula_sum   'Tb5 Y1 Al17 Si7 Os8'
_cell_volume   620.04947203
_cell_formula_units_Z   1
loop_
 _symmetry_equiv_pos_site_id
 _symmetry_equiv_pos_as_xyz
  1  'x, y, z'
loop_
 _atom_site_type_symbol
 _atom_site_label
 _atom_site_symmetry_multiplicity
 _atom_site_fract_x
 _atom_site_fract_y
 _atom_site_fract_z
 _atom_site_occupancy
  Tb  Tb0  1  0.192207  0.387091  0.249999  1
  Tb  Tb1  1  0.807501  0.614752  0.750001  1
  Tb  Tb2  1  0.612066  0.808009  0.250000  1
  Tb  Tb3  1  0.386722  0.190469  0.750001  1
  Tb  Tb4  1  0.195200  0.806378  0.249999  1
  Y  Y5  1  0.803235  0.191533  0.750000  1
  Al  Al6  1  0.164335  0.329542  0.577784  1
  Al  Al7  1  0.834230  0.671252  0.421013  1
  Al  Al8  1  0.671350  0.835033  0.577337  1
  Al  Al9  1  0.834230  0.671251  0.078989  1
  Al  Al10  1  0.329626  0.165959  0.422164  1
  Al  Al11  1  0.164333  0.329544  0.922215  1
  Al  Al12  1  0.163661  0.834224  0.576371  1
  Al  Al13  1  0.329627  0.165959  0.077837  1
  Al  Al14  1  0.835466  0.164042  0.421588  1
  Al  Al15  1  0.671347  0.835033  0.922664  1
  Al  Al16  1  0.835465  0.164043  0.078413  1
  Al  Al17  1  0.163663  0.834222  0.923627  1
  Al  Al18  1  0.126107  0.565511  0.749999  1
  Al  Al19  1  0.564790  0.435106  0.250000  1
  Al  Al20  1  0.438625  0.566541  0.750002  1
  Al  Al21  1  0.999481  0.999539  0.250001  1
  Al  Al22  1  0.999530  0.000317  0.750004  1
  Si  Si23  1  0.333413  0.664621  0.037698  1
  Si  Si24  1  0.666533  0.335546  0.961406  1
  Si  Si25  1  0.666535  0.335547  0.538591  1
  Si  Si26  1  0.333414  0.664621  0.462305  1
  Si  Si27  1  0.565063  0.124892  0.249999  1
  Si  Si28  1  0.436688  0.873008  0.749999  1
  Si  Si29  1  0.874472  0.434822  0.249997  1
  Os  Os30  1  0.501104  0.001290  0.000792  1
  Os  Os31  1  0.998081  0.499104  0.006314  1
  Os  Os32  1  0.501104  0.001290  0.499207  1
  Os  Os33  1  0.500760  0.500052  0.000298  1
  Os  Os34  1  0.998080  0.499103  0.493685  1
  Os  Os35  1  0.500761  0.500052  0.499703  1
  Os  Os36  1  0.000598  0.000350  0.999858  1
  Os  Os37  1  0.000599  0.000350  0.500143  1
