# generated using pymatgen
data_K2P2PbO8
_symmetry_space_group_name_H-M   'P 1'
_cell_length_a   5.14771200
_cell_length_b   5.14771119
_cell_length_c   9.38462900
_cell_angle_alpha   90.00000000
_cell_angle_beta   90.00000000
_cell_angle_gamma   119.99999238
_symmetry_Int_Tables_number   1
_chemical_formula_structural   K2P2PbO8
_chemical_formula_sum   'K2 P2 Pb1 O8'
_cell_volume   215.36552667
_cell_formula_units_Z   1
loop_
 _symmetry_equiv_pos_site_id
 _symmetry_equiv_pos_as_xyz
  1  'x, y, z'
loop_
 _atom_site_type_symbol
 _atom_site_label
 _atom_site_symmetry_multiplicity
 _atom_site_fract_x
 _atom_site_fract_y
 _atom_site_fract_z
 _atom_site_occupancy
  K  K0  1  0.333333  0.666667  0.642635  1
  K  K1  1  0.666667  0.333333  0.357365  1
  P  P2  1  0.333333  0.666667  0.195052  1
  P  P3  1  0.666667  0.333333  0.804948  1
  Pb  Pb4  1  0.000000  0.000000  0.000000  1
  O  O5  1  0.333333  0.666667  0.358197  1
  O  O6  1  0.666667  0.333333  0.641803  1
  O  O7  1  0.307218  0.940721  0.141446  1
  O  O8  1  0.059279  0.366496  0.141446  1
  O  O9  1  0.633504  0.692782  0.141446  1
  O  O10  1  0.692782  0.059279  0.858554  1
  O  O11  1  0.940721  0.633504  0.858554  1
  O  O12  1  0.366496  0.307218  0.858554  1
