# generated using pymatgen
data_Dy2TmPa(Al3Ir)6
_symmetry_space_group_name_H-M   'P 1'
_cell_length_a   7.57246721
_cell_length_b   7.56963685
_cell_length_c   9.41950500
_cell_angle_alpha   90.00000000
_cell_angle_beta   90.00000000
_cell_angle_gamma   119.59093545
_symmetry_Int_Tables_number   1
_chemical_formula_structural   Dy2TmPa(Al3Ir)6
_chemical_formula_sum   'Dy2 Tm1 Pa1 Al18 Ir6'
_cell_volume   469.51190168
_cell_formula_units_Z   1
loop_
 _symmetry_equiv_pos_site_id
 _symmetry_equiv_pos_as_xyz
  1  'x, y, z'
loop_
 _atom_site_type_symbol
 _atom_site_label
 _atom_site_symmetry_multiplicity
 _atom_site_fract_x
 _atom_site_fract_y
 _atom_site_fract_z
 _atom_site_occupancy
  Dy  Dy0  1  0.004729  0.328885  0.750000  1
  Dy  Dy1  1  0.329270  0.004409  0.750000  1
  Tm  Tm2  1  0.672728  0.994946  0.250000  1
  Pa  Pa3  1  0.996048  0.671578  0.250000  1
  Al  Al4  1  0.131620  0.130900  0.250000  1
  Al  Al5  1  0.872171  0.873876  0.750000  1
  Al  Al6  1  0.000565  0.331807  0.075008  1
  Al  Al7  1  0.998932  0.664574  0.920702  1
  Al  Al8  1  0.998932  0.664574  0.579298  1
  Al  Al9  1  0.339190  0.004016  0.424812  1
  Al  Al10  1  0.000565  0.331807  0.424992  1
  Al  Al11  1  0.664988  0.999879  0.575566  1
  Al  Al12  1  0.664988  0.999879  0.924434  1
  Al  Al13  1  0.339190  0.004016  0.075188  1
  Al  Al14  1  0.332625  0.332739  0.555849  1
  Al  Al15  1  0.663063  0.666114  0.448278  1
  Al  Al16  1  0.663063  0.666114  0.051722  1
  Al  Al17  1  0.332625  0.332739  0.944151  1
  Al  Al18  1  0.339951  0.547604  0.250000  1
  Al  Al19  1  0.659263  0.449834  0.750000  1
  Al  Al20  1  0.546827  0.341288  0.250000  1
  Al  Al21  1  0.450802  0.660965  0.750000  1
  Ir  Ir22  1  0.673956  0.329812  0.002214  1
  Ir  Ir23  1  0.326010  0.672175  0.002283  1
  Ir  Ir24  1  0.326010  0.672175  0.497717  1
  Ir  Ir25  1  0.673956  0.329812  0.497786  1
  Ir  Ir26  1  0.998967  0.996742  0.003254  1
  Ir  Ir27  1  0.998967  0.996742  0.496746  1
