# generated using pymatgen
data_Y4HoPPb3
_symmetry_space_group_name_H-M   'P 1'
_cell_length_a   9.15546326
_cell_length_b   9.15546421
_cell_length_c   6.80206000
_cell_angle_alpha   90.00000000
_cell_angle_beta   90.00000000
_cell_angle_gamma   119.97296337
_symmetry_Int_Tables_number   1
_chemical_formula_structural   Y4HoPPb3
_chemical_formula_sum   'Y8 Ho2 P2 Pb6'
_cell_volume   493.91252292
_cell_formula_units_Z   2
loop_
 _symmetry_equiv_pos_site_id
 _symmetry_equiv_pos_as_xyz
  1  'x, y, z'
loop_
 _atom_site_type_symbol
 _atom_site_label
 _atom_site_symmetry_multiplicity
 _atom_site_fract_x
 _atom_site_fract_y
 _atom_site_fract_z
 _atom_site_occupancy
  Y  Y0  1  0.762266  0.762266  0.750000  1
  Y  Y1  1  0.237650  0.999942  0.750000  1
  Y  Y2  1  0.999942  0.237650  0.750000  1
  Y  Y3  1  0.237756  0.237756  0.250000  1
  Y  Y4  1  0.666782  0.333372  0.000085  1
  Y  Y5  1  0.333372  0.666782  0.000085  1
  Y  Y6  1  0.333372  0.666782  0.499915  1
  Y  Y7  1  0.666782  0.333372  0.499915  1
  Ho  Ho8  1  0.763057  0.999956  0.250000  1
  Ho  Ho9  1  0.999956  0.763057  0.250000  1
  P  P10  1  0.999438  0.999438  0.001007  1
  P  P11  1  0.999438  0.999438  0.498993  1
  Pb  Pb12  1  0.399891  0.399891  0.750000  1
  Pb  Pb13  1  0.600145  0.000001  0.750000  1
  Pb  Pb14  1  0.000001  0.600145  0.750000  1
  Pb  Pb15  1  0.600627  0.600627  0.250000  1
  Pb  Pb16  1  0.399764  0.999760  0.250000  1
  Pb  Pb17  1  0.999760  0.399764  0.250000  1
