# generated using pymatgen
data_DyLu3Al2(CdPt2)2
_symmetry_space_group_name_H-M   'P 1'
_cell_length_a   4.29656200
_cell_length_b   6.88841846
_cell_length_c   8.20639802
_cell_angle_alpha   92.13321205
_cell_angle_beta   90.00000000
_cell_angle_gamma   90.00000000
_symmetry_Int_Tables_number   1
_chemical_formula_structural   DyLu3Al2(CdPt2)2
_chemical_formula_sum   'Dy1 Lu3 Al2 Cd2 Pt4'
_cell_volume   242.71247854
_cell_formula_units_Z   1
loop_
 _symmetry_equiv_pos_site_id
 _symmetry_equiv_pos_as_xyz
  1  'x, y, z'
loop_
 _atom_site_type_symbol
 _atom_site_label
 _atom_site_symmetry_multiplicity
 _atom_site_fract_x
 _atom_site_fract_y
 _atom_site_fract_z
 _atom_site_occupancy
  Dy  Dy0  1  0.250000  0.963537  0.324438  1
  Lu  Lu1  1  0.250000  0.463568  0.183800  1
  Lu  Lu2  1  0.750000  0.535634  0.814890  1
  Lu  Lu3  1  0.750000  0.038353  0.676165  1
  Al  Al4  1  0.750000  0.638585  0.444654  1
  Al  Al5  1  0.250000  0.362656  0.556763  1
  Cd  Cd6  1  0.250000  0.856966  0.934787  1
  Cd  Cd7  1  0.750000  0.143287  0.064074  1
  Pt  Pt8  1  0.250000  0.734507  0.604976  1
  Pt  Pt9  1  0.750000  0.266841  0.397752  1
  Pt  Pt10  1  0.750000  0.731973  0.142478  1
  Pt  Pt11  1  0.250000  0.264092  0.855222  1
