# generated using pymatgen
data_LaHo2Zn2Co9B4
_symmetry_space_group_name_H-M   'P 1'
_cell_length_a   5.14651064
_cell_length_b   5.14557182
_cell_length_c   9.73883600
_cell_angle_alpha   89.99983906
_cell_angle_beta   90.00006953
_cell_angle_gamma   120.02238475
_symmetry_Int_Tables_number   1
_chemical_formula_structural   LaHo2Zn2Co9B4
_chemical_formula_sum   'La1 Ho2 Zn2 Co9 B4'
_cell_volume   223.29870213
_cell_formula_units_Z   1
loop_
 _symmetry_equiv_pos_site_id
 _symmetry_equiv_pos_as_xyz
  1  'x, y, z'
loop_
 _atom_site_type_symbol
 _atom_site_label
 _atom_site_symmetry_multiplicity
 _atom_site_fract_x
 _atom_site_fract_y
 _atom_site_fract_z
 _atom_site_occupancy
  La  La0  1  0.999986  0.999992  0.999886  1
  Ho  Ho1  1  0.999997  0.000003  0.344015  1
  Ho  Ho2  1  0.999997  0.000001  0.656206  1
  Zn  Zn3  1  0.333073  0.666542  0.999921  1
  Zn  Zn4  1  0.666903  0.333449  0.999921  1
  Co  Co5  1  0.499997  0.000003  0.500022  1
  Co  Co6  1  0.499996  0.500002  0.500023  1
  Co  Co7  1  0.999996  0.500002  0.500005  1
  Co  Co8  1  0.499995  0.000002  0.214233  1
  Co  Co9  1  0.499994  0.500001  0.214253  1
  Co  Co10  1  0.999995  0.500001  0.214131  1
  Co  Co11  1  0.499996  0.000000  0.785684  1
  Co  Co12  1  0.499994  0.499999  0.785687  1
  Co  Co13  1  0.999996  0.499998  0.785816  1
  B  B14  1  0.333200  0.666580  0.352640  1
  B  B15  1  0.666791  0.333424  0.352640  1
  B  B16  1  0.666904  0.333473  0.647459  1
  B  B17  1  0.333089  0.666530  0.647460  1
