# generated using pymatgen
data_Ho4Tm3Lu5Co5Bi
_symmetry_space_group_name_H-M   'P 1'
_cell_length_a   8.18443044
_cell_length_b   8.18470269
_cell_length_c   8.18442952
_cell_angle_alpha   110.96063929
_cell_angle_beta   110.79231418
_cell_angle_gamma   106.69461265
_symmetry_Int_Tables_number   1
_chemical_formula_structural   Ho4Tm3Lu5Co5Bi
_chemical_formula_sum   'Ho4 Tm3 Lu5 Co5 Bi1'
_cell_volume   421.31141086
_cell_formula_units_Z   1
loop_
 _symmetry_equiv_pos_site_id
 _symmetry_equiv_pos_as_xyz
  1  'x, y, z'
loop_
 _atom_site_type_symbol
 _atom_site_label
 _atom_site_symmetry_multiplicity
 _atom_site_fract_x
 _atom_site_fract_y
 _atom_site_fract_z
 _atom_site_occupancy
  Ho  Ho0  1  0.285634  0.184353  0.469657  1
  Ho  Ho1  1  0.713991  0.815538  0.529793  1
  Ho  Ho2  1  0.285745  0.815538  0.101547  1
  Ho  Ho3  1  0.714695  0.184353  0.898719  1
  Tm  Tm4  1  0.789689  0.594238  0.804548  1
  Tm  Tm5  1  0.210278  0.015137  0.804858  1
  Tm  Tm6  1  0.789871  0.985353  0.195481  1
  Lu  Lu7  1  0.621544  0.312048  0.309780  1
  Lu  Lu8  1  0.378084  0.687760  0.689778  1
  Lu  Lu9  1  0.002268  0.312048  0.690504  1
  Lu  Lu10  1  0.997982  0.687760  0.309676  1
  Lu  Lu11  1  0.209926  0.405502  0.195577  1
  Co  Co12  1  0.000298  0.374876  0.374578  1
  Co  Co13  1  0.999909  0.625049  0.625141  1
  Co  Co14  1  0.387105  0.886913  0.499808  1
  Co  Co15  1  0.612745  0.112762  0.500018  1
  Co  Co16  1  0.000387  0.000779  0.000392  1
  Bi  Bi17  1  0.499848  0.499992  0.000145  1
