# generated using pymatgen
data_TbZr3(Al3Ir)6
_symmetry_space_group_name_H-M   'P 1'
_cell_length_a   7.49821576
_cell_length_b   7.49016404
_cell_length_c   9.32937300
_cell_angle_alpha   90.00000000
_cell_angle_beta   90.00000000
_cell_angle_gamma   119.79711200
_symmetry_Int_Tables_number   1
_chemical_formula_structural   TbZr3(Al3Ir)6
_chemical_formula_sum   'Tb1 Zr3 Al18 Ir6'
_cell_volume   454.69126593
_cell_formula_units_Z   1
loop_
 _symmetry_equiv_pos_site_id
 _symmetry_equiv_pos_as_xyz
  1  'x, y, z'
loop_
 _atom_site_type_symbol
 _atom_site_label
 _atom_site_symmetry_multiplicity
 _atom_site_fract_x
 _atom_site_fract_y
 _atom_site_fract_z
 _atom_site_occupancy
  Tb  Tb0  1  0.329731  0.005556  0.750000  1
  Zr  Zr1  1  0.994364  0.670934  0.250000  1
  Zr  Zr2  1  0.005613  0.330046  0.750000  1
  Zr  Zr3  1  0.670985  0.994438  0.250000  1
  Al  Al4  1  0.122326  0.123432  0.250000  1
  Al  Al5  1  0.872198  0.875798  0.750000  1
  Al  Al6  1  0.997729  0.334296  0.075984  1
  Al  Al7  1  0.999619  0.662770  0.926391  1
  Al  Al8  1  0.999619  0.662770  0.573609  1
  Al  Al9  1  0.334596  0.998235  0.420747  1
  Al  Al10  1  0.997729  0.334296  0.424016  1
  Al  Al11  1  0.668359  0.002163  0.573674  1
  Al  Al12  1  0.668359  0.002163  0.926326  1
  Al  Al13  1  0.334596  0.998235  0.079253  1
  Al  Al14  1  0.331449  0.333907  0.555323  1
  Al  Al15  1  0.668155  0.668065  0.441483  1
  Al  Al16  1  0.668155  0.668065  0.058517  1
  Al  Al17  1  0.331449  0.333907  0.944677  1
  Al  Al18  1  0.338371  0.552356  0.250000  1
  Al  Al19  1  0.666185  0.452888  0.750000  1
  Al  Al20  1  0.553386  0.339440  0.250000  1
  Al  Al21  1  0.447536  0.656923  0.750000  1
  Ir  Ir22  1  0.672162  0.327971  0.001141  1
  Ir  Ir23  1  0.328345  0.672914  0.001420  1
  Ir  Ir24  1  0.328345  0.672914  0.498580  1
  Ir  Ir25  1  0.672162  0.327971  0.498859  1
  Ir  Ir26  1  0.999239  0.998772  0.001303  1
  Ir  Ir27  1  0.999239  0.998772  0.498697  1
