# generated using pymatgen
data_Dy20Si4Bi7Sb
_symmetry_space_group_name_H-M   'P 1'
_cell_length_a   8.04784548
_cell_length_b   9.17094518
_cell_length_c   12.05067959
_cell_angle_alpha   89.98836240
_cell_angle_beta   90.03406179
_cell_angle_gamma   89.98028989
_symmetry_Int_Tables_number   1
_chemical_formula_structural   Dy20Si4Bi7Sb
_chemical_formula_sum   'Dy20 Si4 Bi7 Sb1'
_cell_volume   889.41644397
_cell_formula_units_Z   1
loop_
 _symmetry_equiv_pos_site_id
 _symmetry_equiv_pos_as_xyz
  1  'x, y, z'
loop_
 _atom_site_type_symbol
 _atom_site_label
 _atom_site_symmetry_multiplicity
 _atom_site_fract_x
 _atom_site_fract_y
 _atom_site_fract_z
 _atom_site_occupancy
  Dy  Dy0  1  0.821437  0.552085  0.065513  1
  Dy  Dy1  1  0.679936  0.947610  0.562763  1
  Dy  Dy2  1  0.179490  0.052650  0.937029  1
  Dy  Dy3  1  0.318470  0.448089  0.436341  1
  Dy  Dy4  1  0.179547  0.447466  0.937070  1
  Dy  Dy5  1  0.320068  0.052441  0.436987  1
  Dy  Dy6  1  0.820275  0.947359  0.063226  1
  Dy  Dy7  1  0.680503  0.552142  0.561644  1
  Dy  Dy8  1  0.163786  0.747125  0.213238  1
  Dy  Dy9  1  0.334265  0.750167  0.711796  1
  Dy  Dy10  1  0.834272  0.249897  0.787710  1
  Dy  Dy11  1  0.668012  0.252632  0.287880  1
  Dy  Dy12  1  0.460616  0.750273  0.001504  1
  Dy  Dy13  1  0.038192  0.747615  0.499789  1
  Dy  Dy14  1  0.539312  0.249894  0.998873  1
  Dy  Dy15  1  0.960564  0.252366  0.497214  1
  Dy  Dy16  1  0.639242  0.747596  0.295741  1
  Dy  Dy17  1  0.863653  0.749999  0.795483  1
  Dy  Dy18  1  0.363569  0.249940  0.704509  1
  Dy  Dy19  1  0.134450  0.252660  0.205664  1
  Si  Si20  1  0.412813  0.749971  0.479110  1
  Si  Si21  1  0.087282  0.749918  0.979630  1
  Si  Si22  1  0.586843  0.250055  0.520452  1
  Si  Si23  1  0.912665  0.249929  0.020488  1
  Bi  Bi24  1  0.567753  0.989208  0.825574  1
  Bi  Bi25  1  0.067468  0.010668  0.673702  1
  Bi  Bi26  1  0.432217  0.489213  0.174187  1
  Bi  Bi27  1  0.067693  0.489291  0.674593  1
  Bi  Bi28  1  0.432103  0.010836  0.174906  1
  Bi  Bi29  1  0.932413  0.989403  0.325555  1
  Bi  Bi30  1  0.567845  0.510841  0.825536  1
  Sb  Sb31  1  0.933246  0.510661  0.326293  1
