# generated using pymatgen
data_Pm8PdPt3O16
_symmetry_space_group_name_H-M   'P 1'
_cell_length_a   5.66586719
_cell_length_b   5.69260914
_cell_length_c   12.72357656
_cell_angle_alpha   90.02251693
_cell_angle_beta   89.97345248
_cell_angle_gamma   90.01097915
_symmetry_Int_Tables_number   1
_chemical_formula_structural   Pm8PdPt3O16
_chemical_formula_sum   'Pm8 Pd1 Pt3 O16'
_cell_volume   410.38065001
_cell_formula_units_Z   1
loop_
 _symmetry_equiv_pos_site_id
 _symmetry_equiv_pos_as_xyz
  1  'x, y, z'
loop_
 _atom_site_type_symbol
 _atom_site_label
 _atom_site_symmetry_multiplicity
 _atom_site_fract_x
 _atom_site_fract_y
 _atom_site_fract_z
 _atom_site_occupancy
  Pm  Pm0  1  0.492368  0.038617  0.158714  1
  Pm  Pm1  1  0.007561  0.538359  0.158207  1
  Pm  Pm2  1  0.992022  0.038045  0.343002  1
  Pm  Pm3  1  0.507934  0.538722  0.343009  1
  Pm  Pm4  1  0.492065  0.461278  0.656991  1
  Pm  Pm5  1  0.007980  0.961956  0.656998  1
  Pm  Pm6  1  0.992441  0.461641  0.841793  1
  Pm  Pm7  1  0.507631  0.961384  0.841286  1
  Pd  Pd8  1  0.000000  0.500001  0.500000  1
  Pt  Pt9  1  0.000000  0.000000  0.000000  1
  Pt  Pt10  1  0.500001  0.500001  0.000000  1
  Pt  Pt11  1  0.500001  0.000000  0.500000  1
  O  O12  1  0.180158  0.318838  0.010594  1
  O  O13  1  0.320056  0.819072  0.010597  1
  O  O14  1  0.758338  0.289068  0.246276  1
  O  O15  1  0.741991  0.788670  0.245915  1
  O  O16  1  0.257518  0.289359  0.255520  1
  O  O17  1  0.241593  0.788564  0.255250  1
  O  O18  1  0.680803  0.314950  0.488920  1
  O  O19  1  0.815905  0.818128  0.489247  1
  O  O20  1  0.184094  0.181871  0.510753  1
  O  O21  1  0.319198  0.685052  0.511080  1
  O  O22  1  0.758406  0.211435  0.744750  1
  O  O23  1  0.742483  0.710640  0.744480  1
  O  O24  1  0.258010  0.211329  0.754085  1
  O  O25  1  0.241661  0.710931  0.753724  1
  O  O26  1  0.679945  0.180927  0.989403  1
  O  O27  1  0.819841  0.681164  0.989406  1
