# generated using pymatgen
data_Pa3Ga3IrRh2
_symmetry_space_group_name_H-M   'P 1'
_cell_length_a   7.11474500
_cell_length_b   7.11474346
_cell_length_c   3.97775800
_cell_angle_alpha   90.00000000
_cell_angle_beta   90.00000000
_cell_angle_gamma   119.99999321
_symmetry_Int_Tables_number   1
_chemical_formula_structural   Pa3Ga3IrRh2
_chemical_formula_sum   'Pa3 Ga3 Ir1 Rh2'
_cell_volume   174.37635830
_cell_formula_units_Z   1
loop_
 _symmetry_equiv_pos_site_id
 _symmetry_equiv_pos_as_xyz
  1  'x, y, z'
loop_
 _atom_site_type_symbol
 _atom_site_label
 _atom_site_symmetry_multiplicity
 _atom_site_fract_x
 _atom_site_fract_y
 _atom_site_fract_z
 _atom_site_occupancy
  Pa  Pa0  1  0.414893  0.414492  0.500000  1
  Pa  Pa1  1  0.585508  0.000401  0.500000  1
  Pa  Pa2  1  0.999599  0.585107  0.500000  1
  Ga  Ga3  1  0.755414  0.756905  0.000000  1
  Ga  Ga4  1  0.243095  0.998509  0.000000  1
  Ga  Ga5  1  0.001491  0.244586  0.000000  1
  Ir  Ir6  1  0.666667  0.333333  0.000000  1
  Rh  Rh7  1  0.333333  0.666667  0.000000  1
  Rh  Rh8  1  0.000000  0.000000  0.500000  1
