# generated using pymatgen
data_Ti4Re24Sn
_symmetry_space_group_name_H-M   'P 1'
_cell_length_a   8.39280847
_cell_length_b   8.39280710
_cell_length_c   8.39280800
_cell_angle_alpha   109.47121797
_cell_angle_beta   109.47121467
_cell_angle_gamma   109.47122989
_symmetry_Int_Tables_number   1
_chemical_formula_structural   Ti4Re24Sn
_chemical_formula_sum   'Ti4 Re24 Sn1'
_cell_volume   455.09278237
_cell_formula_units_Z   1
loop_
 _symmetry_equiv_pos_site_id
 _symmetry_equiv_pos_as_xyz
  1  'x, y, z'
loop_
 _atom_site_type_symbol
 _atom_site_label
 _atom_site_symmetry_multiplicity
 _atom_site_fract_x
 _atom_site_fract_y
 _atom_site_fract_z
 _atom_site_occupancy
  Ti  Ti0  1  0.631671  0.000000  0.000000  1
  Ti  Ti1  1  0.000000  0.631671  0.000000  1
  Ti  Ti2  1  0.000000  0.000000  0.631671  1
  Ti  Ti3  1  0.368329  0.368329  0.368329  1
  Re  Re4  1  0.398458  0.680761  0.000000  1
  Re  Re5  1  0.717697  0.319239  0.319239  1
  Re  Re6  1  0.398458  0.000000  0.680761  1
  Re  Re7  1  0.680761  0.398458  0.000000  1
  Re  Re8  1  0.000000  0.398458  0.680761  1
  Re  Re9  1  0.319239  0.717697  0.319239  1
  Re  Re10  1  0.319239  0.319239  0.717697  1
  Re  Re11  1  0.000000  0.680761  0.398458  1
  Re  Re12  1  0.680761  0.000000  0.398458  1
  Re  Re13  1  0.601542  0.601542  0.282303  1
  Re  Re14  1  0.282303  0.601542  0.601542  1
  Re  Re15  1  0.601542  0.282303  0.601542  1
  Re  Re16  1  0.377266  0.194341  0.000000  1
  Re  Re17  1  0.182926  0.805659  0.805659  1
  Re  Re18  1  0.377266  0.000000  0.194341  1
  Re  Re19  1  0.194341  0.377266  0.000000  1
  Re  Re20  1  0.000000  0.377266  0.194341  1
  Re  Re21  1  0.805659  0.182926  0.805659  1
  Re  Re22  1  0.805659  0.805659  0.182926  1
  Re  Re23  1  0.000000  0.194341  0.377266  1
  Re  Re24  1  0.194341  0.000000  0.377266  1
  Re  Re25  1  0.622734  0.622734  0.817074  1
  Re  Re26  1  0.817074  0.622734  0.622734  1
  Re  Re27  1  0.622734  0.817074  0.622734  1
  Sn  Sn28  1  0.000000  0.000000  0.000000  1
