# generated using pymatgen
data_Hf8Ta11Si16W
_symmetry_space_group_name_H-M   'P 1'
_cell_length_a   6.64203779
_cell_length_b   6.81869656
_cell_length_c   13.03911800
_cell_angle_alpha   90.00000000
_cell_angle_beta   90.00000000
_cell_angle_gamma   89.90834568
_symmetry_Int_Tables_number   1
_chemical_formula_structural   Hf8Ta11Si16W
_chemical_formula_sum   'Hf8 Ta11 Si16 W1'
_cell_volume   590.54142270
_cell_formula_units_Z   1
loop_
 _symmetry_equiv_pos_site_id
 _symmetry_equiv_pos_as_xyz
  1  'x, y, z'
loop_
 _atom_site_type_symbol
 _atom_site_label
 _atom_site_symmetry_multiplicity
 _atom_site_fract_x
 _atom_site_fract_y
 _atom_site_fract_z
 _atom_site_occupancy
  Hf  Hf0  1  0.495742  0.672540  0.593219  1
  Hf  Hf1  1  0.995773  0.828267  0.906941  1
  Hf  Hf2  1  0.503890  0.328354  0.092386  1
  Hf  Hf3  1  0.005533  0.172231  0.407281  1
  Hf  Hf4  1  0.503890  0.328354  0.407614  1
  Hf  Hf5  1  0.005533  0.172231  0.092719  1
  Hf  Hf6  1  0.495742  0.672540  0.906781  1
  Hf  Hf7  1  0.995773  0.828267  0.593059  1
  Ta  Ta8  1  0.664138  0.170834  0.622507  1
  Ta  Ta9  1  0.165014  0.329021  0.876604  1
  Ta  Ta10  1  0.334790  0.829529  0.124043  1
  Ta  Ta11  1  0.835063  0.669382  0.375891  1
  Ta  Ta12  1  0.334790  0.829529  0.375957  1
  Ta  Ta13  1  0.835063  0.669382  0.124109  1
  Ta  Ta14  1  0.664138  0.170834  0.877493  1
  Ta  Ta15  1  0.165014  0.329021  0.623396  1
  Ta  Ta16  1  0.838172  0.497369  0.750000  1
  Ta  Ta17  1  0.337928  0.003028  0.750000  1
  Ta  Ta18  1  0.161429  0.501448  0.250000  1
  Si  Si19  1  0.671927  0.964066  0.459283  1
  Si  Si20  1  0.171407  0.535879  0.039123  1
  Si  Si21  1  0.328474  0.035508  0.961436  1
  Si  Si22  1  0.828706  0.464624  0.539080  1
  Si  Si23  1  0.328474  0.035508  0.538564  1
  Si  Si24  1  0.828706  0.464624  0.960920  1
  Si  Si25  1  0.671927  0.964066  0.040717  1
  Si  Si26  1  0.171407  0.535879  0.460877  1
  Si  Si27  1  0.463378  0.387565  0.750000  1
  Si  Si28  1  0.962366  0.112434  0.750000  1
  Si  Si29  1  0.537326  0.612668  0.250000  1
  Si  Si30  1  0.033273  0.889626  0.250000  1
  Si  Si31  1  0.704120  0.861030  0.750000  1
  Si  Si32  1  0.203868  0.639400  0.750000  1
  Si  Si33  1  0.299719  0.138888  0.250000  1
  Si  Si34  1  0.795449  0.356247  0.250000  1
  W  W35  1  0.662050  0.999828  0.250000  1
