# generated using pymatgen
data_Zr2B(PdRh2)2
_symmetry_space_group_name_H-M   'P 1'
_cell_length_a   5.76632799
_cell_length_b   5.76632772
_cell_length_c   5.75415100
_cell_angle_alpha   60.06981255
_cell_angle_beta   60.06981407
_cell_angle_gamma   59.80441974
_symmetry_Int_Tables_number   1
_chemical_formula_structural   Zr2B(PdRh2)2
_chemical_formula_sum   'Zr2 B1 Pd2 Rh4'
_cell_volume   135.23060927
_cell_formula_units_Z   1
loop_
 _symmetry_equiv_pos_site_id
 _symmetry_equiv_pos_as_xyz
  1  'x, y, z'
loop_
 _atom_site_type_symbol
 _atom_site_label
 _atom_site_symmetry_multiplicity
 _atom_site_fract_x
 _atom_site_fract_y
 _atom_site_fract_z
 _atom_site_occupancy
  Zr  Zr0  1  0.750537  0.750537  0.747651  1
  Zr  Zr1  1  0.249463  0.249463  0.248725  1
  B  B2  1  0.000000  0.000000  0.010777  1
  Pd  Pd3  1  0.743240  0.256760  0.742459  1
  Pd  Pd4  1  0.256760  0.743240  0.742459  1
  Rh  Rh5  1  0.745735  0.745735  0.251819  1
  Rh  Rh6  1  0.258216  0.741784  0.256410  1
  Rh  Rh7  1  0.741784  0.258216  0.256410  1
  Rh  Rh8  1  0.254265  0.254265  0.743287  1
