# generated using pymatgen
data_Pr16MgCd3Os3Pt
_symmetry_space_group_name_H-M   'P 1'
_cell_length_a   10.02461905
_cell_length_b   10.09052880
_cell_length_c   10.09052795
_cell_angle_alpha   59.80367350
_cell_angle_beta   59.57886969
_cell_angle_gamma   59.57887646
_symmetry_Int_Tables_number   1
_chemical_formula_structural   Pr16MgCd3Os3Pt
_chemical_formula_sum   'Pr16 Mg1 Cd3 Os3 Pt1'
_cell_volume   716.05523818
_cell_formula_units_Z   1
loop_
 _symmetry_equiv_pos_site_id
 _symmetry_equiv_pos_as_xyz
  1  'x, y, z'
loop_
 _atom_site_type_symbol
 _atom_site_label
 _atom_site_symmetry_multiplicity
 _atom_site_fract_x
 _atom_site_fract_y
 _atom_site_fract_z
 _atom_site_occupancy
  Pr  Pr0  1  0.343880  0.349285  0.349285  1
  Pr  Pr1  1  0.343221  0.348917  0.957535  1
  Pr  Pr2  1  0.343221  0.957535  0.348917  1
  Pr  Pr3  1  0.964657  0.344361  0.344361  1
  Pr  Pr4  1  0.811690  0.193068  0.193068  1
  Pr  Pr5  1  0.188378  0.810340  0.810340  1
  Pr  Pr6  1  0.192105  0.807543  0.192484  1
  Pr  Pr7  1  0.814912  0.190502  0.804772  1
  Pr  Pr8  1  0.192105  0.192484  0.807543  1
  Pr  Pr9  1  0.814912  0.804772  0.190502  1
  Pr  Pr10  1  0.939886  0.560649  0.560649  1
  Pr  Pr11  1  0.556141  0.940977  0.940977  1
  Pr  Pr12  1  0.557375  0.939641  0.564946  1
  Pr  Pr13  1  0.939503  0.559223  0.942872  1
  Pr  Pr14  1  0.557375  0.564946  0.939641  1
  Pr  Pr15  1  0.939503  0.942872  0.559223  1
  Mg  Mg16  1  0.574946  0.574140  0.574140  1
  Cd  Cd17  1  0.580021  0.580074  0.260095  1
  Cd  Cd18  1  0.580021  0.260095  0.580074  1
  Cd  Cd19  1  0.259624  0.580029  0.580029  1
  Os  Os20  1  0.143311  0.137414  0.137414  1
  Os  Os21  1  0.143192  0.138263  0.581547  1
  Os  Os22  1  0.143192  0.581547  0.138263  1
  Pt  Pt23  1  0.576828  0.141322  0.141322  1
