# generated using pymatgen
data_Tb2CoTcB8
_symmetry_space_group_name_H-M   'P 1'
_cell_length_a   3.51471700
_cell_length_b   5.95287674
_cell_length_c   11.51837938
_cell_angle_alpha   90.08767613
_cell_angle_beta   90.00000000
_cell_angle_gamma   90.00000000
_symmetry_Int_Tables_number   1
_chemical_formula_structural   Tb2CoTcB8
_chemical_formula_sum   'Tb4 Co2 Tc2 B16'
_cell_volume   240.99504998
_cell_formula_units_Z   2
loop_
 _symmetry_equiv_pos_site_id
 _symmetry_equiv_pos_as_xyz
  1  'x, y, z'
loop_
 _atom_site_type_symbol
 _atom_site_label
 _atom_site_symmetry_multiplicity
 _atom_site_fract_x
 _atom_site_fract_y
 _atom_site_fract_z
 _atom_site_occupancy
  Tb  Tb0  1  0.500000  0.373834  0.145388  1
  Tb  Tb1  1  0.500000  0.626166  0.854612  1
  Tb  Tb2  1  0.500000  0.128544  0.654204  1
  Tb  Tb3  1  0.500000  0.871456  0.345796  1
  Co  Co4  1  0.500000  0.133886  0.910793  1
  Co  Co5  1  0.500000  0.866114  0.089207  1
  Tc  Tc6  1  0.500000  0.367615  0.411894  1
  Tc  Tc7  1  0.500000  0.632385  0.588106  1
  B  B8  1  0.000000  0.111387  0.045869  1
  B  B9  1  0.000000  0.888613  0.954131  1
  B  B10  1  0.000000  0.386705  0.547044  1
  B  B11  1  0.000000  0.613295  0.452956  1
  B  B12  1  0.000000  0.134786  0.468464  1
  B  B13  1  0.000000  0.865214  0.531536  1
  B  B14  1  0.000000  0.359502  0.967962  1
  B  B15  1  0.000000  0.640498  0.032038  1
  B  B16  1  0.000000  0.020888  0.188972  1
  B  B17  1  0.000000  0.979112  0.811028  1
  B  B18  1  0.000000  0.473831  0.694242  1
  B  B19  1  0.000000  0.526169  0.305758  1
  B  B20  1  0.000000  0.212834  0.311955  1
  B  B21  1  0.000000  0.787166  0.688045  1
  B  B22  1  0.000000  0.282634  0.818175  1
  B  B23  1  0.000000  0.717366  0.181825  1
