# generated using pymatgen
data_YbDy3ReRu7
_symmetry_space_group_name_H-M   'P 1'
_cell_length_a   5.27106720
_cell_length_b   5.46000405
_cell_length_c   8.81327748
_cell_angle_alpha   90.00000367
_cell_angle_beta   89.89484217
_cell_angle_gamma   121.19295750
_symmetry_Int_Tables_number   1
_chemical_formula_structural   YbDy3ReRu7
_chemical_formula_sum   'Yb1 Dy3 Re1 Ru7'
_cell_volume   216.97584416
_cell_formula_units_Z   1
loop_
 _symmetry_equiv_pos_site_id
 _symmetry_equiv_pos_as_xyz
  1  'x, y, z'
loop_
 _atom_site_type_symbol
 _atom_site_label
 _atom_site_symmetry_multiplicity
 _atom_site_fract_x
 _atom_site_fract_y
 _atom_site_fract_z
 _atom_site_occupancy
  Yb  Yb0  1  0.325964  0.662983  0.433704  1
  Dy  Dy1  1  0.653049  0.326524  0.560988  1
  Dy  Dy2  1  0.654617  0.327308  0.934140  1
  Dy  Dy3  1  0.327501  0.663752  0.073381  1
  Re  Re4  1  0.685133  0.842566  0.748960  1
  Ru  Ru5  1  0.972215  0.986108  0.499782  1
  Ru  Ru6  1  0.972434  0.986217  0.999183  1
  Ru  Ru7  1  0.837204  0.166672  0.250003  1
  Ru  Ru8  1  0.837204  0.670532  0.250003  1
  Ru  Ru9  1  0.365356  0.182678  0.248673  1
  Ru  Ru10  1  0.184661  0.825468  0.750592  1
  Ru  Ru11  1  0.184661  0.359193  0.750592  1
