# generated using pymatgen
data_Y3Er3(Lu7Sb6)2
_symmetry_space_group_name_H-M   'P 1'
_cell_length_a   8.05627664
_cell_length_b   9.13134400
_cell_length_c   11.70706800
_cell_angle_alpha   90.00000000
_cell_angle_beta   89.91137804
_cell_angle_gamma   90.00000000
_symmetry_Int_Tables_number   1
_chemical_formula_structural   Y3Er3(Lu7Sb6)2
_chemical_formula_sum   'Y3 Er3 Lu14 Sb12'
_cell_volume   861.22513460
_cell_formula_units_Z   1
loop_
 _symmetry_equiv_pos_site_id
 _symmetry_equiv_pos_as_xyz
  1  'x, y, z'
loop_
 _atom_site_type_symbol
 _atom_site_label
 _atom_site_symmetry_multiplicity
 _atom_site_fract_x
 _atom_site_fract_y
 _atom_site_fract_z
 _atom_site_occupancy
  Y  Y0  1  0.674726  0.750000  0.272831  1
  Y  Y1  1  0.840855  0.250000  0.791250  1
  Y  Y2  1  0.324812  0.250000  0.727922  1
  Er  Er3  1  0.824660  0.750000  0.772494  1
  Er  Er4  1  0.660272  0.250000  0.290647  1
  Er  Er5  1  0.176355  0.250000  0.228770  1
  Lu  Lu6  1  0.310088  0.562227  0.433965  1
  Lu  Lu7  1  0.189793  0.938011  0.933783  1
  Lu  Lu8  1  0.310088  0.937773  0.433965  1
  Lu  Lu9  1  0.689741  0.438134  0.564689  1
  Lu  Lu10  1  0.810143  0.438288  0.066147  1
  Lu  Lu11  1  0.975375  0.750000  0.494970  1
  Lu  Lu12  1  0.161314  0.750000  0.209040  1
  Lu  Lu13  1  0.475565  0.250000  0.004676  1
  Lu  Lu14  1  0.810143  0.061712  0.066147  1
  Lu  Lu15  1  0.189793  0.561989  0.933783  1
  Lu  Lu16  1  0.024803  0.250000  0.503775  1
  Lu  Lu17  1  0.338387  0.750000  0.709577  1
  Lu  Lu18  1  0.689741  0.061866  0.564689  1
  Lu  Lu19  1  0.524181  0.750000  0.995314  1
  Sb  Sb20  1  0.099351  0.250000  0.975489  1
  Sb  Sb21  1  0.938699  0.491362  0.326020  1
  Sb  Sb22  1  0.435473  0.991230  0.173005  1
  Sb  Sb23  1  0.062821  0.989778  0.672757  1
  Sb  Sb24  1  0.435473  0.508770  0.173005  1
  Sb  Sb25  1  0.597431  0.750000  0.529057  1
  Sb  Sb26  1  0.401060  0.250000  0.472555  1
  Sb  Sb27  1  0.562433  0.492937  0.826690  1
  Sb  Sb28  1  0.062821  0.510222  0.672757  1
  Sb  Sb29  1  0.902470  0.750000  0.027524  1
  Sb  Sb30  1  0.562433  0.007063  0.826690  1
  Sb  Sb31  1  0.938699  0.008638  0.326020  1
