# generated using pymatgen
data_LaYb2Ni2Pt7
_symmetry_space_group_name_H-M   'P 1'
_cell_length_a   9.05232168
_cell_length_b   9.05232204
_cell_length_c   9.05232187
_cell_angle_alpha   34.67518354
_cell_angle_beta   34.67518408
_cell_angle_gamma   34.67517997
_symmetry_Int_Tables_number   1
_chemical_formula_structural   LaYb2Ni2Pt7
_chemical_formula_sum   'La1 Yb2 Ni2 Pt7'
_cell_volume   214.25990495
_cell_formula_units_Z   1
loop_
 _symmetry_equiv_pos_site_id
 _symmetry_equiv_pos_as_xyz
  1  'x, y, z'
loop_
 _atom_site_type_symbol
 _atom_site_label
 _atom_site_symmetry_multiplicity
 _atom_site_fract_x
 _atom_site_fract_y
 _atom_site_fract_z
 _atom_site_occupancy
  La  La0  1  0.000000  0.000000  0.000000  1
  Yb  Yb1  1  0.857520  0.857520  0.857520  1
  Yb  Yb2  1  0.142480  0.142480  0.142480  1
  Ni  Ni3  1  0.667162  0.667162  0.667162  1
  Ni  Ni4  1  0.332838  0.332838  0.332838  1
  Pt  Pt5  1  0.417991  0.922083  0.417991  1
  Pt  Pt6  1  0.417991  0.417991  0.922083  1
  Pt  Pt7  1  0.922083  0.417991  0.417991  1
  Pt  Pt8  1  0.582009  0.077917  0.582009  1
  Pt  Pt9  1  0.582009  0.582009  0.077917  1
  Pt  Pt10  1  0.077917  0.582009  0.582009  1
  Pt  Pt11  1  0.500000  0.500000  0.500000  1
