# generated using pymatgen
data_ErThZn5Sn
_symmetry_space_group_name_H-M   'P 1'
_cell_length_a   8.45507844
_cell_length_b   8.45507936
_cell_length_c   9.06585000
_cell_angle_alpha   90.00000000
_cell_angle_beta   90.00000000
_cell_angle_gamma   150.14863287
_symmetry_Int_Tables_number   1
_chemical_formula_structural   ErThZn5Sn
_chemical_formula_sum   'Er2 Th2 Zn10 Sn2'
_cell_volume   322.59426398
_cell_formula_units_Z   2
loop_
 _symmetry_equiv_pos_site_id
 _symmetry_equiv_pos_as_xyz
  1  'x, y, z'
loop_
 _atom_site_type_symbol
 _atom_site_label
 _atom_site_symmetry_multiplicity
 _atom_site_fract_x
 _atom_site_fract_y
 _atom_site_fract_z
 _atom_site_occupancy
  Er  Er0  1  0.202654  0.797346  0.250000  1
  Er  Er1  1  0.797346  0.202654  0.750000  1
  Th  Th2  1  0.000000  0.000000  0.500000  1
  Th  Th3  1  0.000000  0.000000  0.000000  1
  Zn  Zn4  1  0.812122  0.187878  0.391711  1
  Zn  Zn5  1  0.187878  0.812122  0.608289  1
  Zn  Zn6  1  0.812122  0.187878  0.108289  1
  Zn  Zn7  1  0.187878  0.812122  0.891711  1
  Zn  Zn8  1  0.658315  0.341685  0.480461  1
  Zn  Zn9  1  0.341685  0.658315  0.519539  1
  Zn  Zn10  1  0.658315  0.341685  0.019539  1
  Zn  Zn11  1  0.341685  0.658315  0.980461  1
  Zn  Zn12  1  0.393612  0.606388  0.250000  1
  Zn  Zn13  1  0.606388  0.393612  0.750000  1
  Sn  Sn14  1  0.556200  0.443800  0.250000  1
  Sn  Sn15  1  0.443800  0.556200  0.750000  1
