# generated using pymatgen
data_Tb2TmIn4CoAg
_symmetry_space_group_name_H-M   'P 1'
_cell_length_a   8.04441904
_cell_length_b   8.03552576
_cell_length_c   3.69798800
_cell_angle_alpha   90.00000000
_cell_angle_beta   90.00000000
_cell_angle_gamma   120.04830175
_symmetry_Int_Tables_number   1
_chemical_formula_structural   Tb2TmIn4CoAg
_chemical_formula_sum   'Tb2 Tm1 In4 Co1 Ag1'
_cell_volume   206.91573887
_cell_formula_units_Z   1
loop_
 _symmetry_equiv_pos_site_id
 _symmetry_equiv_pos_as_xyz
  1  'x, y, z'
loop_
 _atom_site_type_symbol
 _atom_site_label
 _atom_site_symmetry_multiplicity
 _atom_site_fract_x
 _atom_site_fract_y
 _atom_site_fract_z
 _atom_site_occupancy
  Tb  Tb0  1  0.287434  0.241639  0.500000  1
  Tb  Tb1  1  0.757623  0.044692  0.500000  1
  Tm  Tm2  1  0.955699  0.715325  0.500000  1
  In  In3  1  0.060960  0.395126  0.000000  1
  In  In4  1  0.606787  0.666734  0.000000  1
  In  In5  1  0.331507  0.937421  0.000000  1
  In  In6  1  0.667905  0.334836  0.000000  1
  Co  Co7  1  0.999612  0.997643  0.000000  1
  Ag  Ag8  1  0.332474  0.666583  0.500000  1
