# generated using pymatgen
data_Lu3Zr4BiF28
_symmetry_space_group_name_H-M   'P 1'
_cell_length_a   5.71817292
_cell_length_b   9.06584731
_cell_length_c   12.17811052
_cell_angle_alpha   62.52224190
_cell_angle_beta   89.96394069
_cell_angle_gamma   90.04304000
_symmetry_Int_Tables_number   1
_chemical_formula_structural   Lu3Zr4BiF28
_chemical_formula_sum   'Lu3 Zr4 Bi1 F28'
_cell_volume   560.09520615
_cell_formula_units_Z   1
loop_
 _symmetry_equiv_pos_site_id
 _symmetry_equiv_pos_as_xyz
  1  'x, y, z'
loop_
 _atom_site_type_symbol
 _atom_site_label
 _atom_site_symmetry_multiplicity
 _atom_site_fract_x
 _atom_site_fract_y
 _atom_site_fract_z
 _atom_site_occupancy
  Lu  Lu0  1  0.744480  0.820565  0.265278  1
  Lu  Lu1  1  0.243803  0.182864  0.234246  1
  Lu  Lu2  1  0.257098  0.190344  0.733594  1
  Zr  Zr3  1  0.743065  0.279555  0.451487  1
  Zr  Zr4  1  0.244587  0.724869  0.051071  1
  Zr  Zr5  1  0.255413  0.725722  0.539114  1
  Zr  Zr6  1  0.755531  0.269328  0.957536  1
  Bi  Bi7  1  0.757660  0.822241  0.764855  1
  F  F8  1  0.460338  0.706859  0.925756  1
  F  F9  1  0.968080  0.288671  0.578031  1
  F  F10  1  0.528081  0.285441  0.080392  1
  F  F11  1  0.028085  0.710954  0.416379  1
  F  F12  1  0.452337  0.279589  0.551521  1
  F  F13  1  0.950740  0.714919  0.959486  1
  F  F14  1  0.551200  0.721495  0.444479  1
  F  F15  1  0.047566  0.275348  0.054860  1
  F  F16  1  0.771969  0.518312  0.859950  1
  F  F17  1  0.268200  0.471831  0.639569  1
  F  F18  1  0.235122  0.470824  0.145849  1
  F  F19  1  0.732452  0.530502  0.355203  1
  F  F20  1  0.759053  0.017225  0.061530  1
  F  F21  1  0.258329  0.978085  0.437939  1
  F  F22  1  0.240635  0.975994  0.941915  1
  F  F23  1  0.739621  0.026128  0.552920  1
  F  F24  1  0.982114  0.730301  0.643748  1
  F  F25  1  0.483077  0.264563  0.849704  1
  F  F26  1  0.012385  0.263892  0.346405  1
  F  F27  1  0.515422  0.736548  0.156284  1
  F  F28  1  0.028794  0.748435  0.177635  1
  F  F29  1  0.526182  0.253059  0.325975  1
  F  F30  1  0.971136  0.248801  0.828184  1
  F  F31  1  0.458218  0.743401  0.670860  1
  F  F32  1  0.436761  0.978239  0.236543  1
  F  F33  1  0.937315  0.023609  0.263777  1
  F  F34  1  0.568159  0.039383  0.765629  1
  F  F35  1  0.086991  0.982101  0.732295  1
