# generated using pymatgen
data_Zr3TiCr4F24
_symmetry_space_group_name_H-M   'P 1'
_cell_length_a   5.88455093
_cell_length_b   8.20186500
_cell_length_c   11.72042080
_cell_angle_alpha   90.00000000
_cell_angle_beta   90.42700645
_cell_angle_gamma   90.00000000
_symmetry_Int_Tables_number   1
_chemical_formula_structural   Zr3TiCr4F24
_chemical_formula_sum   'Zr3 Ti1 Cr4 F24'
_cell_volume   565.66210570
_cell_formula_units_Z   1
loop_
 _symmetry_equiv_pos_site_id
 _symmetry_equiv_pos_as_xyz
  1  'x, y, z'
loop_
 _atom_site_type_symbol
 _atom_site_label
 _atom_site_symmetry_multiplicity
 _atom_site_fract_x
 _atom_site_fract_y
 _atom_site_fract_z
 _atom_site_occupancy
  Zr  Zr0  1  0.228380  0.750000  0.625801  1
  Zr  Zr1  1  0.733886  0.250000  0.877604  1
  Zr  Zr2  1  0.764395  0.250000  0.371378  1
  Ti  Ti3  1  0.268502  0.750000  0.125271  1
  Cr  Cr4  1  0.749609  0.750000  0.367178  1
  Cr  Cr5  1  0.746116  0.750000  0.883626  1
  Cr  Cr6  1  0.247317  0.250000  0.624578  1
  Cr  Cr7  1  0.250015  0.250000  0.124439  1
  F  F8  1  0.466124  0.750000  0.748403  1
  F  F9  1  0.051569  0.750000  0.239497  1
  F  F10  1  0.524653  0.250000  0.247341  1
  F  F11  1  0.965067  0.250000  0.754430  1
  F  F12  1  0.463774  0.750000  0.502945  1
  F  F13  1  0.049709  0.750000  0.009836  1
  F  F14  1  0.534862  0.250000  0.495965  1
  F  F15  1  0.974151  0.250000  0.002409  1
  F  F16  1  0.763729  0.499480  0.369983  1
  F  F17  1  0.735799  0.000499  0.879169  1
  F  F18  1  0.232676  0.000430  0.625542  1
  F  F19  1  0.272524  0.519476  0.125272  1
  F  F20  1  0.232676  0.499570  0.625542  1
  F  F21  1  0.272524  0.980524  0.125272  1
  F  F22  1  0.763729  0.000520  0.369983  1
  F  F23  1  0.735799  0.499501  0.879169  1
  F  F24  1  0.976310  0.750000  0.501738  1
  F  F25  1  0.509336  0.750000  0.011363  1
  F  F26  1  0.018253  0.250000  0.492530  1
  F  F27  1  0.478327  0.250000  0.997249  1
  F  F28  1  0.978012  0.750000  0.750260  1
  F  F29  1  0.510320  0.750000  0.240636  1
  F  F30  1  0.019923  0.250000  0.250705  1
  F  F31  1  0.481938  0.250000  0.754893  1
