# generated using pymatgen
data_Nd19EuSi15Ru
_symmetry_space_group_name_H-M   'P 1'
_cell_length_a   7.78690558
_cell_length_b   7.92621561
_cell_length_c   15.12534900
_cell_angle_alpha   89.75841805
_cell_angle_beta   89.58163710
_cell_angle_gamma   89.85105017
_symmetry_Int_Tables_number   1
_chemical_formula_structural   Nd19EuSi15Ru
_chemical_formula_sum   'Nd19 Eu1 Si15 Ru1'
_cell_volume   933.51075103
_cell_formula_units_Z   1
loop_
 _symmetry_equiv_pos_site_id
 _symmetry_equiv_pos_as_xyz
  1  'x, y, z'
loop_
 _atom_site_type_symbol
 _atom_site_label
 _atom_site_symmetry_multiplicity
 _atom_site_fract_x
 _atom_site_fract_y
 _atom_site_fract_z
 _atom_site_occupancy
  Nd  Nd0  1  0.812389  0.334400  0.613047  1
  Nd  Nd1  1  0.455882  0.686299  0.897944  1
  Nd  Nd2  1  0.956878  0.814002  0.897965  1
  Nd  Nd3  1  0.185988  0.682109  0.121223  1
  Nd  Nd4  1  0.691392  0.818411  0.120961  1
  Nd  Nd5  1  0.307793  0.180071  0.878181  1
  Nd  Nd6  1  0.186698  0.679667  0.379365  1
  Nd  Nd7  1  0.044897  0.189008  0.103793  1
  Nd  Nd8  1  0.312059  0.181639  0.622242  1
  Nd  Nd9  1  0.859081  0.492461  0.261445  1
  Nd  Nd10  1  0.365682  0.006842  0.255080  1
  Nd  Nd11  1  0.536731  0.317079  0.398981  1
  Nd  Nd12  1  0.811201  0.316907  0.878370  1
  Nd  Nd13  1  0.962810  0.811089  0.598359  1
  Nd  Nd14  1  0.461307  0.685086  0.601024  1
  Nd  Nd15  1  0.039094  0.189229  0.401486  1
  Nd  Nd16  1  0.696484  0.809723  0.384852  1
  Nd  Nd17  1  0.639350  0.995653  0.747704  1
  Nd  Nd18  1  0.546255  0.311696  0.103659  1
  Eu  Eu19  1  0.134781  0.507232  0.747837  1
  Si  Si20  1  0.479805  0.603154  0.245360  1
  Si  Si21  1  0.253147  0.378195  0.247381  1
  Si  Si22  1  0.520027  0.400553  0.751532  1
  Si  Si23  1  0.630412  0.025340  0.957998  1
  Si  Si24  1  0.015753  0.097914  0.748567  1
  Si  Si25  1  0.742943  0.623465  0.750752  1
  Si  Si26  1  0.750989  0.119623  0.247726  1
  Si  Si27  1  0.365382  0.970199  0.461961  1
  Si  Si28  1  0.982840  0.902771  0.248279  1
  Si  Si29  1  0.364544  0.975101  0.041420  1
  Si  Si30  1  0.634063  0.024259  0.542383  1
  Si  Si31  1  0.133017  0.474381  0.959622  1
  Si  Si32  1  0.145524  0.473746  0.538075  1
  Si  Si33  1  0.865283  0.525773  0.039305  1
  Si  Si34  1  0.246770  0.880326  0.750843  1
  Ru  Ru35  1  0.862756  0.516593  0.455278  1
