# generated using pymatgen
data_Y2CoSi14Ir5
_symmetry_space_group_name_H-M   'P 1'
_cell_length_a   8.00017647
_cell_length_b   8.00017532
_cell_length_c   7.98734981
_cell_angle_alpha   56.66572027
_cell_angle_beta   56.66571912
_cell_angle_gamma   56.59655822
_symmetry_Int_Tables_number   1
_chemical_formula_structural   Y2CoSi14Ir5
_chemical_formula_sum   'Y2 Co1 Si14 Ir5'
_cell_volume   333.44977845
_cell_formula_units_Z   1
loop_
 _symmetry_equiv_pos_site_id
 _symmetry_equiv_pos_as_xyz
  1  'x, y, z'
loop_
 _atom_site_type_symbol
 _atom_site_label
 _atom_site_symmetry_multiplicity
 _atom_site_fract_x
 _atom_site_fract_y
 _atom_site_fract_z
 _atom_site_occupancy
  Y  Y0  1  0.000993  0.999672  0.998961  1
  Y  Y1  1  0.500328  0.499007  0.501039  1
  Co  Co2  1  0.069372  0.430628  0.750000  1
  Si  Si3  1  0.759777  0.740223  0.750000  1
  Si  Si4  1  0.249814  0.250186  0.250000  1
  Si  Si5  1  0.850946  0.065549  0.671058  1
  Si  Si6  1  0.671364  0.850869  0.064034  1
  Si  Si7  1  0.062677  0.666387  0.846798  1
  Si  Si8  1  0.649131  0.828636  0.435966  1
  Si  Si9  1  0.434451  0.649054  0.828942  1
  Si  Si10  1  0.833613  0.437323  0.653202  1
  Si  Si11  1  0.170334  0.561524  0.359384  1
  Si  Si12  1  0.565482  0.350543  0.172215  1
  Si  Si13  1  0.343125  0.178803  0.571781  1
  Si  Si14  1  0.938476  0.329666  0.140616  1
  Si  Si15  1  0.321197  0.156875  0.928219  1
  Si  Si16  1  0.149457  0.934518  0.327785  1
  Ir  Ir17  1  0.248812  0.930006  0.571633  1
  Ir  Ir18  1  0.569994  0.251188  0.928367  1
  Ir  Ir19  1  0.929611  0.570389  0.250000  1
  Ir  Ir20  1  0.430120  0.749073  0.070732  1
  Ir  Ir21  1  0.750927  0.069880  0.429268  1
