# generated using pymatgen
data_Lu3ZrSc2MnSb2
_symmetry_space_group_name_H-M   'P 1'
_cell_length_a   7.75255800
_cell_length_b   7.79824017
_cell_length_c   4.11235400
_cell_angle_alpha   90.00000000
_cell_angle_beta   90.00000000
_cell_angle_gamma   119.80640704
_symmetry_Int_Tables_number   1
_chemical_formula_structural   Lu3ZrSc2MnSb2
_chemical_formula_sum   'Lu3 Zr1 Sc2 Mn1 Sb2'
_cell_volume   215.72807236
_cell_formula_units_Z   1
loop_
 _symmetry_equiv_pos_site_id
 _symmetry_equiv_pos_as_xyz
  1  'x, y, z'
loop_
 _atom_site_type_symbol
 _atom_site_label
 _atom_site_symmetry_multiplicity
 _atom_site_fract_x
 _atom_site_fract_y
 _atom_site_fract_z
 _atom_site_occupancy
  Lu  Lu0  1  0.605845  0.000000  0.000000  1
  Lu  Lu1  1  0.001148  0.609304  0.000000  1
  Lu  Lu2  1  0.391845  0.390696  0.000000  1
  Zr  Zr3  1  0.224752  0.000000  0.500000  1
  Sc  Sc4  1  0.000854  0.229192  0.500000  1
  Sc  Sc5  1  0.771663  0.770808  0.500000  1
  Mn  Mn6  1  0.002545  0.000000  0.000000  1
  Sb  Sb7  1  0.333170  0.664995  0.500000  1
  Sb  Sb8  1  0.668177  0.335005  0.500000  1
