# generated using pymatgen
data_Ho8Tm8Ga6FeCo
_symmetry_space_group_name_H-M   'P 1'
_cell_length_a   9.88329900
_cell_length_b   9.88329838
_cell_length_c   6.91562000
_cell_angle_alpha   90.00000000
_cell_angle_beta   90.00000000
_cell_angle_gamma   120.00000543
_symmetry_Int_Tables_number   1
_chemical_formula_structural   Ho8Tm8Ga6FeCo
_chemical_formula_sum   'Ho8 Tm8 Ga6 Fe1 Co1'
_cell_volume   585.01307252
_cell_formula_units_Z   1
loop_
 _symmetry_equiv_pos_site_id
 _symmetry_equiv_pos_as_xyz
  1  'x, y, z'
loop_
 _atom_site_type_symbol
 _atom_site_label
 _atom_site_symmetry_multiplicity
 _atom_site_fract_x
 _atom_site_fract_y
 _atom_site_fract_z
 _atom_site_occupancy
  Ho  Ho0  1  0.462935  0.537065  0.208401  1
  Ho  Ho1  1  0.074130  0.537065  0.208401  1
  Ho  Ho2  1  0.462935  0.925870  0.208401  1
  Ho  Ho3  1  0.535782  0.464218  0.707087  1
  Ho  Ho4  1  0.928437  0.464218  0.707087  1
  Ho  Ho5  1  0.535782  0.071563  0.707087  1
  Ho  Ho6  1  0.000000  0.000000  0.231832  1
  Ho  Ho7  1  0.000000  0.000000  0.733067  1
  Tm  Tm8  1  0.173619  0.826381  0.511364  1
  Tm  Tm9  1  0.652760  0.826381  0.511364  1
  Tm  Tm10  1  0.173619  0.347240  0.511364  1
  Tm  Tm11  1  0.826575  0.173425  0.012838  1
  Tm  Tm12  1  0.346852  0.173425  0.012838  1
  Tm  Tm13  1  0.826575  0.653148  0.012838  1
  Tm  Tm14  1  0.333333  0.666667  0.830868  1
  Tm  Tm15  1  0.666667  0.333333  0.329563  1
  Ga  Ga16  1  0.163358  0.836642  0.956727  1
  Ga  Ga17  1  0.673285  0.836642  0.956727  1
  Ga  Ga18  1  0.163358  0.326715  0.956727  1
  Ga  Ga19  1  0.836009  0.163991  0.456326  1
  Ga  Ga20  1  0.327982  0.163991  0.456326  1
  Ga  Ga21  1  0.836009  0.672018  0.456326  1
  Fe  Fe22  1  0.333333  0.666667  0.445827  1
  Co  Co23  1  0.666667  0.333333  0.944658  1
