# generated using pymatgen
data_Er4Ga2B4(RuRh)5
_symmetry_space_group_name_H-M   'P 1'
_cell_length_a   9.57419805
_cell_length_b   9.57185505
_cell_length_c   3.09685900
_cell_angle_alpha   90.00000000
_cell_angle_beta   90.00000000
_cell_angle_gamma   90.01120415
_symmetry_Int_Tables_number   1
_chemical_formula_structural   Er4Ga2B4(RuRh)5
_chemical_formula_sum   'Er4 Ga2 B4 Ru5 Rh5'
_cell_volume   283.80493563
_cell_formula_units_Z   1
loop_
 _symmetry_equiv_pos_site_id
 _symmetry_equiv_pos_as_xyz
  1  'x, y, z'
loop_
 _atom_site_type_symbol
 _atom_site_label
 _atom_site_symmetry_multiplicity
 _atom_site_fract_x
 _atom_site_fract_y
 _atom_site_fract_z
 _atom_site_occupancy
  Er  Er0  1  0.826827  0.322033  0.000000  1
  Er  Er1  1  0.322605  0.173940  0.000000  1
  Er  Er2  1  0.675032  0.828018  0.000000  1
  Er  Er3  1  0.176082  0.676149  0.000000  1
  Ga  Ga4  1  0.000496  0.001875  0.000000  1
  Ga  Ga5  1  0.499615  0.499692  0.000000  1
  B  B6  1  0.626286  0.116750  0.000000  1
  B  B7  1  0.117964  0.374043  0.000000  1
  B  B8  1  0.880265  0.620864  0.000000  1
  B  B9  1  0.373770  0.882772  0.000000  1
  Ru  Ru10  1  0.070591  0.218501  0.500000  1
  Ru  Ru11  1  0.217026  0.929797  0.500000  1
  Ru  Ru12  1  0.783270  0.069546  0.500000  1
  Ru  Ru13  1  0.499068  0.000412  0.500000  1
  Ru  Ru14  1  0.999884  0.501739  0.500000  1
  Rh  Rh15  1  0.929741  0.783164  0.500000  1
  Rh  Rh16  1  0.431138  0.716381  0.500000  1
  Rh  Rh17  1  0.569693  0.282769  0.500000  1
  Rh  Rh18  1  0.717406  0.570235  0.500000  1
  Rh  Rh19  1  0.283240  0.431320  0.500000  1
