# generated using pymatgen
data_Tb3YNi2(B8Ir)2
_symmetry_space_group_name_H-M   'P 1'
_cell_length_a   6.92683265
_cell_length_b   6.92683193
_cell_length_c   6.92683122
_cell_angle_alpha   113.26762116
_cell_angle_beta   111.23187281
_cell_angle_gamma   104.05364934
_symmetry_Int_Tables_number   1
_chemical_formula_structural   Tb3YNi2(B8Ir)2
_chemical_formula_sum   'Tb3 Y1 Ni2 B16 Ir2'
_cell_volume   254.06531061
_cell_formula_units_Z   1
loop_
 _symmetry_equiv_pos_site_id
 _symmetry_equiv_pos_as_xyz
  1  'x, y, z'
loop_
 _atom_site_type_symbol
 _atom_site_label
 _atom_site_symmetry_multiplicity
 _atom_site_fract_x
 _atom_site_fract_y
 _atom_site_fract_z
 _atom_site_occupancy
  Tb  Tb0  1  0.790758  0.790758  0.000000  1
  Tb  Tb1  1  0.748517  0.248517  0.500000  1
  Tb  Tb2  1  0.251451  0.751451  0.500000  1
  Y  Y3  1  0.209276  0.209276  0.000000  1
  Ni  Ni4  1  0.745603  0.500348  0.245255  1
  Ni  Ni5  1  0.255093  0.500348  0.754745  1
  B  B6  1  0.108575  0.273025  0.381666  1
  B  B7  1  0.891359  0.726909  0.618334  1
  B  B8  1  0.891359  0.273025  0.164451  1
  B  B9  1  0.108575  0.726909  0.835549  1
  B  B10  1  0.730726  0.889385  0.620094  1
  B  B11  1  0.269290  0.110632  0.379906  1
  B  B12  1  0.730726  0.110632  0.841341  1
  B  B13  1  0.269290  0.889385  0.158659  1
  B  B14  1  0.413811  0.419192  0.529139  1
  B  B15  1  0.890053  0.884672  0.470861  1
  B  B16  1  0.586316  0.115127  0.005440  1
  B  B17  1  0.109687  0.580875  0.994560  1
  B  B18  1  0.586316  0.580875  0.471188  1
  B  B19  1  0.109687  0.115127  0.528812  1
  B  B20  1  0.890053  0.419192  0.005380  1
  B  B21  1  0.413811  0.884672  0.994620  1
  Ir  Ir22  1  0.499833  0.276494  0.776660  1
  Ir  Ir23  1  0.499833  0.723173  0.223340  1
