# generated using pymatgen
data_Ca7LuSi16(Tc5Mo)2
_symmetry_space_group_name_H-M   'P 1'
_cell_length_a   6.74564272
_cell_length_b   6.87884007
_cell_length_c   12.69692860
_cell_angle_alpha   89.93989187
_cell_angle_beta   90.01994381
_cell_angle_gamma   89.92068966
_symmetry_Int_Tables_number   1
_chemical_formula_structural   Ca7LuSi16(Tc5Mo)2
_chemical_formula_sum   'Ca7 Lu1 Si16 Tc10 Mo2'
_cell_volume   589.16446335
_cell_formula_units_Z   1
loop_
 _symmetry_equiv_pos_site_id
 _symmetry_equiv_pos_as_xyz
  1  'x, y, z'
loop_
 _atom_site_type_symbol
 _atom_site_label
 _atom_site_symmetry_multiplicity
 _atom_site_fract_x
 _atom_site_fract_y
 _atom_site_fract_z
 _atom_site_occupancy
  Ca  Ca0  1  0.494540  0.340253  0.090373  1
  Ca  Ca1  1  0.993247  0.159327  0.408975  1
  Ca  Ca2  1  0.505599  0.661259  0.590505  1
  Ca  Ca3  1  0.005144  0.836639  0.908936  1
  Ca  Ca4  1  0.507261  0.663754  0.909728  1
  Ca  Ca5  1  0.007339  0.836527  0.590224  1
  Ca  Ca6  1  0.492181  0.339866  0.409690  1
  Lu  Lu7  1  0.990646  0.165342  0.095090  1
  Si  Si8  1  0.654769  0.045198  0.550000  1
  Si  Si9  1  0.156582  0.453763  0.951629  1
  Si  Si10  1  0.343740  0.955082  0.051149  1
  Si  Si11  1  0.848255  0.546728  0.446940  1
  Si  Si12  1  0.349566  0.951529  0.446304  1
  Si  Si13  1  0.849616  0.549104  0.052489  1
  Si  Si14  1  0.652667  0.044568  0.951125  1
  Si  Si15  1  0.150230  0.455618  0.550229  1
  Si  Si16  1  0.531039  0.357479  0.752996  1
  Si  Si17  1  0.030449  0.140385  0.747523  1
  Si  Si18  1  0.471483  0.645739  0.249473  1
  Si  Si19  1  0.970140  0.854568  0.248162  1
  Si  Si20  1  0.809715  0.633361  0.749244  1
  Si  Si21  1  0.309574  0.864756  0.750848  1
  Si  Si22  1  0.189656  0.365255  0.250492  1
  Si  Si23  1  0.685225  0.135735  0.250784  1
  Tc  Tc24  1  0.825460  0.340955  0.623736  1
  Tc  Tc25  1  0.323491  0.157214  0.877762  1
  Tc  Tc26  1  0.179540  0.655090  0.127085  1
  Tc  Tc27  1  0.676181  0.843767  0.371318  1
  Tc  Tc28  1  0.171685  0.655000  0.371067  1
  Tc  Tc29  1  0.673982  0.851072  0.126619  1
  Tc  Tc30  1  0.667789  0.999273  0.750638  1
  Tc  Tc31  1  0.167493  0.499874  0.750633  1
  Tc  Tc32  1  0.324594  0.002693  0.248139  1
  Tc  Tc33  1  0.829833  0.495124  0.247918  1
  Mo  Mo34  1  0.831940  0.337846  0.874433  1
  Mo  Mo35  1  0.329349  0.160256  0.627744  1
