# generated using pymatgen
data_YErAl9Os2Pd
_symmetry_space_group_name_H-M   'P 1'
_cell_length_a   7.60085710
_cell_length_b   7.60145796
_cell_length_c   9.55378400
_cell_angle_alpha   90.00000000
_cell_angle_beta   90.00000000
_cell_angle_gamma   119.56092478
_symmetry_Int_Tables_number   1
_chemical_formula_structural   YErAl9Os2Pd
_chemical_formula_sum   'Y2 Er2 Al18 Os4 Pd2'
_cell_volume   480.14240147
_cell_formula_units_Z   2
loop_
 _symmetry_equiv_pos_site_id
 _symmetry_equiv_pos_as_xyz
  1  'x, y, z'
loop_
 _atom_site_type_symbol
 _atom_site_label
 _atom_site_symmetry_multiplicity
 _atom_site_fract_x
 _atom_site_fract_y
 _atom_site_fract_z
 _atom_site_occupancy
  Y  Y0  1  0.669992  0.997636  0.250000  1
  Y  Y1  1  0.330008  0.002364  0.750000  1
  Er  Er2  1  0.997868  0.670004  0.250000  1
  Er  Er3  1  0.002132  0.329996  0.750000  1
  Al  Al4  1  0.132378  0.132073  0.250000  1
  Al  Al5  1  0.867622  0.867927  0.750000  1
  Al  Al6  1  0.002703  0.340392  0.072309  1
  Al  Al7  1  0.997297  0.659608  0.927691  1
  Al  Al8  1  0.997297  0.659608  0.572309  1
  Al  Al9  1  0.339753  0.002460  0.427400  1
  Al  Al10  1  0.002703  0.340392  0.427691  1
  Al  Al11  1  0.660247  0.997540  0.572600  1
  Al  Al12  1  0.660247  0.997540  0.927400  1
  Al  Al13  1  0.339753  0.002460  0.072600  1
  Al  Al14  1  0.338994  0.339241  0.548928  1
  Al  Al15  1  0.661006  0.660759  0.451072  1
  Al  Al16  1  0.661006  0.660759  0.048928  1
  Al  Al17  1  0.338994  0.339241  0.951072  1
  Al  Al18  1  0.336135  0.549058  0.250000  1
  Al  Al19  1  0.663865  0.450942  0.750000  1
  Al  Al20  1  0.549529  0.336943  0.250000  1
  Al  Al21  1  0.450471  0.663057  0.750000  1
  Os  Os22  1  0.672897  0.327633  0.999945  1
  Os  Os23  1  0.327103  0.672367  0.000055  1
  Os  Os24  1  0.327103  0.672367  0.499945  1
  Os  Os25  1  0.672897  0.327633  0.500055  1
  Pd  Pd26  1  0.000000  0.000000  0.000000  1
  Pd  Pd27  1  0.000000  0.000000  0.500000  1
