# generated using pymatgen
data_DyHo2Ag(Pt2O7)2
_symmetry_space_group_name_H-M   'P 1'
_cell_length_a   7.32022276
_cell_length_b   7.31447299
_cell_length_c   7.18203968
_cell_angle_alpha   59.38811626
_cell_angle_beta   59.39301543
_cell_angle_gamma   60.02597343
_symmetry_Int_Tables_number   1
_chemical_formula_structural   DyHo2Ag(Pt2O7)2
_chemical_formula_sum   'Dy1 Ho2 Ag1 Pt4 O14'
_cell_volume   269.43941579
_cell_formula_units_Z   1
loop_
 _symmetry_equiv_pos_site_id
 _symmetry_equiv_pos_as_xyz
  1  'x, y, z'
loop_
 _atom_site_type_symbol
 _atom_site_label
 _atom_site_symmetry_multiplicity
 _atom_site_fract_x
 _atom_site_fract_y
 _atom_site_fract_z
 _atom_site_occupancy
  Dy  Dy0  1  0.625000  0.125000  0.125000  1
  Ho  Ho1  1  0.125000  0.625000  0.125000  1
  Ho  Ho2  1  0.125000  0.125000  0.125000  1
  Ag  Ag3  1  0.125000  0.125000  0.625000  1
  Pt  Pt4  1  0.625000  0.625000  0.625000  1
  Pt  Pt5  1  0.125000  0.625000  0.625000  1
  Pt  Pt6  1  0.625000  0.125000  0.625000  1
  Pt  Pt7  1  0.625000  0.625000  0.125000  1
  O  O8  1  0.292505  0.694957  0.719842  1
  O  O9  1  0.531255  0.965354  0.971022  1
  O  O10  1  0.695081  0.293069  0.718783  1
  O  O11  1  0.292505  0.292696  0.719842  1
  O  O12  1  0.718745  0.717631  0.278978  1
  O  O13  1  0.006081  0.003708  0.986504  1
  O  O14  1  0.284250  0.718498  0.278754  1
  O  O15  1  0.965750  0.531502  0.971246  1
  O  O16  1  0.957495  0.957304  0.530158  1
  O  O17  1  0.531255  0.532369  0.971022  1
  O  O18  1  0.243919  0.246292  0.263496  1
  O  O19  1  0.554919  0.956931  0.531217  1
  O  O20  1  0.718745  0.284646  0.278978  1
  O  O21  1  0.957495  0.555043  0.530158  1
