# generated using pymatgen
data_Ho3Th11Ir6
_symmetry_space_group_name_H-M   'P 1'
_cell_length_a   10.00825773
_cell_length_b   10.01763202
_cell_length_c   6.33923111
_cell_angle_alpha   90.28407189
_cell_angle_beta   89.78520208
_cell_angle_gamma   119.95467288
_symmetry_Int_Tables_number   1
_chemical_formula_structural   Ho3Th11Ir6
_chemical_formula_sum   'Ho3 Th11 Ir6'
_cell_volume   550.65951279
_cell_formula_units_Z   1
loop_
 _symmetry_equiv_pos_site_id
 _symmetry_equiv_pos_as_xyz
  1  'x, y, z'
loop_
 _atom_site_type_symbol
 _atom_site_label
 _atom_site_symmetry_multiplicity
 _atom_site_fract_x
 _atom_site_fract_y
 _atom_site_fract_z
 _atom_site_occupancy
  Ho  Ho0  1  0.459696  0.537838  0.297358  1
  Ho  Ho1  1  0.076245  0.537334  0.304866  1
  Ho  Ho2  1  0.925435  0.463296  0.804813  1
  Th  Th3  1  0.255997  0.129827  0.499520  1
  Th  Th4  1  0.541425  0.080094  0.793038  1
  Th  Th5  1  0.747325  0.873891  0.001562  1
  Th  Th6  1  0.665618  0.331969  0.295079  1
  Th  Th7  1  0.127657  0.869740  0.000283  1
  Th  Th8  1  0.457614  0.915750  0.292073  1
  Th  Th9  1  0.541185  0.461566  0.796209  1
  Th  Th10  1  0.873699  0.129750  0.500905  1
  Th  Th11  1  0.127937  0.258920  0.002095  1
  Th  Th12  1  0.867910  0.736682  0.498995  1
  Th  Th13  1  0.333587  0.666511  0.781230  1
  Ir  Ir14  1  0.809317  0.624773  0.053710  1
  Ir  Ir15  1  0.812536  0.186591  0.052434  1
  Ir  Ir16  1  0.627412  0.816335  0.552427  1
  Ir  Ir17  1  0.374913  0.189775  0.053138  1
  Ir  Ir18  1  0.186083  0.374301  0.552620  1
  Ir  Ir19  1  0.188408  0.815058  0.551647  1
