# generated using pymatgen
data_La(CoO2)3
_symmetry_space_group_name_H-M   'P 1'
_cell_length_a   4.95139457
_cell_length_b   5.81512572
_cell_length_c   8.57905000
_cell_angle_alpha   90.00037470
_cell_angle_beta   90.00004499
_cell_angle_gamma   73.32825828
_symmetry_Int_Tables_number   1
_chemical_formula_structural   La(CoO2)3
_chemical_formula_sum   'La2 Co6 O12'
_cell_volume   236.63287481
_cell_formula_units_Z   2
loop_
 _symmetry_equiv_pos_site_id
 _symmetry_equiv_pos_as_xyz
  1  'x, y, z'
loop_
 _atom_site_type_symbol
 _atom_site_label
 _atom_site_symmetry_multiplicity
 _atom_site_fract_x
 _atom_site_fract_y
 _atom_site_fract_z
 _atom_site_occupancy
  La  La0  1  0.000009  0.499998  0.166689  1
  La  La1  1  0.500001  0.500000  0.666699  1
  Co  Co2  1  0.500001  0.999999  0.166659  1
  Co  Co3  1  0.500000  0.999998  0.834464  1
  Co  Co4  1  0.500000  0.000001  0.498863  1
  Co  Co5  1  0.999997  0.000002  0.666659  1
  Co  Co6  1  0.000000  0.000002  0.334457  1
  Co  Co7  1  0.999998  0.999997  0.998870  1
  O  O8  1  0.772693  0.180727  0.166669  1
  O  O9  1  0.272691  0.180726  0.666674  1
  O  O10  1  0.227310  0.819275  0.166671  1
  O  O11  1  0.727308  0.819274  0.666669  1
  O  O12  1  0.271897  0.181591  0.000059  1
  O  O13  1  0.771896  0.181596  0.500061  1
  O  O14  1  0.271904  0.181600  0.333265  1
  O  O15  1  0.771901  0.181599  0.833264  1
  O  O16  1  0.728096  0.818404  0.333261  1
  O  O17  1  0.228094  0.818401  0.833263  1
  O  O18  1  0.728103  0.818405  0.000058  1
  O  O19  1  0.228102  0.818407  0.500061  1
