# generated using pymatgen
data_NaY6IrBr12
_symmetry_space_group_name_H-M   'P 1'
_cell_length_a   9.27642841
_cell_length_b   9.27642401
_cell_length_c   9.27639900
_cell_angle_alpha   106.89073583
_cell_angle_beta   106.89075275
_cell_angle_gamma   106.89155151
_symmetry_Int_Tables_number   1
_chemical_formula_structural   NaY6IrBr12
_chemical_formula_sum   'Na1 Y6 Ir1 Br12'
_cell_volume   666.75969807
_cell_formula_units_Z   1
loop_
 _symmetry_equiv_pos_site_id
 _symmetry_equiv_pos_as_xyz
  1  'x, y, z'
loop_
 _atom_site_type_symbol
 _atom_site_label
 _atom_site_symmetry_multiplicity
 _atom_site_fract_x
 _atom_site_fract_y
 _atom_site_fract_z
 _atom_site_occupancy
  Na  Na0  1  0.500000  0.500000  0.500000  1
  Y  Y1  1  0.108333  0.318078  0.029323  1
  Y  Y2  1  0.318076  0.029326  0.108333  1
  Y  Y3  1  0.029329  0.108336  0.318081  1
  Y  Y4  1  0.970672  0.891664  0.681920  1
  Y  Y5  1  0.681924  0.970675  0.891667  1
  Y  Y6  1  0.891667  0.681922  0.970677  1
  Ir  Ir7  1  0.000000  0.000000  0.000000  1
  Br  Br8  1  0.217049  0.678751  0.073241  1
  Br  Br9  1  0.448047  0.368473  0.146730  1
  Br  Br10  1  0.678749  0.073240  0.217045  1
  Br  Br11  1  0.926760  0.782952  0.321252  1
  Br  Br12  1  0.146729  0.448046  0.368472  1
  Br  Br13  1  0.368471  0.146728  0.448047  1
  Br  Br14  1  0.631529  0.853272  0.551954  1
  Br  Br15  1  0.853272  0.551954  0.631528  1
  Br  Br16  1  0.073241  0.217048  0.678749  1
  Br  Br17  1  0.321252  0.926761  0.782955  1
  Br  Br18  1  0.551953  0.631527  0.853271  1
  Br  Br19  1  0.782951  0.321249  0.926759  1
