# generated using pymatgen
data_K4Ba2HfBi4
_symmetry_space_group_name_H-M   'P 1'
_cell_length_a   11.41199885
_cell_length_b   11.41199851
_cell_length_c   8.69927608
_cell_angle_alpha   89.22809610
_cell_angle_beta   89.22809744
_cell_angle_gamma   60.35013376
_symmetry_Int_Tables_number   1
_chemical_formula_structural   K4Ba2HfBi4
_chemical_formula_sum   'K8 Ba4 Hf2 Bi8'
_cell_volume   984.47776819
_cell_formula_units_Z   2
loop_
 _symmetry_equiv_pos_site_id
 _symmetry_equiv_pos_as_xyz
  1  'x, y, z'
loop_
 _atom_site_type_symbol
 _atom_site_label
 _atom_site_symmetry_multiplicity
 _atom_site_fract_x
 _atom_site_fract_y
 _atom_site_fract_z
 _atom_site_occupancy
  K  K0  1  0.945368  0.528152  0.372648  1
  K  K1  1  0.528152  0.945368  0.372648  1
  K  K2  1  0.718903  0.135286  0.190694  1
  K  K3  1  0.135286  0.718903  0.190694  1
  K  K4  1  0.143014  0.143014  0.202710  1
  K  K5  1  0.281000  0.861926  0.682628  1
  K  K6  1  0.861926  0.281000  0.682628  1
  K  K7  1  0.856111  0.856111  0.663952  1
  Ba  Ba8  1  0.528781  0.528781  0.374421  1
  Ba  Ba9  1  0.047186  0.478243  0.875571  1
  Ba  Ba10  1  0.478243  0.047186  0.875571  1
  Ba  Ba11  1  0.476990  0.476990  0.872630  1
  Hf  Hf12  1  0.333251  0.333251  0.485485  1
  Hf  Hf13  1  0.665985  0.665985  0.990428  1
  Bi  Bi14  1  0.387585  0.803340  0.092693  1
  Bi  Bi15  1  0.803340  0.387585  0.092693  1
  Bi  Bi16  1  0.806270  0.806270  0.074321  1
  Bi  Bi17  1  0.606794  0.201741  0.596064  1
  Bi  Bi18  1  0.201741  0.606794  0.596064  1
  Bi  Bi19  1  0.198050  0.198050  0.608530  1
  Bi  Bi20  1  0.335978  0.335978  0.150042  1
  Bi  Bi21  1  0.660660  0.660660  0.659707  1
