# generated using pymatgen
data_Y3Tm5Tc3B24Os
_symmetry_space_group_name_H-M   'P 1'
_cell_length_a   3.64779500
_cell_length_b   9.10794193
_cell_length_c   11.49327500
_cell_angle_alpha   89.94592910
_cell_angle_beta   90.00000000
_cell_angle_gamma   90.00000000
_symmetry_Int_Tables_number   1
_chemical_formula_structural   Y3Tm5Tc3B24Os
_chemical_formula_sum   'Y3 Tm5 Tc3 B24 Os1'
_cell_volume   381.85130704
_cell_formula_units_Z   1
loop_
 _symmetry_equiv_pos_site_id
 _symmetry_equiv_pos_as_xyz
  1  'x, y, z'
loop_
 _atom_site_type_symbol
 _atom_site_label
 _atom_site_symmetry_multiplicity
 _atom_site_fract_x
 _atom_site_fract_y
 _atom_site_fract_z
 _atom_site_occupancy
  Y  Y0  1  0.000000  0.322823  0.413901  1
  Y  Y1  1  0.000000  0.676279  0.584551  1
  Y  Y2  1  0.000000  0.822368  0.086996  1
  Tm  Tm3  1  0.000000  0.178505  0.914542  1
  Tm  Tm4  1  0.000000  0.942737  0.369958  1
  Tm  Tm5  1  0.000000  0.058126  0.630140  1
  Tm  Tm6  1  0.000000  0.442866  0.129744  1
  Tm  Tm7  1  0.000000  0.556729  0.869764  1
  Tc  Tc8  1  0.000000  0.638845  0.319729  1
  Tc  Tc9  1  0.000000  0.360702  0.681379  1
  Tc  Tc10  1  0.000000  0.138338  0.178138  1
  B  B11  1  0.500000  0.553279  0.432594  1
  B  B12  1  0.500000  0.446325  0.567493  1
  B  B13  1  0.500000  0.053691  0.066328  1
  B  B14  1  0.500000  0.946915  0.932658  1
  B  B15  1  0.500000  0.749625  0.418373  1
  B  B16  1  0.500000  0.250002  0.582094  1
  B  B17  1  0.500000  0.250046  0.080515  1
  B  B18  1  0.500000  0.750596  0.918032  1
  B  B19  1  0.500000  0.792160  0.265398  1
  B  B20  1  0.500000  0.207579  0.735932  1
  B  B21  1  0.500000  0.291992  0.234294  1
  B  B22  1  0.500000  0.708841  0.765357  1
  B  B23  1  0.500000  0.630138  0.185090  1
  B  B24  1  0.500000  0.368914  0.816107  1
  B  B25  1  0.500000  0.129901  0.314223  1
  B  B26  1  0.500000  0.870077  0.685579  1
  B  B27  1  0.500000  0.981798  0.211980  1
  B  B28  1  0.500000  0.018109  0.788223  1
  B  B29  1  0.500000  0.481683  0.287362  1
  B  B30  1  0.500000  0.517713  0.712650  1
  B  B31  1  0.500000  0.600102  0.027429  1
  B  B32  1  0.500000  0.399816  0.972001  1
  B  B33  1  0.500000  0.099848  0.472507  1
  B  B34  1  0.500000  0.900402  0.528141  1
  Os  Os35  1  0.000000  0.862130  0.820801  1
