# generated using pymatgen
data_Tb12Fe4PbAu
_symmetry_space_group_name_H-M   'P 1'
_cell_length_a   8.41970386
_cell_length_b   8.41970465
_cell_length_c   8.41970400
_cell_angle_alpha   106.70982803
_cell_angle_beta   110.61672519
_cell_angle_gamma   111.12232517
_symmetry_Int_Tables_number   1
_chemical_formula_structural   Tb12Fe4PbAu
_chemical_formula_sum   'Tb12 Fe4 Pb1 Au1'
_cell_volume   458.67711887
_cell_formula_units_Z   1
loop_
 _symmetry_equiv_pos_site_id
 _symmetry_equiv_pos_as_xyz
  1  'x, y, z'
loop_
 _atom_site_type_symbol
 _atom_site_label
 _atom_site_symmetry_multiplicity
 _atom_site_fract_x
 _atom_site_fract_y
 _atom_site_fract_z
 _atom_site_occupancy
  Tb  Tb0  1  0.706051  0.281444  0.987494  1
  Tb  Tb1  1  0.293949  0.718556  0.012506  1
  Tb  Tb2  1  0.706051  0.718556  0.424606  1
  Tb  Tb3  1  0.293949  0.281444  0.575394  1
  Tb  Tb4  1  0.802607  0.113789  0.311181  1
  Tb  Tb5  1  0.802607  0.491424  0.688819  1
  Tb  Tb6  1  0.197393  0.886211  0.688819  1
  Tb  Tb7  1  0.197393  0.508576  0.311181  1
  Tb  Tb8  1  0.603671  0.790278  0.813392  1
  Tb  Tb9  1  0.976886  0.790278  0.186608  1
  Tb  Tb10  1  0.023114  0.209722  0.813392  1
  Tb  Tb11  1  0.396329  0.209722  0.186608  1
  Fe  Fe12  1  0.887088  0.500000  0.387088  1
  Fe  Fe13  1  0.112912  0.500000  0.612912  1
  Fe  Fe14  1  0.000000  0.106714  0.106714  1
  Fe  Fe15  1  0.000000  0.893286  0.893286  1
  Pb  Pb16  1  0.500000  0.000000  0.500000  1
  Au  Au17  1  0.500000  0.500000  0.000000  1
