# generated using pymatgen
data_CePr3Er4(CdRu)2
_symmetry_space_group_name_H-M   'P 1'
_cell_length_a   9.84532102
_cell_length_b   9.72885800
_cell_length_c   9.72885788
_cell_angle_alpha   59.55114890
_cell_angle_beta   59.60321633
_cell_angle_gamma   59.60320861
_symmetry_Int_Tables_number   1
_chemical_formula_structural   CePr3Er4(CdRu)2
_chemical_formula_sum   'Ce2 Pr6 Er8 Cd4 Ru4'
_cell_volume   652.72560190
_cell_formula_units_Z   2
loop_
 _symmetry_equiv_pos_site_id
 _symmetry_equiv_pos_as_xyz
  1  'x, y, z'
loop_
 _atom_site_type_symbol
 _atom_site_label
 _atom_site_symmetry_multiplicity
 _atom_site_fract_x
 _atom_site_fract_y
 _atom_site_fract_z
 _atom_site_occupancy
  Ce  Ce0  1  0.976349  0.339517  0.339517  1
  Ce  Ce1  1  0.344616  0.339517  0.339517  1
  Pr  Pr2  1  0.558911  0.556946  0.942599  1
  Pr  Pr3  1  0.941544  0.556946  0.942599  1
  Pr  Pr4  1  0.557338  0.942662  0.942662  1
  Pr  Pr5  1  0.941544  0.942599  0.556946  1
  Pr  Pr6  1  0.558911  0.942599  0.556946  1
  Pr  Pr7  1  0.941158  0.558842  0.558842  1
  Er  Er8  1  0.185733  0.186685  0.814856  1
  Er  Er9  1  0.812726  0.186685  0.814856  1
  Er  Er10  1  0.185964  0.814036  0.814035  1
  Er  Er11  1  0.812726  0.814857  0.186685  1
  Er  Er12  1  0.185732  0.814856  0.186684  1
  Er  Er13  1  0.814013  0.185987  0.185987  1
  Er  Er14  1  0.347856  0.347344  0.956946  1
  Er  Er15  1  0.347856  0.956946  0.347344  1
  Cd  Cd16  1  0.578903  0.578410  0.263781  1
  Cd  Cd17  1  0.578903  0.263781  0.578410  1
  Cd  Cd18  1  0.264324  0.578598  0.578598  1
  Cd  Cd19  1  0.578478  0.578598  0.578598  1
  Ru  Ru20  1  0.138854  0.149524  0.572766  1
  Ru  Ru21  1  0.138854  0.572766  0.149524  1
  Ru  Ru22  1  0.575183  0.145648  0.145648  1
  Ru  Ru23  1  0.133521  0.145648  0.145648  1
