# generated using pymatgen
data_K2Rb4DyInSb4
_symmetry_space_group_name_H-M   'P 1'
_cell_length_a   10.15631652
_cell_length_b   10.15631792
_cell_length_c   10.15631744
_cell_angle_alpha   131.56337970
_cell_angle_beta   66.46594505
_cell_angle_gamma   137.37874706
_symmetry_Int_Tables_number   1
_chemical_formula_structural   K2Rb4DyInSb4
_chemical_formula_sum   'K2 Rb4 Dy1 In1 Sb4'
_cell_volume   522.55608649
_cell_formula_units_Z   1
loop_
 _symmetry_equiv_pos_site_id
 _symmetry_equiv_pos_as_xyz
  1  'x, y, z'
loop_
 _atom_site_type_symbol
 _atom_site_label
 _atom_site_symmetry_multiplicity
 _atom_site_fract_x
 _atom_site_fract_y
 _atom_site_fract_z
 _atom_site_occupancy
  K  K0  1  0.250001  0.250001  0.000000  1
  K  K1  1  0.750000  0.750000  0.000000  1
  Rb  Rb2  1  0.827729  0.287674  0.100636  1
  Rb  Rb3  1  0.672271  0.772906  0.459945  1
  Rb  Rb4  1  0.312961  0.212325  0.540055  1
  Rb  Rb5  1  0.187039  0.727093  0.899364  1
  Dy  Dy6  1  0.750001  0.250001  0.500000  1
  In  In7  1  0.250001  0.750001  0.500000  1
  Sb  Sb8  1  0.393002  0.793345  0.199063  1
  Sb  Sb9  1  0.106998  0.306060  0.400343  1
  Sb  Sb10  1  0.905717  0.706655  0.599657  1
  Sb  Sb11  1  0.594283  0.193940  0.800937  1
