# generated using pymatgen
data_Sc4Al3Os3Ru2
_symmetry_space_group_name_H-M   'P 1'
_cell_length_a   5.22532600
_cell_length_b   5.18236047
_cell_length_c   8.58490800
_cell_angle_alpha   90.00000000
_cell_angle_beta   90.00000000
_cell_angle_gamma   120.27463604
_symmetry_Int_Tables_number   1
_chemical_formula_structural   Sc4Al3Os3Ru2
_chemical_formula_sum   'Sc4 Al3 Os3 Ru2'
_cell_volume   200.76996746
_cell_formula_units_Z   1
loop_
 _symmetry_equiv_pos_site_id
 _symmetry_equiv_pos_as_xyz
  1  'x, y, z'
loop_
 _atom_site_type_symbol
 _atom_site_label
 _atom_site_symmetry_multiplicity
 _atom_site_fract_x
 _atom_site_fract_y
 _atom_site_fract_z
 _atom_site_occupancy
  Sc  Sc0  1  0.326760  0.653520  0.056894  1
  Sc  Sc1  1  0.669829  0.339657  0.566652  1
  Sc  Sc2  1  0.326760  0.653520  0.443106  1
  Sc  Sc3  1  0.669829  0.339657  0.933348  1
  Al  Al4  1  0.342174  0.182871  0.250000  1
  Al  Al5  1  0.840699  0.182871  0.250000  1
  Al  Al6  1  0.164668  0.329338  0.750000  1
  Os  Os7  1  0.834498  0.668996  0.250000  1
  Os  Os8  1  0.177472  0.828431  0.750000  1
  Os  Os9  1  0.650957  0.828431  0.750000  1
  Ru  Ru10  1  0.998177  0.996354  0.498127  1
  Ru  Ru11  1  0.998177  0.996354  0.001873  1
