# generated using pymatgen
data_CaLu7B24(OsRu)2
_symmetry_space_group_name_H-M   'P 1'
_cell_length_a   3.59861400
_cell_length_b   9.04604114
_cell_length_c   11.42618321
_cell_angle_alpha   89.85950930
_cell_angle_beta   90.00000000
_cell_angle_gamma   90.00000000
_symmetry_Int_Tables_number   1
_chemical_formula_structural   CaLu7B24(OsRu)2
_chemical_formula_sum   'Ca1 Lu7 B24 Os2 Ru2'
_cell_volume   371.95782672
_cell_formula_units_Z   1
loop_
 _symmetry_equiv_pos_site_id
 _symmetry_equiv_pos_as_xyz
  1  'x, y, z'
loop_
 _atom_site_type_symbol
 _atom_site_label
 _atom_site_symmetry_multiplicity
 _atom_site_fract_x
 _atom_site_fract_y
 _atom_site_fract_z
 _atom_site_occupancy
  Ca  Ca0  1  0.000000  0.321554  0.413749  1
  Lu  Lu1  1  0.000000  0.677236  0.585002  1
  Lu  Lu2  1  0.000000  0.821352  0.086606  1
  Lu  Lu3  1  0.000000  0.179383  0.914349  1
  Lu  Lu4  1  0.000000  0.944314  0.371788  1
  Lu  Lu5  1  0.000000  0.056887  0.627780  1
  Lu  Lu6  1  0.000000  0.442894  0.128203  1
  Lu  Lu7  1  0.000000  0.556605  0.873006  1
  B  B8  1  0.500000  0.554603  0.433324  1
  B  B9  1  0.500000  0.447110  0.567617  1
  B  B10  1  0.500000  0.052824  0.065521  1
  B  B11  1  0.500000  0.946179  0.933470  1
  B  B12  1  0.500000  0.749747  0.419841  1
  B  B13  1  0.500000  0.250640  0.581662  1
  B  B14  1  0.500000  0.248461  0.079391  1
  B  B15  1  0.500000  0.751030  0.920388  1
  B  B16  1  0.500000  0.792780  0.265262  1
  B  B17  1  0.500000  0.208246  0.735392  1
  B  B18  1  0.500000  0.290486  0.232890  1
  B  B19  1  0.500000  0.708488  0.765940  1
  B  B20  1  0.500000  0.631695  0.184593  1
  B  B21  1  0.500000  0.369260  0.816194  1
  B  B22  1  0.500000  0.129804  0.314112  1
  B  B23  1  0.500000  0.868864  0.684463  1
  B  B24  1  0.500000  0.981606  0.211805  1
  B  B25  1  0.500000  0.017961  0.787302  1
  B  B26  1  0.500000  0.482857  0.286710  1
  B  B27  1  0.500000  0.518662  0.713370  1
  B  B28  1  0.500000  0.606088  0.029351  1
  B  B29  1  0.500000  0.394313  0.971028  1
  B  B30  1  0.500000  0.101375  0.471986  1
  B  B31  1  0.500000  0.895851  0.528804  1
  Os  Os32  1  0.000000  0.640312  0.319897  1
  Os  Os33  1  0.000000  0.362186  0.681174  1
  Ru  Ru34  1  0.000000  0.136137  0.177132  1
  Ru  Ru35  1  0.000000  0.862213  0.820899  1
