# generated using pymatgen
data_Pr16Dy3ErSn16
_symmetry_space_group_name_H-M   'P 1'
_cell_length_a   8.27925811
_cell_length_b   8.44000641
_cell_length_c   16.04056100
_cell_angle_alpha   90.00000000
_cell_angle_beta   90.00000000
_cell_angle_gamma   89.99162800
_symmetry_Int_Tables_number   1
_chemical_formula_structural   Pr16Dy3ErSn16
_chemical_formula_sum   'Pr16 Dy3 Er1 Sn16'
_cell_volume   1120.86613392
_cell_formula_units_Z   1
loop_
 _symmetry_equiv_pos_site_id
 _symmetry_equiv_pos_as_xyz
  1  'x, y, z'
loop_
 _atom_site_type_symbol
 _atom_site_label
 _atom_site_symmetry_multiplicity
 _atom_site_fract_x
 _atom_site_fract_y
 _atom_site_fract_z
 _atom_site_occupancy
  Pr  Pr0  1  0.367757  0.836529  0.878504  1
  Pr  Pr1  1  0.868108  0.663182  0.621424  1
  Pr  Pr2  1  0.632102  0.163380  0.378570  1
  Pr  Pr3  1  0.132075  0.336639  0.121241  1
  Pr  Pr4  1  0.632102  0.163380  0.121430  1
  Pr  Pr5  1  0.132075  0.336639  0.378759  1
  Pr  Pr6  1  0.367757  0.836529  0.621496  1
  Pr  Pr7  1  0.868108  0.663182  0.878576  1
  Pr  Pr8  1  0.520301  0.319959  0.901689  1
  Pr  Pr9  1  0.020535  0.180317  0.598292  1
  Pr  Pr10  1  0.479596  0.680161  0.401803  1
  Pr  Pr11  1  0.979548  0.819841  0.098278  1
  Pr  Pr12  1  0.479596  0.680161  0.098197  1
  Pr  Pr13  1  0.979548  0.819841  0.401722  1
  Pr  Pr14  1  0.520301  0.319959  0.598311  1
  Pr  Pr15  1  0.020535  0.180317  0.901708  1
  Dy  Dy16  1  0.699130  0.998409  0.750000  1
  Dy  Dy17  1  0.800819  0.498294  0.250000  1
  Dy  Dy18  1  0.300832  0.001702  0.250000  1
  Er  Er19  1  0.199495  0.501825  0.750000  1
  Sn  Sn20  1  0.292664  0.034876  0.043194  1
  Sn  Sn21  1  0.792599  0.465005  0.456786  1
  Sn  Sn22  1  0.707379  0.965101  0.543304  1
  Sn  Sn23  1  0.207390  0.534713  0.956351  1
  Sn  Sn24  1  0.707379  0.965101  0.956696  1
  Sn  Sn25  1  0.207390  0.534713  0.543649  1
  Sn  Sn26  1  0.292664  0.034876  0.456806  1
  Sn  Sn27  1  0.792599  0.465005  0.043214  1
  Sn  Sn28  1  0.564419  0.615968  0.750000  1
  Sn  Sn29  1  0.065108  0.883537  0.750000  1
  Sn  Sn30  1  0.434944  0.383872  0.250000  1
  Sn  Sn31  1  0.935074  0.116226  0.250000  1
  Sn  Sn32  1  0.327105  0.148290  0.750000  1
  Sn  Sn33  1  0.827392  0.352756  0.750000  1
  Sn  Sn34  1  0.672676  0.852370  0.250000  1
  Sn  Sn35  1  0.172904  0.647340  0.250000  1
