# generated using pymatgen
data_DyY2Cr(Co4P3)2
_symmetry_space_group_name_H-M   'P 1'
_cell_length_a   3.68907300
_cell_length_b   10.53299900
_cell_length_c   12.18825700
_cell_angle_alpha   90.00000000
_cell_angle_beta   90.00000000
_cell_angle_gamma   90.00000000
_symmetry_Int_Tables_number   1
_chemical_formula_structural   DyY2Cr(Co4P3)2
_chemical_formula_sum   'Dy2 Y4 Cr2 Co16 P12'
_cell_volume   473.59912931
_cell_formula_units_Z   2
loop_
 _symmetry_equiv_pos_site_id
 _symmetry_equiv_pos_as_xyz
  1  'x, y, z'
loop_
 _atom_site_type_symbol
 _atom_site_label
 _atom_site_symmetry_multiplicity
 _atom_site_fract_x
 _atom_site_fract_y
 _atom_site_fract_z
 _atom_site_occupancy
  Dy  Dy0  1  0.500000  0.818038  0.204850  1
  Dy  Dy1  1  0.500000  0.181962  0.204850  1
  Y  Y2  1  0.000000  0.500000  0.522638  1
  Y  Y3  1  0.500000  0.000000  0.477169  1
  Y  Y4  1  0.000000  0.682212  0.795182  1
  Y  Y5  1  0.000000  0.317788  0.795182  1
  Cr  Cr6  1  0.500000  0.500000  0.156403  1
  Cr  Cr7  1  0.000000  0.000000  0.843720  1
  Co  Co8  1  0.500000  0.500000  0.702574  1
  Co  Co9  1  0.000000  0.000000  0.297148  1
  Co  Co10  1  0.000000  0.500000  0.987164  1
  Co  Co11  1  0.500000  0.000000  0.013255  1
  Co  Co12  1  0.500000  0.332740  0.993091  1
  Co  Co13  1  0.500000  0.667260  0.993091  1
  Co  Co14  1  0.000000  0.166992  0.007264  1
  Co  Co15  1  0.000000  0.833008  0.007264  1
  Co  Co16  1  0.500000  0.296331  0.430581  1
  Co  Co17  1  0.500000  0.703669  0.430581  1
  Co  Co18  1  0.000000  0.203587  0.569115  1
  Co  Co19  1  0.000000  0.796413  0.569115  1
  Co  Co20  1  0.500000  0.879679  0.709029  1
  Co  Co21  1  0.500000  0.120321  0.709029  1
  Co  Co22  1  0.000000  0.620465  0.290881  1
  Co  Co23  1  0.000000  0.379535  0.290881  1
  P  P24  1  0.500000  0.500000  0.882516  1
  P  P25  1  0.000000  0.000000  0.117676  1
  P  P26  1  0.500000  0.500000  0.344253  1
  P  P27  1  0.000000  0.000000  0.655713  1
  P  P28  1  0.500000  0.311078  0.615935  1
  P  P29  1  0.500000  0.688922  0.615935  1
  P  P30  1  0.000000  0.188951  0.383768  1
  P  P31  1  0.000000  0.811049  0.383768  1
  P  P32  1  0.500000  0.847798  0.892582  1
  P  P33  1  0.500000  0.152202  0.892582  1
  P  P34  1  0.000000  0.652613  0.107608  1
  P  P35  1  0.000000  0.347387  0.107608  1
