# generated using pymatgen
data_HoTm11Al(InFe)2
_symmetry_space_group_name_H-M   'P 1'
_cell_length_a   8.31334156
_cell_length_b   8.31334311
_cell_length_c   8.30661885
_cell_angle_alpha   109.78840368
_cell_angle_beta   109.78841198
_cell_angle_gamma   108.87183955
_symmetry_Int_Tables_number   1
_chemical_formula_structural   HoTm11Al(InFe)2
_chemical_formula_sum   'Ho1 Tm11 Al1 In2 Fe2'
_cell_volume   441.71109861
_cell_formula_units_Z   1
loop_
 _symmetry_equiv_pos_site_id
 _symmetry_equiv_pos_as_xyz
  1  'x, y, z'
loop_
 _atom_site_type_symbol
 _atom_site_label
 _atom_site_symmetry_multiplicity
 _atom_site_fract_x
 _atom_site_fract_y
 _atom_site_fract_z
 _atom_site_occupancy
  Ho  Ho0  1  0.695275  0.304725  0.000000  1
  Tm  Tm1  1  0.447705  0.203321  0.244805  1
  Tm  Tm2  1  0.551228  0.795116  0.755136  1
  Tm  Tm3  1  0.960019  0.203908  0.755136  1
  Tm  Tm4  1  0.202900  0.958516  0.755195  1
  Tm  Tm5  1  0.041484  0.797100  0.244805  1
  Tm  Tm6  1  0.796092  0.039981  0.244864  1
  Tm  Tm7  1  0.204884  0.448772  0.244864  1
  Tm  Tm8  1  0.796679  0.552295  0.755195  1
  Tm  Tm9  1  0.305344  0.305350  0.610694  1
  Tm  Tm10  1  0.694650  0.694656  0.389306  1
  Tm  Tm11  1  0.305213  0.694787  0.000000  1
  Al  Al12  1  0.999460  0.000540  0.000000  1
  In  In13  1  0.499919  0.999212  0.499131  1
  In  In14  1  0.000788  0.500081  0.500869  1
  Fe  Fe15  1  0.385636  0.387276  0.000000  1
  Fe  Fe16  1  0.612724  0.614364  0.000000  1
