# generated using pymatgen
data_Dy4Ho6Tm2Co5Bi
_symmetry_space_group_name_H-M   'P 1'
_cell_length_a   8.27102269
_cell_length_b   8.26051474
_cell_length_c   8.27102283
_cell_angle_alpha   110.78360009
_cell_angle_beta   110.84738337
_cell_angle_gamma   106.86394022
_symmetry_Int_Tables_number   1
_chemical_formula_structural   Dy4Ho6Tm2Co5Bi
_chemical_formula_sum   'Dy4 Ho6 Tm2 Co5 Bi1'
_cell_volume   434.06646718
_cell_formula_units_Z   1
loop_
 _symmetry_equiv_pos_site_id
 _symmetry_equiv_pos_as_xyz
  1  'x, y, z'
loop_
 _atom_site_type_symbol
 _atom_site_label
 _atom_site_symmetry_multiplicity
 _atom_site_fract_x
 _atom_site_fract_y
 _atom_site_fract_z
 _atom_site_occupancy
  Dy  Dy0  1  0.814948  0.710602  0.527187  1
  Dy  Dy1  1  0.185052  0.289398  0.472813  1
  Dy  Dy2  1  0.183417  0.710602  0.895654  1
  Dy  Dy3  1  0.816583  0.289398  0.104346  1
  Ho  Ho4  1  0.688333  0.997969  0.309637  1
  Ho  Ho5  1  0.311667  0.002031  0.690363  1
  Ho  Ho6  1  0.598177  0.792015  0.805033  1
  Ho  Ho7  1  0.401823  0.207985  0.194967  1
  Ho  Ho8  1  0.986981  0.792015  0.193838  1
  Ho  Ho9  1  0.013019  0.207985  0.806162  1
  Tm  Tm10  1  0.687819  0.377309  0.689492  1
  Tm  Tm11  1  0.312181  0.622691  0.310508  1
  Co  Co12  1  0.624330  0.000000  0.624330  1
  Co  Co13  1  0.375670  0.000000  0.375670  1
  Co  Co14  1  0.111843  0.611352  0.499509  1
  Co  Co15  1  0.888157  0.388648  0.500491  1
  Co  Co16  1  0.000000  0.000000  0.000000  1
  Bi  Bi17  1  0.500000  0.500000  0.000000  1
