# generated using pymatgen
data_YbHoSc2(Pt2O7)2
_symmetry_space_group_name_H-M   'P 1'
_cell_length_a   7.10276481
_cell_length_b   7.17192699
_cell_length_c   7.13884441
_cell_angle_alpha   60.24826199
_cell_angle_beta   60.16704777
_cell_angle_gamma   60.31849892
_symmetry_Int_Tables_number   1
_chemical_formula_structural   YbHoSc2(Pt2O7)2
_chemical_formula_sum   'Yb1 Ho1 Sc2 Pt4 O14'
_cell_volume   258.56683655
_cell_formula_units_Z   1
loop_
 _symmetry_equiv_pos_site_id
 _symmetry_equiv_pos_as_xyz
  1  'x, y, z'
loop_
 _atom_site_type_symbol
 _atom_site_label
 _atom_site_symmetry_multiplicity
 _atom_site_fract_x
 _atom_site_fract_y
 _atom_site_fract_z
 _atom_site_occupancy
  Yb  Yb0  1  0.625000  0.125000  0.625000  1
  Ho  Ho1  1  0.625000  0.625000  0.125000  1
  Sc  Sc2  1  0.625000  0.625000  0.625000  1
  Sc  Sc3  1  0.125000  0.625000  0.625000  1
  Pt  Pt4  1  0.625000  0.125000  0.125000  1
  Pt  Pt5  1  0.125000  0.125000  0.125000  1
  Pt  Pt6  1  0.125000  0.625000  0.125000  1
  Pt  Pt7  1  0.125000  0.125000  0.625000  1
  O  O8  1  0.032059  0.468188  0.467694  1
  O  O9  1  0.781531  0.780813  0.224916  1
  O  O10  1  0.783483  0.222089  0.210943  1
  O  O11  1  0.037259  0.469187  0.025084  1
  O  O12  1  0.465518  0.021377  0.466220  1
  O  O13  1  0.763605  0.732435  0.740354  1
  O  O14  1  0.046886  0.021377  0.466220  1
  O  O15  1  0.784482  0.228623  0.783780  1
  O  O16  1  0.486395  0.517565  0.509646  1
  O  O17  1  0.203114  0.228623  0.783780  1
  O  O18  1  0.212741  0.780813  0.224916  1
  O  O19  1  0.466517  0.027911  0.039057  1
  O  O20  1  0.468469  0.469187  0.025084  1
  O  O21  1  0.217941  0.781812  0.782306  1
