# generated using pymatgen
data_Y3Sn3Hg2
_symmetry_space_group_name_H-M   'P 1'
_cell_length_a   6.43471112
_cell_length_b   6.43471130
_cell_length_c   10.26610400
_cell_angle_alpha   90.00000000
_cell_angle_beta   90.00000000
_cell_angle_gamma   102.93320820
_symmetry_Int_Tables_number   1
_chemical_formula_structural   Y3Sn3Hg2
_chemical_formula_sum   'Y6 Sn6 Hg4'
_cell_volume   414.28984204
_cell_formula_units_Z   2
loop_
 _symmetry_equiv_pos_site_id
 _symmetry_equiv_pos_as_xyz
  1  'x, y, z'
loop_
 _atom_site_type_symbol
 _atom_site_label
 _atom_site_symmetry_multiplicity
 _atom_site_fract_x
 _atom_site_fract_y
 _atom_site_fract_z
 _atom_site_occupancy
  Y  Y0  1  0.620985  0.620985  0.250000  1
  Y  Y1  1  0.379015  0.379015  0.750000  1
  Y  Y2  1  0.795138  0.204862  0.000000  1
  Y  Y3  1  0.204862  0.795138  0.000000  1
  Y  Y4  1  0.204862  0.795138  0.500000  1
  Y  Y5  1  0.795138  0.204862  0.500000  1
  Sn  Sn6  1  0.065972  0.496820  0.250000  1
  Sn  Sn7  1  0.934028  0.503180  0.750000  1
  Sn  Sn8  1  0.496820  0.065972  0.250000  1
  Sn  Sn9  1  0.503180  0.934028  0.750000  1
  Sn  Sn10  1  0.012716  0.012716  0.250000  1
  Sn  Sn11  1  0.987284  0.987284  0.750000  1
  Hg  Hg12  1  0.311375  0.311375  0.038092  1
  Hg  Hg13  1  0.688625  0.688625  0.961908  1
  Hg  Hg14  1  0.688625  0.688625  0.538092  1
  Hg  Hg15  1  0.311375  0.311375  0.461908  1
