# generated using pymatgen
data_Ho5Er15(Zn3Ru)2
_symmetry_space_group_name_H-M   'P 1'
_cell_length_a   9.34512951
_cell_length_b   9.34330596
_cell_length_c   9.54404200
_cell_angle_alpha   90.00000000
_cell_angle_beta   90.00000000
_cell_angle_gamma   119.96049081
_symmetry_Int_Tables_number   1
_chemical_formula_structural   Ho5Er15(Zn3Ru)2
_chemical_formula_sum   'Ho5 Er15 Zn6 Ru2'
_cell_volume   721.97412392
_cell_formula_units_Z   1
loop_
 _symmetry_equiv_pos_site_id
 _symmetry_equiv_pos_as_xyz
  1  'x, y, z'
loop_
 _atom_site_type_symbol
 _atom_site_label
 _atom_site_symmetry_multiplicity
 _atom_site_fract_x
 _atom_site_fract_y
 _atom_site_fract_z
 _atom_site_occupancy
  Ho  Ho0  1  0.540838  0.082031  0.250000  1
  Ho  Ho1  1  0.917953  0.459164  0.250000  1
  Ho  Ho2  1  0.459036  0.540952  0.750000  1
  Ho  Ho3  1  0.459014  0.918277  0.750000  1
  Ho  Ho4  1  0.081708  0.540951  0.750000  1
  Er  Er5  1  0.000078  0.999942  0.499894  1
  Er  Er6  1  0.000078  0.999942  0.000106  1
  Er  Er7  1  0.207829  0.792155  0.441736  1
  Er  Er8  1  0.207933  0.415525  0.441751  1
  Er  Er9  1  0.584491  0.792070  0.441736  1
  Er  Er10  1  0.792306  0.207726  0.558207  1
  Er  Er11  1  0.792026  0.584445  0.558103  1
  Er  Er12  1  0.415540  0.207976  0.558114  1
  Er  Er13  1  0.792306  0.207726  0.941793  1
  Er  Er14  1  0.792026  0.584445  0.941897  1
  Er  Er15  1  0.415540  0.207976  0.941886  1
  Er  Er16  1  0.207829  0.792155  0.058264  1
  Er  Er17  1  0.207933  0.415525  0.058249  1
  Er  Er18  1  0.584491  0.792070  0.058264  1
  Er  Er19  1  0.540811  0.459190  0.250000  1
  Zn  Zn20  1  0.886012  0.113943  0.250000  1
  Zn  Zn21  1  0.885550  0.771707  0.250000  1
  Zn  Zn22  1  0.228303  0.114432  0.250000  1
  Zn  Zn23  1  0.113996  0.886040  0.750000  1
  Zn  Zn24  1  0.114073  0.227932  0.750000  1
  Zn  Zn25  1  0.772060  0.885936  0.750000  1
  Ru  Ru26  1  0.333452  0.666510  0.250000  1
  Ru  Ru27  1  0.666789  0.333259  0.750000  1
