# generated using pymatgen
data_Hf6Ta4Mn2Al12FeCo4
_symmetry_space_group_name_H-M   'P 1'
_cell_length_a   8.58669853
_cell_length_b   8.57241063
_cell_length_c   8.56901800
_cell_angle_alpha   60.09890979
_cell_angle_beta   59.93260767
_cell_angle_gamma   59.94666571
_symmetry_Int_Tables_number   1
_chemical_formula_structural   Hf6Ta4Mn2Al12FeCo4
_chemical_formula_sum   'Hf6 Ta4 Mn2 Al12 Fe1 Co4'
_cell_volume   445.93480423
_cell_formula_units_Z   1
loop_
 _symmetry_equiv_pos_site_id
 _symmetry_equiv_pos_as_xyz
  1  'x, y, z'
loop_
 _atom_site_type_symbol
 _atom_site_label
 _atom_site_symmetry_multiplicity
 _atom_site_fract_x
 _atom_site_fract_y
 _atom_site_fract_z
 _atom_site_occupancy
  Hf  Hf0  1  0.697551  0.698514  0.302898  1
  Hf  Hf1  1  0.302067  0.696703  0.305718  1
  Hf  Hf2  1  0.690564  0.307437  0.311617  1
  Hf  Hf3  1  0.305767  0.303778  0.694467  1
  Hf  Hf4  1  0.695695  0.303233  0.693877  1
  Hf  Hf5  1  0.308089  0.692311  0.689860  1
  Ta  Ta6  1  0.879321  0.883724  0.358343  1
  Ta  Ta7  1  0.880773  0.356219  0.882152  1
  Ta  Ta8  1  0.357259  0.881545  0.878255  1
  Ta  Ta9  1  0.882900  0.881721  0.877620  1
  Mn  Mn10  1  0.000485  0.001006  0.998846  1
  Mn  Mn11  1  0.996783  0.995908  0.504384  1
  Al  Al12  1  0.120798  0.119421  0.639315  1
  Al  Al13  1  0.120263  0.640461  0.119368  1
  Al  Al14  1  0.639990  0.119772  0.120964  1
  Al  Al15  1  0.119587  0.119653  0.120831  1
  Al  Al16  1  0.661241  0.663338  0.013997  1
  Al  Al17  1  0.661958  0.008236  0.665909  1
  Al  Al18  1  0.009805  0.660741  0.664064  1
  Al  Al19  1  0.664113  0.661052  0.662740  1
  Al  Al20  1  0.335681  0.334998  0.993351  1
  Al  Al21  1  0.335382  0.000012  0.331802  1
  Al  Al22  1  0.997875  0.335975  0.333403  1
  Al  Al23  1  0.334327  0.334916  0.335241  1
  Fe  Fe24  1  0.502442  0.995545  0.504938  1
  Co  Co25  1  0.997174  0.501496  0.503846  1
  Co  Co26  1  0.503327  0.502610  0.997284  1
  Co  Co27  1  0.996578  0.502106  0.997689  1
  Co  Co28  1  0.502205  0.997571  0.997220  1
