# generated using pymatgen
data_Tm8Ta11Si16W
_symmetry_space_group_name_H-M   'P 1'
_cell_length_a   6.80183705
_cell_length_b   6.99784823
_cell_length_c   13.29700500
_cell_angle_alpha   90.00000000
_cell_angle_beta   90.00000000
_cell_angle_gamma   89.97821009
_symmetry_Int_Tables_number   1
_chemical_formula_structural   Tm8Ta11Si16W
_chemical_formula_sum   'Tm8 Ta11 Si16 W1'
_cell_volume   632.91376845
_cell_formula_units_Z   1
loop_
 _symmetry_equiv_pos_site_id
 _symmetry_equiv_pos_as_xyz
  1  'x, y, z'
loop_
 _atom_site_type_symbol
 _atom_site_label
 _atom_site_symmetry_multiplicity
 _atom_site_fract_x
 _atom_site_fract_y
 _atom_site_fract_z
 _atom_site_occupancy
  Tm  Tm0  1  0.501349  0.672234  0.595095  1
  Tm  Tm1  1  0.001088  0.827644  0.905080  1
  Tm  Tm2  1  0.499682  0.327530  0.095043  1
  Tm  Tm3  1  0.999630  0.172070  0.404997  1
  Tm  Tm4  1  0.499682  0.327530  0.404957  1
  Tm  Tm5  1  0.999630  0.172070  0.095003  1
  Tm  Tm6  1  0.501349  0.672234  0.904905  1
  Tm  Tm7  1  0.001088  0.827644  0.594920  1
  Ta  Ta8  1  0.662645  0.173898  0.625058  1
  Ta  Ta9  1  0.162903  0.326047  0.874665  1
  Ta  Ta10  1  0.336880  0.827741  0.126058  1
  Ta  Ta11  1  0.836363  0.673654  0.374068  1
  Ta  Ta12  1  0.336880  0.827741  0.373942  1
  Ta  Ta13  1  0.836363  0.673654  0.125932  1
  Ta  Ta14  1  0.662645  0.173898  0.874942  1
  Ta  Ta15  1  0.162903  0.326047  0.625335  1
  Ta  Ta16  1  0.837352  0.492110  0.750000  1
  Ta  Ta17  1  0.337967  0.008467  0.750000  1
  Ta  Ta18  1  0.162659  0.508646  0.250000  1
  Si  Si19  1  0.665870  0.962952  0.458444  1
  Si  Si20  1  0.165861  0.536591  0.040889  1
  Si  Si21  1  0.333716  0.036434  0.959655  1
  Si  Si22  1  0.834126  0.463591  0.540634  1
  Si  Si23  1  0.333716  0.036434  0.540345  1
  Si  Si24  1  0.834126  0.463591  0.959366  1
  Si  Si25  1  0.665870  0.962952  0.041556  1
  Si  Si26  1  0.165861  0.536591  0.459111  1
  Si  Si27  1  0.459678  0.380948  0.750000  1
  Si  Si28  1  0.958999  0.119946  0.750000  1
  Si  Si29  1  0.540434  0.619485  0.250000  1
  Si  Si30  1  0.037481  0.881730  0.250000  1
  Si  Si31  1  0.704193  0.868028  0.750000  1
  Si  Si32  1  0.203927  0.632528  0.750000  1
  Si  Si33  1  0.299378  0.132221  0.250000  1
  Si  Si34  1  0.796547  0.364412  0.250000  1
  W  W35  1  0.661155  0.990706  0.250000  1
