# generated using pymatgen
data_Y4Ti3Nb3Si8
_symmetry_space_group_name_H-M   'P 1'
_cell_length_a   7.06880704
_cell_length_b   7.06874969
_cell_length_c   13.00434539
_cell_angle_alpha   90.10867723
_cell_angle_beta   90.00445977
_cell_angle_gamma   90.01196568
_symmetry_Int_Tables_number   1
_chemical_formula_structural   Y4Ti3Nb3Si8
_chemical_formula_sum   'Y8 Ti6 Nb6 Si16'
_cell_volume   649.79510243
_cell_formula_units_Z   2
loop_
 _symmetry_equiv_pos_site_id
 _symmetry_equiv_pos_as_xyz
  1  'x, y, z'
loop_
 _atom_site_type_symbol
 _atom_site_label
 _atom_site_symmetry_multiplicity
 _atom_site_fract_x
 _atom_site_fract_y
 _atom_site_fract_z
 _atom_site_occupancy
  Y  Y0  1  0.341448  0.001044  0.466279  1
  Y  Y1  1  0.498704  0.841406  0.716309  1
  Y  Y2  1  0.501487  0.157678  0.216757  1
  Y  Y3  1  0.840095  0.499371  0.283536  1
  Y  Y4  1  0.158967  0.501083  0.782916  1
  Y  Y5  1  0.658093  0.998260  0.966662  1
  Y  Y6  1  0.000795  0.341100  0.533098  1
  Y  Y7  1  0.998795  0.660229  0.033299  1
  Ti  Ti8  1  0.509125  0.347274  0.624669  1
  Ti  Ti9  1  0.653108  0.490301  0.875586  1
  Ti  Ti10  1  0.348312  0.509051  0.375867  1
  Ti  Ti11  1  0.847331  0.990498  0.374092  1
  Ti  Ti12  1  0.009027  0.151916  0.125705  1
  Ti  Ti13  1  0.990531  0.847218  0.625976  1
  Nb  Nb14  1  0.327765  0.327877  0.000291  1
  Nb  Nb15  1  0.172398  0.827767  0.250401  1
  Nb  Nb16  1  0.828508  0.172246  0.749943  1
  Nb  Nb17  1  0.672090  0.671691  0.500065  1
  Nb  Nb18  1  0.152109  0.009113  0.874338  1
  Nb  Nb19  1  0.490628  0.652293  0.123722  1
  Si  Si20  1  0.204995  0.131256  0.682883  1
  Si  Si21  1  0.369661  0.704225  0.932591  1
  Si  Si22  1  0.630046  0.296571  0.434439  1
  Si  Si23  1  0.705565  0.366684  0.066642  1
  Si  Si24  1  0.296508  0.630154  0.565638  1
  Si  Si25  1  0.796967  0.870370  0.184387  1
  Si  Si26  1  0.130221  0.203658  0.316329  1
  Si  Si27  1  0.866908  0.794869  0.816071  1
  Si  Si28  1  0.291468  0.954152  0.063975  1
  Si  Si29  1  0.546945  0.792076  0.314317  1
  Si  Si30  1  0.454087  0.210265  0.812604  1
  Si  Si31  1  0.791555  0.546093  0.686315  1
  Si  Si32  1  0.207092  0.451978  0.187426  1
  Si  Si33  1  0.709517  0.046754  0.563183  1
  Si  Si34  1  0.952555  0.294184  0.936724  1
  Si  Si35  1  0.046598  0.709293  0.436966  1
