# generated using pymatgen
data_Li8Hf3NpBr24
_symmetry_space_group_name_H-M   'P 1'
_cell_length_a   6.80570600
_cell_length_b   6.80570586
_cell_length_c   27.43071000
_cell_angle_alpha   90.00000000
_cell_angle_beta   90.00000000
_cell_angle_gamma   120.00000278
_symmetry_Int_Tables_number   1
_chemical_formula_structural   Li8Hf3NpBr24
_chemical_formula_sum   'Li8 Hf3 Np1 Br24'
_cell_volume   1100.30738401
_cell_formula_units_Z   1
loop_
 _symmetry_equiv_pos_site_id
 _symmetry_equiv_pos_as_xyz
  1  'x, y, z'
loop_
 _atom_site_type_symbol
 _atom_site_label
 _atom_site_symmetry_multiplicity
 _atom_site_fract_x
 _atom_site_fract_y
 _atom_site_fract_z
 _atom_site_occupancy
  Li  Li0  1  0.000000  0.000000  0.250290  1
  Li  Li1  1  0.000000  0.000000  0.749710  1
  Li  Li2  1  0.333333  0.666667  0.000379  1
  Li  Li3  1  0.333333  0.666667  0.499589  1
  Li  Li4  1  0.333333  0.666667  0.250205  1
  Li  Li5  1  0.666667  0.333333  0.749795  1
  Li  Li6  1  0.666667  0.333333  0.999621  1
  Li  Li7  1  0.666667  0.333333  0.500411  1
  Hf  Hf8  1  0.000000  0.000000  0.500000  1
  Hf  Hf9  1  0.333333  0.666667  0.749632  1
  Hf  Hf10  1  0.666667  0.333333  0.250368  1
  Np  Np11  1  0.000000  0.000000  0.000000  1
  Br  Br12  1  0.350166  0.016611  0.305357  1
  Br  Br13  1  0.333315  0.983915  0.804503  1
  Br  Br14  1  0.000064  0.335759  0.057376  1
  Br  Br15  1  0.999781  0.316790  0.554993  1
  Br  Br16  1  0.983389  0.333556  0.305357  1
  Br  Br17  1  0.016085  0.349398  0.804503  1
  Br  Br18  1  0.349398  0.333315  0.195497  1
  Br  Br19  1  0.333556  0.350166  0.694643  1
  Br  Br20  1  0.316790  0.317009  0.445007  1
  Br  Br21  1  0.335759  0.335694  0.942624  1
  Br  Br22  1  0.682991  0.999781  0.445007  1
  Br  Br23  1  0.335694  0.999936  0.057376  1
  Br  Br24  1  0.317009  0.000219  0.554993  1
  Br  Br25  1  0.664241  0.664306  0.057376  1
  Br  Br26  1  0.683210  0.682991  0.554993  1
  Br  Br27  1  0.666444  0.649834  0.305357  1
  Br  Br28  1  0.650602  0.666685  0.804503  1
  Br  Br29  1  0.983915  0.650602  0.195497  1
  Br  Br30  1  0.016611  0.666444  0.694643  1
  Br  Br31  1  0.000219  0.683210  0.445007  1
  Br  Br32  1  0.999936  0.664241  0.942624  1
  Br  Br33  1  0.664306  0.000064  0.942624  1
  Br  Br34  1  0.666685  0.016085  0.195497  1
  Br  Br35  1  0.649834  0.983389  0.694643  1
