# generated using pymatgen
data_K8Ti3GeO12
_symmetry_space_group_name_H-M   'P 1'
_cell_length_a   6.41157400
_cell_length_b   6.41157384
_cell_length_c   12.74007400
_cell_angle_alpha   90.00000000
_cell_angle_beta   90.00000000
_cell_angle_gamma   54.73370466
_symmetry_Int_Tables_number   1
_chemical_formula_structural   K8Ti3GeO12
_chemical_formula_sum   'K8 Ti3 Ge1 O12'
_cell_volume   427.60759901
_cell_formula_units_Z   1
loop_
 _symmetry_equiv_pos_site_id
 _symmetry_equiv_pos_as_xyz
  1  'x, y, z'
loop_
 _atom_site_type_symbol
 _atom_site_label
 _atom_site_symmetry_multiplicity
 _atom_site_fract_x
 _atom_site_fract_y
 _atom_site_fract_z
 _atom_site_occupancy
  K  K0  1  0.371101  0.371101  0.075658  1
  K  K1  1  0.052978  0.052978  0.138902  1
  K  K2  1  0.555701  0.555701  0.360404  1
  K  K3  1  0.869385  0.869385  0.424154  1
  K  K4  1  0.131105  0.131105  0.573513  1
  K  K5  1  0.446626  0.446626  0.637835  1
  K  K6  1  0.945357  0.945357  0.864007  1
  K  K7  1  0.631283  0.631283  0.928119  1
  Ti  Ti8  1  0.246295  0.246295  0.330433  1
  Ti  Ti9  1  0.753541  0.753541  0.665406  1
  Ti  Ti10  1  0.253492  0.253492  0.834684  1
  Ge  Ge11  1  0.744394  0.744394  0.164338  1
  O  O12  1  0.838027  0.838027  0.056117  1
  O  O13  1  0.593079  0.593079  0.142343  1
  O  O14  1  0.542697  0.023084  0.248280  1
  O  O15  1  0.023084  0.542697  0.248280  1
  O  O16  1  0.094971  0.094971  0.362564  1
  O  O17  1  0.335133  0.335133  0.445080  1
  O  O18  1  0.664782  0.664782  0.550459  1
  O  O19  1  0.906584  0.906584  0.636226  1
  O  O20  1  0.964499  0.464612  0.750004  1
  O  O21  1  0.464612  0.964499  0.750004  1
  O  O22  1  0.406652  0.406652  0.863746  1
  O  O23  1  0.164623  0.164623  0.949445  1
