# generated using pymatgen
data_Ta2Mn2BeCr
_symmetry_space_group_name_H-M   'P 1'
_cell_length_a   4.75200834
_cell_length_b   4.75200831
_cell_length_c   7.90594200
_cell_angle_alpha   90.00000000
_cell_angle_beta   90.00000000
_cell_angle_gamma   120.14770590
_symmetry_Int_Tables_number   1
_chemical_formula_structural   Ta2Mn2BeCr
_chemical_formula_sum   'Ta4 Mn4 Be2 Cr2'
_cell_volume   154.37974478
_cell_formula_units_Z   2
loop_
 _symmetry_equiv_pos_site_id
 _symmetry_equiv_pos_as_xyz
  1  'x, y, z'
loop_
 _atom_site_type_symbol
 _atom_site_label
 _atom_site_symmetry_multiplicity
 _atom_site_fract_x
 _atom_site_fract_y
 _atom_site_fract_z
 _atom_site_occupancy
  Ta  Ta0  1  0.333305  0.666695  0.189031  1
  Ta  Ta1  1  0.666884  0.333116  0.315670  1
  Ta  Ta2  1  0.666884  0.333116  0.684330  1
  Ta  Ta3  1  0.333305  0.666695  0.810969  1
  Mn  Mn4  1  0.832761  0.167239  0.000000  1
  Mn  Mn5  1  0.167973  0.333988  0.500000  1
  Mn  Mn6  1  0.666012  0.832027  0.500000  1
  Mn  Mn7  1  0.167716  0.832284  0.500000  1
  Be  Be8  1  0.998783  0.001217  0.251958  1
  Be  Be9  1  0.998783  0.001217  0.748042  1
  Cr  Cr10  1  0.831187  0.663586  0.000000  1
  Cr  Cr11  1  0.336414  0.168813  0.000000  1
