# generated using pymatgen
data_Ba3P4(WO9)2
_symmetry_space_group_name_H-M   'P 1'
_cell_length_a   4.96729048
_cell_length_b   9.26269018
_cell_length_c   9.57037033
_cell_angle_alpha   88.30936120
_cell_angle_beta   100.79851771
_cell_angle_gamma   101.99147659
_symmetry_Int_Tables_number   1
_chemical_formula_structural   Ba3P4(WO9)2
_chemical_formula_sum   'Ba3 P4 W2 O18'
_cell_volume   423.08080767
_cell_formula_units_Z   1
loop_
 _symmetry_equiv_pos_site_id
 _symmetry_equiv_pos_as_xyz
  1  'x, y, z'
loop_
 _atom_site_type_symbol
 _atom_site_label
 _atom_site_symmetry_multiplicity
 _atom_site_fract_x
 _atom_site_fract_y
 _atom_site_fract_z
 _atom_site_occupancy
  Ba  Ba0  1  0.042523  0.284505  0.908947  1
  Ba  Ba1  1  0.500000  0.500000  0.500000  1
  Ba  Ba2  1  0.957477  0.715495  0.091053  1
  P  P3  1  0.809988  0.366137  0.218932  1
  P  P4  1  0.692117  0.870752  0.360462  1
  P  P5  1  0.307883  0.129248  0.639538  1
  P  P6  1  0.190012  0.633863  0.781068  1
  W  W7  1  0.743975  0.888161  0.725067  1
  W  W8  1  0.256025  0.111839  0.274933  1
  O  O9  1  0.566543  0.009358  0.361968  1
  O  O10  1  0.010244  0.507614  0.683440  1
  O  O11  1  0.743697  0.928964  0.905736  1
  O  O12  1  0.248092  0.184088  0.483444  1
  O  O13  1  0.953407  0.232446  0.210760  1
  O  O14  1  0.981697  0.919470  0.310287  1
  O  O15  1  0.460703  0.690611  0.714510  1
  O  O16  1  0.271684  0.584249  0.934822  1
  O  O17  1  0.256303  0.071036  0.094264  1
  O  O18  1  0.433457  0.990642  0.638032  1
  O  O19  1  0.484363  0.255448  0.736297  1
  O  O20  1  0.751908  0.815912  0.516556  1
  O  O21  1  0.046593  0.767554  0.789240  1
  O  O22  1  0.018303  0.080530  0.689713  1
  O  O23  1  0.728316  0.415751  0.065178  1
  O  O24  1  0.989756  0.492386  0.316560  1
  O  O25  1  0.515637  0.744552  0.263703  1
  O  O26  1  0.539297  0.309389  0.285490  1
