# generated using pymatgen
data_Ho4Re7Mo
_symmetry_space_group_name_H-M   'P 1'
_cell_length_a   5.43251100
_cell_length_b   5.43250992
_cell_length_c   8.84696000
_cell_angle_alpha   90.00000000
_cell_angle_beta   90.00000000
_cell_angle_gamma   120.00001265
_symmetry_Int_Tables_number   1
_chemical_formula_structural   Ho4Re7Mo
_chemical_formula_sum   'Ho4 Re7 Mo1'
_cell_volume   226.11313045
_cell_formula_units_Z   1
loop_
 _symmetry_equiv_pos_site_id
 _symmetry_equiv_pos_as_xyz
  1  'x, y, z'
loop_
 _atom_site_type_symbol
 _atom_site_label
 _atom_site_symmetry_multiplicity
 _atom_site_fract_x
 _atom_site_fract_y
 _atom_site_fract_z
 _atom_site_occupancy
  Ho  Ho0  1  0.333333  0.666667  0.436676  1
  Ho  Ho1  1  0.666667  0.333333  0.563324  1
  Ho  Ho2  1  0.666667  0.333333  0.937449  1
  Ho  Ho3  1  0.333333  0.666667  0.062551  1
  Re  Re4  1  0.000000  0.000000  0.000000  1
  Re  Re5  1  0.828242  0.171758  0.249135  1
  Re  Re6  1  0.828242  0.656484  0.249135  1
  Re  Re7  1  0.343516  0.171758  0.249135  1
  Re  Re8  1  0.171758  0.828242  0.750865  1
  Re  Re9  1  0.171758  0.343516  0.750865  1
  Re  Re10  1  0.656484  0.828242  0.750865  1
  Mo  Mo11  1  0.000000  0.000000  0.500000  1
