# generated using pymatgen
data_La3Pr3NdIr3
_symmetry_space_group_name_H-M   'P 1'
_cell_length_a   10.24578000
_cell_length_b   10.24577984
_cell_length_c   6.46833800
_cell_angle_alpha   90.00000000
_cell_angle_beta   90.00000000
_cell_angle_gamma   120.00000697
_symmetry_Int_Tables_number   1
_chemical_formula_structural   La3Pr3NdIr3
_chemical_formula_sum   'La6 Pr6 Nd2 Ir6'
_cell_volume   588.04877935
_cell_formula_units_Z   2
loop_
 _symmetry_equiv_pos_site_id
 _symmetry_equiv_pos_as_xyz
  1  'x, y, z'
loop_
 _atom_site_type_symbol
 _atom_site_label
 _atom_site_symmetry_multiplicity
 _atom_site_fract_x
 _atom_site_fract_y
 _atom_site_fract_z
 _atom_site_occupancy
  La  La0  1  0.126645  0.873355  0.253936  1
  La  La1  1  0.746710  0.873355  0.253936  1
  La  La2  1  0.126645  0.253290  0.253936  1
  La  La3  1  0.873355  0.126645  0.753936  1
  La  La4  1  0.253290  0.126645  0.753936  1
  La  La5  1  0.873355  0.746710  0.753936  1
  Pr  Pr6  1  0.540561  0.459439  0.439490  1
  Pr  Pr7  1  0.918878  0.459439  0.439490  1
  Pr  Pr8  1  0.540561  0.081122  0.439490  1
  Pr  Pr9  1  0.459439  0.540561  0.939490  1
  Pr  Pr10  1  0.081122  0.540561  0.939490  1
  Pr  Pr11  1  0.459439  0.918878  0.939490  1
  Nd  Nd12  1  0.333333  0.666667  0.470275  1
  Nd  Nd13  1  0.666667  0.333333  0.970275  1
  Ir  Ir14  1  0.812618  0.187382  0.183497  1
  Ir  Ir15  1  0.374763  0.187382  0.183497  1
  Ir  Ir16  1  0.812618  0.625237  0.183497  1
  Ir  Ir17  1  0.187382  0.812618  0.683497  1
  Ir  Ir18  1  0.625237  0.812618  0.683497  1
  Ir  Ir19  1  0.187382  0.374763  0.683497  1
