# generated using pymatgen
data_Y3ErAl24CuPd8
_symmetry_space_group_name_H-M   'P 1'
_cell_length_a   7.54170253
_cell_length_b   7.56323497
_cell_length_c   13.12770107
_cell_angle_alpha   84.60194414
_cell_angle_beta   79.02468338
_cell_angle_gamma   59.92301702
_symmetry_Int_Tables_number   1
_chemical_formula_structural   Y3ErAl24CuPd8
_chemical_formula_sum   'Y3 Er1 Al24 Cu1 Pd8'
_cell_volume   636.12321511
_cell_formula_units_Z   1
loop_
 _symmetry_equiv_pos_site_id
 _symmetry_equiv_pos_as_xyz
  1  'x, y, z'
loop_
 _atom_site_type_symbol
 _atom_site_label
 _atom_site_symmetry_multiplicity
 _atom_site_fract_x
 _atom_site_fract_y
 _atom_site_fract_z
 _atom_site_occupancy
  Y  Y0  1  0.392552  0.169219  0.807938  1
  Y  Y1  1  0.606502  0.831855  0.191751  1
  Y  Y2  1  0.734562  0.498145  0.807759  1
  Er  Er3  1  0.266369  0.501626  0.192516  1
  Al  Al4  1  0.684613  0.833361  0.944875  1
  Al  Al5  1  0.315500  0.166726  0.055811  1
  Al  Al6  1  0.145429  0.834680  0.561759  1
  Al  Al7  1  0.855036  0.166759  0.436249  1
  Al  Al8  1  0.479543  0.167583  0.559834  1
  Al  Al9  1  0.520474  0.833715  0.439586  1
  Al  Al10  1  0.217656  0.165640  0.329311  1
  Al  Al11  1  0.785789  0.831674  0.670010  1
  Al  Al12  1  0.433529  0.506993  0.670328  1
  Al  Al13  1  0.563405  0.493499  0.328654  1
  Al  Al14  1  0.109650  0.162100  0.668818  1
  Al  Al15  1  0.890736  0.840218  0.330271  1
  Al  Al16  1  0.352260  0.499481  0.945287  1
  Al  Al17  1  0.646727  0.500435  0.055895  1
  Al  Al18  1  0.014793  0.167051  0.955614  1
  Al  Al19  1  0.984925  0.831868  0.046268  1
  Al  Al20  1  0.186361  0.500702  0.442022  1
  Al  Al21  1  0.813839  0.499988  0.559697  1
  Al  Al22  1  0.732572  0.165058  0.184367  1
  Al  Al23  1  0.266041  0.835484  0.815839  1
  Al  Al24  1  0.062306  0.628952  0.813141  1
  Al  Al25  1  0.939350  0.369441  0.185476  1
  Al  Al26  1  0.855606  0.040993  0.815565  1
  Al  Al27  1  0.144259  0.957361  0.184216  1
  Cu  Cu28  1  0.119289  0.491583  0.639575  1
  Pd  Pd29  1  0.880642  0.507875  0.362708  1
  Pd  Pd30  1  0.657089  0.171278  0.999796  1
  Pd  Pd31  1  0.343128  0.828155  0.999813  1
  Pd  Pd32  1  0.536467  0.168242  0.362854  1
  Pd  Pd33  1  0.462232  0.833154  0.637259  1
  Pd  Pd34  1  0.779098  0.174905  0.636671  1
  Pd  Pd35  1  0.221430  0.824226  0.362780  1
  Pd  Pd36  1  0.000243  0.499975  0.999690  1
