# generated using pymatgen
data_Pr20Sn12C
_symmetry_space_group_name_H-M   'P 1'
_cell_length_a   6.91592005
_cell_length_b   9.37454606
_cell_length_c   16.29534600
_cell_angle_alpha   90.00000611
_cell_angle_beta   90.00000000
_cell_angle_gamma   89.91344931
_symmetry_Int_Tables_number   1
_chemical_formula_structural   Pr20Sn12C
_chemical_formula_sum   'Pr20 Sn12 C1'
_cell_volume   1056.48491901
_cell_formula_units_Z   1
loop_
 _symmetry_equiv_pos_site_id
 _symmetry_equiv_pos_as_xyz
  1  'x, y, z'
loop_
 _atom_site_type_symbol
 _atom_site_label
 _atom_site_symmetry_multiplicity
 _atom_site_fract_x
 _atom_site_fract_y
 _atom_site_fract_z
 _atom_site_occupancy
  Pr  Pr0  1  0.499971  0.000115  0.335368  1
  Pr  Pr1  1  0.500041  0.499978  0.829552  1
  Pr  Pr2  1  0.500041  0.499978  0.170448  1
  Pr  Pr3  1  0.499971  0.000115  0.664632  1
  Pr  Pr4  1  0.000049  0.500002  0.162660  1
  Pr  Pr5  1  0.999954  0.999989  0.671663  1
  Pr  Pr6  1  0.999954  0.999989  0.328337  1
  Pr  Pr7  1  0.000049  0.500002  0.837340  1
  Pr  Pr8  1  0.722699  0.228060  0.000000  1
  Pr  Pr9  1  0.751029  0.744929  0.500000  1
  Pr  Pr10  1  0.751691  0.377745  0.378665  1
  Pr  Pr11  1  0.723764  0.883814  0.885509  1
  Pr  Pr12  1  0.723764  0.883814  0.114491  1
  Pr  Pr13  1  0.751691  0.377745  0.621335  1
  Pr  Pr14  1  0.277368  0.771869  0.000000  1
  Pr  Pr15  1  0.248926  0.255146  0.500000  1
  Pr  Pr16  1  0.276233  0.116154  0.114495  1
  Pr  Pr17  1  0.248355  0.622250  0.621319  1
  Pr  Pr18  1  0.248355  0.622250  0.378681  1
  Pr  Pr19  1  0.276233  0.116154  0.885505  1
  Sn  Sn20  1  0.740670  0.598566  0.000000  1
  Sn  Sn21  1  0.756716  0.104185  0.500000  1
  Sn  Sn22  1  0.746559  0.199554  0.199656  1
  Sn  Sn23  1  0.752249  0.697828  0.697441  1
  Sn  Sn24  1  0.752249  0.697828  0.302559  1
  Sn  Sn25  1  0.746559  0.199554  0.800344  1
  Sn  Sn26  1  0.259428  0.401355  0.000000  1
  Sn  Sn27  1  0.243309  0.895877  0.500000  1
  Sn  Sn28  1  0.247616  0.302185  0.302586  1
  Sn  Sn29  1  0.253447  0.800419  0.800318  1
  Sn  Sn30  1  0.253447  0.800419  0.199682  1
  Sn  Sn31  1  0.247616  0.302185  0.697414  1
  C  C32  1  0.499999  0.999951  0.000000  1
