# generated using pymatgen
data_Er5Co11(As3Ru2)4
_symmetry_space_group_name_H-M   'P 1'
_cell_length_a   12.68262639
_cell_length_b   12.68469267
_cell_length_c   3.83729900
_cell_angle_alpha   90.00000000
_cell_angle_beta   90.00000000
_cell_angle_gamma   119.92132977
_symmetry_Int_Tables_number   1
_chemical_formula_structural   Er5Co11(As3Ru2)4
_chemical_formula_sum   'Er5 Co11 As12 Ru8'
_cell_volume   535.04357697
_cell_formula_units_Z   1
loop_
 _symmetry_equiv_pos_site_id
 _symmetry_equiv_pos_as_xyz
  1  'x, y, z'
loop_
 _atom_site_type_symbol
 _atom_site_label
 _atom_site_symmetry_multiplicity
 _atom_site_fract_x
 _atom_site_fract_y
 _atom_site_fract_z
 _atom_site_occupancy
  Er  Er0  1  0.666475  0.333095  0.000000  1
  Er  Er1  1  0.330879  0.664649  0.000000  1
  Er  Er2  1  0.819608  0.819385  0.500000  1
  Er  Er3  1  0.180063  0.000518  0.500000  1
  Er  Er4  1  0.999716  0.180687  0.500000  1
  Co  Co5  1  0.126788  0.479554  0.500000  1
  Co  Co6  1  0.804932  0.173595  0.000000  1
  Co  Co7  1  0.828113  0.630139  0.000000  1
  Co  Co8  1  0.367903  0.196445  0.000000  1
  Co  Co9  1  0.172851  0.802722  0.000000  1
  Co  Co10  1  0.630857  0.827102  0.000000  1
  Co  Co11  1  0.195612  0.372143  0.000000  1
  Co  Co12  1  0.279313  0.281309  0.500000  1
  Co  Co13  1  0.719912  0.000217  0.500000  1
  Co  Co14  1  0.001342  0.718857  0.500000  1
  Co  Co15  1  0.000252  0.999521  0.000000  1
  As  As16  1  0.684393  0.161705  0.500000  1
  As  As17  1  0.840904  0.522120  0.500000  1
  As  As18  1  0.476577  0.317990  0.500000  1
  As  As19  1  0.159721  0.677922  0.500000  1
  As  As20  1  0.522256  0.839969  0.500000  1
  As  As21  1  0.311171  0.477447  0.500000  1
  As  As22  1  0.176208  0.177876  0.000000  1
  As  As23  1  0.823191  0.999761  0.000000  1
  As  As24  1  0.000295  0.822345  0.000000  1
  As  As25  1  0.640525  0.641342  0.000000  1
  As  As26  1  0.358052  0.999915  0.000000  1
  As  As27  1  0.004866  0.360912  0.000000  1
  Ru  Ru28  1  0.877000  0.353021  0.500000  1
  Ru  Ru29  1  0.649037  0.521025  0.500000  1
  Ru  Ru30  1  0.479984  0.128707  0.500000  1
  Ru  Ru31  1  0.350126  0.870284  0.500000  1
  Ru  Ru32  1  0.516581  0.646778  0.500000  1
  Ru  Ru33  1  0.443413  0.444734  0.000000  1
  Ru  Ru34  1  0.555637  0.000118  0.000000  1
  Ru  Ru35  1  0.005445  0.556094  0.000000  1
