# generated using pymatgen
data_CaErTm2(B6Ru)2
_symmetry_space_group_name_H-M   'P 1'
_cell_length_a   3.62546800
_cell_length_b   9.10072105
_cell_length_c   11.49957802
_cell_angle_alpha   89.82078619
_cell_angle_beta   90.00000000
_cell_angle_gamma   90.00000000
_symmetry_Int_Tables_number   1
_chemical_formula_structural   CaErTm2(B6Ru)2
_chemical_formula_sum   'Ca2 Er2 Tm4 B24 Ru4'
_cell_volume   379.41950953
_cell_formula_units_Z   2
loop_
 _symmetry_equiv_pos_site_id
 _symmetry_equiv_pos_as_xyz
  1  'x, y, z'
loop_
 _atom_site_type_symbol
 _atom_site_label
 _atom_site_symmetry_multiplicity
 _atom_site_fract_x
 _atom_site_fract_y
 _atom_site_fract_z
 _atom_site_occupancy
  Ca  Ca0  1  0.000000  0.323767  0.414951  1
  Ca  Ca1  1  0.000000  0.676233  0.585049  1
  Er  Er2  1  0.000000  0.822242  0.085988  1
  Er  Er3  1  0.000000  0.177758  0.914012  1
  Tm  Tm4  1  0.000000  0.942108  0.369479  1
  Tm  Tm5  1  0.000000  0.057892  0.630521  1
  Tm  Tm6  1  0.000000  0.442708  0.130345  1
  Tm  Tm7  1  0.000000  0.557292  0.869655  1
  B  B8  1  0.500000  0.554687  0.431694  1
  B  B9  1  0.500000  0.445313  0.568306  1
  B  B10  1  0.500000  0.053736  0.066253  1
  B  B11  1  0.500000  0.946264  0.933747  1
  B  B12  1  0.500000  0.748952  0.416906  1
  B  B13  1  0.500000  0.251048  0.583094  1
  B  B14  1  0.500000  0.248696  0.080592  1
  B  B15  1  0.500000  0.751304  0.919408  1
  B  B16  1  0.500000  0.791933  0.263715  1
  B  B17  1  0.500000  0.208067  0.736285  1
  B  B18  1  0.500000  0.290091  0.233514  1
  B  B19  1  0.500000  0.709909  0.766486  1
  B  B20  1  0.500000  0.631457  0.184129  1
  B  B21  1  0.500000  0.368543  0.815871  1
  B  B22  1  0.500000  0.130019  0.313430  1
  B  B23  1  0.500000  0.869981  0.686570  1
  B  B24  1  0.500000  0.982661  0.211155  1
  B  B25  1  0.500000  0.017339  0.788845  1
  B  B26  1  0.500000  0.484021  0.287043  1
  B  B27  1  0.500000  0.515979  0.712957  1
  B  B28  1  0.500000  0.603033  0.028205  1
  B  B29  1  0.500000  0.396967  0.971795  1
  B  B30  1  0.500000  0.098388  0.472861  1
  B  B31  1  0.500000  0.901612  0.527139  1
  Ru  Ru32  1  0.000000  0.641039  0.317161  1
  Ru  Ru33  1  0.000000  0.358961  0.682839  1
  Ru  Ru34  1  0.000000  0.136745  0.177432  1
  Ru  Ru35  1  0.000000  0.863255  0.822568  1
