# generated using pymatgen
data_Pr8GaSi11Ir4
_symmetry_space_group_name_H-M   'P 1'
_cell_length_a   8.31674363
_cell_length_b   8.31674516
_cell_length_c   8.53010000
_cell_angle_alpha   89.99694194
_cell_angle_beta   90.00306086
_cell_angle_gamma   119.95560652
_symmetry_Int_Tables_number   1
_chemical_formula_structural   Pr8GaSi11Ir4
_chemical_formula_sum   'Pr8 Ga1 Si11 Ir4'
_cell_volume   511.19378414
_cell_formula_units_Z   1
loop_
 _symmetry_equiv_pos_site_id
 _symmetry_equiv_pos_as_xyz
  1  'x, y, z'
loop_
 _atom_site_type_symbol
 _atom_site_label
 _atom_site_symmetry_multiplicity
 _atom_site_fract_x
 _atom_site_fract_y
 _atom_site_fract_z
 _atom_site_occupancy
  Pr  Pr0  1  0.499419  0.500581  0.751074  1
  Pr  Pr1  1  0.500141  0.499859  0.248802  1
  Pr  Pr2  1  0.000333  0.500654  0.751801  1
  Pr  Pr3  1  0.999037  0.500146  0.248262  1
  Pr  Pr4  1  0.499346  0.999667  0.751801  1
  Pr  Pr5  1  0.499854  0.000963  0.248262  1
  Pr  Pr6  1  0.001933  0.998067  0.748387  1
  Pr  Pr7  1  0.001944  0.998056  0.251627  1
  Ga  Ga8  1  0.834518  0.165482  0.000275  1
  Si  Si9  1  0.166648  0.833352  0.999729  1
  Si  Si10  1  0.332884  0.166602  0.000262  1
  Si  Si11  1  0.167361  0.832639  0.500258  1
  Si  Si12  1  0.665143  0.829518  0.999775  1
  Si  Si13  1  0.833100  0.166900  0.499689  1
  Si  Si14  1  0.833398  0.667116  0.000262  1
  Si  Si15  1  0.665823  0.833087  0.500229  1
  Si  Si16  1  0.170482  0.334857  0.999775  1
  Si  Si17  1  0.334586  0.167617  0.499763  1
  Si  Si18  1  0.166913  0.334177  0.500229  1
  Si  Si19  1  0.832383  0.665414  0.499763  1
  Ir  Ir20  1  0.661654  0.338346  0.998268  1
  Ir  Ir21  1  0.332767  0.667233  0.001586  1
  Ir  Ir22  1  0.333408  0.666592  0.498834  1
  Ir  Ir23  1  0.666924  0.333076  0.501289  1
