# generated using pymatgen
data_Y6Er14Cd3Hg3Ru2
_symmetry_space_group_name_H-M   'P 1'
_cell_length_a   9.55452000
_cell_length_b   9.55451996
_cell_length_c   9.72778700
_cell_angle_alpha   90.00000000
_cell_angle_beta   90.00000000
_cell_angle_gamma   120.00000012
_symmetry_Int_Tables_number   1
_chemical_formula_structural   Y6Er14Cd3Hg3Ru2
_chemical_formula_sum   'Y6 Er14 Cd3 Hg3 Ru2'
_cell_volume   769.06390705
_cell_formula_units_Z   1
loop_
 _symmetry_equiv_pos_site_id
 _symmetry_equiv_pos_as_xyz
  1  'x, y, z'
loop_
 _atom_site_type_symbol
 _atom_site_label
 _atom_site_symmetry_multiplicity
 _atom_site_fract_x
 _atom_site_fract_y
 _atom_site_fract_z
 _atom_site_occupancy
  Y  Y0  1  0.540782  0.459218  0.250000  1
  Y  Y1  1  0.540782  0.081565  0.250000  1
  Y  Y2  1  0.918435  0.459218  0.250000  1
  Y  Y3  1  0.459250  0.540750  0.750000  1
  Y  Y4  1  0.459250  0.918500  0.750000  1
  Y  Y5  1  0.081500  0.540750  0.750000  1
  Er  Er6  1  0.000000  0.000000  0.493415  1
  Er  Er7  1  0.000000  0.000000  0.006585  1
  Er  Er8  1  0.209565  0.790435  0.439648  1
  Er  Er9  1  0.209565  0.419132  0.439648  1
  Er  Er10  1  0.580868  0.790435  0.439648  1
  Er  Er11  1  0.790286  0.209714  0.559565  1
  Er  Er12  1  0.790286  0.580570  0.559565  1
  Er  Er13  1  0.419430  0.209714  0.559565  1
  Er  Er14  1  0.790286  0.209714  0.940435  1
  Er  Er15  1  0.790286  0.580570  0.940435  1
  Er  Er16  1  0.419430  0.209714  0.940435  1
  Er  Er17  1  0.209565  0.790435  0.060352  1
  Er  Er18  1  0.209565  0.419132  0.060352  1
  Er  Er19  1  0.580868  0.790435  0.060352  1
  Cd  Cd20  1  0.113270  0.886730  0.750000  1
  Cd  Cd21  1  0.113270  0.226538  0.750000  1
  Cd  Cd22  1  0.773462  0.886730  0.750000  1
  Hg  Hg23  1  0.881367  0.118633  0.250000  1
  Hg  Hg24  1  0.881367  0.762734  0.250000  1
  Hg  Hg25  1  0.237266  0.118633  0.250000  1
  Ru  Ru26  1  0.333333  0.666667  0.250000  1
  Ru  Ru27  1  0.666667  0.333333  0.750000  1
