# generated using pymatgen
data_Tb6DySn23Ir6
_symmetry_space_group_name_H-M   'P 1'
_cell_length_a   9.87549201
_cell_length_b   9.87474783
_cell_length_c   10.13567900
_cell_angle_alpha   90.00000073
_cell_angle_beta   89.99807588
_cell_angle_gamma   119.99750490
_symmetry_Int_Tables_number   1
_chemical_formula_structural   Tb6DySn23Ir6
_chemical_formula_sum   'Tb6 Dy1 Sn23 Ir6'
_cell_volume   856.01062177
_cell_formula_units_Z   1
loop_
 _symmetry_equiv_pos_site_id
 _symmetry_equiv_pos_as_xyz
  1  'x, y, z'
loop_
 _atom_site_type_symbol
 _atom_site_label
 _atom_site_symmetry_multiplicity
 _atom_site_fract_x
 _atom_site_fract_y
 _atom_site_fract_z
 _atom_site_occupancy
  Tb  Tb0  1  0.999994  0.999997  0.999990  1
  Tb  Tb1  1  0.479627  0.520366  0.307052  1
  Tb  Tb2  1  0.520370  0.479630  0.692952  1
  Tb  Tb3  1  0.479627  0.959261  0.307052  1
  Tb  Tb4  1  0.520370  0.040740  0.692952  1
  Tb  Tb5  1  0.040743  0.520371  0.307102  1
  Dy  Dy6  1  0.959479  0.479740  0.692979  1
  Sn  Sn7  1  0.352357  0.999974  0.999986  1
  Sn  Sn8  1  0.647630  0.000012  0.999993  1
  Sn  Sn9  1  0.999989  0.352400  0.999971  1
  Sn  Sn10  1  0.999989  0.647589  0.999971  1
  Sn  Sn11  1  0.647630  0.647618  0.999993  1
  Sn  Sn12  1  0.352357  0.352383  0.999986  1
  Sn  Sn13  1  0.333296  0.666648  0.824760  1
  Sn  Sn14  1  0.666675  0.333337  0.175226  1
  Sn  Sn15  1  0.999991  0.999996  0.499994  1
  Sn  Sn16  1  0.777935  0.222222  0.455793  1
  Sn  Sn17  1  0.221999  0.777712  0.544371  1
  Sn  Sn18  1  0.777935  0.555714  0.455793  1
  Sn  Sn19  1  0.221999  0.444286  0.544371  1
  Sn  Sn20  1  0.444271  0.222136  0.455709  1
  Sn  Sn21  1  0.555719  0.777859  0.544294  1
  Sn  Sn22  1  0.333324  0.666663  0.121419  1
  Sn  Sn23  1  0.666871  0.333435  0.878465  1
  Sn  Sn24  1  0.118985  0.881001  0.283575  1
  Sn  Sn25  1  0.881036  0.119123  0.716414  1
  Sn  Sn26  1  0.118985  0.237985  0.283575  1
  Sn  Sn27  1  0.881036  0.761913  0.716414  1
  Sn  Sn28  1  0.762034  0.881017  0.283576  1
  Sn  Sn29  1  0.237965  0.118983  0.716428  1
  Ir  Ir30  1  0.831412  0.168579  0.198082  1
  Ir  Ir31  1  0.168460  0.831213  0.801853  1
  Ir  Ir32  1  0.831412  0.662832  0.198082  1
  Ir  Ir33  1  0.168460  0.337248  0.801853  1
  Ir  Ir34  1  0.337183  0.168591  0.198068  1
  Ir  Ir35  1  0.662853  0.831427  0.801905  1
