# generated using pymatgen
data_Pr4Ni12Sn25
_symmetry_space_group_name_H-M   'P 1'
_cell_length_a   10.35010856
_cell_length_b   10.35010831
_cell_length_c   10.35010900
_cell_angle_alpha   109.47122003
_cell_angle_beta   109.47121953
_cell_angle_gamma   109.47122223
_symmetry_Int_Tables_number   1
_chemical_formula_structural   Pr4Ni12Sn25
_chemical_formula_sum   'Pr4 Ni12 Sn25'
_cell_volume   853.51829179
_cell_formula_units_Z   1
loop_
 _symmetry_equiv_pos_site_id
 _symmetry_equiv_pos_as_xyz
  1  'x, y, z'
loop_
 _atom_site_type_symbol
 _atom_site_label
 _atom_site_symmetry_multiplicity
 _atom_site_fract_x
 _atom_site_fract_y
 _atom_site_fract_z
 _atom_site_occupancy
  Pr  Pr0  1  0.500000  0.500000  0.500000  1
  Pr  Pr1  1  0.000000  0.500000  0.000000  1
  Pr  Pr2  1  0.500000  0.000000  0.000000  1
  Pr  Pr3  1  0.000000  0.000000  0.500000  1
  Ni  Ni4  1  0.320291  0.157859  0.837568  1
  Ni  Ni5  1  0.320291  0.482723  0.162432  1
  Ni  Ni6  1  0.482723  0.162432  0.320291  1
  Ni  Ni7  1  0.517277  0.837568  0.679709  1
  Ni  Ni8  1  0.837568  0.320291  0.157859  1
  Ni  Ni9  1  0.837568  0.679709  0.517277  1
  Ni  Ni10  1  0.679709  0.842141  0.162432  1
  Ni  Ni11  1  0.162432  0.679709  0.842141  1
  Ni  Ni12  1  0.157859  0.837568  0.320291  1
  Ni  Ni13  1  0.679709  0.517277  0.837568  1
  Ni  Ni14  1  0.842141  0.162432  0.679709  1
  Ni  Ni15  1  0.162432  0.320291  0.482723  1
  Sn  Sn16  1  0.874079  0.625255  0.751176  1
  Sn  Sn17  1  0.625255  0.751176  0.874079  1
  Sn  Sn18  1  0.372334  0.743067  0.370733  1
  Sn  Sn19  1  0.372334  0.001601  0.629267  1
  Sn  Sn20  1  0.125921  0.877096  0.751176  1
  Sn  Sn21  1  0.248824  0.125921  0.374745  1
  Sn  Sn22  1  0.374745  0.248824  0.125921  1
  Sn  Sn23  1  0.370733  0.627666  0.998399  1
  Sn  Sn24  1  0.627666  0.256933  0.629267  1
  Sn  Sn25  1  0.874079  0.122904  0.248824  1
  Sn  Sn26  1  0.998399  0.370733  0.627666  1
  Sn  Sn27  1  0.248824  0.874079  0.122904  1
  Sn  Sn28  1  0.125921  0.374745  0.248824  1
  Sn  Sn29  1  0.629267  0.627666  0.256933  1
  Sn  Sn30  1  0.751176  0.125921  0.877096  1
  Sn  Sn31  1  0.000000  0.000000  0.000000  1
  Sn  Sn32  1  0.751176  0.874079  0.625255  1
  Sn  Sn33  1  0.629267  0.372334  0.001601  1
  Sn  Sn34  1  0.001601  0.629267  0.372334  1
  Sn  Sn35  1  0.877096  0.751176  0.125921  1
  Sn  Sn36  1  0.370733  0.372334  0.743067  1
  Sn  Sn37  1  0.256934  0.629267  0.627666  1
  Sn  Sn38  1  0.743067  0.370733  0.372334  1
  Sn  Sn39  1  0.122904  0.248824  0.874079  1
  Sn  Sn40  1  0.627666  0.998399  0.370733  1
