# generated using pymatgen
data_Tb2Yb8Ir3Ru
_symmetry_space_group_name_H-M   'P 1'
_cell_length_a   6.49610181
_cell_length_b   7.35914597
_cell_length_c   8.50243764
_cell_angle_alpha   97.11318704
_cell_angle_beta   112.38727068
_cell_angle_gamma   89.98704535
_symmetry_Int_Tables_number   1
_chemical_formula_structural   Tb2Yb8Ir3Ru
_chemical_formula_sum   'Tb2 Yb8 Ir3 Ru1'
_cell_volume   372.44958378
_cell_formula_units_Z   1
loop_
 _symmetry_equiv_pos_site_id
 _symmetry_equiv_pos_as_xyz
  1  'x, y, z'
loop_
 _atom_site_type_symbol
 _atom_site_label
 _atom_site_symmetry_multiplicity
 _atom_site_fract_x
 _atom_site_fract_y
 _atom_site_fract_z
 _atom_site_occupancy
  Tb  Tb0  1  0.438719  0.748289  0.001541  1
  Tb  Tb1  1  0.564459  0.251964  0.001136  1
  Yb  Yb2  1  0.972794  0.919125  0.172684  1
  Yb  Yb3  1  0.801647  0.579256  0.827913  1
  Yb  Yb4  1  0.026330  0.079444  0.828533  1
  Yb  Yb5  1  0.196476  0.421242  0.172519  1
  Yb  Yb6  1  0.642147  0.820129  0.436977  1
  Yb  Yb7  1  0.204429  0.679806  0.562963  1
  Yb  Yb8  1  0.357176  0.178998  0.561941  1
  Yb  Yb9  1  0.795164  0.322291  0.436014  1
  Ir  Ir10  1  0.603500  0.925797  0.786885  1
  Ir  Ir11  1  0.184861  0.423754  0.786705  1
  Ir  Ir12  1  0.395958  0.075675  0.212709  1
  Ru  Ru13  1  0.816338  0.574229  0.211478  1
