# generated using pymatgen
data_K3Ru2(O2F3)2
_symmetry_space_group_name_H-M   'P 1'
_cell_length_a   8.30052508
_cell_length_b   8.30052540
_cell_length_c   8.44252645
_cell_angle_alpha   72.45270012
_cell_angle_beta   72.45269860
_cell_angle_gamma   90.61482181
_symmetry_Int_Tables_number   1
_chemical_formula_structural   K3Ru2(O2F3)2
_chemical_formula_sum   'K6 Ru4 O8 F12'
_cell_volume   525.49111494
_cell_formula_units_Z   2
loop_
 _symmetry_equiv_pos_site_id
 _symmetry_equiv_pos_as_xyz
  1  'x, y, z'
loop_
 _atom_site_type_symbol
 _atom_site_label
 _atom_site_symmetry_multiplicity
 _atom_site_fract_x
 _atom_site_fract_y
 _atom_site_fract_z
 _atom_site_occupancy
  K  K0  1  0.952522  0.747528  0.997892  1
  K  K1  1  0.252472  0.047478  0.502108  1
  K  K2  1  0.047478  0.252472  0.002108  1
  K  K3  1  0.747528  0.952522  0.497892  1
  K  K4  1  0.500000  0.500000  0.000000  1
  K  K5  1  0.500000  0.500000  0.500000  1
  Ru  Ru6  1  0.022774  0.424546  0.368760  1
  Ru  Ru7  1  0.575454  0.977226  0.131240  1
  Ru  Ru8  1  0.977226  0.575454  0.631240  1
  Ru  Ru9  1  0.424546  0.022774  0.868760  1
  O  O10  1  0.951632  0.344070  0.613403  1
  O  O11  1  0.655930  0.048368  0.886597  1
  O  O12  1  0.048368  0.655930  0.386597  1
  O  O13  1  0.344070  0.951632  0.113403  1
  O  O14  1  0.834231  0.449249  0.316509  1
  O  O15  1  0.550751  0.165769  0.183491  1
  O  O16  1  0.165769  0.550751  0.683491  1
  O  O17  1  0.449249  0.834231  0.816509  1
  F  F18  1  0.152649  0.506367  0.108958  1
  F  F19  1  0.493633  0.847351  0.391042  1
  F  F20  1  0.847351  0.493633  0.891042  1
  F  F21  1  0.506367  0.152649  0.608958  1
  F  F22  1  0.022046  0.187720  0.349454  1
  F  F23  1  0.812280  0.977954  0.150546  1
  F  F24  1  0.977954  0.812280  0.650546  1
  F  F25  1  0.187720  0.022046  0.849454  1
  F  F26  1  0.733480  0.603320  0.630237  1
  F  F27  1  0.396680  0.266520  0.869763  1
  F  F28  1  0.266520  0.396680  0.369763  1
  F  F29  1  0.603320  0.733480  0.130237  1
