# generated using pymatgen
data_Tb8Dy9Lu3Sn16
_symmetry_space_group_name_H-M   'P 1'
_cell_length_a   8.00696455
_cell_length_b   8.15789555
_cell_length_c   15.44755900
_cell_angle_alpha   90.00000000
_cell_angle_beta   90.00000000
_cell_angle_gamma   90.04228578
_symmetry_Int_Tables_number   1
_chemical_formula_structural   Tb8Dy9Lu3Sn16
_chemical_formula_sum   'Tb8 Dy9 Lu3 Sn16'
_cell_volume   1009.03397747
_cell_formula_units_Z   1
loop_
 _symmetry_equiv_pos_site_id
 _symmetry_equiv_pos_as_xyz
  1  'x, y, z'
loop_
 _atom_site_type_symbol
 _atom_site_label
 _atom_site_symmetry_multiplicity
 _atom_site_fract_x
 _atom_site_fract_y
 _atom_site_fract_z
 _atom_site_occupancy
  Tb  Tb0  1  0.520460  0.320244  0.902808  1
  Tb  Tb1  1  0.020043  0.179362  0.597201  1
  Tb  Tb2  1  0.479705  0.679531  0.402602  1
  Tb  Tb3  1  0.979789  0.820416  0.097288  1
  Tb  Tb4  1  0.479705  0.679531  0.097398  1
  Tb  Tb5  1  0.979789  0.820416  0.402712  1
  Tb  Tb6  1  0.520460  0.320244  0.597192  1
  Tb  Tb7  1  0.020043  0.179362  0.902799  1
  Dy  Dy8  1  0.367262  0.836656  0.877870  1
  Dy  Dy9  1  0.866592  0.663850  0.622141  1
  Dy  Dy10  1  0.632996  0.163535  0.377757  1
  Dy  Dy11  1  0.132971  0.336440  0.122459  1
  Dy  Dy12  1  0.632996  0.163535  0.122243  1
  Dy  Dy13  1  0.132971  0.336440  0.377541  1
  Dy  Dy14  1  0.367262  0.836656  0.622130  1
  Dy  Dy15  1  0.866592  0.663850  0.877859  1
  Dy  Dy16  1  0.197939  0.502896  0.750000  1
  Lu  Lu17  1  0.698373  0.996769  0.750000  1
  Lu  Lu18  1  0.801771  0.496937  0.250000  1
  Lu  Lu19  1  0.301816  0.003078  0.250000  1
  Sn  Sn20  1  0.293884  0.036411  0.042412  1
  Sn  Sn21  1  0.793874  0.463726  0.457575  1
  Sn  Sn22  1  0.706087  0.963554  0.542271  1
  Sn  Sn23  1  0.206014  0.536651  0.958489  1
  Sn  Sn24  1  0.706087  0.963554  0.957729  1
  Sn  Sn25  1  0.206014  0.536651  0.541511  1
  Sn  Sn26  1  0.293884  0.036411  0.457588  1
  Sn  Sn27  1  0.793874  0.463726  0.042425  1
  Sn  Sn28  1  0.565344  0.619868  0.750000  1
  Sn  Sn29  1  0.063457  0.881397  0.750000  1
  Sn  Sn30  1  0.436464  0.380572  0.250000  1
  Sn  Sn31  1  0.936208  0.119230  0.250000  1
  Sn  Sn32  1  0.329210  0.146693  0.750000  1
  Sn  Sn33  1  0.828579  0.351449  0.750000  1
  Sn  Sn34  1  0.670956  0.851816  0.250000  1
  Sn  Sn35  1  0.170528  0.648543  0.250000  1
