# generated using pymatgen
data_Y4Er3Lu5Co5Sb
_symmetry_space_group_name_H-M   'P 1'
_cell_length_a   8.22749374
_cell_length_b   8.22507967
_cell_length_c   8.22749447
_cell_angle_alpha   110.90523244
_cell_angle_beta   110.51620473
_cell_angle_gamma   107.03134675
_symmetry_Int_Tables_number   1
_chemical_formula_structural   Y4Er3Lu5Co5Sb
_chemical_formula_sum   'Y4 Er3 Lu5 Co5 Sb1'
_cell_volume   427.95316878
_cell_formula_units_Z   1
loop_
 _symmetry_equiv_pos_site_id
 _symmetry_equiv_pos_as_xyz
  1  'x, y, z'
loop_
 _atom_site_type_symbol
 _atom_site_label
 _atom_site_symmetry_multiplicity
 _atom_site_fract_x
 _atom_site_fract_y
 _atom_site_fract_z
 _atom_site_occupancy
  Y  Y0  1  0.288034  0.187067  0.474290  1
  Y  Y1  1  0.710613  0.812370  0.523747  1
  Y  Y2  1  0.288622  0.812370  0.101756  1
  Y  Y3  1  0.712778  0.187067  0.899033  1
  Er  Er4  1  0.790288  0.596750  0.806463  1
  Er  Er5  1  0.209701  0.016792  0.807091  1
  Er  Er6  1  0.790391  0.984147  0.193756  1
  Lu  Lu7  1  0.623735  0.313175  0.311324  1
  Lu  Lu8  1  0.375365  0.686569  0.687713  1
  Lu  Lu9  1  0.001850  0.313175  0.689440  1
  Lu  Lu10  1  0.998856  0.686569  0.311204  1
  Lu  Lu11  1  0.209465  0.403408  0.193942  1
  Co  Co12  1  0.000419  0.375674  0.375254  1
  Co  Co13  1  0.999631  0.623749  0.624119  1
  Co  Co14  1  0.387153  0.886229  0.499077  1
  Co  Co15  1  0.612434  0.112670  0.500236  1
  Co  Co16  1  0.001006  0.002331  0.001325  1
  Sb  Sb17  1  0.499658  0.499889  0.000231  1
