# generated using pymatgen
data_TlVIrS4
_symmetry_space_group_name_H-M   'P 1'
_cell_length_a   3.54729100
_cell_length_b   5.60253399
_cell_length_c   8.21914700
_cell_angle_alpha   68.50050098
_cell_angle_beta   90.00000000
_cell_angle_gamma   90.00000000
_symmetry_Int_Tables_number   1
_chemical_formula_structural   TlVIrS4
_chemical_formula_sum   'Tl1 V1 Ir1 S4'
_cell_volume   151.98035779
_cell_formula_units_Z   1
loop_
 _symmetry_equiv_pos_site_id
 _symmetry_equiv_pos_as_xyz
  1  'x, y, z'
loop_
 _atom_site_type_symbol
 _atom_site_label
 _atom_site_symmetry_multiplicity
 _atom_site_fract_x
 _atom_site_fract_y
 _atom_site_fract_z
 _atom_site_occupancy
  Tl  Tl0  1  0.500000  0.619243  0.513216  1
  V  V1  1  0.500000  0.559609  0.004922  1
  Ir  Ir2  1  0.000000  0.975863  0.994108  1
  S  S3  1  0.000000  0.544931  0.200217  1
  S  S4  1  0.500000  0.080498  0.149135  1
  S  S5  1  0.000000  0.429596  0.845873  1
  S  S6  1  0.500000  0.955361  0.797228  1
