# generated using pymatgen
data_MgScIr4
_symmetry_space_group_name_H-M   'P 1'
_cell_length_a   5.21513200
_cell_length_b   5.21513131
_cell_length_c   8.49335500
_cell_angle_alpha   90.00000000
_cell_angle_beta   90.00000000
_cell_angle_gamma   120.00000437
_symmetry_Int_Tables_number   1
_chemical_formula_structural   MgScIr4
_chemical_formula_sum   'Mg2 Sc2 Ir8'
_cell_volume   200.05086916
_cell_formula_units_Z   2
loop_
 _symmetry_equiv_pos_site_id
 _symmetry_equiv_pos_as_xyz
  1  'x, y, z'
loop_
 _atom_site_type_symbol
 _atom_site_label
 _atom_site_symmetry_multiplicity
 _atom_site_fract_x
 _atom_site_fract_y
 _atom_site_fract_z
 _atom_site_occupancy
  Mg  Mg0  1  0.666667  0.333333  0.934056  1
  Mg  Mg1  1  0.333333  0.666667  0.434056  1
  Sc  Sc2  1  0.333333  0.666667  0.071235  1
  Sc  Sc3  1  0.666667  0.333333  0.571235  1
  Ir  Ir4  1  0.000000  0.000000  0.996768  1
  Ir  Ir5  1  0.000000  0.000000  0.496768  1
  Ir  Ir6  1  0.828796  0.657592  0.249314  1
  Ir  Ir7  1  0.171204  0.828796  0.749314  1
  Ir  Ir8  1  0.657592  0.828796  0.749314  1
  Ir  Ir9  1  0.342408  0.171204  0.249314  1
  Ir  Ir10  1  0.828796  0.171204  0.249314  1
  Ir  Ir11  1  0.171204  0.342408  0.749314  1
