# generated using pymatgen
data_Tb8Ti7Si16Mo5
_symmetry_space_group_name_H-M   'P 1'
_cell_length_a   6.99190938
_cell_length_b   6.98609705
_cell_length_c   12.88588246
_cell_angle_alpha   89.87029823
_cell_angle_beta   90.00213548
_cell_angle_gamma   89.94527715
_symmetry_Int_Tables_number   1
_chemical_formula_structural   Tb8Ti7Si16Mo5
_chemical_formula_sum   'Tb8 Ti7 Si16 Mo5'
_cell_volume   629.42394465
_cell_formula_units_Z   1
loop_
 _symmetry_equiv_pos_site_id
 _symmetry_equiv_pos_as_xyz
  1  'x, y, z'
loop_
 _atom_site_type_symbol
 _atom_site_label
 _atom_site_symmetry_multiplicity
 _atom_site_fract_x
 _atom_site_fract_y
 _atom_site_fract_z
 _atom_site_occupancy
  Tb  Tb0  1  0.340945  0.000178  0.467519  1
  Tb  Tb1  1  0.499323  0.840229  0.718935  1
  Tb  Tb2  1  0.499991  0.159940  0.217285  1
  Tb  Tb3  1  0.840391  0.499340  0.282358  1
  Tb  Tb4  1  0.159682  0.499178  0.782150  1
  Tb  Tb5  1  0.658730  0.999505  0.968069  1
  Tb  Tb6  1  0.000690  0.339883  0.532761  1
  Tb  Tb7  1  0.998893  0.659887  0.030827  1
  Ti  Ti8  1  0.490563  0.655338  0.125382  1
  Ti  Ti9  1  0.507576  0.346312  0.627517  1
  Ti  Ti10  1  0.653737  0.489279  0.873122  1
  Ti  Ti11  1  0.346218  0.509279  0.373647  1
  Ti  Ti12  1  0.845889  0.991371  0.375720  1
  Ti  Ti13  1  0.006545  0.154197  0.125108  1
  Ti  Ti14  1  0.991971  0.846243  0.624627  1
  Si  Si15  1  0.201164  0.128526  0.685574  1
  Si  Si16  1  0.371255  0.702940  0.933332  1
  Si  Si17  1  0.629365  0.299653  0.435389  1
  Si  Si18  1  0.700349  0.370652  0.065314  1
  Si  Si19  1  0.300670  0.629944  0.565451  1
  Si  Si20  1  0.799295  0.870239  0.184759  1
  Si  Si21  1  0.129322  0.201270  0.315463  1
  Si  Si22  1  0.872462  0.800303  0.816923  1
  Si  Si23  1  0.291636  0.955284  0.064130  1
  Si  Si24  1  0.546268  0.791369  0.314979  1
  Si  Si25  1  0.451262  0.208825  0.815943  1
  Si  Si26  1  0.791013  0.547672  0.684048  1
  Si  Si27  1  0.208499  0.453768  0.184623  1
  Si  Si28  1  0.709717  0.046129  0.565333  1
  Si  Si29  1  0.955915  0.288355  0.934449  1
  Si  Si30  1  0.046351  0.708758  0.434625  1
  Mo  Mo31  1  0.326693  0.328093  0.000193  1
  Mo  Mo32  1  0.171920  0.827881  0.249139  1
  Mo  Mo33  1  0.827945  0.171910  0.750098  1
  Mo  Mo34  1  0.674024  0.672673  0.499688  1
  Mo  Mo35  1  0.153735  0.005599  0.875520  1
