# generated using pymatgen
data_TbYbTh3Si3C
_symmetry_space_group_name_H-M   'P 1'
_cell_length_a   8.77199000
_cell_length_b   8.77199171
_cell_length_c   6.39158500
_cell_angle_alpha   90.00000000
_cell_angle_beta   90.00000000
_cell_angle_gamma   120.00000864
_symmetry_Int_Tables_number   1
_chemical_formula_structural   TbYbTh3Si3C
_chemical_formula_sum   'Tb2 Yb2 Th6 Si6 C2'
_cell_volume   425.92732540
_cell_formula_units_Z   2
loop_
 _symmetry_equiv_pos_site_id
 _symmetry_equiv_pos_as_xyz
  1  'x, y, z'
loop_
 _atom_site_type_symbol
 _atom_site_label
 _atom_site_symmetry_multiplicity
 _atom_site_fract_x
 _atom_site_fract_y
 _atom_site_fract_z
 _atom_site_occupancy
  Tb  Tb0  1  0.333333  0.666667  0.500000  1
  Tb  Tb1  1  0.666667  0.333333  0.500000  1
  Yb  Yb2  1  0.666667  0.333333  0.000000  1
  Yb  Yb3  1  0.333333  0.666667  0.000000  1
  Th  Th4  1  0.765390  0.765390  0.751065  1
  Th  Th5  1  0.234610  0.000000  0.751065  1
  Th  Th6  1  0.000000  0.234610  0.751065  1
  Th  Th7  1  0.234610  0.234610  0.248935  1
  Th  Th8  1  0.765390  0.000000  0.248935  1
  Th  Th9  1  0.000000  0.765390  0.248935  1
  Si  Si10  1  0.398161  0.398161  0.736186  1
  Si  Si11  1  0.601839  0.000000  0.736186  1
  Si  Si12  1  0.000000  0.601839  0.736186  1
  Si  Si13  1  0.601839  0.601839  0.263814  1
  Si  Si14  1  0.398161  0.000000  0.263814  1
  Si  Si15  1  0.000000  0.398161  0.263814  1
  C  C16  1  0.000000  0.000000  0.000000  1
  C  C17  1  0.000000  0.000000  0.500000  1
