# generated using pymatgen
data_Li2ZrUN4
_symmetry_space_group_name_H-M   'P 1'
_cell_length_a   4.32165939
_cell_length_b   4.32166037
_cell_length_c   6.10101464
_cell_angle_alpha   110.74291631
_cell_angle_beta   110.74291291
_cell_angle_gamma   90.00000747
_symmetry_Int_Tables_number   1
_chemical_formula_structural   Li2ZrUN4
_chemical_formula_sum   'Li2 Zr1 U1 N4'
_cell_volume   98.62313432
_cell_formula_units_Z   1
loop_
 _symmetry_equiv_pos_site_id
 _symmetry_equiv_pos_as_xyz
  1  'x, y, z'
loop_
 _atom_site_type_symbol
 _atom_site_label
 _atom_site_symmetry_multiplicity
 _atom_site_fract_x
 _atom_site_fract_y
 _atom_site_fract_z
 _atom_site_occupancy
  Li  Li0  1  0.624999  0.375001  0.250001  1
  Li  Li1  1  0.375000  0.625001  0.750000  1
  Zr  Zr2  1  0.125000  0.875000  0.250001  1
  U  U3  1  0.874999  0.124999  0.750000  1
  N  N4  1  0.079332  0.329333  0.158664  1
  N  N5  1  0.670666  0.920667  0.341335  1
  N  N6  1  0.343155  0.093154  0.686309  1
  N  N7  1  0.906844  0.656845  0.813691  1
