# generated using pymatgen
data_Ho16MgCd2AgIr4
_symmetry_space_group_name_H-M   'P 1'
_cell_length_a   9.61309667
_cell_length_b   9.61309668
_cell_length_c   9.63552511
_cell_angle_alpha   59.77059531
_cell_angle_beta   59.77059824
_cell_angle_gamma   59.62955451
_symmetry_Int_Tables_number   1
_chemical_formula_structural   Ho16MgCd2AgIr4
_chemical_formula_sum   'Ho16 Mg1 Cd2 Ag1 Ir4'
_cell_volume   625.67701360
_cell_formula_units_Z   1
loop_
 _symmetry_equiv_pos_site_id
 _symmetry_equiv_pos_as_xyz
  1  'x, y, z'
loop_
 _atom_site_type_symbol
 _atom_site_label
 _atom_site_symmetry_multiplicity
 _atom_site_fract_x
 _atom_site_fract_y
 _atom_site_fract_z
 _atom_site_occupancy
  Ho  Ho0  1  0.598398  0.598398  0.598932  1
  Ho  Ho1  1  0.600668  0.600668  0.200548  1
  Ho  Ho2  1  0.598665  0.207621  0.598912  1
  Ho  Ho3  1  0.207621  0.598665  0.598912  1
  Ho  Ho4  1  0.061209  0.438027  0.438571  1
  Ho  Ho5  1  0.437601  0.059364  0.058060  1
  Ho  Ho6  1  0.438027  0.061209  0.438571  1
  Ho  Ho7  1  0.059364  0.437601  0.058060  1
  Ho  Ho8  1  0.439679  0.439679  0.059453  1
  Ho  Ho9  1  0.061577  0.061577  0.434597  1
  Ho  Ho10  1  0.186112  0.811206  0.811739  1
  Ho  Ho11  1  0.810814  0.187004  0.185722  1
  Ho  Ho12  1  0.811206  0.186112  0.811739  1
  Ho  Ho13  1  0.187004  0.810814  0.185722  1
  Ho  Ho14  1  0.810691  0.810691  0.186496  1
  Ho  Ho15  1  0.185531  0.185531  0.812128  1
  Mg  Mg16  1  0.825935  0.825935  0.526335  1
  Cd  Cd17  1  0.832100  0.504388  0.833126  1
  Cd  Cd18  1  0.504388  0.832100  0.833126  1
  Ag  Ag19  1  0.834915  0.834915  0.831821  1
  Ir  Ir20  1  0.392982  0.392982  0.389662  1
  Ir  Ir21  1  0.393746  0.393746  0.826187  1
  Ir  Ir22  1  0.395230  0.826538  0.390790  1
  Ir  Ir23  1  0.826538  0.395230  0.390790  1
