# generated using pymatgen
data_Ta3Nb7(GaSi2)2
_symmetry_space_group_name_H-M   'P 1'
_cell_length_a   7.62314910
_cell_length_b   7.62314862
_cell_length_c   7.61874633
_cell_angle_alpha   128.26677625
_cell_angle_beta   128.26676768
_cell_angle_gamma   76.20205702
_symmetry_Int_Tables_number   1
_chemical_formula_structural   Ta3Nb7(GaSi2)2
_chemical_formula_sum   'Ta3 Nb7 Ga2 Si4'
_cell_volume   265.25939624
_cell_formula_units_Z   1
loop_
 _symmetry_equiv_pos_site_id
 _symmetry_equiv_pos_as_xyz
  1  'x, y, z'
loop_
 _atom_site_type_symbol
 _atom_site_label
 _atom_site_symmetry_multiplicity
 _atom_site_fract_x
 _atom_site_fract_y
 _atom_site_fract_z
 _atom_site_occupancy
  Ta  Ta0  1  0.813089  0.313089  0.829085  1
  Ta  Ta1  1  0.999873  0.000235  0.999961  1
  Ta  Ta2  1  0.500235  0.499873  0.999961  1
  Nb  Nb3  1  0.016655  0.187891  0.500568  1
  Nb  Nb4  1  0.687891  0.516655  0.500568  1
  Nb  Nb5  1  0.517253  0.017253  0.830268  1
  Nb  Nb6  1  0.187271  0.687271  0.169903  1
  Nb  Nb7  1  0.982959  0.811924  0.499637  1
  Nb  Nb8  1  0.311924  0.482959  0.499637  1
  Nb  Nb9  1  0.482961  0.982961  0.170294  1
  Ga  Ga10  1  0.750095  0.749886  0.000093  1
  Ga  Ga11  1  0.249886  0.250095  0.000093  1
  Si  Si12  1  0.370230  0.129865  0.500115  1
  Si  Si13  1  0.629865  0.870230  0.500115  1
  Si  Si14  1  0.869967  0.369967  0.240012  1
  Si  Si15  1  0.129845  0.629845  0.759690  1
