# generated using pymatgen
data_TaNb3GaC3
_symmetry_space_group_name_H-M   'P 1'
_cell_length_a   3.16541400
_cell_length_b   3.16541455
_cell_length_c   24.07911500
_cell_angle_alpha   90.00000000
_cell_angle_beta   90.00000000
_cell_angle_gamma   120.00001511
_symmetry_Int_Tables_number   1
_chemical_formula_structural   TaNb3GaC3
_chemical_formula_sum   'Ta2 Nb6 Ga2 C6'
_cell_volume   208.94510445
_cell_formula_units_Z   2
loop_
 _symmetry_equiv_pos_site_id
 _symmetry_equiv_pos_as_xyz
  1  'x, y, z'
loop_
 _atom_site_type_symbol
 _atom_site_label
 _atom_site_symmetry_multiplicity
 _atom_site_fract_x
 _atom_site_fract_y
 _atom_site_fract_z
 _atom_site_occupancy
  Ta  Ta0  1  0.666667  0.333333  0.555866  1
  Ta  Ta1  1  0.333333  0.666667  0.055866  1
  Nb  Nb2  1  0.000000  0.000000  0.341932  1
  Nb  Nb3  1  0.000000  0.000000  0.841932  1
  Nb  Nb4  1  0.000000  0.000000  0.658296  1
  Nb  Nb5  1  0.000000  0.000000  0.158296  1
  Nb  Nb6  1  0.333333  0.666667  0.444398  1
  Nb  Nb7  1  0.666667  0.333333  0.944398  1
  Ga  Ga8  1  0.666667  0.333333  0.749876  1
  Ga  Ga9  1  0.333333  0.666667  0.249876  1
  C  C10  1  0.666667  0.333333  0.390570  1
  C  C11  1  0.333333  0.666667  0.890570  1
  C  C12  1  0.333333  0.666667  0.608145  1
  C  C13  1  0.000000  0.000000  0.000918  1
  C  C14  1  0.666667  0.333333  0.108145  1
  C  C15  1  0.000000  0.000000  0.500918  1
