# generated using pymatgen
data_LaAgAu(SO4)4
_symmetry_space_group_name_H-M   'P 1'
_cell_length_a   6.51648360
_cell_length_b   6.51648239
_cell_length_c   8.94784267
_cell_angle_alpha   75.95043974
_cell_angle_beta   75.95044153
_cell_angle_gamma   88.89402371
_symmetry_Int_Tables_number   1
_chemical_formula_structural   LaAgAu(SO4)4
_chemical_formula_sum   'La1 Ag1 Au1 S4 O16'
_cell_volume   357.25637460
_cell_formula_units_Z   1
loop_
 _symmetry_equiv_pos_site_id
 _symmetry_equiv_pos_as_xyz
  1  'x, y, z'
loop_
 _atom_site_type_symbol
 _atom_site_label
 _atom_site_symmetry_multiplicity
 _atom_site_fract_x
 _atom_site_fract_y
 _atom_site_fract_z
 _atom_site_occupancy
  La  La0  1  0.000000  0.000000  0.000000  1
  Ag  Ag1  1  0.000000  0.000000  0.500000  1
  Au  Au2  1  0.500000  0.500000  0.500000  1
  S  S3  1  0.082966  0.580730  0.738915  1
  S  S4  1  0.580730  0.082966  0.738915  1
  S  S5  1  0.917034  0.419270  0.261085  1
  S  S6  1  0.419270  0.917034  0.261085  1
  O  O7  1  0.325182  0.622521  0.677320  1
  O  O8  1  0.622521  0.325182  0.677320  1
  O  O9  1  0.674818  0.377479  0.322680  1
  O  O10  1  0.377479  0.674818  0.322680  1
  O  O11  1  0.025539  0.701736  0.860612  1
  O  O12  1  0.701736  0.025539  0.860612  1
  O  O13  1  0.974461  0.298264  0.139388  1
  O  O14  1  0.298264  0.974461  0.139388  1
  O  O15  1  0.980382  0.659913  0.605251  1
  O  O16  1  0.659913  0.980382  0.605251  1
  O  O17  1  0.019618  0.340087  0.394749  1
  O  O18  1  0.340087  0.019618  0.394749  1
  O  O19  1  0.033630  0.352491  0.801100  1
  O  O20  1  0.352491  0.033630  0.801100  1
  O  O21  1  0.966370  0.647509  0.198900  1
  O  O22  1  0.647509  0.966370  0.198900  1
