# generated using pymatgen
data_CaYbAlPt3
_symmetry_space_group_name_H-M   'P 1'
_cell_length_a   5.21925429
_cell_length_b   5.21925425
_cell_length_c   5.21925492
_cell_angle_alpha   65.40318104
_cell_angle_beta   65.40317937
_cell_angle_gamma   65.40318229
_symmetry_Int_Tables_number   1
_chemical_formula_structural   CaYbAlPt3
_chemical_formula_sum   'Ca1 Yb1 Al1 Pt3'
_cell_volume   112.35289968
_cell_formula_units_Z   1
loop_
 _symmetry_equiv_pos_site_id
 _symmetry_equiv_pos_as_xyz
  1  'x, y, z'
loop_
 _atom_site_type_symbol
 _atom_site_label
 _atom_site_symmetry_multiplicity
 _atom_site_fract_x
 _atom_site_fract_y
 _atom_site_fract_z
 _atom_site_occupancy
  Ca  Ca0  1  0.249568  0.249568  0.249568  1
  Yb  Yb1  1  0.999935  0.999935  0.999935  1
  Al  Al2  1  0.624702  0.624702  0.624702  1
  Pt  Pt3  1  0.625714  0.625714  0.124368  1
  Pt  Pt4  1  0.625714  0.124368  0.625714  1
  Pt  Pt5  1  0.124368  0.625714  0.625714  1
