# generated using pymatgen
data_Tb16MgAg3Ir3Rh
_symmetry_space_group_name_H-M   'P 1'
_cell_length_a   9.62877226
_cell_length_b   9.62178343
_cell_length_c   9.63039542
_cell_angle_alpha   60.02958365
_cell_angle_beta   60.06674111
_cell_angle_gamma   60.02401714
_symmetry_Int_Tables_number   1
_chemical_formula_structural   Tb16MgAg3Ir3Rh
_chemical_formula_sum   'Tb16 Mg1 Ag3 Ir3 Rh1'
_cell_volume   631.46629624
_cell_formula_units_Z   1
loop_
 _symmetry_equiv_pos_site_id
 _symmetry_equiv_pos_as_xyz
  1  'x, y, z'
loop_
 _atom_site_type_symbol
 _atom_site_label
 _atom_site_symmetry_multiplicity
 _atom_site_fract_x
 _atom_site_fract_y
 _atom_site_fract_z
 _atom_site_occupancy
  Tb  Tb0  1  0.190824  0.809203  0.811227  1
  Tb  Tb1  1  0.814294  0.186588  0.186944  1
  Tb  Tb2  1  0.064185  0.437018  0.061779  1
  Tb  Tb3  1  0.060449  0.646386  0.646780  1
  Tb  Tb4  1  0.650190  0.651803  0.651648  1
  Tb  Tb5  1  0.065270  0.061921  0.437267  1
  Tb  Tb6  1  0.191311  0.809692  0.189304  1
  Tb  Tb7  1  0.814294  0.812174  0.186944  1
  Tb  Tb8  1  0.813442  0.186548  0.813464  1
  Tb  Tb9  1  0.435927  0.063358  0.437358  1
  Tb  Tb10  1  0.436824  0.437618  0.062591  1
  Tb  Tb11  1  0.436824  0.062968  0.062591  1
  Tb  Tb12  1  0.065270  0.435540  0.437267  1
  Tb  Tb13  1  0.190824  0.188745  0.811227  1
  Tb  Tb14  1  0.650712  0.651853  0.045584  1
  Tb  Tb15  1  0.650190  0.046361  0.651648  1
  Mg  Mg16  1  0.710861  0.429572  0.429996  1
  Ag  Ag17  1  0.417800  0.415710  0.750781  1
  Ag  Ag18  1  0.417555  0.751304  0.415408  1
  Ag  Ag19  1  0.417555  0.415734  0.415408  1
  Ir  Ir20  1  0.860150  0.426334  0.855739  1
  Ir  Ir21  1  0.860150  0.857778  0.855739  1
  Ir  Ir22  1  0.425924  0.858705  0.856668  1
  Rh  Rh23  1  0.859179  0.857092  0.426638  1
