# generated using pymatgen
data_BaAc2(AgPb)3
_symmetry_space_group_name_H-M   'P 1'
_cell_length_a   5.05548700
_cell_length_b   5.05548610
_cell_length_c   12.78252000
_cell_angle_alpha   90.00000000
_cell_angle_beta   90.00000000
_cell_angle_gamma   119.99998624
_symmetry_Int_Tables_number   1
_chemical_formula_structural   BaAc2(AgPb)3
_chemical_formula_sum   'Ba1 Ac2 Ag3 Pb3'
_cell_volume   282.92615116
_cell_formula_units_Z   1
loop_
 _symmetry_equiv_pos_site_id
 _symmetry_equiv_pos_as_xyz
  1  'x, y, z'
loop_
 _atom_site_type_symbol
 _atom_site_label
 _atom_site_symmetry_multiplicity
 _atom_site_fract_x
 _atom_site_fract_y
 _atom_site_fract_z
 _atom_site_occupancy
  Ba  Ba0  1  0.000000  0.000000  0.995017  1
  Ac  Ac1  1  0.000000  0.000000  0.658797  1
  Ac  Ac2  1  0.000000  0.000000  0.331306  1
  Ag  Ag3  1  0.333333  0.666667  0.802840  1
  Ag  Ag4  1  0.666667  0.333333  0.495638  1
  Ag  Ag5  1  0.333333  0.666667  0.187311  1
  Pb  Pb6  1  0.666667  0.333333  0.815357  1
  Pb  Pb7  1  0.666667  0.333333  0.175027  1
  Pb  Pb8  1  0.333333  0.666667  0.494709  1
