# generated using pymatgen
data_Pr6MnP12Rh17
_symmetry_space_group_name_H-M   'P 1'
_cell_length_a   3.96908700
_cell_length_b   11.36257800
_cell_length_c   12.90467300
_cell_angle_alpha   90.00000000
_cell_angle_beta   90.00000000
_cell_angle_gamma   90.00000000
_symmetry_Int_Tables_number   1
_chemical_formula_structural   Pr6MnP12Rh17
_chemical_formula_sum   'Pr6 Mn1 P12 Rh17'
_cell_volume   581.98862999
_cell_formula_units_Z   1
loop_
 _symmetry_equiv_pos_site_id
 _symmetry_equiv_pos_as_xyz
  1  'x, y, z'
loop_
 _atom_site_type_symbol
 _atom_site_label
 _atom_site_symmetry_multiplicity
 _atom_site_fract_x
 _atom_site_fract_y
 _atom_site_fract_z
 _atom_site_occupancy
  Pr  Pr0  1  0.000000  0.500000  0.519417  1
  Pr  Pr1  1  0.500000  0.000000  0.480375  1
  Pr  Pr2  1  0.500000  0.822015  0.202188  1
  Pr  Pr3  1  0.500000  0.177985  0.202188  1
  Pr  Pr4  1  0.000000  0.684599  0.796469  1
  Pr  Pr5  1  0.000000  0.315401  0.796469  1
  Mn  Mn6  1  0.500000  0.000000  0.005967  1
  P  P7  1  0.500000  0.500000  0.883344  1
  P  P8  1  0.000000  0.000000  0.110711  1
  P  P9  1  0.500000  0.500000  0.345794  1
  P  P10  1  0.000000  0.000000  0.656907  1
  P  P11  1  0.500000  0.311187  0.617400  1
  P  P12  1  0.500000  0.688813  0.617400  1
  P  P13  1  0.000000  0.188587  0.381992  1
  P  P14  1  0.000000  0.811413  0.381992  1
  P  P15  1  0.500000  0.850114  0.898087  1
  P  P16  1  0.500000  0.149886  0.898087  1
  P  P17  1  0.000000  0.653807  0.106051  1
  P  P18  1  0.000000  0.346193  0.106051  1
  Rh  Rh19  1  0.500000  0.500000  0.167038  1
  Rh  Rh20  1  0.000000  0.000000  0.839969  1
  Rh  Rh21  1  0.500000  0.500000  0.702949  1
  Rh  Rh22  1  0.000000  0.000000  0.297340  1
  Rh  Rh23  1  0.000000  0.500000  0.984233  1
  Rh  Rh24  1  0.500000  0.334503  0.996215  1
  Rh  Rh25  1  0.500000  0.665497  0.996215  1
  Rh  Rh26  1  0.000000  0.165344  0.005125  1
  Rh  Rh27  1  0.000000  0.834656  0.005125  1
  Rh  Rh28  1  0.500000  0.293556  0.429791  1
  Rh  Rh29  1  0.500000  0.706444  0.429791  1
  Rh  Rh30  1  0.000000  0.206642  0.569901  1
  Rh  Rh31  1  0.000000  0.793358  0.569901  1
  Rh  Rh32  1  0.500000  0.875969  0.712451  1
  Rh  Rh33  1  0.500000  0.124031  0.712451  1
  Rh  Rh34  1  0.000000  0.625603  0.287307  1
  Rh  Rh35  1  0.000000  0.374397  0.287307  1
