# generated using pymatgen
data_TmCu7O12
_symmetry_space_group_name_H-M   'P 1'
_cell_length_a   6.32737466
_cell_length_b   6.32737405
_cell_length_c   6.32737500
_cell_angle_alpha   109.47122366
_cell_angle_beta   109.47122172
_cell_angle_gamma   109.47122149
_symmetry_Int_Tables_number   1
_chemical_formula_structural   TmCu7O12
_chemical_formula_sum   'Tm1 Cu7 O12'
_cell_volume   195.00633369
_cell_formula_units_Z   1
loop_
 _symmetry_equiv_pos_site_id
 _symmetry_equiv_pos_as_xyz
  1  'x, y, z'
loop_
 _atom_site_type_symbol
 _atom_site_label
 _atom_site_symmetry_multiplicity
 _atom_site_fract_x
 _atom_site_fract_y
 _atom_site_fract_z
 _atom_site_occupancy
  Tm  Tm0  1  0.000000  0.000000  0.000000  1
  Cu  Cu1  1  0.000000  0.500000  0.500000  1
  Cu  Cu2  1  0.500000  0.000000  0.500000  1
  Cu  Cu3  1  0.500000  0.500000  0.000000  1
  Cu  Cu4  1  0.000000  0.000000  0.500000  1
  Cu  Cu5  1  0.000000  0.500000  0.000000  1
  Cu  Cu6  1  0.500000  0.000000  0.000000  1
  Cu  Cu7  1  0.500000  0.500000  0.500000  1
  O  O8  1  0.304338  0.136570  0.832231  1
  O  O9  1  0.695662  0.863430  0.167769  1
  O  O10  1  0.695662  0.527893  0.832231  1
  O  O11  1  0.472107  0.167769  0.304338  1
  O  O12  1  0.167769  0.304338  0.472107  1
  O  O13  1  0.832231  0.304338  0.136570  1
  O  O14  1  0.863430  0.167769  0.695662  1
  O  O15  1  0.832231  0.695662  0.527893  1
  O  O16  1  0.304338  0.472107  0.167769  1
  O  O17  1  0.527893  0.832231  0.695662  1
  O  O18  1  0.167769  0.695662  0.863430  1
  O  O19  1  0.136570  0.832231  0.304338  1
