# generated using pymatgen
data_Tb14Y2In6ReNi
_symmetry_space_group_name_H-M   'P 1'
_cell_length_a   10.46145200
_cell_length_b   10.46145320
_cell_length_c   7.07781400
_cell_angle_alpha   90.00000000
_cell_angle_beta   90.00000000
_cell_angle_gamma   120.00000253
_symmetry_Int_Tables_number   1
_chemical_formula_structural   Tb14Y2In6ReNi
_chemical_formula_sum   'Tb14 Y2 In6 Re1 Ni1'
_cell_volume   670.83196639
_cell_formula_units_Z   1
loop_
 _symmetry_equiv_pos_site_id
 _symmetry_equiv_pos_as_xyz
  1  'x, y, z'
loop_
 _atom_site_type_symbol
 _atom_site_label
 _atom_site_symmetry_multiplicity
 _atom_site_fract_x
 _atom_site_fract_y
 _atom_site_fract_z
 _atom_site_occupancy
  Tb  Tb0  1  0.466308  0.533692  0.480459  1
  Tb  Tb1  1  0.067384  0.533692  0.480459  1
  Tb  Tb2  1  0.466308  0.932616  0.480459  1
  Tb  Tb3  1  0.533755  0.466245  0.979068  1
  Tb  Tb4  1  0.932488  0.466245  0.979068  1
  Tb  Tb5  1  0.533755  0.067512  0.979068  1
  Tb  Tb6  1  0.822990  0.177010  0.275152  1
  Tb  Tb7  1  0.354021  0.177010  0.275152  1
  Tb  Tb8  1  0.822990  0.645979  0.275152  1
  Tb  Tb9  1  0.175874  0.824126  0.775469  1
  Tb  Tb10  1  0.648251  0.824126  0.775469  1
  Tb  Tb11  1  0.175874  0.351749  0.775469  1
  Tb  Tb12  1  0.333333  0.666667  0.105913  1
  Tb  Tb13  1  0.666667  0.333333  0.593997  1
  Y  Y14  1  0.000000  0.000000  0.494551  1
  Y  Y15  1  0.000000  0.000000  0.997629  1
  In  In16  1  0.161886  0.838114  0.235079  1
  In  In17  1  0.676227  0.838114  0.235079  1
  In  In18  1  0.161886  0.323773  0.235079  1
  In  In19  1  0.836242  0.163758  0.733583  1
  In  In20  1  0.327516  0.163758  0.733583  1
  In  In21  1  0.836242  0.672484  0.733583  1
  Re  Re22  1  0.333333  0.666667  0.707887  1
  Ni  Ni23  1  0.666667  0.333333  0.208139  1
