# generated using pymatgen
data_Tb6Dy2Lu12Si15Bi
_symmetry_space_group_name_H-M   'P 1'
_cell_length_a   7.41606760
_cell_length_b   7.61925268
_cell_length_c   14.45939274
_cell_angle_alpha   90.07083511
_cell_angle_beta   87.14235332
_cell_angle_gamma   90.17583391
_symmetry_Int_Tables_number   1
_chemical_formula_structural   Tb6Dy2Lu12Si15Bi
_chemical_formula_sum   'Tb6 Dy2 Lu12 Si15 Bi1'
_cell_volume   816.00612940
_cell_formula_units_Z   1
loop_
 _symmetry_equiv_pos_site_id
 _symmetry_equiv_pos_as_xyz
  1  'x, y, z'
loop_
 _atom_site_type_symbol
 _atom_site_label
 _atom_site_symmetry_multiplicity
 _atom_site_fract_x
 _atom_site_fract_y
 _atom_site_fract_z
 _atom_site_occupancy
  Tb  Tb0  1  0.017242  0.180259  0.098377  1
  Tb  Tb1  1  0.983176  0.820956  0.901811  1
  Tb  Tb2  1  0.483927  0.679175  0.902053  1
  Tb  Tb3  1  0.999769  0.829120  0.600405  1
  Tb  Tb4  1  0.517430  0.320075  0.099321  1
  Tb  Tb5  1  0.994752  0.173830  0.398407  1
  Dy  Dy6  1  0.508571  0.313882  0.396407  1
  Dy  Dy7  1  0.516768  0.687051  0.603012  1
  Lu  Lu8  1  0.167918  0.504213  0.754330  1
  Lu  Lu9  1  0.830146  0.495160  0.252863  1
  Lu  Lu10  1  0.330101  0.006987  0.252200  1
  Lu  Lu11  1  0.672412  0.994544  0.749724  1
  Lu  Lu12  1  0.355448  0.151650  0.627076  1
  Lu  Lu13  1  0.649120  0.830531  0.377046  1
  Lu  Lu14  1  0.144755  0.681612  0.370362  1
  Lu  Lu15  1  0.670450  0.822393  0.122424  1
  Lu  Lu16  1  0.834472  0.330197  0.623996  1
  Lu  Lu17  1  0.327757  0.175363  0.876860  1
  Lu  Lu18  1  0.827007  0.323738  0.876849  1
  Lu  Lu19  1  0.171262  0.677302  0.123394  1
  Si  Si20  1  0.040868  0.116772  0.751698  1
  Si  Si21  1  0.955405  0.889720  0.245701  1
  Si  Si22  1  0.457290  0.611906  0.247639  1
  Si  Si23  1  0.537997  0.387949  0.752659  1
  Si  Si24  1  0.293124  0.864623  0.753905  1
  Si  Si25  1  0.710551  0.128255  0.246068  1
  Si  Si26  1  0.209907  0.372078  0.247772  1
  Si  Si27  1  0.793580  0.631607  0.752444  1
  Si  Si28  1  0.799983  0.536991  0.456713  1
  Si  Si29  1  0.307411  0.965537  0.457085  1
  Si  Si30  1  0.849523  0.531030  0.040345  1
  Si  Si31  1  0.693683  0.035342  0.541935  1
  Si  Si32  1  0.149616  0.468632  0.960673  1
  Si  Si33  1  0.649883  0.031037  0.959932  1
  Si  Si34  1  0.349137  0.969968  0.040862  1
  Bi  Bi35  1  0.199554  0.460520  0.537654  1
