# generated using pymatgen
data_Ho7TmTi11Si16Hg
_symmetry_space_group_name_H-M   'P 1'
_cell_length_a   7.06895050
_cell_length_b   7.06971648
_cell_length_c   12.90263531
_cell_angle_alpha   90.12115304
_cell_angle_beta   89.89181361
_cell_angle_gamma   89.61421751
_symmetry_Int_Tables_number   1
_chemical_formula_structural   Ho7TmTi11Si16Hg
_chemical_formula_sum   'Ho7 Tm1 Ti11 Si16 Hg1'
_cell_volume   644.79811464
_cell_formula_units_Z   1
loop_
 _symmetry_equiv_pos_site_id
 _symmetry_equiv_pos_as_xyz
  1  'x, y, z'
loop_
 _atom_site_type_symbol
 _atom_site_label
 _atom_site_symmetry_multiplicity
 _atom_site_fract_x
 _atom_site_fract_y
 _atom_site_fract_z
 _atom_site_occupancy
  Ho  Ho0  1  0.497913  0.839799  0.715855  1
  Ho  Ho1  1  0.501328  0.157201  0.215192  1
  Ho  Ho2  1  0.839669  0.498056  0.284072  1
  Ho  Ho3  1  0.157308  0.501378  0.784921  1
  Ho  Ho4  1  0.657062  0.000314  0.968453  1
  Ho  Ho5  1  0.002252  0.341130  0.532997  1
  Ho  Ho6  1  0.000368  0.657104  0.031604  1
  Tm  Tm7  1  0.341493  0.001552  0.466860  1
  Ti  Ti8  1  0.173632  0.826658  0.250807  1
  Ti  Ti9  1  0.826652  0.173468  0.749242  1
  Ti  Ti10  1  0.672773  0.673131  0.499988  1
  Ti  Ti11  1  0.147218  0.008351  0.876771  1
  Ti  Ti12  1  0.495658  0.650025  0.123757  1
  Ti  Ti13  1  0.506736  0.351335  0.624293  1
  Ti  Ti14  1  0.649968  0.495630  0.876284  1
  Ti  Ti15  1  0.351391  0.507035  0.375652  1
  Ti  Ti16  1  0.849957  0.991711  0.374668  1
  Ti  Ti17  1  0.008438  0.147115  0.123235  1
  Ti  Ti18  1  0.991763  0.849979  0.625252  1
  Si  Si19  1  0.202081  0.131966  0.683506  1
  Si  Si20  1  0.373875  0.724464  0.927115  1
  Si  Si21  1  0.631091  0.293756  0.432548  1
  Si  Si22  1  0.724402  0.373823  0.072867  1
  Si  Si23  1  0.294311  0.632244  0.567197  1
  Si  Si24  1  0.798150  0.867055  0.183129  1
  Si  Si25  1  0.132544  0.201454  0.316701  1
  Si  Si26  1  0.867031  0.798207  0.816861  1
  Si  Si27  1  0.286181  0.933024  0.067503  1
  Si  Si28  1  0.546130  0.791773  0.315184  1
  Si  Si29  1  0.458518  0.205110  0.805473  1
  Si  Si30  1  0.791410  0.546559  0.685118  1
  Si  Si31  1  0.205158  0.458549  0.194590  1
  Si  Si32  1  0.708708  0.047617  0.563848  1
  Si  Si33  1  0.933075  0.286134  0.932460  1
  Si  Si34  1  0.048230  0.709750  0.435964  1
  Hg  Hg35  1  0.327526  0.327540  0.000035  1
