# generated using pymatgen
data_Nd2ThSn3Ir2Ru
_symmetry_space_group_name_H-M   'P 1'
_cell_length_a   7.61893200
_cell_length_b   7.49742205
_cell_length_c   4.16937600
_cell_angle_alpha   90.00000000
_cell_angle_beta   90.00000000
_cell_angle_gamma   120.53758377
_symmetry_Int_Tables_number   1
_chemical_formula_structural   Nd2ThSn3Ir2Ru
_chemical_formula_sum   'Nd2 Th1 Sn3 Ir2 Ru1'
_cell_volume   205.13018630
_cell_formula_units_Z   1
loop_
 _symmetry_equiv_pos_site_id
 _symmetry_equiv_pos_as_xyz
  1  'x, y, z'
loop_
 _atom_site_type_symbol
 _atom_site_label
 _atom_site_symmetry_multiplicity
 _atom_site_fract_x
 _atom_site_fract_y
 _atom_site_fract_z
 _atom_site_occupancy
  Nd  Nd0  1  0.003005  0.589973  0.000000  1
  Nd  Nd1  1  0.413033  0.410027  0.000000  1
  Th  Th2  1  0.587747  0.000000  0.000000  1
  Sn  Sn3  1  0.238282  0.000000  0.500000  1
  Sn  Sn4  1  0.009209  0.257455  0.500000  1
  Sn  Sn5  1  0.751753  0.742545  0.500000  1
  Ir  Ir6  1  0.350000  0.687924  0.500000  1
  Ir  Ir7  1  0.662077  0.312076  0.500000  1
  Ru  Ru8  1  0.984894  0.000000  0.000000  1
