# generated using pymatgen
data_Pr3Hg2Pd3Au
_symmetry_space_group_name_H-M   'P 1'
_cell_length_a   7.76801945
_cell_length_b   7.76801924
_cell_length_c   4.00505500
_cell_angle_alpha   90.00000000
_cell_angle_beta   90.00000000
_cell_angle_gamma   119.35656316
_symmetry_Int_Tables_number   1
_chemical_formula_structural   Pr3Hg2Pd3Au
_chemical_formula_sum   'Pr3 Hg2 Pd3 Au1'
_cell_volume   210.63919636
_cell_formula_units_Z   1
loop_
 _symmetry_equiv_pos_site_id
 _symmetry_equiv_pos_as_xyz
  1  'x, y, z'
loop_
 _atom_site_type_symbol
 _atom_site_label
 _atom_site_symmetry_multiplicity
 _atom_site_fract_x
 _atom_site_fract_y
 _atom_site_fract_z
 _atom_site_occupancy
  Pr  Pr0  1  0.405915  0.405915  0.500000  1
  Pr  Pr1  1  0.605808  0.992065  0.500000  1
  Pr  Pr2  1  0.992065  0.605808  0.500000  1
  Hg  Hg3  1  0.263364  0.000960  0.000000  1
  Hg  Hg4  1  0.000960  0.263364  0.000000  1
  Pd  Pd5  1  0.664932  0.330452  0.000000  1
  Pd  Pd6  1  0.330452  0.664932  0.000000  1
  Pd  Pd7  1  0.001960  0.001960  0.500000  1
  Au  Au8  1  0.734543  0.734543  0.000000  1
