# generated using pymatgen
data_P2I2Br7Cl5
_symmetry_space_group_name_H-M   'P 1'
_cell_length_a   10.71775381
_cell_length_b   10.69674116
_cell_length_c   5.93913046
_cell_angle_alpha   91.21179751
_cell_angle_beta   89.21317290
_cell_angle_gamma   89.51183539
_symmetry_Int_Tables_number   1
_chemical_formula_structural   P2I2Br7Cl5
_chemical_formula_sum   'P2 I2 Br7 Cl5'
_cell_volume   680.64893329
_cell_formula_units_Z   1
loop_
 _symmetry_equiv_pos_site_id
 _symmetry_equiv_pos_as_xyz
  1  'x, y, z'
loop_
 _atom_site_type_symbol
 _atom_site_label
 _atom_site_symmetry_multiplicity
 _atom_site_fract_x
 _atom_site_fract_y
 _atom_site_fract_z
 _atom_site_occupancy
  P  P0  1  0.001358  0.998034  0.504259  1
  P  P1  1  0.502271  0.500082  0.494728  1
  I  I2  1  0.993559  0.506034  0.094372  1
  I  I3  1  0.495326  0.999329  0.902798  1
  Br  Br4  1  0.318929  0.822695  0.892302  1
  Br  Br5  1  0.079721  0.139730  0.734242  1
  Br  Br6  1  0.178127  0.316707  0.076680  1
  Br  Br7  1  0.681052  0.179552  0.911464  1
  Br  Br8  1  0.360712  0.423202  0.721689  1
  Br  Br9  1  0.820072  0.685524  0.112497  1
  Br  Br10  1  0.583657  0.357853  0.259168  1
  Cl  Cl11  1  0.131051  0.922375  0.298765  1
  Cl  Cl12  1  0.425937  0.635633  0.313888  1
  Cl  Cl13  1  0.633557  0.578052  0.686165  1
  Cl  Cl14  1  0.870058  0.071090  0.311299  1
  Cl  Cl15  1  0.924614  0.864110  0.685685  1
