# generated using pymatgen
data_La4CdPb11
_symmetry_space_group_name_H-M   'P 1'
_cell_length_a   9.92195900
_cell_length_b   6.98053053
_cell_length_c   6.98056019
_cell_angle_alpha   89.92891928
_cell_angle_beta   90.00000000
_cell_angle_gamma   90.00000000
_symmetry_Int_Tables_number   1
_chemical_formula_structural   La4CdPb11
_chemical_formula_sum   'La4 Cd1 Pb11'
_cell_volume   483.47698071
_cell_formula_units_Z   1
loop_
 _symmetry_equiv_pos_site_id
 _symmetry_equiv_pos_as_xyz
  1  'x, y, z'
loop_
 _atom_site_type_symbol
 _atom_site_label
 _atom_site_symmetry_multiplicity
 _atom_site_fract_x
 _atom_site_fract_y
 _atom_site_fract_z
 _atom_site_occupancy
  La  La0  1  0.250000  0.003184  0.001254  1
  La  La1  1  0.250000  0.498173  0.502007  1
  La  La2  1  0.750000  0.997868  0.999183  1
  La  La3  1  0.750000  0.502102  0.498932  1
  Cd  Cd4  1  0.750000  0.496837  0.997957  1
  Pb  Pb5  1  0.995802  0.250123  0.750131  1
  Pb  Pb6  1  0.505093  0.254299  0.245817  1
  Pb  Pb7  1  0.503431  0.749494  0.249412  1
  Pb  Pb8  1  0.995858  0.745863  0.754162  1
  Pb  Pb9  1  0.996569  0.749494  0.249412  1
  Pb  Pb10  1  0.504142  0.745863  0.754162  1
  Pb  Pb11  1  0.504198  0.250123  0.750131  1
  Pb  Pb12  1  0.994907  0.254299  0.245817  1
  Pb  Pb13  1  0.250000  0.999032  0.500738  1
  Pb  Pb14  1  0.250000  0.502061  0.001530  1
  Pb  Pb15  1  0.750000  0.001180  0.499358  1
