# generated using pymatgen
data_Tb20Co3TcBi8
_symmetry_space_group_name_H-M   'P 1'
_cell_length_a   8.04849841
_cell_length_b   8.95647100
_cell_length_c   12.46320974
_cell_angle_alpha   90.00001100
_cell_angle_beta   90.17573700
_cell_angle_gamma   89.99998647
_symmetry_Int_Tables_number   1
_chemical_formula_structural   Tb20Co3TcBi8
_chemical_formula_sum   'Tb20 Co3 Tc1 Bi8'
_cell_volume   898.42048866
_cell_formula_units_Z   1
loop_
 _symmetry_equiv_pos_site_id
 _symmetry_equiv_pos_as_xyz
  1  'x, y, z'
loop_
 _atom_site_type_symbol
 _atom_site_label
 _atom_site_symmetry_multiplicity
 _atom_site_fract_x
 _atom_site_fract_y
 _atom_site_fract_z
 _atom_site_occupancy
  Tb  Tb0  1  0.847115  0.750001  0.798566  1
  Tb  Tb1  1  0.150752  0.250000  0.198917  1
  Tb  Tb2  1  0.348088  0.250000  0.699801  1
  Tb  Tb3  1  0.651417  0.750000  0.294580  1
  Tb  Tb4  1  0.380750  0.750000  0.693206  1
  Tb  Tb5  1  0.618839  0.249999  0.308942  1
  Tb  Tb6  1  0.880820  0.250000  0.809976  1
  Tb  Tb7  1  0.117220  0.749999  0.187874  1
  Tb  Tb8  1  0.948318  0.750000  0.503835  1
  Tb  Tb9  1  0.048957  0.250000  0.496401  1
  Tb  Tb10  1  0.452087  0.250000  0.996988  1
  Tb  Tb11  1  0.548875  0.750000  0.003311  1
  Tb  Tb12  1  0.678815  0.043186  0.565451  1
  Tb  Tb13  1  0.324377  0.967484  0.437709  1
  Tb  Tb14  1  0.176092  0.965968  0.936818  1
  Tb  Tb15  1  0.324377  0.532516  0.437709  1
  Tb  Tb16  1  0.822906  0.036634  0.063167  1
  Tb  Tb17  1  0.678814  0.456814  0.565451  1
  Tb  Tb18  1  0.822905  0.463367  0.063167  1
  Tb  Tb19  1  0.176092  0.534033  0.936818  1
  Co  Co20  1  0.429437  0.249999  0.489326  1
  Co  Co21  1  0.060575  0.250000  0.991582  1
  Co  Co22  1  0.937433  0.750000  0.006989  1
  Tc  Tc23  1  0.575648  0.750000  0.512027  1
  Bi  Bi24  1  0.572161  0.492426  0.827216  1
  Bi  Bi25  1  0.425936  0.507243  0.173124  1
  Bi  Bi26  1  0.073783  0.507684  0.673948  1
  Bi  Bi27  1  0.425935  0.992757  0.173124  1
  Bi  Bi28  1  0.927767  0.492633  0.326404  1
  Bi  Bi29  1  0.572161  0.007574  0.827217  1
  Bi  Bi30  1  0.927767  0.007367  0.326404  1
  Bi  Bi31  1  0.073782  0.992317  0.673948  1
