# generated using pymatgen
data_LiTb4Nd6Y6Cd3Ir4
_symmetry_space_group_name_H-M   'P 1'
_cell_length_a   9.77905743
_cell_length_b   9.77905822
_cell_length_c   9.77905800
_cell_angle_alpha   60.00000073
_cell_angle_beta   59.99999809
_cell_angle_gamma   60.00000528
_symmetry_Int_Tables_number   1
_chemical_formula_structural   LiTb4Nd6Y6Cd3Ir4
_chemical_formula_sum   'Li1 Tb4 Nd6 Y6 Cd3 Ir4'
_cell_volume   661.26580607
_cell_formula_units_Z   1
loop_
 _symmetry_equiv_pos_site_id
 _symmetry_equiv_pos_as_xyz
  1  'x, y, z'
loop_
 _atom_site_type_symbol
 _atom_site_label
 _atom_site_symmetry_multiplicity
 _atom_site_fract_x
 _atom_site_fract_y
 _atom_site_fract_z
 _atom_site_occupancy
  Li  Li0  1  0.572856  0.572856  0.572856  1
  Tb  Tb1  1  0.348032  0.348032  0.348032  1
  Tb  Tb2  1  0.346650  0.346650  0.958898  1
  Tb  Tb3  1  0.346650  0.958898  0.346650  1
  Tb  Tb4  1  0.958898  0.346650  0.346650  1
  Nd  Nd5  1  0.941829  0.559028  0.559028  1
  Nd  Nd6  1  0.559365  0.940461  0.940461  1
  Nd  Nd7  1  0.559028  0.941829  0.559028  1
  Nd  Nd8  1  0.940461  0.559365  0.940461  1
  Nd  Nd9  1  0.559028  0.559028  0.941829  1
  Nd  Nd10  1  0.940461  0.940461  0.559365  1
  Y  Y11  1  0.812275  0.188553  0.188553  1
  Y  Y12  1  0.185950  0.813757  0.813757  1
  Y  Y13  1  0.188553  0.812275  0.188553  1
  Y  Y14  1  0.813757  0.185950  0.813757  1
  Y  Y15  1  0.188553  0.188553  0.812275  1
  Y  Y16  1  0.813757  0.813757  0.185950  1
  Cd  Cd17  1  0.580593  0.580593  0.261707  1
  Cd  Cd18  1  0.580593  0.261707  0.580593  1
  Cd  Cd19  1  0.261707  0.580593  0.580593  1
  Ir  Ir20  1  0.141815  0.141815  0.141815  1
  Ir  Ir21  1  0.141921  0.141921  0.575348  1
  Ir  Ir22  1  0.141921  0.575348  0.141921  1
  Ir  Ir23  1  0.575348  0.141921  0.141921  1
