# generated using pymatgen
data_Tm6OsRu
_symmetry_space_group_name_H-M   'P 1'
_cell_length_a   6.22979702
_cell_length_b   7.30011962
_cell_length_c   8.93868500
_cell_angle_alpha   90.00000000
_cell_angle_beta   90.00000000
_cell_angle_gamma   90.13053277
_symmetry_Int_Tables_number   1
_chemical_formula_structural   Tm6OsRu
_chemical_formula_sum   'Tm12 Os2 Ru2'
_cell_volume   406.51481663
_cell_formula_units_Z   2
loop_
 _symmetry_equiv_pos_site_id
 _symmetry_equiv_pos_as_xyz
  1  'x, y, z'
loop_
 _atom_site_type_symbol
 _atom_site_label
 _atom_site_symmetry_multiplicity
 _atom_site_fract_x
 _atom_site_fract_y
 _atom_site_fract_z
 _atom_site_occupancy
  Tm  Tm0  1  0.632670  0.040212  0.250000  1
  Tm  Tm1  1  0.367330  0.959788  0.750000  1
  Tm  Tm2  1  0.129690  0.458109  0.750000  1
  Tm  Tm3  1  0.870310  0.541891  0.250000  1
  Tm  Tm4  1  0.168671  0.176200  0.063755  1
  Tm  Tm5  1  0.831329  0.823800  0.936245  1
  Tm  Tm6  1  0.667171  0.325284  0.938340  1
  Tm  Tm7  1  0.831329  0.823800  0.563755  1
  Tm  Tm8  1  0.332829  0.674716  0.061660  1
  Tm  Tm9  1  0.168671  0.176200  0.436245  1
  Tm  Tm10  1  0.332829  0.674716  0.438340  1
  Tm  Tm11  1  0.667171  0.325284  0.561660  1
  Os  Os12  1  0.463288  0.383229  0.250000  1
  Os  Os13  1  0.536712  0.616771  0.750000  1
  Ru  Ru14  1  0.962444  0.115644  0.750000  1
  Ru  Ru15  1  0.037556  0.884356  0.250000  1
