# generated using pymatgen
data_CeY2Mg3PtRh2
_symmetry_space_group_name_H-M   'P 1'
_cell_length_a   7.31595372
_cell_length_b   7.31595462
_cell_length_c   4.00557000
_cell_angle_alpha   90.00000000
_cell_angle_beta   90.00000000
_cell_angle_gamma   117.18917771
_symmetry_Int_Tables_number   1
_chemical_formula_structural   CeY2Mg3PtRh2
_chemical_formula_sum   'Ce1 Y2 Mg3 Pt1 Rh2'
_cell_volume   190.70125341
_cell_formula_units_Z   1
loop_
 _symmetry_equiv_pos_site_id
 _symmetry_equiv_pos_as_xyz
  1  'x, y, z'
loop_
 _atom_site_type_symbol
 _atom_site_label
 _atom_site_symmetry_multiplicity
 _atom_site_fract_x
 _atom_site_fract_y
 _atom_site_fract_z
 _atom_site_occupancy
  Ce  Ce0  1  0.424202  0.424202  0.000000  1
  Y  Y1  1  0.588911  0.001231  0.000000  1
  Y  Y2  1  0.001231  0.588911  0.000000  1
  Mg  Mg3  1  0.246760  0.994801  0.500000  1
  Mg  Mg4  1  0.994801  0.246760  0.500000  1
  Mg  Mg5  1  0.762812  0.762812  0.500000  1
  Pt  Pt6  1  0.999015  0.999015  0.000000  1
  Rh  Rh7  1  0.334942  0.647326  0.500000  1
  Rh  Rh8  1  0.647326  0.334942  0.500000  1
