# generated using pymatgen
data_BaP2RuRh
_symmetry_space_group_name_H-M   'P 1'
_cell_length_a   6.88336682
_cell_length_b   6.88336665
_cell_length_c   6.88336646
_cell_angle_alpha   146.10513392
_cell_angle_beta   146.10514035
_cell_angle_gamma   48.69062706
_symmetry_Int_Tables_number   1
_chemical_formula_structural   BaP2RuRh
_chemical_formula_sum   'Ba1 P2 Ru1 Rh1'
_cell_volume   100.98986864
_cell_formula_units_Z   1
loop_
 _symmetry_equiv_pos_site_id
 _symmetry_equiv_pos_as_xyz
  1  'x, y, z'
loop_
 _atom_site_type_symbol
 _atom_site_label
 _atom_site_symmetry_multiplicity
 _atom_site_fract_x
 _atom_site_fract_y
 _atom_site_fract_z
 _atom_site_occupancy
  Ba  Ba0  1  0.000000  0.000000  0.000000  1
  P  P1  1  0.652856  0.652856  0.000000  1
  P  P2  1  0.347144  0.347144  0.000000  1
  Ru  Ru3  1  0.750000  0.250000  0.500000  1
  Rh  Rh4  1  0.250000  0.750000  0.500000  1
