# generated using pymatgen
data_TmTh3ScIr3
_symmetry_space_group_name_H-M   'P 1'
_cell_length_a   8.33135900
_cell_length_b   8.33136001
_cell_length_c   6.32302500
_cell_angle_alpha   90.00000000
_cell_angle_beta   90.00000000
_cell_angle_gamma   119.99999201
_symmetry_Int_Tables_number   1
_chemical_formula_structural   TmTh3ScIr3
_chemical_formula_sum   'Tm2 Th6 Sc2 Ir6'
_cell_volume   380.09076330
_cell_formula_units_Z   2
loop_
 _symmetry_equiv_pos_site_id
 _symmetry_equiv_pos_as_xyz
  1  'x, y, z'
loop_
 _atom_site_type_symbol
 _atom_site_label
 _atom_site_symmetry_multiplicity
 _atom_site_fract_x
 _atom_site_fract_y
 _atom_site_fract_z
 _atom_site_occupancy
  Tm  Tm0  1  0.666667  0.333333  0.500000  1
  Tm  Tm1  1  0.333333  0.666667  0.500000  1
  Th  Th2  1  0.259370  0.000000  0.246896  1
  Th  Th3  1  0.740630  0.000000  0.753104  1
  Th  Th4  1  0.000000  0.259370  0.246896  1
  Th  Th5  1  0.000000  0.740630  0.753104  1
  Th  Th6  1  0.740630  0.740630  0.246896  1
  Th  Th7  1  0.259370  0.259370  0.753104  1
  Sc  Sc8  1  0.333333  0.666667  0.000000  1
  Sc  Sc9  1  0.666667  0.333333  0.000000  1
  Ir  Ir10  1  0.612277  0.000000  0.232333  1
  Ir  Ir11  1  0.387723  0.000000  0.767667  1
  Ir  Ir12  1  0.000000  0.612277  0.232333  1
  Ir  Ir13  1  0.000000  0.387723  0.767667  1
  Ir  Ir14  1  0.387723  0.387723  0.232333  1
  Ir  Ir15  1  0.612277  0.612277  0.767667  1
