# generated using pymatgen
data_TmHf(SnRh)2
_symmetry_space_group_name_H-M   'P 1'
_cell_length_a   7.47109500
_cell_length_b   7.47109433
_cell_length_c   7.45135800
_cell_angle_alpha   90.00000000
_cell_angle_beta   90.00000000
_cell_angle_gamma   120.00000740
_symmetry_Int_Tables_number   1
_chemical_formula_structural   TmHf(SnRh)2
_chemical_formula_sum   'Tm3 Hf3 Sn6 Rh6'
_cell_volume   360.19236878
_cell_formula_units_Z   3
loop_
 _symmetry_equiv_pos_site_id
 _symmetry_equiv_pos_as_xyz
  1  'x, y, z'
loop_
 _atom_site_type_symbol
 _atom_site_label
 _atom_site_symmetry_multiplicity
 _atom_site_fract_x
 _atom_site_fract_y
 _atom_site_fract_z
 _atom_site_occupancy
  Tm  Tm0  1  0.000368  0.405728  0.750000  1
  Tm  Tm1  1  0.594272  0.594640  0.750000  1
  Tm  Tm2  1  0.405360  0.999632  0.750000  1
  Hf  Hf3  1  0.997255  0.392312  0.250000  1
  Hf  Hf4  1  0.607688  0.604943  0.250000  1
  Hf  Hf5  1  0.395057  0.002745  0.250000  1
  Sn  Sn6  1  0.266430  0.267989  0.494933  1
  Sn  Sn7  1  0.001558  0.733570  0.494933  1
  Sn  Sn8  1  0.001558  0.733570  0.005067  1
  Sn  Sn9  1  0.732011  0.998442  0.494933  1
  Sn  Sn10  1  0.732011  0.998442  0.005067  1
  Sn  Sn11  1  0.266430  0.267989  0.005067  1
  Rh  Rh12  1  0.333333  0.666667  0.461828  1
  Rh  Rh13  1  0.666667  0.333333  0.467107  1
  Rh  Rh14  1  0.333333  0.666667  0.038172  1
  Rh  Rh15  1  0.000000  0.000000  0.750000  1
  Rh  Rh16  1  0.000000  0.000000  0.250000  1
  Rh  Rh17  1  0.666667  0.333333  0.032893  1
