# generated using pymatgen
data_TbYInNi9
_symmetry_space_group_name_H-M   'P 1'
_cell_length_a   8.52714992
_cell_length_b   8.52714986
_cell_length_c   8.52714989
_cell_angle_alpha   33.63487881
_cell_angle_beta   33.63487738
_cell_angle_gamma   33.63488390
_symmetry_Int_Tables_number   1
_chemical_formula_structural   TbYInNi9
_chemical_formula_sum   'Tb1 Y1 In1 Ni9'
_cell_volume   169.46127411
_cell_formula_units_Z   1
loop_
 _symmetry_equiv_pos_site_id
 _symmetry_equiv_pos_as_xyz
  1  'x, y, z'
loop_
 _atom_site_type_symbol
 _atom_site_label
 _atom_site_symmetry_multiplicity
 _atom_site_fract_x
 _atom_site_fract_y
 _atom_site_fract_z
 _atom_site_occupancy
  Tb  Tb0  1  0.004050  0.004050  0.004050  1
  Y  Y1  1  0.857503  0.857503  0.857503  1
  In  In2  1  0.139001  0.139001  0.139001  1
  Ni  Ni3  1  0.582757  0.582757  0.082156  1
  Ni  Ni4  1  0.332681  0.332681  0.332681  1
  Ni  Ni5  1  0.919762  0.416818  0.416817  1
  Ni  Ni6  1  0.416818  0.919762  0.416817  1
  Ni  Ni7  1  0.499605  0.499605  0.499605  1
  Ni  Ni8  1  0.082157  0.582756  0.582757  1
  Ni  Ni9  1  0.582756  0.082157  0.582757  1
  Ni  Ni10  1  0.666092  0.666092  0.666092  1
  Ni  Ni11  1  0.416817  0.416817  0.919763  1
