# generated using pymatgen
data_Hf10CrReSb4
_symmetry_space_group_name_H-M   'P 1'
_cell_length_a   5.56375972
_cell_length_b   8.28460305
_cell_length_c   8.28460228
_cell_angle_alpha   83.52588944
_cell_angle_beta   70.37947506
_cell_angle_gamma   70.37947496
_symmetry_Int_Tables_number   1
_chemical_formula_structural   Hf10CrReSb4
_chemical_formula_sum   'Hf10 Cr1 Re1 Sb4'
_cell_volume   338.80955872
_cell_formula_units_Z   1
loop_
 _symmetry_equiv_pos_site_id
 _symmetry_equiv_pos_as_xyz
  1  'x, y, z'
loop_
 _atom_site_type_symbol
 _atom_site_label
 _atom_site_symmetry_multiplicity
 _atom_site_fract_x
 _atom_site_fract_y
 _atom_site_fract_z
 _atom_site_occupancy
  Hf  Hf0  1  0.075563  0.132883  0.722366  1
  Hf  Hf1  1  0.930813  0.867117  0.277634  1
  Hf  Hf2  1  0.797929  0.277634  0.132883  1
  Hf  Hf3  1  0.424437  0.277634  0.867117  1
  Hf  Hf4  1  0.208447  0.722366  0.867117  1
  Hf  Hf5  1  0.569187  0.722366  0.132883  1
  Hf  Hf6  1  0.702071  0.867117  0.722366  1
  Hf  Hf7  1  0.291553  0.132883  0.277634  1
  Hf  Hf8  1  0.250000  0.500000  0.500000  1
  Hf  Hf9  1  0.750000  0.500000  0.500000  1
  Cr  Cr10  1  0.250000  0.000000  0.000000  1
  Re  Re11  1  0.750000  0.000000  0.000000  1
  Sb  Sb12  1  0.163540  0.500000  0.172918  1
  Sb  Sb13  1  0.836460  0.500000  0.827082  1
  Sb  Sb14  1  0.336460  0.827082  0.500000  1
  Sb  Sb15  1  0.663540  0.172918  0.500000  1
