# generated using pymatgen
data_Sm6MgCr(Co4P3)4
_symmetry_space_group_name_H-M   'P 1'
_cell_length_a   3.75057900
_cell_length_b   10.66800000
_cell_length_c   12.37845400
_cell_angle_alpha   90.00000000
_cell_angle_beta   90.00000000
_cell_angle_gamma   90.00000000
_symmetry_Int_Tables_number   1
_chemical_formula_structural   Sm6MgCr(Co4P3)4
_chemical_formula_sum   'Sm6 Mg1 Cr1 Co16 P12'
_cell_volume   495.27651116
_cell_formula_units_Z   1
loop_
 _symmetry_equiv_pos_site_id
 _symmetry_equiv_pos_as_xyz
  1  'x, y, z'
loop_
 _atom_site_type_symbol
 _atom_site_label
 _atom_site_symmetry_multiplicity
 _atom_site_fract_x
 _atom_site_fract_y
 _atom_site_fract_z
 _atom_site_occupancy
  Sm  Sm0  1  0.000000  0.500000  0.524508  1
  Sm  Sm1  1  0.500000  0.000000  0.478068  1
  Sm  Sm2  1  0.500000  0.820793  0.206168  1
  Sm  Sm3  1  0.500000  0.179207  0.206168  1
  Sm  Sm4  1  0.000000  0.682120  0.794313  1
  Sm  Sm5  1  0.000000  0.317880  0.794313  1
  Mg  Mg6  1  0.500000  0.500000  0.152387  1
  Cr  Cr7  1  0.000000  0.000000  0.843102  1
  Co  Co8  1  0.500000  0.500000  0.704944  1
  Co  Co9  1  0.000000  0.000000  0.295835  1
  Co  Co10  1  0.000000  0.500000  0.986326  1
  Co  Co11  1  0.500000  0.000000  0.010202  1
  Co  Co12  1  0.500000  0.329038  0.993350  1
  Co  Co13  1  0.500000  0.670962  0.993350  1
  Co  Co14  1  0.000000  0.163675  0.002563  1
  Co  Co15  1  0.000000  0.836325  0.002563  1
  Co  Co16  1  0.500000  0.294979  0.432878  1
  Co  Co17  1  0.500000  0.705021  0.432878  1
  Co  Co18  1  0.000000  0.202694  0.570969  1
  Co  Co19  1  0.000000  0.797306  0.570969  1
  Co  Co20  1  0.500000  0.881237  0.709228  1
  Co  Co21  1  0.500000  0.118763  0.709228  1
  Co  Co22  1  0.000000  0.621805  0.294211  1
  Co  Co23  1  0.000000  0.378195  0.294211  1
  P  P24  1  0.500000  0.500000  0.885541  1
  P  P25  1  0.000000  0.000000  0.114377  1
  P  P26  1  0.500000  0.500000  0.350937  1
  P  P27  1  0.000000  0.000000  0.655630  1
  P  P28  1  0.500000  0.307568  0.615647  1
  P  P29  1  0.500000  0.692432  0.615647  1
  P  P30  1  0.000000  0.191667  0.386535  1
  P  P31  1  0.000000  0.808333  0.386535  1
  P  P32  1  0.500000  0.848920  0.891502  1
  P  P33  1  0.500000  0.151080  0.891502  1
  P  P34  1  0.000000  0.660766  0.101706  1
  P  P35  1  0.000000  0.339234  0.101706  1
