# generated using pymatgen
data_Ti3Mn3Si2As
_symmetry_space_group_name_H-M   'P 1'
_cell_length_a   6.50587700
_cell_length_b   6.50587783
_cell_length_c   3.25798300
_cell_angle_alpha   90.00000000
_cell_angle_beta   90.00000000
_cell_angle_gamma   119.99999071
_symmetry_Int_Tables_number   1
_chemical_formula_structural   Ti3Mn3Si2As
_chemical_formula_sum   'Ti3 Mn3 Si2 As1'
_cell_volume   119.42389676
_cell_formula_units_Z   1
loop_
 _symmetry_equiv_pos_site_id
 _symmetry_equiv_pos_as_xyz
  1  'x, y, z'
loop_
 _atom_site_type_symbol
 _atom_site_label
 _atom_site_symmetry_multiplicity
 _atom_site_fract_x
 _atom_site_fract_y
 _atom_site_fract_z
 _atom_site_occupancy
  Ti  Ti0  1  0.594766  0.993801  0.000000  1
  Ti  Ti1  1  0.006199  0.600965  0.000000  1
  Ti  Ti2  1  0.399035  0.405234  0.000000  1
  Mn  Mn3  1  0.250488  0.995171  0.500000  1
  Mn  Mn4  1  0.004829  0.255317  0.500000  1
  Mn  Mn5  1  0.744683  0.749512  0.500000  1
  Si  Si6  1  0.333333  0.666667  0.500000  1
  Si  Si7  1  0.000000  0.000000  0.000000  1
  As  As8  1  0.666667  0.333333  0.500000  1
