# generated using pymatgen
data_La4TbHo5Ru4
_symmetry_space_group_name_H-M   'P 1'
_cell_length_a   6.49687089
_cell_length_b   7.23606629
_cell_length_c   8.79589329
_cell_angle_alpha   96.31350029
_cell_angle_beta   111.83198395
_cell_angle_gamma   90.04143231
_symmetry_Int_Tables_number   1
_chemical_formula_structural   La4TbHo5Ru4
_chemical_formula_sum   'La4 Tb1 Ho5 Ru4'
_cell_volume   381.13662683
_cell_formula_units_Z   1
loop_
 _symmetry_equiv_pos_site_id
 _symmetry_equiv_pos_as_xyz
  1  'x, y, z'
loop_
 _atom_site_type_symbol
 _atom_site_label
 _atom_site_symmetry_multiplicity
 _atom_site_fract_x
 _atom_site_fract_y
 _atom_site_fract_z
 _atom_site_occupancy
  La  La0  1  0.978677  0.911389  0.193752  1
  La  La1  1  0.783844  0.588521  0.805487  1
  La  La2  1  0.021259  0.089004  0.805841  1
  La  La3  1  0.215633  0.411198  0.194672  1
  Tb  Tb4  1  0.636410  0.814805  0.431257  1
  Ho  Ho5  1  0.205675  0.684333  0.569416  1
  Ho  Ho6  1  0.363963  0.185193  0.569218  1
  Ho  Ho7  1  0.794786  0.315534  0.430715  1
  Ho  Ho8  1  0.425616  0.749730  0.999345  1
  Ho  Ho9  1  0.574110  0.250249  0.000280  1
  Ru  Ru10  1  0.825845  0.581279  0.224855  1
  Ru  Ru11  1  0.600489  0.919218  0.775918  1
  Ru  Ru12  1  0.174337  0.418518  0.774878  1
  Ru  Ru13  1  0.399356  0.081029  0.224366  1
