# generated using pymatgen
data_Ti7Al16Rh7
_symmetry_space_group_name_H-M   'P 1'
_cell_length_a   8.60983606
_cell_length_b   8.60920122
_cell_length_c   8.60984700
_cell_angle_alpha   119.99645269
_cell_angle_beta   120.00429532
_cell_angle_gamma   90.00137134
_symmetry_Int_Tables_number   1
_chemical_formula_structural   Ti7Al16Rh7
_chemical_formula_sum   'Ti7 Al16 Rh7'
_cell_volume   451.26127570
_cell_formula_units_Z   1
loop_
 _symmetry_equiv_pos_site_id
 _symmetry_equiv_pos_as_xyz
  1  'x, y, z'
loop_
 _atom_site_type_symbol
 _atom_site_label
 _atom_site_symmetry_multiplicity
 _atom_site_fract_x
 _atom_site_fract_y
 _atom_site_fract_z
 _atom_site_occupancy
  Ti  Ti0  1  0.795483  0.290495  0.080776  1
  Ti  Ti1  1  0.209729  0.290468  0.494988  1
  Ti  Ti2  1  0.209463  0.704392  0.494901  1
  Ti  Ti3  1  0.218719  0.715573  0.931165  1
  Ti  Ti4  1  0.784360  0.715641  0.496852  1
  Ti  Ti5  1  0.784277  0.281235  0.496957  1
  Ti  Ti6  1  0.378288  0.121885  0.743736  1
  Al  Al7  1  0.378679  0.635871  0.257141  1
  Al  Al8  1  0.996972  0.502720  0.505676  1
  Al  Al9  1  0.155709  0.344266  0.188473  1
  Al  Al10  1  0.150390  0.954514  0.804209  1
  Al  Al11  1  0.150385  0.349719  0.804101  1
  Al  Al12  1  0.545607  0.349618  0.199218  1
  Al  Al13  1  0.848230  0.651971  0.803870  1
  Al  Al14  1  0.845873  0.039270  0.193326  1
  Al  Al15  1  0.845802  0.654145  0.193178  1
  Al  Al16  1  0.460960  0.654192  0.808358  1
  Al  Al17  1  0.378632  0.121215  0.257027  1
  Al  Al18  1  0.864185  0.121310  0.742723  1
  Al  Al19  1  0.621640  0.878253  0.256533  1
  Al  Al20  1  0.621610  0.364572  0.743130  1
  Al  Al21  1  0.621605  0.878510  0.743107  1
  Al  Al22  1  0.135419  0.878352  0.256757  1
  Rh  Rh23  1  0.002827  0.001517  0.503024  1
  Rh  Rh24  1  0.498483  0.001486  0.998722  1
  Rh  Rh25  1  0.498490  0.497233  0.998703  1
  Rh  Rh26  1  0.499091  0.500158  0.500420  1
  Rh  Rh27  1  0.999712  0.500133  0.001082  1
  Rh  Rh28  1  0.999758  0.000971  0.001155  1
  Rh  Rh29  1  0.499620  0.000309  0.500693  1
