# generated using pymatgen
data_Er2B2MoRu5
_symmetry_space_group_name_H-M   'P 1'
_cell_length_a   9.56878600
_cell_length_b   9.56878600
_cell_length_c   3.12016400
_cell_angle_alpha   90.00000000
_cell_angle_beta   90.00000000
_cell_angle_gamma   90.00000000
_symmetry_Int_Tables_number   1
_chemical_formula_structural   Er2B2MoRu5
_chemical_formula_sum   'Er4 B4 Mo2 Ru10'
_cell_volume   285.68741252
_cell_formula_units_Z   2
loop_
 _symmetry_equiv_pos_site_id
 _symmetry_equiv_pos_as_xyz
  1  'x, y, z'
loop_
 _atom_site_type_symbol
 _atom_site_label
 _atom_site_symmetry_multiplicity
 _atom_site_fract_x
 _atom_site_fract_y
 _atom_site_fract_z
 _atom_site_occupancy
  Er  Er0  1  0.675429  0.175429  0.000000  1
  Er  Er1  1  0.324571  0.824571  0.000000  1
  Er  Er2  1  0.175429  0.324571  0.000000  1
  Er  Er3  1  0.824571  0.675429  0.000000  1
  B  B4  1  0.120442  0.620442  0.000000  1
  B  B5  1  0.879558  0.379558  0.000000  1
  B  B6  1  0.620442  0.879558  0.000000  1
  B  B7  1  0.379558  0.120442  0.000000  1
  Mo  Mo8  1  0.000000  0.000000  0.000000  1
  Mo  Mo9  1  0.500000  0.500000  0.000000  1
  Ru  Ru10  1  0.216338  0.069934  0.500000  1
  Ru  Ru11  1  0.783662  0.930066  0.500000  1
  Ru  Ru12  1  0.069934  0.783662  0.500000  1
  Ru  Ru13  1  0.716338  0.430066  0.500000  1
  Ru  Ru14  1  0.930066  0.216338  0.500000  1
  Ru  Ru15  1  0.283662  0.569934  0.500000  1
  Ru  Ru16  1  0.569934  0.716338  0.500000  1
  Ru  Ru17  1  0.430066  0.283662  0.500000  1
  Ru  Ru18  1  0.500000  0.000000  0.500000  1
  Ru  Ru19  1  0.000000  0.500000  0.500000  1
