# generated using pymatgen
data_Ho4Ir3RhO14
_symmetry_space_group_name_H-M   'P 1'
_cell_length_a   7.22211382
_cell_length_b   7.22027052
_cell_length_c   7.22027000
_cell_angle_alpha   60.00000239
_cell_angle_beta   60.00844496
_cell_angle_gamma   60.00844602
_symmetry_Int_Tables_number   1
_chemical_formula_structural   Ho4Ir3RhO14
_chemical_formula_sum   'Ho4 Ir3 Rh1 O14'
_cell_volume   266.26352283
_cell_formula_units_Z   1
loop_
 _symmetry_equiv_pos_site_id
 _symmetry_equiv_pos_as_xyz
  1  'x, y, z'
loop_
 _atom_site_type_symbol
 _atom_site_label
 _atom_site_symmetry_multiplicity
 _atom_site_fract_x
 _atom_site_fract_y
 _atom_site_fract_z
 _atom_site_occupancy
  Ho  Ho0  1  0.625000  0.625000  0.125000  1
  Ho  Ho1  1  0.625000  0.125000  0.625000  1
  Ho  Ho2  1  0.125000  0.625000  0.625000  1
  Ho  Ho3  1  0.625000  0.625000  0.625000  1
  Ir  Ir4  1  0.125000  0.125000  0.625000  1
  Ir  Ir5  1  0.125000  0.625000  0.125000  1
  Ir  Ir6  1  0.125000  0.125000  0.125000  1
  Rh  Rh7  1  0.625000  0.125000  0.125000  1
  O  O8  1  0.461419  0.036069  0.466444  1
  O  O9  1  0.210257  0.787986  0.787986  1
  O  O10  1  0.788581  0.213931  0.213931  1
  O  O11  1  0.210257  0.787986  0.213770  1
  O  O12  1  0.788581  0.783556  0.213931  1
  O  O13  1  0.210257  0.213770  0.787986  1
  O  O14  1  0.461419  0.466444  0.036069  1
  O  O15  1  0.039743  0.462014  0.462014  1
  O  O16  1  0.461419  0.036069  0.036069  1
  O  O17  1  0.039743  0.036230  0.462014  1
  O  O18  1  0.788581  0.213931  0.783556  1
  O  O19  1  0.039743  0.462014  0.036230  1
  O  O20  1  0.498154  0.500615  0.500615  1
  O  O21  1  0.751846  0.749385  0.749385  1
