# generated using pymatgen
data_Ho7Co2Sn23Ru4
_symmetry_space_group_name_H-M   'P 1'
_cell_length_a   9.77252645
_cell_length_b   9.76941724
_cell_length_c   10.05808115
_cell_angle_alpha   90.00000020
_cell_angle_beta   89.91264383
_cell_angle_gamma   119.98947766
_symmetry_Int_Tables_number   1
_chemical_formula_structural   Ho7Co2Sn23Ru4
_chemical_formula_sum   'Ho7 Co2 Sn23 Ru4'
_cell_volume   831.69989193
_cell_formula_units_Z   1
loop_
 _symmetry_equiv_pos_site_id
 _symmetry_equiv_pos_as_xyz
  1  'x, y, z'
loop_
 _atom_site_type_symbol
 _atom_site_label
 _atom_site_symmetry_multiplicity
 _atom_site_fract_x
 _atom_site_fract_y
 _atom_site_fract_z
 _atom_site_occupancy
  Ho  Ho0  1  0.000000  0.000000  0.000000  1
  Ho  Ho1  1  0.482422  0.519601  0.305702  1
  Ho  Ho2  1  0.517578  0.480399  0.694298  1
  Ho  Ho3  1  0.482422  0.962822  0.305702  1
  Ho  Ho4  1  0.517578  0.037178  0.694298  1
  Ho  Ho5  1  0.037497  0.518748  0.304505  1
  Ho  Ho6  1  0.962503  0.481252  0.695495  1
  Co  Co7  1  0.339114  0.169556  0.198592  1
  Co  Co8  1  0.660886  0.830444  0.801408  1
  Sn  Sn9  1  0.348930  0.002118  0.003520  1
  Sn  Sn10  1  0.651070  0.997882  0.996480  1
  Sn  Sn11  1  0.000000  0.349390  0.000000  1
  Sn  Sn12  1  0.000000  0.650610  0.000000  1
  Sn  Sn13  1  0.651070  0.653188  0.996480  1
  Sn  Sn14  1  0.348930  0.346812  0.003520  1
  Sn  Sn15  1  0.335976  0.667988  0.816415  1
  Sn  Sn16  1  0.664024  0.332012  0.183585  1
  Sn  Sn17  1  0.000000  0.000000  0.500000  1
  Sn  Sn18  1  0.780795  0.219020  0.458750  1
  Sn  Sn19  1  0.219205  0.780980  0.541250  1
  Sn  Sn20  1  0.780795  0.561774  0.458750  1
  Sn  Sn21  1  0.219205  0.438226  0.541250  1
  Sn  Sn22  1  0.435040  0.217520  0.452989  1
  Sn  Sn23  1  0.564960  0.782480  0.547011  1
  Sn  Sn24  1  0.333360  0.666680  0.120278  1
  Sn  Sn25  1  0.666640  0.333320  0.879722  1
  Sn  Sn26  1  0.122181  0.887754  0.272001  1
  Sn  Sn27  1  0.877819  0.112246  0.727999  1
  Sn  Sn28  1  0.122181  0.234426  0.272001  1
  Sn  Sn29  1  0.877819  0.765574  0.727999  1
  Sn  Sn30  1  0.761791  0.880896  0.273439  1
  Sn  Sn31  1  0.238209  0.119104  0.726561  1
  Ru  Ru32  1  0.830917  0.168245  0.199938  1
  Ru  Ru33  1  0.169083  0.831755  0.800062  1
  Ru  Ru34  1  0.830917  0.662672  0.199938  1
  Ru  Ru35  1  0.169083  0.337328  0.800062  1
