# generated using pymatgen
data_Tb3Ho(MoO6)2
_symmetry_space_group_name_H-M   'P 1'
_cell_length_a   9.97290708
_cell_length_b   9.97290697
_cell_length_c   5.41380620
_cell_angle_alpha   75.03976306
_cell_angle_beta   75.03976339
_cell_angle_gamma   68.16778147
_symmetry_Int_Tables_number   1
_chemical_formula_structural   Tb3Ho(MoO6)2
_chemical_formula_sum   'Tb6 Ho2 Mo4 O24'
_cell_volume   474.93170157
_cell_formula_units_Z   2
loop_
 _symmetry_equiv_pos_site_id
 _symmetry_equiv_pos_as_xyz
  1  'x, y, z'
loop_
 _atom_site_type_symbol
 _atom_site_label
 _atom_site_symmetry_multiplicity
 _atom_site_fract_x
 _atom_site_fract_y
 _atom_site_fract_z
 _atom_site_occupancy
  Tb  Tb0  1  0.447671  0.216198  0.378378  1
  Tb  Tb1  1  0.783802  0.552329  0.121622  1
  Tb  Tb2  1  0.552329  0.783802  0.621622  1
  Tb  Tb3  1  0.216198  0.447671  0.878378  1
  Tb  Tb4  1  0.863617  0.136383  0.250000  1
  Tb  Tb5  1  0.136383  0.863617  0.750000  1
  Ho  Ho6  1  0.394550  0.605450  0.250000  1
  Ho  Ho7  1  0.605450  0.394550  0.750000  1
  Mo  Mo8  1  0.296578  0.011001  0.061637  1
  Mo  Mo9  1  0.988999  0.703422  0.438363  1
  Mo  Mo10  1  0.703422  0.988999  0.938363  1
  Mo  Mo11  1  0.011001  0.296578  0.561637  1
  O  O12  1  0.608617  0.572180  0.922367  1
  O  O13  1  0.427820  0.391383  0.577633  1
  O  O14  1  0.391383  0.427820  0.077633  1
  O  O15  1  0.572180  0.608617  0.422367  1
  O  O16  1  0.337888  0.807037  0.921374  1
  O  O17  1  0.192963  0.662112  0.578626  1
  O  O18  1  0.662112  0.192963  0.078626  1
  O  O19  1  0.807037  0.337888  0.421374  1
  O  O20  1  0.326072  0.884593  0.373311  1
  O  O21  1  0.115407  0.673928  0.126689  1
  O  O22  1  0.673928  0.115407  0.626689  1
  O  O23  1  0.884593  0.326072  0.873311  1
  O  O24  1  0.183059  0.288869  0.636654  1
  O  O25  1  0.711131  0.816941  0.863346  1
  O  O26  1  0.816941  0.711131  0.363346  1
  O  O27  1  0.288869  0.183059  0.136654  1
  O  O28  1  0.047852  0.111451  0.514646  1
  O  O29  1  0.888549  0.952148  0.985354  1
  O  O30  1  0.952148  0.888549  0.485354  1
  O  O31  1  0.111451  0.047852  0.014646  1
  O  O32  1  0.024814  0.432118  0.256988  1
  O  O33  1  0.567882  0.975186  0.243012  1
  O  O34  1  0.975186  0.567882  0.743012  1
  O  O35  1  0.432118  0.024814  0.756988  1
