# generated using pymatgen
data_Hf10Sn6Se
_symmetry_space_group_name_H-M   'P 1'
_cell_length_a   8.52890900
_cell_length_b   8.52890974
_cell_length_c   5.81779500
_cell_angle_alpha   90.00000000
_cell_angle_beta   90.00000000
_cell_angle_gamma   119.99999326
_symmetry_Int_Tables_number   1
_chemical_formula_structural   Hf10Sn6Se
_chemical_formula_sum   'Hf10 Sn6 Se1'
_cell_volume   366.50176811
_cell_formula_units_Z   1
loop_
 _symmetry_equiv_pos_site_id
 _symmetry_equiv_pos_as_xyz
  1  'x, y, z'
loop_
 _atom_site_type_symbol
 _atom_site_label
 _atom_site_symmetry_multiplicity
 _atom_site_fract_x
 _atom_site_fract_y
 _atom_site_fract_z
 _atom_site_occupancy
  Hf  Hf0  1  0.666667  0.333333  0.500000  1
  Hf  Hf1  1  0.333333  0.666667  0.500000  1
  Hf  Hf2  1  0.333333  0.666667  0.000000  1
  Hf  Hf3  1  0.666667  0.333333  0.000000  1
  Hf  Hf4  1  0.742979  0.742979  0.234007  1
  Hf  Hf5  1  0.257021  0.000000  0.234007  1
  Hf  Hf6  1  0.000000  0.257021  0.234007  1
  Hf  Hf7  1  0.257021  0.257021  0.765993  1
  Hf  Hf8  1  0.742979  0.000000  0.765993  1
  Hf  Hf9  1  0.000000  0.742979  0.765993  1
  Sn  Sn10  1  0.392303  0.392303  0.252715  1
  Sn  Sn11  1  0.607697  0.000000  0.252715  1
  Sn  Sn12  1  0.000000  0.607697  0.252715  1
  Sn  Sn13  1  0.607697  0.607697  0.747285  1
  Sn  Sn14  1  0.392303  0.000000  0.747285  1
  Sn  Sn15  1  0.000000  0.392303  0.747285  1
  Se  Se16  1  0.000000  0.000000  0.500000  1
