# generated using pymatgen
data_Tb2NdLu17Sb12
_symmetry_space_group_name_H-M   'P 1'
_cell_length_a   8.05435325
_cell_length_b   9.12243300
_cell_length_c   11.67944400
_cell_angle_alpha   90.00000000
_cell_angle_beta   90.14904518
_cell_angle_gamma   90.00000000
_symmetry_Int_Tables_number   1
_chemical_formula_structural   Tb2NdLu17Sb12
_chemical_formula_sum   'Tb2 Nd1 Lu17 Sb12'
_cell_volume   858.14772364
_cell_formula_units_Z   1
loop_
 _symmetry_equiv_pos_site_id
 _symmetry_equiv_pos_as_xyz
  1  'x, y, z'
loop_
 _atom_site_type_symbol
 _atom_site_label
 _atom_site_symmetry_multiplicity
 _atom_site_fract_x
 _atom_site_fract_y
 _atom_site_fract_z
 _atom_site_occupancy
  Tb  Tb0  1  0.658044  0.250000  0.291181  1
  Tb  Tb1  1  0.174984  0.250000  0.228398  1
  Nd  Nd2  1  0.824706  0.750000  0.771613  1
  Lu  Lu3  1  0.676021  0.750000  0.271071  1
  Lu  Lu4  1  0.309231  0.560949  0.433420  1
  Lu  Lu5  1  0.840868  0.250000  0.789971  1
  Lu  Lu6  1  0.189783  0.937839  0.934203  1
  Lu  Lu7  1  0.309231  0.939051  0.433420  1
  Lu  Lu8  1  0.691217  0.438268  0.566224  1
  Lu  Lu9  1  0.809131  0.438428  0.064670  1
  Lu  Lu10  1  0.976096  0.750000  0.495159  1
  Lu  Lu11  1  0.160792  0.750000  0.210934  1
  Lu  Lu12  1  0.323774  0.250000  0.728474  1
  Lu  Lu13  1  0.473561  0.250000  0.004698  1
  Lu  Lu14  1  0.809131  0.061572  0.064670  1
  Lu  Lu15  1  0.189783  0.562161  0.934203  1
  Lu  Lu16  1  0.025222  0.250000  0.504432  1
  Lu  Lu17  1  0.339702  0.750000  0.708418  1
  Lu  Lu18  1  0.691217  0.061732  0.566224  1
  Lu  Lu19  1  0.524685  0.750000  0.995147  1
  Sb  Sb20  1  0.097261  0.250000  0.972287  1
  Sb  Sb21  1  0.935700  0.492848  0.326701  1
  Sb  Sb22  1  0.437131  0.988926  0.173890  1
  Sb  Sb23  1  0.070190  0.993995  0.672104  1
  Sb  Sb24  1  0.437131  0.511074  0.173890  1
  Sb  Sb25  1  0.596428  0.750000  0.524042  1
  Sb  Sb26  1  0.401185  0.250000  0.477120  1
  Sb  Sb27  1  0.559424  0.487878  0.826256  1
  Sb  Sb28  1  0.070190  0.506005  0.672104  1
  Sb  Sb29  1  0.903049  0.750000  0.032124  1
  Sb  Sb30  1  0.559424  0.012122  0.826256  1
  Sb  Sb31  1  0.935700  0.007152  0.326701  1
