# generated using pymatgen
data_Pr4Nd12MgCo4Hg3
_symmetry_space_group_name_H-M   'P 1'
_cell_length_a   9.79799219
_cell_length_b   9.79907582
_cell_length_c   9.79251549
_cell_angle_alpha   60.20123466
_cell_angle_beta   60.19410789
_cell_angle_gamma   60.24060756
_symmetry_Int_Tables_number   1
_chemical_formula_structural   Pr4Nd12MgCo4Hg3
_chemical_formula_sum   'Pr4 Nd12 Mg1 Co4 Hg3'
_cell_volume   668.00670313
_cell_formula_units_Z   1
loop_
 _symmetry_equiv_pos_site_id
 _symmetry_equiv_pos_as_xyz
  1  'x, y, z'
loop_
 _atom_site_type_symbol
 _atom_site_label
 _atom_site_symmetry_multiplicity
 _atom_site_fract_x
 _atom_site_fract_y
 _atom_site_fract_z
 _atom_site_occupancy
  Pr  Pr0  1  0.312183  0.688497  0.687797  1
  Pr  Pr1  1  0.687911  0.312259  0.687769  1
  Pr  Pr2  1  0.059427  0.440072  0.059615  1
  Pr  Pr3  1  0.902904  0.289801  0.902990  1
  Nd  Nd4  1  0.289890  0.903129  0.903337  1
  Nd  Nd5  1  0.688247  0.688878  0.311127  1
  Nd  Nd6  1  0.903127  0.902946  0.290091  1
  Nd  Nd7  1  0.309881  0.690516  0.309546  1
  Nd  Nd8  1  0.690067  0.309762  0.309879  1
  Nd  Nd9  1  0.062976  0.438707  0.438557  1
  Nd  Nd10  1  0.440569  0.058578  0.059565  1
  Nd  Nd11  1  0.059568  0.058832  0.440384  1
  Nd  Nd12  1  0.309914  0.309484  0.690144  1
  Nd  Nd13  1  0.438574  0.062804  0.438316  1
  Nd  Nd14  1  0.901654  0.902188  0.901783  1
  Nd  Nd15  1  0.438606  0.438529  0.063251  1
  Mg  Mg16  1  0.679161  0.679682  0.679017  1
  Co  Co17  1  0.109057  0.107730  0.108990  1
  Co  Co18  1  0.108362  0.107491  0.671247  1
  Co  Co19  1  0.671211  0.107024  0.108648  1
  Co  Co20  1  0.107573  0.671879  0.108329  1
  Hg  Hg21  1  0.663855  0.665162  0.001390  1
  Hg  Hg22  1  0.001008  0.665002  0.663826  1
  Hg  Hg23  1  0.664277  0.001049  0.664403  1
