# generated using pymatgen
data_Sc22Ga2(TcRu)3
_symmetry_space_group_name_H-M   'P 1'
_cell_length_a   9.65878573
_cell_length_b   9.58696773
_cell_length_c   9.47011494
_cell_angle_alpha   60.90273343
_cell_angle_beta   60.14619944
_cell_angle_gamma   58.95107182
_symmetry_Int_Tables_number   1
_chemical_formula_structural   Sc22Ga2(TcRu)3
_chemical_formula_sum   'Sc22 Ga2 Tc3 Ru3'
_cell_volume   619.71049874
_cell_formula_units_Z   1
loop_
 _symmetry_equiv_pos_site_id
 _symmetry_equiv_pos_as_xyz
  1  'x, y, z'
loop_
 _atom_site_type_symbol
 _atom_site_label
 _atom_site_symmetry_multiplicity
 _atom_site_fract_x
 _atom_site_fract_y
 _atom_site_fract_z
 _atom_site_occupancy
  Sc  Sc0  1  0.802212  0.802212  0.197788  1
  Sc  Sc1  1  0.197978  0.802022  0.197978  1
  Sc  Sc2  1  0.807445  0.192555  0.192555  1
  Sc  Sc3  1  0.197788  0.197788  0.802212  1
  Sc  Sc4  1  0.802022  0.197978  0.802022  1
  Sc  Sc5  1  0.192555  0.807445  0.807445  1
  Sc  Sc6  1  0.622015  0.615897  0.151485  1
  Sc  Sc7  1  0.610604  0.151485  0.615897  1
  Sc  Sc8  1  0.151485  0.610604  0.622015  1
  Sc  Sc9  1  0.615897  0.622015  0.610604  1
  Sc  Sc10  1  0.377985  0.384103  0.848515  1
  Sc  Sc11  1  0.389396  0.848515  0.384103  1
  Sc  Sc12  1  0.848515  0.389396  0.377985  1
  Sc  Sc13  1  0.384103  0.377985  0.389396  1
  Sc  Sc14  1  0.840458  0.833145  0.472133  1
  Sc  Sc15  1  0.854262  0.472133  0.833145  1
  Sc  Sc16  1  0.472133  0.854262  0.840458  1
  Sc  Sc17  1  0.833145  0.840458  0.854262  1
  Sc  Sc18  1  0.159542  0.166855  0.527867  1
  Sc  Sc19  1  0.145738  0.527867  0.166855  1
  Sc  Sc20  1  0.527867  0.145738  0.159542  1
  Sc  Sc21  1  0.166855  0.159542  0.145738  1
  Ga  Ga22  1  0.000000  0.000000  0.500000  1
  Ga  Ga23  1  0.500000  0.500000  0.000000  1
  Tc  Tc24  1  0.000000  0.000000  0.000000  1
  Tc  Tc25  1  0.500000  0.000000  0.500000  1
  Tc  Tc26  1  0.000000  0.500000  0.000000  1
  Ru  Ru27  1  0.500000  0.500000  0.500000  1
  Ru  Ru28  1  0.000000  0.500000  0.500000  1
  Ru  Ru29  1  0.500000  0.000000  0.000000  1
