# generated using pymatgen
data_Nd8Dy12Si13Te3
_symmetry_space_group_name_H-M   'P 1'
_cell_length_a   7.62634406
_cell_length_b   7.84161399
_cell_length_c   15.09484200
_cell_angle_alpha   90.02573396
_cell_angle_beta   89.25074954
_cell_angle_gamma   89.79330576
_symmetry_Int_Tables_number   1
_chemical_formula_structural   Nd8Dy12Si13Te3
_chemical_formula_sum   'Nd8 Dy12 Si13 Te3'
_cell_volume   902.63134816
_cell_formula_units_Z   1
loop_
 _symmetry_equiv_pos_site_id
 _symmetry_equiv_pos_as_xyz
  1  'x, y, z'
loop_
 _atom_site_type_symbol
 _atom_site_label
 _atom_site_symmetry_multiplicity
 _atom_site_fract_x
 _atom_site_fract_y
 _atom_site_fract_z
 _atom_site_occupancy
  Nd  Nd0  1  0.039251  0.817595  0.107868  1
  Nd  Nd1  1  0.521377  0.676928  0.397963  1
  Nd  Nd2  1  0.459166  0.316309  0.892800  1
  Nd  Nd3  1  0.970499  0.185815  0.603364  1
  Nd  Nd4  1  0.981809  0.177821  0.891282  1
  Nd  Nd5  1  0.482163  0.324747  0.599933  1
  Nd  Nd6  1  0.517865  0.679713  0.108746  1
  Nd  Nd7  1  0.010412  0.812186  0.397754  1
  Dy  Dy8  1  0.701675  0.995635  0.259522  1
  Dy  Dy9  1  0.203616  0.506934  0.253829  1
  Dy  Dy10  1  0.794913  0.493678  0.743541  1
  Dy  Dy11  1  0.296163  0.004869  0.753185  1
  Dy  Dy12  1  0.612066  0.835819  0.870347  1
  Dy  Dy13  1  0.122488  0.652919  0.620679  1
  Dy  Dy14  1  0.890595  0.336413  0.127765  1
  Dy  Dy15  1  0.376263  0.177876  0.375572  1
  Dy  Dy16  1  0.364443  0.172330  0.122071  1
  Dy  Dy17  1  0.872488  0.331397  0.380897  1
  Dy  Dy18  1  0.136137  0.670942  0.878777  1
  Dy  Dy19  1  0.642252  0.828607  0.620946  1
  Si  Si20  1  0.818257  0.623007  0.250667  1
  Si  Si21  1  0.319392  0.880241  0.251691  1
  Si  Si22  1  0.678126  0.124920  0.748487  1
  Si  Si23  1  0.177473  0.374938  0.748269  1
  Si  Si24  1  0.079363  0.115144  0.251500  1
  Si  Si25  1  0.582170  0.382501  0.248241  1
  Si  Si26  1  0.420609  0.616739  0.747119  1
  Si  Si27  1  0.922937  0.880785  0.749443  1
  Si  Si28  1  0.208467  0.464829  0.456254  1
  Si  Si29  1  0.218104  0.473027  0.047394  1
  Si  Si30  1  0.712881  0.035091  0.456277  1
  Si  Si31  1  0.283013  0.970989  0.953091  1
  Si  Si32  1  0.792123  0.532098  0.544401  1
  Te  Te33  1  0.784959  0.532668  0.957588  1
  Te  Te34  1  0.292345  0.960632  0.540976  1
  Te  Te35  1  0.714142  0.033856  0.041756  1
