# generated using pymatgen
data_Na2Li3P12Ir19
_symmetry_space_group_name_H-M   'P 1'
_cell_length_a   12.59270521
_cell_length_b   12.58316391
_cell_length_c   3.93453500
_cell_angle_alpha   90.00000000
_cell_angle_beta   90.00000000
_cell_angle_gamma   119.97494000
_symmetry_Int_Tables_number   1
_chemical_formula_structural   Na2Li3P12Ir19
_chemical_formula_sum   'Na2 Li3 P12 Ir19'
_cell_volume   540.06066672
_cell_formula_units_Z   1
loop_
 _symmetry_equiv_pos_site_id
 _symmetry_equiv_pos_as_xyz
  1  'x, y, z'
loop_
 _atom_site_type_symbol
 _atom_site_label
 _atom_site_symmetry_multiplicity
 _atom_site_fract_x
 _atom_site_fract_y
 _atom_site_fract_z
 _atom_site_occupancy
  Na  Na0  1  0.177468  0.176658  0.500000  1
  Na  Na1  1  0.822532  0.999189  0.500000  1
  Li  Li2  1  0.000000  0.839097  0.500000  1
  Li  Li3  1  0.334131  0.666997  0.000000  1
  Li  Li4  1  0.665869  0.332865  0.000000  1
  P  P5  1  0.000000  0.178567  0.000000  1
  P  P6  1  0.821598  0.819083  0.000000  1
  P  P7  1  0.178402  0.997486  0.000000  1
  P  P8  1  0.512306  0.688420  0.500000  1
  P  P9  1  0.310930  0.822275  0.500000  1
  P  P10  1  0.177307  0.488462  0.500000  1
  P  P11  1  0.487694  0.176114  0.500000  1
  P  P12  1  0.689070  0.511344  0.500000  1
  P  P13  1  0.822693  0.311155  0.500000  1
  P  P14  1  0.000000  0.641571  0.000000  1
  P  P15  1  0.359613  0.359281  0.000000  1
  P  P16  1  0.640387  0.999667  0.000000  1
  Ir  Ir17  1  0.000000  0.293159  0.500000  1
  Ir  Ir18  1  0.707584  0.706417  0.500000  1
  Ir  Ir19  1  0.292416  0.998833  0.500000  1
  Ir  Ir20  1  0.620532  0.801885  0.000000  1
  Ir  Ir21  1  0.195521  0.816865  0.000000  1
  Ir  Ir22  1  0.182123  0.379533  0.000000  1
  Ir  Ir23  1  0.379468  0.181352  0.000000  1
  Ir  Ir24  1  0.804479  0.621345  0.000000  1
  Ir  Ir25  1  0.817877  0.197410  0.000000  1
  Ir  Ir26  1  0.508190  0.868837  0.500000  1
  Ir  Ir27  1  0.130143  0.638672  0.500000  1
  Ir  Ir28  1  0.361190  0.491538  0.500000  1
  Ir  Ir29  1  0.491810  0.360647  0.500000  1
  Ir  Ir30  1  0.869857  0.508528  0.500000  1
  Ir  Ir31  1  0.638810  0.130348  0.500000  1
  Ir  Ir32  1  0.000000  0.997047  0.000000  1
  Ir  Ir33  1  0.000000  0.458201  0.000000  1
  Ir  Ir34  1  0.542140  0.541647  0.000000  1
  Ir  Ir35  1  0.457860  0.999507  0.000000  1
