# generated using pymatgen
data_Ho11Er(SiPd)12
_symmetry_space_group_name_H-M   'P 1'
_cell_length_a   4.34659100
_cell_length_b   7.41423301
_cell_length_c   20.89956001
_cell_angle_alpha   90.00502683
_cell_angle_beta   90.00000000
_cell_angle_gamma   90.00000000
_symmetry_Int_Tables_number   1
_chemical_formula_structural   Ho11Er(SiPd)12
_chemical_formula_sum   'Ho11 Er1 Si12 Pd12'
_cell_volume   673.52256220
_cell_formula_units_Z   1
loop_
 _symmetry_equiv_pos_site_id
 _symmetry_equiv_pos_as_xyz
  1  'x, y, z'
loop_
 _atom_site_type_symbol
 _atom_site_label
 _atom_site_symmetry_multiplicity
 _atom_site_fract_x
 _atom_site_fract_y
 _atom_site_fract_z
 _atom_site_occupancy
  Ho  Ho0  1  0.250000  0.705505  0.332756  1
  Ho  Ho1  1  0.750000  0.294321  0.667264  1
  Ho  Ho2  1  0.750000  0.205693  0.167159  1
  Ho  Ho3  1  0.250000  0.794327  0.832854  1
  Ho  Ho4  1  0.250000  0.792395  0.166521  1
  Ho  Ho5  1  0.750000  0.207606  0.833467  1
  Ho  Ho6  1  0.750000  0.292340  0.333330  1
  Ho  Ho7  1  0.250000  0.707465  0.666632  1
  Ho  Ho8  1  0.250000  0.711026  0.001074  1
  Ho  Ho9  1  0.750000  0.288938  0.998915  1
  Ho  Ho10  1  0.750000  0.211223  0.498881  1
  Er  Er11  1  0.250000  0.789309  0.501090  1
  Si  Si12  1  0.250000  0.088906  0.071538  1
  Si  Si13  1  0.750000  0.911102  0.928441  1
  Si  Si14  1  0.750000  0.588901  0.428318  1
  Si  Si15  1  0.250000  0.411136  0.571540  1
  Si  Si16  1  0.250000  0.084865  0.271288  1
  Si  Si17  1  0.750000  0.915111  0.728755  1
  Si  Si18  1  0.750000  0.584885  0.228640  1
  Si  Si19  1  0.250000  0.415130  0.771393  1
  Si  Si20  1  0.250000  0.086749  0.395353  1
  Si  Si21  1  0.750000  0.913279  0.604648  1
  Si  Si22  1  0.750000  0.586734  0.104452  1
  Si  Si23  1  0.250000  0.413271  0.895541  1
  Pd  Pd24  1  0.250000  0.416443  0.237150  1
  Pd  Pd25  1  0.750000  0.583502  0.762827  1
  Pd  Pd26  1  0.750000  0.916467  0.262832  1
  Pd  Pd27  1  0.250000  0.083530  0.737173  1
  Pd  Pd28  1  0.250000  0.416737  0.437216  1
  Pd  Pd29  1  0.750000  0.583179  0.562902  1
  Pd  Pd30  1  0.750000  0.916806  0.062826  1
  Pd  Pd31  1  0.250000  0.083180  0.937171  1
  Pd  Pd32  1  0.250000  0.419519  0.093409  1
  Pd  Pd33  1  0.750000  0.580472  0.906575  1
  Pd  Pd34  1  0.750000  0.919453  0.406560  1
  Pd  Pd35  1  0.250000  0.080497  0.593509  1
