# generated using pymatgen
data_Y3ZnCd2Pd2Pt
_symmetry_space_group_name_H-M   'P 1'
_cell_length_a   7.55343269
_cell_length_b   7.63080631
_cell_length_c   3.86216300
_cell_angle_alpha   90.00000000
_cell_angle_beta   90.00000000
_cell_angle_gamma   120.06586689
_symmetry_Int_Tables_number   1
_chemical_formula_structural   Y3ZnCd2Pd2Pt
_chemical_formula_sum   'Y3 Zn1 Cd2 Pd2 Pt1'
_cell_volume   192.65815287
_cell_formula_units_Z   1
loop_
 _symmetry_equiv_pos_site_id
 _symmetry_equiv_pos_as_xyz
  1  'x, y, z'
loop_
 _atom_site_type_symbol
 _atom_site_label
 _atom_site_symmetry_multiplicity
 _atom_site_fract_x
 _atom_site_fract_y
 _atom_site_fract_z
 _atom_site_occupancy
  Y  Y0  1  0.596212  0.598216  0.000000  1
  Y  Y1  1  0.397801  0.989615  0.000000  1
  Y  Y2  1  0.006041  0.427469  0.000000  1
  Zn  Zn3  1  0.999816  0.738320  0.500000  1
  Cd  Cd4  1  0.248688  0.256006  0.500000  1
  Cd  Cd5  1  0.752837  0.010491  0.500000  1
  Pd  Pd6  1  0.999880  0.970379  0.000000  1
  Pd  Pd7  1  0.667781  0.338834  0.500000  1
  Pt  Pt8  1  0.330944  0.670673  0.500000  1
