# generated using pymatgen
data_Nd4Pb3
_symmetry_space_group_name_H-M   'P 1'
_cell_length_a   8.41826455
_cell_length_b   8.41826385
_cell_length_c   8.41826400
_cell_angle_alpha   109.47122099
_cell_angle_beta   109.47121930
_cell_angle_gamma   109.47121685
_symmetry_Int_Tables_number   1
_chemical_formula_structural   Nd4Pb3
_chemical_formula_sum   'Nd8 Pb6'
_cell_volume   459.24641996
_cell_formula_units_Z   2
loop_
 _symmetry_equiv_pos_site_id
 _symmetry_equiv_pos_as_xyz
  1  'x, y, z'
loop_
 _atom_site_type_symbol
 _atom_site_label
 _atom_site_symmetry_multiplicity
 _atom_site_fract_x
 _atom_site_fract_y
 _atom_site_fract_z
 _atom_site_occupancy
  Nd  Nd0  1  0.360481  0.500000  0.000000  1
  Nd  Nd1  1  0.860481  0.500000  0.000000  1
  Nd  Nd2  1  0.139519  0.139519  0.139519  1
  Nd  Nd3  1  0.500000  0.000000  0.360481  1
  Nd  Nd4  1  0.000000  0.360481  0.500000  1
  Nd  Nd5  1  0.000000  0.860481  0.500000  1
  Nd  Nd6  1  0.639519  0.639519  0.639519  1
  Nd  Nd7  1  0.500000  0.000000  0.860481  1
  Pb  Pb8  1  0.750000  0.875001  0.125001  1
  Pb  Pb9  1  0.625001  0.375001  0.250000  1
  Pb  Pb10  1  0.250000  0.625001  0.375001  1
  Pb  Pb11  1  0.375001  0.250000  0.625001  1
  Pb  Pb12  1  0.875001  0.125001  0.750000  1
  Pb  Pb13  1  0.125001  0.750000  0.875001  1
