# generated using pymatgen
data_KBaSr2(BeAs)8
_symmetry_space_group_name_H-M   'P 1'
_cell_length_a   7.22939836
_cell_length_b   8.51359511
_cell_length_c   7.50096851
_cell_angle_alpha   63.90938788
_cell_angle_beta   74.96407784
_cell_angle_gamma   96.94293138
_symmetry_Int_Tables_number   1
_chemical_formula_structural   KBaSr2(BeAs)8
_chemical_formula_sum   'K1 Ba1 Sr2 Be8 As8'
_cell_volume   385.45689627
_cell_formula_units_Z   1
loop_
 _symmetry_equiv_pos_site_id
 _symmetry_equiv_pos_as_xyz
  1  'x, y, z'
loop_
 _atom_site_type_symbol
 _atom_site_label
 _atom_site_symmetry_multiplicity
 _atom_site_fract_x
 _atom_site_fract_y
 _atom_site_fract_z
 _atom_site_occupancy
  K  K0  1  0.000000  0.000000  0.000000  1
  Ba  Ba1  1  0.000000  0.000000  0.500000  1
  Sr  Sr2  1  0.999517  0.484930  0.757889  1
  Sr  Sr3  1  0.000483  0.515070  0.242111  1
  Be  Be4  1  0.501113  0.622354  0.313562  1
  Be  Be5  1  0.498258  0.620283  0.815346  1
  Be  Be6  1  0.491787  0.125573  0.064810  1
  Be  Be7  1  0.488605  0.126115  0.563684  1
  Be  Be8  1  0.498887  0.377646  0.686438  1
  Be  Be9  1  0.501742  0.379717  0.184654  1
  Be  Be10  1  0.511395  0.873885  0.436316  1
  Be  Be11  1  0.508213  0.874427  0.935190  1
  As  As12  1  0.292813  0.330013  0.510365  1
  As  As13  1  0.293139  0.327546  0.014108  1
  As  As14  1  0.303804  0.821340  0.265003  1
  As  As15  1  0.300830  0.820332  0.763487  1
  As  As16  1  0.707187  0.669987  0.489635  1
  As  As17  1  0.706861  0.672454  0.985892  1
  As  As18  1  0.699170  0.179668  0.236513  1
  As  As19  1  0.696196  0.178660  0.734997  1
