# generated using pymatgen
data_Ce(Ho2Os)2
_symmetry_space_group_name_H-M   'P 1'
_cell_length_a   8.50600184
_cell_length_b   8.50600150
_cell_length_c   7.23916603
_cell_angle_alpha   83.52636043
_cell_angle_beta   83.52635236
_cell_angle_gamma   44.18907370
_symmetry_Int_Tables_number   1
_chemical_formula_structural   Ce(Ho2Os)2
_chemical_formula_sum   'Ce2 Ho8 Os4'
_cell_volume   362.36871269
_cell_formula_units_Z   2
loop_
 _symmetry_equiv_pos_site_id
 _symmetry_equiv_pos_as_xyz
  1  'x, y, z'
loop_
 _atom_site_type_symbol
 _atom_site_label
 _atom_site_symmetry_multiplicity
 _atom_site_fract_x
 _atom_site_fract_y
 _atom_site_fract_z
 _atom_site_occupancy
  Ce  Ce0  1  0.200513  0.991148  0.597265  1
  Ce  Ce1  1  0.008852  0.799487  0.902735  1
  Ho  Ho2  1  0.216317  0.348156  0.313363  1
  Ho  Ho3  1  0.651844  0.783683  0.186637  1
  Ho  Ho4  1  0.794437  0.641360  0.678444  1
  Ho  Ho5  1  0.358640  0.205563  0.821556  1
  Ho  Ho6  1  0.967817  0.211504  0.080804  1
  Ho  Ho7  1  0.788496  0.032183  0.419196  1
  Ho  Ho8  1  0.569920  0.430080  0.750000  1
  Ho  Ho9  1  0.417218  0.582782  0.250000  1
  Os  Os10  1  0.168543  0.611273  0.584348  1
  Os  Os11  1  0.388727  0.831457  0.915652  1
  Os  Os12  1  0.842647  0.373971  0.429331  1
  Os  Os13  1  0.626029  0.157353  0.070669  1
