# generated using pymatgen
data_ThMg7(B6Os)4
_symmetry_space_group_name_H-M   'P 1'
_cell_length_a   8.91148775
_cell_length_b   11.14919531
_cell_length_c   3.54603400
_cell_angle_alpha   90.00000000
_cell_angle_beta   90.00000000
_cell_angle_gamma   90.17751945
_symmetry_Int_Tables_number   1
_chemical_formula_structural   ThMg7(B6Os)4
_chemical_formula_sum   'Th1 Mg7 B24 Os4'
_cell_volume   352.31777018
_cell_formula_units_Z   1
loop_
 _symmetry_equiv_pos_site_id
 _symmetry_equiv_pos_as_xyz
  1  'x, y, z'
loop_
 _atom_site_type_symbol
 _atom_site_label
 _atom_site_symmetry_multiplicity
 _atom_site_fract_x
 _atom_site_fract_y
 _atom_site_fract_z
 _atom_site_occupancy
  Th  Th0  1  0.321299  0.084887  0.000000  1
  Mg  Mg1  1  0.944594  0.130666  0.000000  1
  Mg  Mg2  1  0.448155  0.376396  0.000000  1
  Mg  Mg3  1  0.829255  0.415312  0.000000  1
  Mg  Mg4  1  0.167892  0.587889  0.000000  1
  Mg  Mg5  1  0.557238  0.625162  0.000000  1
  Mg  Mg6  1  0.054327  0.867729  0.000000  1
  Mg  Mg7  1  0.671189  0.909406  0.000000  1
  B  B8  1  0.089436  0.024182  0.500000  1
  B  B9  1  0.559318  0.065751  0.500000  1
  B  B10  1  0.757823  0.080203  0.500000  1
  B  B11  1  0.127702  0.187007  0.500000  1
  B  B12  1  0.485939  0.215448  0.500000  1
  B  B13  1  0.797683  0.239495  0.500000  1
  B  B14  1  0.294408  0.268030  0.500000  1
  B  B15  1  0.980369  0.291116  0.500000  1
  B  B16  1  0.633355  0.321039  0.500000  1
  B  B17  1  0.255375  0.424815  0.500000  1
  B  B18  1  0.053471  0.437913  0.500000  1
  B  B19  1  0.592480  0.475801  0.500000  1
  B  B20  1  0.409139  0.524817  0.500000  1
  B  B21  1  0.943332  0.565481  0.500000  1
  B  B22  1  0.743133  0.580735  0.500000  1
  B  B23  1  0.369743  0.677629  0.500000  1
  B  B24  1  0.018091  0.710889  0.500000  1
  B  B25  1  0.703688  0.737999  0.500000  1
  B  B26  1  0.202801  0.758013  0.500000  1
  B  B27  1  0.520468  0.784437  0.500000  1
  B  B28  1  0.868148  0.819006  0.500000  1
  B  B29  1  0.244729  0.912159  0.500000  1
  B  B30  1  0.445039  0.928148  0.500000  1
  B  B31  1  0.905912  0.973995  0.500000  1
  Os  Os32  1  0.645327  0.182208  0.000000  1
  Os  Os33  1  0.142249  0.326587  0.000000  1
  Os  Os34  1  0.858247  0.678920  0.000000  1
  Os  Os35  1  0.358641  0.810730  0.000000  1
