# generated using pymatgen
data_TbEr7(CdPt)2
_symmetry_space_group_name_H-M   'P 1'
_cell_length_a   9.61655593
_cell_length_b   9.61655670
_cell_length_c   9.61082100
_cell_angle_alpha   60.01972469
_cell_angle_beta   60.01972203
_cell_angle_gamma   59.96053933
_symmetry_Int_Tables_number   1
_chemical_formula_structural   TbEr7(CdPt)2
_chemical_formula_sum   'Tb2 Er14 Cd4 Pt4'
_cell_volume   628.46962850
_cell_formula_units_Z   2
loop_
 _symmetry_equiv_pos_site_id
 _symmetry_equiv_pos_as_xyz
  1  'x, y, z'
loop_
 _atom_site_type_symbol
 _atom_site_label
 _atom_site_symmetry_multiplicity
 _atom_site_fract_x
 _atom_site_fract_y
 _atom_site_fract_z
 _atom_site_occupancy
  Tb  Tb0  1  0.565228  0.565228  0.934772  1
  Tb  Tb1  1  0.934772  0.934772  0.565228  1
  Er  Er2  1  0.351867  0.351867  0.352362  1
  Er  Er3  1  0.351867  0.351867  0.943904  1
  Er  Er4  1  0.352362  0.943904  0.351867  1
  Er  Er5  1  0.943904  0.352362  0.351867  1
  Er  Er6  1  0.810098  0.189902  0.189902  1
  Er  Er7  1  0.189902  0.810098  0.810098  1
  Er  Er8  1  0.189902  0.810098  0.189902  1
  Er  Er9  1  0.810098  0.189902  0.810098  1
  Er  Er10  1  0.189921  0.189921  0.810079  1
  Er  Er11  1  0.810079  0.810079  0.189921  1
  Er  Er12  1  0.935617  0.564383  0.564383  1
  Er  Er13  1  0.564383  0.935617  0.935617  1
  Er  Er14  1  0.564383  0.935617  0.564383  1
  Er  Er15  1  0.935617  0.564383  0.935617  1
  Cd  Cd16  1  0.581974  0.581974  0.581282  1
  Cd  Cd17  1  0.581974  0.581974  0.254769  1
  Cd  Cd18  1  0.581282  0.254769  0.581974  1
  Cd  Cd19  1  0.254769  0.581282  0.581974  1
  Pt  Pt20  1  0.143340  0.143340  0.142710  1
  Pt  Pt21  1  0.143340  0.143340  0.570610  1
  Pt  Pt22  1  0.142710  0.570610  0.143340  1
  Pt  Pt23  1  0.570610  0.142710  0.143340  1
