# generated using pymatgen
data_Dy4BBr5
_symmetry_space_group_name_H-M   'P 1'
_cell_length_a   9.19863130
_cell_length_b   9.19863112
_cell_length_c   8.19454375
_cell_angle_alpha   103.04590216
_cell_angle_beta   103.04590168
_cell_angle_gamma   24.54871250
_symmetry_Int_Tables_number   1
_chemical_formula_structural   Dy4BBr5
_chemical_formula_sum   'Dy4 B1 Br5'
_cell_volume   280.28402157
_cell_formula_units_Z   1
loop_
 _symmetry_equiv_pos_site_id
 _symmetry_equiv_pos_as_xyz
  1  'x, y, z'
loop_
 _atom_site_type_symbol
 _atom_site_label
 _atom_site_symmetry_multiplicity
 _atom_site_fract_x
 _atom_site_fract_y
 _atom_site_fract_z
 _atom_site_occupancy
  Dy  Dy0  1  0.641961  0.641961  0.077206  1
  Dy  Dy1  1  0.999557  0.999557  0.207460  1
  Dy  Dy2  1  0.000443  0.000443  0.792540  1
  Dy  Dy3  1  0.358039  0.358039  0.922795  1
  B  B4  1  0.500000  0.500000  0.000000  1
  Br  Br5  1  0.828366  0.828366  0.163232  1
  Br  Br6  1  0.165578  0.165578  0.339812  1
  Br  Br7  1  0.500000  0.500000  0.500000  1
  Br  Br8  1  0.834421  0.834421  0.660187  1
  Br  Br9  1  0.171634  0.171634  0.836767  1
