# generated using pymatgen
data_K2LiScSb2
_symmetry_space_group_name_H-M   'P 1'
_cell_length_a   10.70711031
_cell_length_b   10.70711057
_cell_length_c   6.96444100
_cell_angle_alpha   90.00000000
_cell_angle_beta   90.00000000
_cell_angle_gamma   98.94078373
_symmetry_Int_Tables_number   1
_chemical_formula_structural   K2LiScSb2
_chemical_formula_sum   'K8 Li4 Sc4 Sb8'
_cell_volume   788.71773833
_cell_formula_units_Z   4
loop_
 _symmetry_equiv_pos_site_id
 _symmetry_equiv_pos_as_xyz
  1  'x, y, z'
loop_
 _atom_site_type_symbol
 _atom_site_label
 _atom_site_symmetry_multiplicity
 _atom_site_fract_x
 _atom_site_fract_y
 _atom_site_fract_z
 _atom_site_occupancy
  K  K0  1  0.574918  0.925082  0.750000  1
  K  K1  1  0.925082  0.574918  0.250000  1
  K  K2  1  0.425082  0.074918  0.250000  1
  K  K3  1  0.074918  0.425082  0.750000  1
  K  K4  1  0.672463  0.327537  0.775472  1
  K  K5  1  0.827537  0.172463  0.275472  1
  K  K6  1  0.327537  0.672463  0.224528  1
  K  K7  1  0.172463  0.827537  0.724528  1
  Li  Li8  1  0.621283  0.621283  0.000000  1
  Li  Li9  1  0.878717  0.878717  0.500000  1
  Li  Li10  1  0.378717  0.378717  0.000000  1
  Li  Li11  1  0.121283  0.121283  0.500000  1
  Sc  Sc12  1  0.870465  0.870465  0.000000  1
  Sc  Sc13  1  0.629535  0.629535  0.500000  1
  Sc  Sc14  1  0.129535  0.129535  0.000000  1
  Sc  Sc15  1  0.370465  0.370465  0.500000  1
  Sb  Sb16  1  0.346051  0.153949  0.750000  1
  Sb  Sb17  1  0.153949  0.346051  0.250000  1
  Sb  Sb18  1  0.653949  0.846051  0.250000  1
  Sb  Sb19  1  0.846051  0.653949  0.750000  1
  Sb  Sb20  1  0.904282  0.095718  0.767332  1
  Sb  Sb21  1  0.595718  0.404282  0.267332  1
  Sb  Sb22  1  0.095718  0.904282  0.232668  1
  Sb  Sb23  1  0.404282  0.595718  0.732668  1
