# generated using pymatgen
data_Y10In3Sn3Cl2
_symmetry_space_group_name_H-M   'P 1'
_cell_length_a   9.13889110
_cell_length_b   9.13256564
_cell_length_c   6.68267900
_cell_angle_alpha   90.00000000
_cell_angle_beta   90.00000000
_cell_angle_gamma   120.23823270
_symmetry_Int_Tables_number   1
_chemical_formula_structural   Y10In3Sn3Cl2
_chemical_formula_sum   'Y10 In3 Sn3 Cl2'
_cell_volume   481.85898341
_cell_formula_units_Z   1
loop_
 _symmetry_equiv_pos_site_id
 _symmetry_equiv_pos_as_xyz
  1  'x, y, z'
loop_
 _atom_site_type_symbol
 _atom_site_label
 _atom_site_symmetry_multiplicity
 _atom_site_fract_x
 _atom_site_fract_y
 _atom_site_fract_z
 _atom_site_occupancy
  Y  Y0  1  0.258863  0.259842  0.750000  1
  Y  Y1  1  0.000524  0.741087  0.750000  1
  Y  Y2  1  0.740790  0.001078  0.750000  1
  Y  Y3  1  0.999680  0.258663  0.250000  1
  Y  Y4  1  0.332614  0.666327  0.500410  1
  Y  Y5  1  0.741197  0.741639  0.250000  1
  Y  Y6  1  0.666987  0.333014  0.500618  1
  Y  Y7  1  0.259344  0.000097  0.250000  1
  Y  Y8  1  0.332614  0.666327  0.999590  1
  Y  Y9  1  0.666987  0.333014  0.999382  1
  In  In10  1  0.606092  0.999605  0.250000  1
  In  In11  1  0.000683  0.392159  0.750000  1
  In  In12  1  0.393432  0.000004  0.750000  1
  Sn  Sn13  1  0.609189  0.608718  0.750000  1
  Sn  Sn14  1  0.999403  0.607898  0.250000  1
  Sn  Sn15  1  0.391468  0.391660  0.250000  1
  Cl  Cl16  1  0.000066  0.999433  0.000683  1
  Cl  Cl17  1  0.000066  0.999433  0.499317  1
