# generated using pymatgen
data_HoPa(Al3Ir)3
_symmetry_space_group_name_H-M   'P 1'
_cell_length_a   7.59503524
_cell_length_b   7.60360482
_cell_length_c   9.36540200
_cell_angle_alpha   90.00000000
_cell_angle_beta   90.00000000
_cell_angle_gamma   119.69955511
_symmetry_Int_Tables_number   1
_chemical_formula_structural   HoPa(Al3Ir)3
_chemical_formula_sum   'Ho2 Pa2 Al18 Ir6'
_cell_volume   469.80026735
_cell_formula_units_Z   2
loop_
 _symmetry_equiv_pos_site_id
 _symmetry_equiv_pos_as_xyz
  1  'x, y, z'
loop_
 _atom_site_type_symbol
 _atom_site_label
 _atom_site_symmetry_multiplicity
 _atom_site_fract_x
 _atom_site_fract_y
 _atom_site_fract_z
 _atom_site_occupancy
  Ho  Ho0  1  0.669533  0.993254  0.250000  1
  Ho  Ho1  1  0.330467  0.006746  0.750000  1
  Pa  Pa2  1  0.998038  0.670954  0.250000  1
  Pa  Pa3  1  0.001962  0.329046  0.750000  1
  Al  Al4  1  0.130812  0.126950  0.250000  1
  Al  Al5  1  0.869188  0.873050  0.750000  1
  Al  Al6  1  0.000341  0.331184  0.078307  1
  Al  Al7  1  0.999659  0.668816  0.921693  1
  Al  Al8  1  0.999659  0.668816  0.578307  1
  Al  Al9  1  0.338378  0.003193  0.425536  1
  Al  Al10  1  0.000341  0.331184  0.421693  1
  Al  Al11  1  0.661622  0.996807  0.574464  1
  Al  Al12  1  0.661622  0.996807  0.925536  1
  Al  Al13  1  0.338378  0.003193  0.074464  1
  Al  Al14  1  0.335147  0.333233  0.554007  1
  Al  Al15  1  0.664853  0.666767  0.445993  1
  Al  Al16  1  0.664853  0.666767  0.054007  1
  Al  Al17  1  0.335147  0.333233  0.945993  1
  Al  Al18  1  0.341480  0.548099  0.250000  1
  Al  Al19  1  0.658520  0.451901  0.750000  1
  Al  Al20  1  0.548722  0.340320  0.250000  1
  Al  Al21  1  0.451278  0.659680  0.750000  1
  Ir  Ir22  1  0.676288  0.329929  0.999550  1
  Ir  Ir23  1  0.323712  0.670071  0.000450  1
  Ir  Ir24  1  0.323712  0.670071  0.499550  1
  Ir  Ir25  1  0.676288  0.329929  0.500450  1
  Ir  Ir26  1  0.000000  0.000000  0.000000  1
  Ir  Ir27  1  0.000000  0.000000  0.500000  1
