# generated using pymatgen
data_BaPrHo2(AsPt)4
_symmetry_space_group_name_H-M   'P 1'
_cell_length_a   4.32970300
_cell_length_b   4.32970293
_cell_length_c   16.59209200
_cell_angle_alpha   90.00000000
_cell_angle_beta   90.00000000
_cell_angle_gamma   119.99999287
_symmetry_Int_Tables_number   1
_chemical_formula_structural   BaPrHo2(AsPt)4
_chemical_formula_sum   'Ba1 Pr1 Ho2 As4 Pt4'
_cell_volume   269.36924956
_cell_formula_units_Z   1
loop_
 _symmetry_equiv_pos_site_id
 _symmetry_equiv_pos_as_xyz
  1  'x, y, z'
loop_
 _atom_site_type_symbol
 _atom_site_label
 _atom_site_symmetry_multiplicity
 _atom_site_fract_x
 _atom_site_fract_y
 _atom_site_fract_z
 _atom_site_occupancy
  Ba  Ba0  1  0.000000  0.000000  0.500000  1
  Pr  Pr1  1  0.000000  0.000000  0.000000  1
  Ho  Ho2  1  0.000000  0.000000  0.240509  1
  Ho  Ho3  1  0.000000  0.000000  0.759491  1
  As  As4  1  0.333333  0.666667  0.884909  1
  As  As5  1  0.666667  0.333333  0.115091  1
  As  As6  1  0.666667  0.333333  0.360573  1
  As  As7  1  0.333333  0.666667  0.639427  1
  Pt  Pt8  1  0.333333  0.666667  0.341517  1
  Pt  Pt9  1  0.666667  0.333333  0.658483  1
  Pt  Pt10  1  0.666667  0.333333  0.865967  1
  Pt  Pt11  1  0.333333  0.666667  0.134033  1
