# generated using pymatgen
data_CaTh2TiSb5
_symmetry_space_group_name_H-M   'P 1'
_cell_length_a   9.36619254
_cell_length_b   9.42187524
_cell_length_c   6.33194700
_cell_angle_alpha   90.00000000
_cell_angle_beta   90.00000000
_cell_angle_gamma   120.19686442
_symmetry_Int_Tables_number   1
_chemical_formula_structural   CaTh2TiSb5
_chemical_formula_sum   'Ca2 Th4 Ti2 Sb10'
_cell_volume   482.95135040
_cell_formula_units_Z   2
loop_
 _symmetry_equiv_pos_site_id
 _symmetry_equiv_pos_as_xyz
  1  'x, y, z'
loop_
 _atom_site_type_symbol
 _atom_site_label
 _atom_site_symmetry_multiplicity
 _atom_site_fract_x
 _atom_site_fract_y
 _atom_site_fract_z
 _atom_site_occupancy
  Ca  Ca0  1  0.620430  0.621857  0.750000  1
  Ca  Ca1  1  0.620430  0.998574  0.250000  1
  Th  Th2  1  0.389597  0.000416  0.750000  1
  Th  Th3  1  0.389597  0.389181  0.250000  1
  Th  Th4  1  0.997142  0.616606  0.250000  1
  Th  Th5  1  0.997142  0.380535  0.750000  1
  Ti  Ti6  1  0.994205  0.997102  0.000000  1
  Ti  Ti7  1  0.994205  0.997102  0.500000  1
  Sb  Sb8  1  0.665360  0.332680  0.500000  1
  Sb  Sb9  1  0.328885  0.664442  0.000000  1
  Sb  Sb10  1  0.744354  0.998472  0.750000  1
  Sb  Sb11  1  0.744354  0.745883  0.250000  1
  Sb  Sb12  1  0.328885  0.664442  0.500000  1
  Sb  Sb13  1  0.665360  0.332680  0.000000  1
  Sb  Sb14  1  0.257672  0.001929  0.250000  1
  Sb  Sb15  1  0.257672  0.255743  0.750000  1
  Sb  Sb16  1  0.002353  0.743101  0.750000  1
  Sb  Sb17  1  0.002353  0.259252  0.250000  1
