# generated using pymatgen
data_Dy5Si6P6Ir17Rh2
_symmetry_space_group_name_H-M   'P 1'
_cell_length_a   12.80895303
_cell_length_b   12.80264510
_cell_length_c   3.95004500
_cell_angle_alpha   90.00000000
_cell_angle_beta   90.00000000
_cell_angle_gamma   120.02455116
_symmetry_Int_Tables_number   1
_chemical_formula_structural   Dy5Si6P6Ir17Rh2
_chemical_formula_sum   'Dy5 Si6 P6 Ir17 Rh2'
_cell_volume   560.83940487
_cell_formula_units_Z   1
loop_
 _symmetry_equiv_pos_site_id
 _symmetry_equiv_pos_as_xyz
  1  'x, y, z'
loop_
 _atom_site_type_symbol
 _atom_site_label
 _atom_site_symmetry_multiplicity
 _atom_site_fract_x
 _atom_site_fract_y
 _atom_site_fract_z
 _atom_site_occupancy
  Dy  Dy0  1  0.333376  0.666749  0.500000  1
  Dy  Dy1  1  0.666825  0.333473  0.500000  1
  Dy  Dy2  1  0.001785  0.816036  0.000000  1
  Dy  Dy3  1  0.183955  0.185522  0.000000  1
  Dy  Dy4  1  0.814602  0.998404  0.000000  1
  Si  Si5  1  0.000655  0.634742  0.500000  1
  Si  Si6  1  0.365209  0.366142  0.500000  1
  Si  Si7  1  0.634804  0.999187  0.500000  1
  Si  Si8  1  0.519686  0.682288  0.000000  1
  Si  Si9  1  0.317858  0.837303  0.000000  1
  Si  Si10  1  0.162768  0.480449  0.000000  1
  P  P11  1  0.483918  0.177905  0.000000  1
  P  P12  1  0.693436  0.516318  0.000000  1
  P  P13  1  0.823025  0.306722  0.000000  1
  P  P14  1  0.996166  0.177405  0.500000  1
  P  P15  1  0.822558  0.818855  0.500000  1
  P  P16  1  0.180304  0.003610  0.500000  1
  Ir  Ir17  1  0.515811  0.869529  0.000000  1
  Ir  Ir18  1  0.130823  0.646631  0.000000  1
  Ir  Ir19  1  0.353661  0.484050  0.000000  1
  Ir  Ir20  1  0.493935  0.367567  0.000000  1
  Ir  Ir21  1  0.873839  0.506281  0.000000  1
  Ir  Ir22  1  0.631514  0.126053  0.000000  1
  Ir  Ir23  1  0.442859  0.985334  0.500000  1
  Ir  Ir24  1  0.993454  0.276607  0.000000  1
  Ir  Ir25  1  0.723330  0.717089  0.000000  1
  Ir  Ir26  1  0.284290  0.006447  0.000000  1
  Ir  Ir27  1  0.632205  0.808579  0.500000  1
  Ir  Ir28  1  0.191051  0.824013  0.500000  1
  Ir  Ir29  1  0.176139  0.367478  0.500000  1
  Ir  Ir30  1  0.381506  0.182266  0.500000  1
  Ir  Ir31  1  0.801655  0.618662  0.500000  1
  Ir  Ir32  1  0.816520  0.198143  0.500000  1
  Ir  Ir33  1  0.999716  0.000107  0.500000  1
  Rh  Rh34  1  0.014039  0.457340  0.500000  1
  Rh  Rh35  1  0.542722  0.556714  0.500000  1
