# generated using pymatgen
data_Hf3Al3CoCuNi
_symmetry_space_group_name_H-M   'P 1'
_cell_length_a   6.89450300
_cell_length_b   6.89450297
_cell_length_c   3.45771600
_cell_angle_alpha   90.00000000
_cell_angle_beta   90.00000000
_cell_angle_gamma   119.99999534
_symmetry_Int_Tables_number   1
_chemical_formula_structural   Hf3Al3CoCuNi
_chemical_formula_sum   'Hf3 Al3 Co1 Cu1 Ni1'
_cell_volume   142.33965199
_cell_formula_units_Z   1
loop_
 _symmetry_equiv_pos_site_id
 _symmetry_equiv_pos_as_xyz
  1  'x, y, z'
loop_
 _atom_site_type_symbol
 _atom_site_label
 _atom_site_symmetry_multiplicity
 _atom_site_fract_x
 _atom_site_fract_y
 _atom_site_fract_z
 _atom_site_occupancy
  Hf  Hf0  1  0.413703  0.397008  0.500000  1
  Hf  Hf1  1  0.602992  0.016694  0.500000  1
  Hf  Hf2  1  0.983306  0.586297  0.500000  1
  Al  Al3  1  0.746842  0.752291  0.000000  1
  Al  Al4  1  0.247709  0.994551  0.000000  1
  Al  Al5  1  0.005449  0.253158  0.000000  1
  Co  Co6  1  0.666667  0.333333  0.000000  1
  Cu  Cu7  1  0.333333  0.666667  0.000000  1
  Ni  Ni8  1  0.000000  0.000000  0.500000  1
