# generated using pymatgen
data_V10Ga6S
_symmetry_space_group_name_H-M   'P 1'
_cell_length_a   7.42861400
_cell_length_b   7.42861499
_cell_length_c   4.98464000
_cell_angle_alpha   90.00000000
_cell_angle_beta   90.00000000
_cell_angle_gamma   120.00000452
_symmetry_Int_Tables_number   1
_chemical_formula_structural   V10Ga6S
_chemical_formula_sum   'V10 Ga6 S1'
_cell_volume   238.22100511
_cell_formula_units_Z   1
loop_
 _symmetry_equiv_pos_site_id
 _symmetry_equiv_pos_as_xyz
  1  'x, y, z'
loop_
 _atom_site_type_symbol
 _atom_site_label
 _atom_site_symmetry_multiplicity
 _atom_site_fract_x
 _atom_site_fract_y
 _atom_site_fract_z
 _atom_site_occupancy
  V  V0  1  0.000000  0.752570  0.223643  1
  V  V1  1  0.247430  0.247430  0.223643  1
  V  V2  1  0.752570  0.000000  0.223643  1
  V  V3  1  0.000000  0.247430  0.776357  1
  V  V4  1  0.752570  0.752570  0.776357  1
  V  V5  1  0.247430  0.000000  0.776357  1
  V  V6  1  0.333333  0.666667  0.500000  1
  V  V7  1  0.666667  0.333333  0.500000  1
  V  V8  1  0.666667  0.333333  0.000000  1
  V  V9  1  0.333333  0.666667  0.000000  1
  Ga  Ga10  1  0.000000  0.400237  0.255697  1
  Ga  Ga11  1  0.599763  0.599763  0.255697  1
  Ga  Ga12  1  0.400237  0.000000  0.255697  1
  Ga  Ga13  1  0.000000  0.599763  0.744303  1
  Ga  Ga14  1  0.400237  0.400237  0.744303  1
  Ga  Ga15  1  0.599763  0.000000  0.744303  1
  S  S16  1  0.000000  0.000000  0.500000  1
