# generated using pymatgen
data_Lu6SnBiOs
_symmetry_space_group_name_H-M   'P 1'
_cell_length_a   8.03560500
_cell_length_b   8.03560469
_cell_length_c   4.25925100
_cell_angle_alpha   90.00000000
_cell_angle_beta   90.00000000
_cell_angle_gamma   119.99999714
_symmetry_Int_Tables_number   1
_chemical_formula_structural   Lu6SnBiOs
_chemical_formula_sum   'Lu6 Sn1 Bi1 Os1'
_cell_volume   238.17765899
_cell_formula_units_Z   1
loop_
 _symmetry_equiv_pos_site_id
 _symmetry_equiv_pos_as_xyz
  1  'x, y, z'
loop_
 _atom_site_type_symbol
 _atom_site_label
 _atom_site_symmetry_multiplicity
 _atom_site_fract_x
 _atom_site_fract_y
 _atom_site_fract_z
 _atom_site_occupancy
  Lu  Lu0  1  0.619779  0.008663  0.000000  1
  Lu  Lu1  1  0.388885  0.380221  0.000000  1
  Lu  Lu2  1  0.991337  0.611115  0.000000  1
  Lu  Lu3  1  0.237898  0.002943  0.499999  1
  Lu  Lu4  1  0.997057  0.234954  0.499999  1
  Lu  Lu5  1  0.765045  0.762103  0.499999  1
  Sn  Sn6  1  0.666667  0.333334  0.499999  1
  Bi  Bi7  1  0.333333  0.666666  0.499999  1
  Os  Os8  1  0.000000  0.000000  0.000000  1
