# generated using pymatgen
data_Ho6Mn(CrC4)3
_symmetry_space_group_name_H-M   'P 1'
_cell_length_a   8.09698300
_cell_length_b   8.09698351
_cell_length_c   4.97300700
_cell_angle_alpha   90.00000000
_cell_angle_beta   90.00000000
_cell_angle_gamma   119.99999166
_symmetry_Int_Tables_number   1
_chemical_formula_structural   Ho6Mn(CrC4)3
_chemical_formula_sum   'Ho6 Mn1 Cr3 C12'
_cell_volume   282.35547988
_cell_formula_units_Z   1
loop_
 _symmetry_equiv_pos_site_id
 _symmetry_equiv_pos_as_xyz
  1  'x, y, z'
loop_
 _atom_site_type_symbol
 _atom_site_label
 _atom_site_symmetry_multiplicity
 _atom_site_fract_x
 _atom_site_fract_y
 _atom_site_fract_z
 _atom_site_occupancy
  Ho  Ho0  1  0.623936  0.685502  0.750000  1
  Ho  Ho1  1  0.937133  0.621437  0.250000  1
  Ho  Ho2  1  0.684303  0.062867  0.250000  1
  Ho  Ho3  1  0.314498  0.938434  0.750000  1
  Ho  Ho4  1  0.061566  0.376064  0.750000  1
  Ho  Ho5  1  0.378563  0.315697  0.250000  1
  Mn  Mn6  1  0.333333  0.666667  0.250000  1
  Cr  Cr7  1  0.000000  0.000000  0.501200  1
  Cr  Cr8  1  0.000000  0.000000  0.998800  1
  Cr  Cr9  1  0.666667  0.333333  0.750000  1
  C  C10  1  0.965749  0.775997  0.750000  1
  C  C11  1  0.193721  0.964621  0.250000  1
  C  C12  1  0.770900  0.806279  0.250000  1
  C  C13  1  0.224003  0.189753  0.750000  1
  C  C14  1  0.810247  0.034251  0.750000  1
  C  C15  1  0.035379  0.229100  0.250000  1
  C  C16  1  0.866774  0.579432  0.750000  1
  C  C17  1  0.288821  0.864811  0.250000  1
  C  C18  1  0.575989  0.711179  0.250000  1
  C  C19  1  0.420568  0.287342  0.750000  1
  C  C20  1  0.135189  0.424011  0.250000  1
  C  C21  1  0.712658  0.133226  0.750000  1
