# generated using pymatgen
data_MgMnAlB2Rh5
_symmetry_space_group_name_H-M   'P 1'
_cell_length_a   9.37101200
_cell_length_b   9.37402700
_cell_length_c   2.93020400
_cell_angle_alpha   90.00000000
_cell_angle_beta   90.00000000
_cell_angle_gamma   90.00000000
_symmetry_Int_Tables_number   1
_chemical_formula_structural   MgMnAlB2Rh5
_chemical_formula_sum   'Mg2 Mn2 Al2 B4 Rh10'
_cell_volume   257.40119035
_cell_formula_units_Z   2
loop_
 _symmetry_equiv_pos_site_id
 _symmetry_equiv_pos_as_xyz
  1  'x, y, z'
loop_
 _atom_site_type_symbol
 _atom_site_label
 _atom_site_symmetry_multiplicity
 _atom_site_fract_x
 _atom_site_fract_y
 _atom_site_fract_z
 _atom_site_occupancy
  Mg  Mg0  1  0.824532  0.324044  0.000000  1
  Mg  Mg1  1  0.324532  0.175956  0.000000  1
  Mn  Mn2  1  0.677869  0.823385  0.000000  1
  Mn  Mn3  1  0.177869  0.676615  0.000000  1
  Al  Al4  1  0.000121  0.001195  0.000000  1
  Al  Al5  1  0.500121  0.498805  0.000000  1
  B  B6  1  0.625685  0.126088  0.000000  1
  B  B7  1  0.125685  0.373912  0.000000  1
  B  B8  1  0.872893  0.626845  0.000000  1
  B  B9  1  0.372893  0.873155  0.000000  1
  Rh  Rh10  1  0.070721  0.215521  0.500000  1
  Rh  Rh11  1  0.212756  0.924228  0.500000  1
  Rh  Rh12  1  0.784134  0.065482  0.500000  1
  Rh  Rh13  1  0.929421  0.786570  0.500000  1
  Rh  Rh14  1  0.429421  0.713430  0.500000  1
  Rh  Rh15  1  0.570721  0.284479  0.500000  1
  Rh  Rh16  1  0.712756  0.575772  0.500000  1
  Rh  Rh17  1  0.284134  0.434518  0.500000  1
  Rh  Rh18  1  0.501868  0.995953  0.500000  1
  Rh  Rh19  1  0.001868  0.504047  0.500000  1
