# generated using pymatgen
data_Dy20HgIr7Os4
_symmetry_space_group_name_H-M   'P 1'
_cell_length_a   10.90604739
_cell_length_b   10.90604739
_cell_length_c   6.43956729
_cell_angle_alpha   89.94881501
_cell_angle_beta   89.94881501
_cell_angle_gamma   89.55475733
_symmetry_Int_Tables_number   1
_chemical_formula_structural   Dy20HgIr7Os4
_chemical_formula_sum   'Dy20 Hg1 Ir7 Os4'
_cell_volume   765.91044111
_cell_formula_units_Z   1
loop_
 _symmetry_equiv_pos_site_id
 _symmetry_equiv_pos_as_xyz
  1  'x, y, z'
loop_
 _atom_site_type_symbol
 _atom_site_label
 _atom_site_symmetry_multiplicity
 _atom_site_fract_x
 _atom_site_fract_y
 _atom_site_fract_z
 _atom_site_occupancy
  Dy  Dy0  1  0.291626  0.084863  0.376320  1
  Dy  Dy1  1  0.296155  0.912486  0.877442  1
  Dy  Dy2  1  0.699825  0.081522  0.857052  1
  Dy  Dy3  1  0.701924  0.903917  0.381801  1
  Dy  Dy4  1  0.586134  0.792926  0.879413  1
  Dy  Dy5  1  0.573002  0.207937  0.378901  1
  Dy  Dy6  1  0.411759  0.792968  0.378044  1
  Dy  Dy7  1  0.412366  0.205521  0.879462  1
  Dy  Dy8  1  0.207074  0.413866  0.620587  1
  Dy  Dy9  1  0.207032  0.588241  0.121956  1
  Dy  Dy10  1  0.792063  0.426998  0.121099  1
  Dy  Dy11  1  0.794479  0.587634  0.620538  1
  Dy  Dy12  1  0.915137  0.708374  0.123680  1
  Dy  Dy13  1  0.918478  0.300175  0.642948  1
  Dy  Dy14  1  0.087514  0.703845  0.622558  1
  Dy  Dy15  1  0.096083  0.298076  0.118199  1
  Dy  Dy16  1  0.005792  0.993453  0.504253  1
  Dy  Dy17  1  0.006547  0.994208  0.995747  1
  Dy  Dy18  1  0.498805  0.500338  0.998454  1
  Dy  Dy19  1  0.499662  0.501195  0.501546  1
  Hg  Hg20  1  0.842696  0.157304  0.250000  1
  Ir  Ir21  1  0.849825  0.848781  0.749873  1
  Ir  Ir22  1  0.151219  0.150175  0.750127  1
  Ir  Ir23  1  0.154036  0.845964  0.250000  1
  Ir  Ir24  1  0.652449  0.347551  0.750000  1
  Ir  Ir25  1  0.651285  0.651615  0.249747  1
  Ir  Ir26  1  0.348385  0.348715  0.250253  1
  Ir  Ir27  1  0.347701  0.652299  0.750000  1
  Os  Os28  1  0.500723  0.999336  0.126556  1
  Os  Os29  1  0.498617  0.999056  0.621919  1
  Os  Os30  1  0.000944  0.501383  0.878081  1
  Os  Os31  1  0.000664  0.499277  0.373444  1
