# generated using pymatgen
data_Ca2Ce(MgGa)3
_symmetry_space_group_name_H-M   'P 1'
_cell_length_a   7.40959000
_cell_length_b   7.45321815
_cell_length_c   4.52452400
_cell_angle_alpha   90.00000000
_cell_angle_beta   90.00000000
_cell_angle_gamma   119.80656152
_symmetry_Int_Tables_number   1
_chemical_formula_structural   Ca2Ce(MgGa)3
_chemical_formula_sum   'Ca2 Ce1 Mg3 Ga3'
_cell_volume   216.81272896
_cell_formula_units_Z   1
loop_
 _symmetry_equiv_pos_site_id
 _symmetry_equiv_pos_as_xyz
  1  'x, y, z'
loop_
 _atom_site_type_symbol
 _atom_site_label
 _atom_site_symmetry_multiplicity
 _atom_site_fract_x
 _atom_site_fract_y
 _atom_site_fract_z
 _atom_site_occupancy
  Ca  Ca0  1  0.000738  0.422072  0.000000  1
  Ca  Ca1  1  0.578665  0.577928  0.000000  1
  Ce  Ce2  1  0.424033  0.000000  0.000000  1
  Mg  Mg3  1  0.000344  0.757597  0.500000  1
  Mg  Mg4  1  0.242747  0.242403  0.500000  1
  Mg  Mg5  1  0.758446  0.000000  0.500000  1
  Ga  Ga6  1  0.334294  0.676420  0.500000  1
  Ga  Ga7  1  0.657875  0.323580  0.500000  1
  Ga  Ga8  1  0.002859  0.000000  0.000000  1
