# generated using pymatgen
data_Ca4LaNd3Zn8
_symmetry_space_group_name_H-M   'P 1'
_cell_length_a   7.36587066
_cell_length_b   5.23154700
_cell_length_c   10.43647374
_cell_angle_alpha   90.00000000
_cell_angle_beta   89.99691738
_cell_angle_gamma   90.00000000
_symmetry_Int_Tables_number   1
_chemical_formula_structural   Ca4LaNd3Zn8
_chemical_formula_sum   'Ca4 La1 Nd3 Zn8'
_cell_volume   402.16845586
_cell_formula_units_Z   1
loop_
 _symmetry_equiv_pos_site_id
 _symmetry_equiv_pos_as_xyz
  1  'x, y, z'
loop_
 _atom_site_type_symbol
 _atom_site_label
 _atom_site_symmetry_multiplicity
 _atom_site_fract_x
 _atom_site_fract_y
 _atom_site_fract_z
 _atom_site_occupancy
  Ca  Ca0  1  0.749877  0.250000  0.124998  1
  Ca  Ca1  1  0.249813  0.750000  0.375936  1
  Ca  Ca2  1  0.750188  0.250000  0.623157  1
  Ca  Ca3  1  0.250143  0.750000  0.876024  1
  La  La4  1  0.750232  0.750000  0.875800  1
  Nd  Nd5  1  0.249834  0.250000  0.123822  1
  Nd  Nd6  1  0.749739  0.750000  0.375888  1
  Nd  Nd7  1  0.250281  0.250000  0.624470  1
  Zn  Zn8  1  0.498033  0.750000  0.128528  1
  Zn  Zn9  1  0.001595  0.750000  0.128598  1
  Zn  Zn10  1  0.499639  0.250000  0.372982  1
  Zn  Zn11  1  0.000012  0.250000  0.373028  1
  Zn  Zn12  1  0.002008  0.750000  0.625238  1
  Zn  Zn13  1  0.498267  0.750000  0.625291  1
  Zn  Zn14  1  0.002968  0.250000  0.873099  1
  Zn  Zn15  1  0.497367  0.250000  0.873140  1
