# generated using pymatgen
data_Ce3ErGa12Tc
_symmetry_space_group_name_H-M   'P 1'
_cell_length_a   7.53477849
_cell_length_b   7.53477793
_cell_length_c   7.61718100
_cell_angle_alpha   109.69291741
_cell_angle_beta   109.69291587
_cell_angle_gamma   109.24861996
_symmetry_Int_Tables_number   1
_chemical_formula_structural   Ce3ErGa12Tc
_chemical_formula_sum   'Ce3 Er1 Ga12 Tc1'
_cell_volume   331.98446086
_cell_formula_units_Z   1
loop_
 _symmetry_equiv_pos_site_id
 _symmetry_equiv_pos_as_xyz
  1  'x, y, z'
loop_
 _atom_site_type_symbol
 _atom_site_label
 _atom_site_symmetry_multiplicity
 _atom_site_fract_x
 _atom_site_fract_y
 _atom_site_fract_z
 _atom_site_occupancy
  Ce  Ce0  1  0.000000  0.500000  0.000000  1
  Ce  Ce1  1  0.500000  0.000000  0.000000  1
  Ce  Ce2  1  0.500000  0.500000  0.500000  1
  Er  Er3  1  0.000000  0.000000  0.500000  1
  Ga  Ga4  1  0.751279  0.248721  0.500000  1
  Ga  Ga5  1  0.751279  0.502558  0.251279  1
  Ga  Ga6  1  0.497442  0.248721  0.748721  1
  Ga  Ga7  1  0.248721  0.497442  0.748721  1
  Ga  Ga8  1  0.248721  0.751279  0.500000  1
  Ga  Ga9  1  0.502558  0.751279  0.251279  1
  Ga  Ga10  1  0.708216  0.708216  0.000465  1
  Ga  Ga11  1  0.291784  0.000000  0.292251  1
  Ga  Ga12  1  0.000000  0.291784  0.292251  1
  Ga  Ga13  1  0.291784  0.291784  0.999535  1
  Ga  Ga14  1  0.708216  0.000000  0.707749  1
  Ga  Ga15  1  0.000000  0.708216  0.707749  1
  Tc  Tc16  1  0.000000  0.000000  0.000000  1
