# generated using pymatgen
data_Dy12Si12Pd3Pt
_symmetry_space_group_name_H-M   'P 1'
_cell_length_a   4.23891200
_cell_length_b   10.66663861
_cell_length_c   12.36415700
_cell_angle_alpha   90.03150918
_cell_angle_beta   90.00000000
_cell_angle_gamma   90.00000000
_symmetry_Int_Tables_number   1
_chemical_formula_structural   Dy12Si12Pd3Pt
_chemical_formula_sum   'Dy12 Si12 Pd3 Pt1'
_cell_volume   559.04456224
_cell_formula_units_Z   1
loop_
 _symmetry_equiv_pos_site_id
 _symmetry_equiv_pos_as_xyz
  1  'x, y, z'
loop_
 _atom_site_type_symbol
 _atom_site_label
 _atom_site_symmetry_multiplicity
 _atom_site_fract_x
 _atom_site_fract_y
 _atom_site_fract_z
 _atom_site_occupancy
  Dy  Dy0  1  0.250000  0.879256  0.020921  1
  Dy  Dy1  1  0.250000  0.621099  0.522078  1
  Dy  Dy2  1  0.750000  0.119957  0.978562  1
  Dy  Dy3  1  0.750000  0.379722  0.478010  1
  Dy  Dy4  1  0.250000  0.919867  0.602520  1
  Dy  Dy5  1  0.250000  0.580214  0.101399  1
  Dy  Dy6  1  0.750000  0.079510  0.398767  1
  Dy  Dy7  1  0.750000  0.419802  0.898281  1
  Dy  Dy8  1  0.250000  0.662294  0.801552  1
  Dy  Dy9  1  0.250000  0.838408  0.301252  1
  Dy  Dy10  1  0.750000  0.338606  0.198273  1
  Dy  Dy11  1  0.750000  0.161104  0.698224  1
  Si  Si12  1  0.250000  0.015857  0.822497  1
  Si  Si13  1  0.250000  0.482439  0.323052  1
  Si  Si14  1  0.750000  0.982318  0.177358  1
  Si  Si15  1  0.750000  0.517613  0.677189  1
  Si  Si16  1  0.250000  0.245141  0.843940  1
  Si  Si17  1  0.250000  0.253776  0.343853  1
  Si  Si18  1  0.750000  0.754174  0.155708  1
  Si  Si19  1  0.750000  0.746160  0.656725  1
  Si  Si20  1  0.250000  0.195243  0.539046  1
  Si  Si21  1  0.250000  0.304450  0.039176  1
  Si  Si22  1  0.750000  0.805426  0.461089  1
  Si  Si23  1  0.750000  0.697152  0.959582  1
  Pd  Pd24  1  0.250000  0.389960  0.682613  1
  Pd  Pd25  1  0.250000  0.109777  0.182656  1
  Pd  Pd26  1  0.750000  0.610532  0.317834  1
  Pt  Pt27  1  0.750000  0.890146  0.817841  1
