# generated using pymatgen
data_Ba3CeTm3O9
_symmetry_space_group_name_H-M   'P 1'
_cell_length_a   9.20310733
_cell_length_b   9.20310670
_cell_length_c   9.20310701
_cell_angle_alpha   38.94068062
_cell_angle_beta   38.94068059
_cell_angle_gamma   38.94067868
_symmetry_Int_Tables_number   1
_chemical_formula_structural   Ba3CeTm3O9
_chemical_formula_sum   'Ba3 Ce1 Tm3 O9'
_cell_volume   276.88478245
_cell_formula_units_Z   1
loop_
 _symmetry_equiv_pos_site_id
 _symmetry_equiv_pos_as_xyz
  1  'x, y, z'
loop_
 _atom_site_type_symbol
 _atom_site_label
 _atom_site_symmetry_multiplicity
 _atom_site_fract_x
 _atom_site_fract_y
 _atom_site_fract_z
 _atom_site_occupancy
  Ba  Ba0  1  0.000273  0.000273  0.000273  1
  Ba  Ba1  1  0.834695  0.834695  0.834695  1
  Ba  Ba2  1  0.406537  0.406537  0.406537  1
  Ce  Ce3  1  0.574497  0.574497  0.574497  1
  Tm  Tm4  1  0.135276  0.135276  0.135276  1
  Tm  Tm5  1  0.261362  0.261362  0.261362  1
  Tm  Tm6  1  0.701450  0.701450  0.701450  1
  O  O7  1  0.517216  0.443518  0.972624  1
  O  O8  1  0.443518  0.972624  0.517216  1
  O  O9  1  0.972624  0.517216  0.443518  1
  O  O10  1  0.412546  0.287090  0.889269  1
  O  O11  1  0.287090  0.889269  0.412546  1
  O  O12  1  0.889269  0.412546  0.287090  1
  O  O13  1  0.973459  0.416472  0.864216  1
  O  O14  1  0.864216  0.973459  0.416472  1
  O  O15  1  0.416472  0.864216  0.973459  1
