# generated using pymatgen
data_Y3TmScBi3
_symmetry_space_group_name_H-M   'P 1'
_cell_length_a   8.12674100
_cell_length_b   9.40088000
_cell_length_c   11.98742200
_cell_angle_alpha   90.00000000
_cell_angle_beta   90.00000000
_cell_angle_gamma   90.00000000
_symmetry_Int_Tables_number   1
_chemical_formula_structural   Y3TmScBi3
_chemical_formula_sum   'Y12 Tm4 Sc4 Bi12'
_cell_volume   915.82126264
_cell_formula_units_Z   4
loop_
 _symmetry_equiv_pos_site_id
 _symmetry_equiv_pos_as_xyz
  1  'x, y, z'
loop_
 _atom_site_type_symbol
 _atom_site_label
 _atom_site_symmetry_multiplicity
 _atom_site_fract_x
 _atom_site_fract_y
 _atom_site_fract_z
 _atom_site_occupancy
  Y  Y0  1  0.184962  0.749652  0.720473  1
  Y  Y1  1  0.684962  0.750348  0.779527  1
  Y  Y2  1  0.815038  0.249652  0.279527  1
  Y  Y3  1  0.315038  0.250348  0.220473  1
  Y  Y4  1  0.696040  0.563374  0.058830  1
  Y  Y5  1  0.196040  0.936626  0.441170  1
  Y  Y6  1  0.303960  0.063374  0.941170  1
  Y  Y7  1  0.803960  0.436626  0.558830  1
  Y  Y8  1  0.354822  0.750271  0.215326  1
  Y  Y9  1  0.854822  0.749729  0.284674  1
  Y  Y10  1  0.645178  0.250271  0.784674  1
  Y  Y11  1  0.145178  0.249729  0.715326  1
  Tm  Tm12  1  0.303581  0.433602  0.941208  1
  Tm  Tm13  1  0.803581  0.066398  0.558792  1
  Tm  Tm14  1  0.696419  0.933602  0.058792  1
  Tm  Tm15  1  0.196419  0.566398  0.441208  1
  Sc  Sc16  1  0.025251  0.750497  0.988002  1
  Sc  Sc17  1  0.525251  0.749503  0.511998  1
  Sc  Sc18  1  0.974749  0.250497  0.011998  1
  Sc  Sc19  1  0.474749  0.249503  0.488002  1
  Bi  Bi20  1  0.434584  0.003747  0.668091  1
  Bi  Bi21  1  0.934584  0.496253  0.831909  1
  Bi  Bi22  1  0.565416  0.503747  0.331909  1
  Bi  Bi23  1  0.065416  0.996253  0.168091  1
  Bi  Bi24  1  0.566634  0.995824  0.332212  1
  Bi  Bi25  1  0.066634  0.504176  0.167788  1
  Bi  Bi26  1  0.433366  0.495824  0.667788  1
  Bi  Bi27  1  0.933366  0.004176  0.832212  1
  Bi  Bi28  1  0.403776  0.747892  0.957493  1
  Bi  Bi29  1  0.903776  0.752108  0.542507  1
  Bi  Bi30  1  0.596224  0.247892  0.042507  1
  Bi  Bi31  1  0.096224  0.252108  0.457493  1
