# generated using pymatgen
data_TbYMg(PRh2)6
_symmetry_space_group_name_H-M   'P 1'
_cell_length_a   3.89666802
_cell_length_b   9.71562392
_cell_length_c   9.71450303
_cell_angle_alpha   119.99455098
_cell_angle_beta   89.99450022
_cell_angle_gamma   89.99646984
_symmetry_Int_Tables_number   1
_chemical_formula_structural   TbYMg(PRh2)6
_chemical_formula_sum   'Tb1 Y1 Mg1 P6 Rh12'
_cell_volume   318.52179980
_cell_formula_units_Z   1
loop_
 _symmetry_equiv_pos_site_id
 _symmetry_equiv_pos_as_xyz
  1  'x, y, z'
loop_
 _atom_site_type_symbol
 _atom_site_label
 _atom_site_symmetry_multiplicity
 _atom_site_fract_x
 _atom_site_fract_y
 _atom_site_fract_z
 _atom_site_occupancy
  Tb  Tb0  1  0.752758  0.333234  0.666511  1
  Y  Y1  1  0.247246  0.666763  0.333482  1
  Mg  Mg2  1  0.499919  0.999998  0.000000  1
  P  P3  1  0.746737  0.883486  0.598229  1
  P  P4  1  0.746917  0.401960  0.285301  1
  P  P5  1  0.746955  0.714733  0.116681  1
  P  P6  1  0.253273  0.116470  0.401715  1
  P  P7  1  0.253095  0.598089  0.714697  1
  P  P8  1  0.253061  0.285257  0.883370  1
  Rh  Rh9  1  0.754007  0.128048  0.838847  1
  Rh  Rh10  1  0.754297  0.161230  0.289041  1
  Rh  Rh11  1  0.754041  0.710829  0.872118  1
  Rh  Rh12  1  0.246008  0.871880  0.161115  1
  Rh  Rh13  1  0.245716  0.838831  0.710928  1
  Rh  Rh14  1  0.245980  0.289199  0.127963  1
  Rh  Rh15  1  0.748505  0.612832  0.546953  1
  Rh  Rh16  1  0.748589  0.453237  0.066036  1
  Rh  Rh17  1  0.748612  0.934171  0.387234  1
  Rh  Rh18  1  0.251489  0.387165  0.452889  1
  Rh  Rh19  1  0.251411  0.546896  0.934120  1
  Rh  Rh20  1  0.251385  0.065692  0.612769  1
