# generated using pymatgen
data_MnGaPb2F10
_symmetry_space_group_name_H-M   'P 1'
_cell_length_a   5.74725554
_cell_length_b   5.79521412
_cell_length_c   8.11941700
_cell_angle_alpha   69.11171595
_cell_angle_beta   70.25097162
_cell_angle_gamma   70.95121163
_symmetry_Int_Tables_number   1
_chemical_formula_structural   MnGaPb2F10
_chemical_formula_sum   'Mn1 Ga1 Pb2 F10'
_cell_volume   231.18507693
_cell_formula_units_Z   1
loop_
 _symmetry_equiv_pos_site_id
 _symmetry_equiv_pos_as_xyz
  1  'x, y, z'
loop_
 _atom_site_type_symbol
 _atom_site_label
 _atom_site_symmetry_multiplicity
 _atom_site_fract_x
 _atom_site_fract_y
 _atom_site_fract_z
 _atom_site_occupancy
  Mn  Mn0  1  0.000000  0.000000  0.000000  1
  Ga  Ga1  1  0.000000  0.000000  0.500000  1
  Pb  Pb2  1  0.543120  0.450706  0.255304  1
  Pb  Pb3  1  0.456880  0.549294  0.744696  1
  F  F4  1  0.067495  0.933334  0.736110  1
  F  F5  1  0.932505  0.066666  0.263890  1
  F  F6  1  0.205309  0.230214  0.891501  1
  F  F7  1  0.767008  0.792829  0.610811  1
  F  F8  1  0.724121  0.292876  0.532495  1
  F  F9  1  0.707206  0.274448  0.974526  1
  F  F10  1  0.275879  0.707124  0.467505  1
  F  F11  1  0.292794  0.725552  0.025474  1
  F  F12  1  0.232992  0.207171  0.389189  1
  F  F13  1  0.794691  0.769786  0.108499  1
