# generated using pymatgen
data_Er6Tm10Cd4Ru3Pt
_symmetry_space_group_name_H-M   'P 1'
_cell_length_a   9.53146082
_cell_length_b   9.56682794
_cell_length_c   9.56702778
_cell_angle_alpha   59.58389342
_cell_angle_beta   59.45025926
_cell_angle_gamma   59.44794214
_symmetry_Int_Tables_number   1
_chemical_formula_structural   Er6Tm10Cd4Ru3Pt
_chemical_formula_sum   'Er6 Tm10 Cd4 Ru3 Pt1'
_cell_volume   609.76321208
_cell_formula_units_Z   1
loop_
 _symmetry_equiv_pos_site_id
 _symmetry_equiv_pos_as_xyz
  1  'x, y, z'
loop_
 _atom_site_type_symbol
 _atom_site_label
 _atom_site_symmetry_multiplicity
 _atom_site_fract_x
 _atom_site_fract_y
 _atom_site_fract_z
 _atom_site_occupancy
  Er  Er0  1  0.937809  0.560766  0.560777  1
  Er  Er1  1  0.557988  0.937633  0.937647  1
  Er  Er2  1  0.557880  0.938477  0.565410  1
  Er  Er3  1  0.937507  0.561020  0.938137  1
  Er  Er4  1  0.557947  0.565396  0.938454  1
  Er  Er5  1  0.937441  0.938183  0.561022  1
  Tm  Tm6  1  0.346672  0.350967  0.350962  1
  Tm  Tm7  1  0.346216  0.350390  0.956103  1
  Tm  Tm8  1  0.346215  0.956090  0.350376  1
  Tm  Tm9  1  0.962986  0.345461  0.345456  1
  Tm  Tm10  1  0.815212  0.188934  0.188892  1
  Tm  Tm11  1  0.184814  0.811586  0.811524  1
  Tm  Tm12  1  0.187399  0.811196  0.188355  1
  Tm  Tm13  1  0.813583  0.189159  0.805346  1
  Tm  Tm14  1  0.187367  0.188402  0.811175  1
  Tm  Tm15  1  0.813642  0.805325  0.189118  1
  Cd  Cd16  1  0.580007  0.580513  0.580603  1
  Cd  Cd17  1  0.580896  0.580447  0.258096  1
  Cd  Cd18  1  0.580679  0.258069  0.580665  1
  Cd  Cd19  1  0.256512  0.581160  0.581150  1
  Ru  Ru20  1  0.145247  0.138583  0.138600  1
  Ru  Ru21  1  0.145003  0.141769  0.577299  1
  Ru  Ru22  1  0.144956  0.577363  0.141765  1
  Pt  Pt23  1  0.576023  0.143111  0.143071  1
