# generated using pymatgen
data_Tm7Hf12ThSi16
_symmetry_space_group_name_H-M   'P 1'
_cell_length_a   7.26609730
_cell_length_b   7.26046444
_cell_length_c   13.33742899
_cell_angle_alpha   89.90997044
_cell_angle_beta   89.83672323
_cell_angle_gamma   90.01910890
_symmetry_Int_Tables_number   1
_chemical_formula_structural   Tm7Hf12ThSi16
_chemical_formula_sum   'Tm7 Hf12 Th1 Si16'
_cell_volume   703.61551500
_cell_formula_units_Z   1
loop_
 _symmetry_equiv_pos_site_id
 _symmetry_equiv_pos_as_xyz
  1  'x, y, z'
loop_
 _atom_site_type_symbol
 _atom_site_label
 _atom_site_symmetry_multiplicity
 _atom_site_fract_x
 _atom_site_fract_y
 _atom_site_fract_z
 _atom_site_occupancy
  Tm  Tm0  1  0.996963  0.345236  0.214654  1
  Tm  Tm1  1  0.004037  0.654841  0.715210  1
  Tm  Tm2  1  0.155375  0.496808  0.466247  1
  Tm  Tm3  1  0.502797  0.843022  0.033156  1
  Tm  Tm4  1  0.845328  0.503641  0.964649  1
  Tm  Tm5  1  0.495755  0.154863  0.535700  1
  Tm  Tm6  1  0.344385  0.995783  0.784837  1
  Hf  Hf7  1  0.174491  0.175433  0.998918  1
  Hf  Hf8  1  0.825055  0.825459  0.500153  1
  Hf  Hf9  1  0.325851  0.674943  0.250093  1
  Hf  Hf10  1  0.675598  0.324858  0.749796  1
  Hf  Hf11  1  0.150429  0.997349  0.375203  1
  Hf  Hf12  1  0.852813  0.002990  0.874244  1
  Hf  Hf13  1  0.502326  0.646793  0.626407  1
  Hf  Hf14  1  0.351905  0.497029  0.874700  1
  Hf  Hf15  1  0.494208  0.351473  0.123698  1
  Hf  Hf16  1  0.648067  0.504263  0.375974  1
  Hf  Hf17  1  0.997895  0.147940  0.626281  1
  Hf  Hf18  1  0.001765  0.850346  0.124259  1
  Th  Th19  1  0.656671  0.007344  0.284928  1
  Si  Si20  1  0.357062  0.299540  0.317583  1
  Si  Si21  1  0.640004  0.704510  0.818206  1
  Si  Si22  1  0.205123  0.860912  0.568530  1
  Si  Si23  1  0.139037  0.794490  0.931920  1
  Si  Si24  1  0.796287  0.139785  0.066402  1
  Si  Si25  1  0.865358  0.208310  0.435918  1
  Si  Si26  1  0.295097  0.360532  0.682170  1
  Si  Si27  1  0.705590  0.634819  0.180247  1
  Si  Si28  1  0.291558  0.048767  0.183305  1
  Si  Si29  1  0.703262  0.950980  0.685765  1
  Si  Si30  1  0.448219  0.794049  0.438203  1
  Si  Si31  1  0.202625  0.548809  0.063925  1
  Si  Si32  1  0.548577  0.202866  0.934744  1
  Si  Si33  1  0.797279  0.452689  0.565129  1
  Si  Si34  1  0.048417  0.297379  0.814313  1
  Si  Si35  1  0.954794  0.701151  0.314532  1
