# generated using pymatgen
data_Tb2Yb2YCuPb3
_symmetry_space_group_name_H-M   'P 1'
_cell_length_a   9.23755600
_cell_length_b   9.22810048
_cell_length_c   6.81626300
_cell_angle_alpha   90.00000000
_cell_angle_beta   90.00000000
_cell_angle_gamma   120.03390077
_symmetry_Int_Tables_number   1
_chemical_formula_structural   Tb2Yb2YCuPb3
_chemical_formula_sum   'Tb4 Yb4 Y2 Cu2 Pb6'
_cell_volume   503.03466036
_cell_formula_units_Z   2
loop_
 _symmetry_equiv_pos_site_id
 _symmetry_equiv_pos_as_xyz
  1  'x, y, z'
loop_
 _atom_site_type_symbol
 _atom_site_label
 _atom_site_symmetry_multiplicity
 _atom_site_fract_x
 _atom_site_fract_y
 _atom_site_fract_z
 _atom_site_occupancy
  Tb  Tb0  1  0.999978  0.259349  0.250000  1
  Tb  Tb1  1  0.000022  0.740651  0.750000  1
  Tb  Tb2  1  0.740630  0.740651  0.250000  1
  Tb  Tb3  1  0.259370  0.259349  0.750000  1
  Yb  Yb4  1  0.333361  0.666724  0.000000  1
  Yb  Yb5  1  0.666639  0.333276  0.000000  1
  Yb  Yb6  1  0.666639  0.333276  0.500000  1
  Yb  Yb7  1  0.333361  0.666724  0.500000  1
  Y  Y8  1  0.259419  0.000000  0.250000  1
  Y  Y9  1  0.740581  0.000000  0.750000  1
  Cu  Cu10  1  0.000000  0.000000  0.000000  1
  Cu  Cu11  1  0.000000  0.000000  0.500000  1
  Pb  Pb12  1  0.613232  0.000000  0.250000  1
  Pb  Pb13  1  0.386768  0.000000  0.750000  1
  Pb  Pb14  1  0.000040  0.613316  0.250000  1
  Pb  Pb15  1  0.999960  0.386684  0.750000  1
  Pb  Pb16  1  0.386724  0.386684  0.250000  1
  Pb  Pb17  1  0.613276  0.613316  0.750000  1
