# generated using pymatgen
data_CsSClO3
_symmetry_space_group_name_H-M   'P 1'
_cell_length_a   6.17660800
_cell_length_b   8.85063300
_cell_length_c   10.16145200
_cell_angle_alpha   90.00000000
_cell_angle_beta   90.00000000
_cell_angle_gamma   90.00000000
_symmetry_Int_Tables_number   1
_chemical_formula_structural   CsSClO3
_chemical_formula_sum   'Cs4 S4 Cl4 O12'
_cell_volume   555.49498475
_cell_formula_units_Z   4
loop_
 _symmetry_equiv_pos_site_id
 _symmetry_equiv_pos_as_xyz
  1  'x, y, z'
loop_
 _atom_site_type_symbol
 _atom_site_label
 _atom_site_symmetry_multiplicity
 _atom_site_fract_x
 _atom_site_fract_y
 _atom_site_fract_z
 _atom_site_occupancy
  Cs  Cs0  1  0.750000  0.877452  0.783995  1
  Cs  Cs1  1  0.250000  0.377452  0.716005  1
  Cs  Cs2  1  0.750000  0.622548  0.283995  1
  Cs  Cs3  1  0.250000  0.122548  0.216005  1
  S  S4  1  0.250000  0.752094  0.512426  1
  S  S5  1  0.750000  0.247906  0.487574  1
  S  S6  1  0.250000  0.747906  0.012426  1
  S  S7  1  0.750000  0.252094  0.987574  1
  Cl  Cl8  1  0.250000  0.527256  0.103718  1
  Cl  Cl9  1  0.250000  0.972744  0.603718  1
  Cl  Cl10  1  0.750000  0.027256  0.396282  1
  Cl  Cl11  1  0.750000  0.472744  0.896282  1
  O  O12  1  0.750000  0.210973  0.627126  1
  O  O13  1  0.750000  0.289027  0.127126  1
  O  O14  1  0.449567  0.815175  0.062018  1
  O  O15  1  0.250000  0.710973  0.872874  1
  O  O16  1  0.949567  0.315175  0.437982  1
  O  O17  1  0.250000  0.789027  0.372874  1
  O  O18  1  0.550433  0.184825  0.937982  1
  O  O19  1  0.050433  0.684825  0.562018  1
  O  O20  1  0.449567  0.684825  0.562018  1
  O  O21  1  0.949567  0.184825  0.937982  1
  O  O22  1  0.550433  0.315175  0.437982  1
  O  O23  1  0.050433  0.815175  0.062018  1
