# generated using pymatgen
data_Sc12Ni(OsBr8)2
_symmetry_space_group_name_H-M   'P 1'
_cell_length_a   8.94598495
_cell_length_b   11.14113795
_cell_length_c   11.78385427
_cell_angle_alpha   117.16784118
_cell_angle_beta   101.71695218
_cell_angle_gamma   101.22116379
_symmetry_Int_Tables_number   1
_chemical_formula_structural   Sc12Ni(OsBr8)2
_chemical_formula_sum   'Sc12 Ni1 Os2 Br16'
_cell_volume   965.87681151
_cell_formula_units_Z   1
loop_
 _symmetry_equiv_pos_site_id
 _symmetry_equiv_pos_as_xyz
  1  'x, y, z'
loop_
 _atom_site_type_symbol
 _atom_site_label
 _atom_site_symmetry_multiplicity
 _atom_site_fract_x
 _atom_site_fract_y
 _atom_site_fract_z
 _atom_site_occupancy
  Sc  Sc0  1  0.083534  0.260352  0.352924  1
  Sc  Sc1  1  0.920581  0.741820  0.648368  1
  Sc  Sc2  1  0.781058  0.537473  0.321568  1
  Sc  Sc3  1  0.221430  0.462720  0.676760  1
  Sc  Sc4  1  0.279667  0.739965  0.647154  1
  Sc  Sc5  1  0.722571  0.257823  0.351379  1
  Sc  Sc6  1  0.141632  0.536760  0.323476  1
  Sc  Sc7  1  0.861874  0.462997  0.678148  1
  Sc  Sc8  1  0.401992  0.353111  0.265808  1
  Sc  Sc9  1  0.598046  0.647372  0.734919  1
  Sc  Sc10  1  0.456789  0.300397  0.521187  1
  Sc  Sc11  1  0.542631  0.699402  0.478895  1
  Ni  Ni12  1  0.343343  0.500296  0.500308  1
  Os  Os13  1  0.001861  0.499938  0.499844  1
  Os  Os14  1  0.658405  0.500024  0.500635  1
  Br  Br15  1  0.397439  0.741019  0.883844  1
  Br  Br16  1  0.601097  0.257931  0.114452  1
  Br  Br17  1  0.192651  0.968925  0.785172  1
  Br  Br18  1  0.811830  0.031030  0.214315  1
  Br  Br19  1  0.332639  0.092644  0.249710  1
  Br  Br20  1  0.656392  0.907298  0.750062  1
  Br  Br21  1  0.551104  0.437667  0.799709  1
  Br  Br22  1  0.438260  0.562415  0.200137  1
  Br  Br23  1  0.308794  0.826779  0.462584  1
  Br  Br24  1  0.690138  0.171650  0.537432  1
  Br  Br25  1  0.167874  0.170924  0.532748  1
  Br  Br26  1  0.831728  0.830279  0.466987  1
  Br  Br27  1  0.927364  0.576437  0.158447  1
  Br  Br28  1  0.076792  0.423279  0.841181  1
  Br  Br29  1  0.923218  0.740985  0.885610  1
  Br  Br30  1  0.077268  0.260289  0.116236  1
