# generated using pymatgen
data_Ho3ThAlRu
_symmetry_space_group_name_H-M   'P 1'
_cell_length_a   9.58133431
_cell_length_b   9.58133338
_cell_length_c   9.58133500
_cell_angle_alpha   59.99999785
_cell_angle_beta   60.00000106
_cell_angle_gamma   60.00000347
_symmetry_Int_Tables_number   1
_chemical_formula_structural   Ho3ThAlRu
_chemical_formula_sum   'Ho12 Th4 Al4 Ru4'
_cell_volume   621.96075206
_cell_formula_units_Z   4
loop_
 _symmetry_equiv_pos_site_id
 _symmetry_equiv_pos_as_xyz
  1  'x, y, z'
loop_
 _atom_site_type_symbol
 _atom_site_label
 _atom_site_symmetry_multiplicity
 _atom_site_fract_x
 _atom_site_fract_y
 _atom_site_fract_z
 _atom_site_occupancy
  Ho  Ho0  1  0.808823  0.191177  0.191177  1
  Ho  Ho1  1  0.191177  0.808823  0.808823  1
  Ho  Ho2  1  0.191177  0.808823  0.191177  1
  Ho  Ho3  1  0.808823  0.191177  0.808823  1
  Ho  Ho4  1  0.191177  0.191177  0.808823  1
  Ho  Ho5  1  0.808823  0.808823  0.191177  1
  Ho  Ho6  1  0.936416  0.563584  0.563584  1
  Ho  Ho7  1  0.563584  0.936416  0.936416  1
  Ho  Ho8  1  0.563584  0.936416  0.563584  1
  Ho  Ho9  1  0.936416  0.563584  0.936416  1
  Ho  Ho10  1  0.563584  0.563584  0.936416  1
  Ho  Ho11  1  0.936416  0.936416  0.563584  1
  Th  Th12  1  0.349836  0.349836  0.349836  1
  Th  Th13  1  0.349836  0.349836  0.950490  1
  Th  Th14  1  0.349836  0.950490  0.349836  1
  Th  Th15  1  0.950490  0.349836  0.349836  1
  Al  Al16  1  0.578735  0.578735  0.578735  1
  Al  Al17  1  0.578735  0.578735  0.263796  1
  Al  Al18  1  0.578735  0.263796  0.578735  1
  Al  Al19  1  0.263796  0.578735  0.578735  1
  Ru  Ru20  1  0.143208  0.143208  0.143208  1
  Ru  Ru21  1  0.143208  0.143208  0.570376  1
  Ru  Ru22  1  0.143208  0.570376  0.143208  1
  Ru  Ru23  1  0.570376  0.143208  0.143208  1
