# generated using pymatgen
data_Pr9Gd10Si16Ag
_symmetry_space_group_name_H-M   'P 1'
_cell_length_a   7.49291600
_cell_length_b   7.82161056
_cell_length_c   14.91706500
_cell_angle_alpha   90.00000000
_cell_angle_beta   90.00000000
_cell_angle_gamma   90.04633996
_symmetry_Int_Tables_number   1
_chemical_formula_structural   Pr9Gd10Si16Ag
_chemical_formula_sum   'Pr9 Gd10 Si16 Ag1'
_cell_volume   874.23923327
_cell_formula_units_Z   1
loop_
 _symmetry_equiv_pos_site_id
 _symmetry_equiv_pos_as_xyz
  1  'x, y, z'
loop_
 _atom_site_type_symbol
 _atom_site_label
 _atom_site_symmetry_multiplicity
 _atom_site_fract_x
 _atom_site_fract_y
 _atom_site_fract_z
 _atom_site_occupancy
  Pr  Pr0  1  0.021314  0.180011  0.402818  1
  Pr  Pr1  1  0.521623  0.322196  0.402762  1
  Pr  Pr2  1  0.479315  0.691732  0.897501  1
  Pr  Pr3  1  0.479315  0.691732  0.602499  1
  Pr  Pr4  1  0.967594  0.822323  0.602717  1
  Pr  Pr5  1  0.967594  0.822323  0.897283  1
  Pr  Pr6  1  0.521623  0.322196  0.097238  1
  Pr  Pr7  1  0.021314  0.180011  0.097182  1
  Pr  Pr8  1  0.147986  0.506858  0.750000  1
  Gd  Gd9  1  0.332551  0.174604  0.625835  1
  Gd  Gd10  1  0.678745  0.816283  0.376483  1
  Gd  Gd11  1  0.178788  0.678852  0.378070  1
  Gd  Gd12  1  0.816554  0.313082  0.874752  1
  Gd  Gd13  1  0.816554  0.313082  0.625248  1
  Gd  Gd14  1  0.849476  0.487373  0.250000  1
  Gd  Gd15  1  0.346606  0.011630  0.250000  1
  Gd  Gd16  1  0.332551  0.174604  0.874165  1
  Gd  Gd17  1  0.178788  0.678852  0.121930  1
  Gd  Gd18  1  0.678745  0.816283  0.123517  1
  Si  Si19  1  0.264073  0.881876  0.750000  1
  Si  Si20  1  0.470628  0.606083  0.250000  1
  Si  Si21  1  0.032688  0.103391  0.750000  1
  Si  Si22  1  0.528517  0.407038  0.750000  1
  Si  Si23  1  0.145586  0.468223  0.539191  1
  Si  Si24  1  0.970032  0.890954  0.250000  1
  Si  Si25  1  0.732207  0.116110  0.250000  1
  Si  Si26  1  0.855651  0.529964  0.036332  1
  Si  Si27  1  0.357637  0.970093  0.039269  1
  Si  Si28  1  0.145586  0.468223  0.960809  1
  Si  Si29  1  0.648339  0.035539  0.532063  1
  Si  Si30  1  0.357637  0.970093  0.460731  1
  Si  Si31  1  0.855651  0.529964  0.463668  1
  Si  Si32  1  0.764323  0.619740  0.750000  1
  Si  Si33  1  0.232219  0.380538  0.250000  1
  Si  Si34  1  0.648339  0.035539  0.967937  1
  Ag  Ag35  1  0.653851  0.982600  0.750000  1
