# generated using pymatgen
data_Ho4Er5Mg(BiAu2)2
_symmetry_space_group_name_H-M   'P 1'
_cell_length_a   8.70000661
_cell_length_b   8.70000681
_cell_length_c   8.70000672
_cell_angle_alpha   125.65702099
_cell_angle_beta   125.65702450
_cell_angle_gamma   80.45258396
_symmetry_Int_Tables_number   1
_chemical_formula_structural   Ho4Er5Mg(BiAu2)2
_chemical_formula_sum   'Ho4 Er5 Mg1 Bi2 Au4'
_cell_volume   419.37701955
_cell_formula_units_Z   1
loop_
 _symmetry_equiv_pos_site_id
 _symmetry_equiv_pos_as_xyz
  1  'x, y, z'
loop_
 _atom_site_type_symbol
 _atom_site_label
 _atom_site_symmetry_multiplicity
 _atom_site_fract_x
 _atom_site_fract_y
 _atom_site_fract_z
 _atom_site_occupancy
  Ho  Ho0  1  0.991906  0.477089  0.188033  1
  Ho  Ho1  1  0.289056  0.803872  0.811967  1
  Ho  Ho2  1  0.477089  0.289056  0.485184  1
  Ho  Ho3  1  0.803872  0.991906  0.514816  1
  Er  Er4  1  0.499832  0.499832  0.000000  1
  Er  Er5  1  0.008280  0.523082  0.811663  1
  Er  Er6  1  0.711420  0.196617  0.188337  1
  Er  Er7  1  0.523082  0.711420  0.514802  1
  Er  Er8  1  0.196617  0.008280  0.485198  1
  Mg  Mg9  1  0.999975  0.999975  0.000000  1
  Bi  Bi10  1  0.745986  0.745986  0.000000  1
  Bi  Bi11  1  0.254186  0.254186  0.000000  1
  Au  Au12  1  0.634591  0.141316  0.776556  1
  Au  Au13  1  0.364758  0.858033  0.223444  1
  Au  Au14  1  0.141316  0.364758  0.506725  1
  Au  Au15  1  0.858033  0.634591  0.493275  1
