# generated using pymatgen
data_La2Gd3Tl(RuO7)2
_symmetry_space_group_name_H-M   'P 1'
_cell_length_a   6.46752077
_cell_length_b   6.61657879
_cell_length_c   7.63826700
_cell_angle_alpha   90.00000000
_cell_angle_beta   90.00000000
_cell_angle_gamma   111.14015284
_symmetry_Int_Tables_number   1
_chemical_formula_structural   La2Gd3Tl(RuO7)2
_chemical_formula_sum   'La2 Gd3 Tl1 Ru2 O14'
_cell_volume   304.86572985
_cell_formula_units_Z   1
loop_
 _symmetry_equiv_pos_site_id
 _symmetry_equiv_pos_as_xyz
  1  'x, y, z'
loop_
 _atom_site_type_symbol
 _atom_site_label
 _atom_site_symmetry_multiplicity
 _atom_site_fract_x
 _atom_site_fract_y
 _atom_site_fract_z
 _atom_site_occupancy
  La  La0  1  0.999101  0.997725  0.496288  1
  La  La1  1  0.999101  0.997725  0.003712  1
  Gd  Gd2  1  0.520033  0.076470  0.250000  1
  Gd  Gd3  1  0.929877  0.478863  0.750000  1
  Gd  Gd4  1  0.077043  0.522058  0.250000  1
  Tl  Tl5  1  0.480837  0.944676  0.750000  1
  Ru  Ru6  1  0.499743  0.501881  0.500899  1
  Ru  Ru7  1  0.499743  0.501881  0.999101  1
  O  O8  1  0.589874  0.575178  0.750000  1
  O  O9  1  0.414936  0.418437  0.250000  1
  O  O10  1  0.833367  0.108954  0.750000  1
  O  O11  1  0.157252  0.884876  0.250000  1
  O  O12  1  0.127623  0.838802  0.750000  1
  O  O13  1  0.889572  0.161575  0.250000  1
  O  O14  1  0.437296  0.187776  0.973398  1
  O  O15  1  0.554097  0.811119  0.460572  1
  O  O16  1  0.179492  0.434380  0.961986  1
  O  O17  1  0.820064  0.562173  0.463596  1
  O  O18  1  0.437296  0.187776  0.526602  1
  O  O19  1  0.554097  0.811119  0.039428  1
  O  O20  1  0.820064  0.562173  0.036404  1
  O  O21  1  0.179492  0.434380  0.538014  1
