# generated using pymatgen
data_CaV2(P2O7)2
_symmetry_space_group_name_H-M   'P 1'
_cell_length_a   4.87143601
_cell_length_b   7.12457927
_cell_length_c   7.99571271
_cell_angle_alpha   89.10864168
_cell_angle_beta   87.49571281
_cell_angle_gamma   73.44174898
_symmetry_Int_Tables_number   1
_chemical_formula_structural   CaV2(P2O7)2
_chemical_formula_sum   'Ca1 V2 P4 O14'
_cell_volume   265.74315527
_cell_formula_units_Z   1
loop_
 _symmetry_equiv_pos_site_id
 _symmetry_equiv_pos_as_xyz
  1  'x, y, z'
loop_
 _atom_site_type_symbol
 _atom_site_label
 _atom_site_symmetry_multiplicity
 _atom_site_fract_x
 _atom_site_fract_y
 _atom_site_fract_z
 _atom_site_occupancy
  Ca  Ca0  1  0.000016  0.000042  0.000006  1
  V  V1  1  0.499579  0.500196  0.999814  1
  V  V2  1  0.999759  0.000036  0.500270  1
  P  P3  1  0.979599  0.612722  0.751270  1
  P  P4  1  0.020347  0.387223  0.248684  1
  P  P5  1  0.386533  0.211740  0.718072  1
  P  P6  1  0.613613  0.788222  0.281929  1
  O  O7  1  0.208463  0.430483  0.664893  1
  O  O8  1  0.791669  0.569488  0.335127  1
  O  O9  1  0.120329  0.665995  0.908542  1
  O  O10  1  0.879424  0.334099  0.091431  1
  O  O11  1  0.501706  0.224136  0.894762  1
  O  O12  1  0.498326  0.775813  0.105251  1
  O  O13  1  0.708349  0.554896  0.796566  1
  O  O14  1  0.384553  0.843524  0.419845  1
  O  O15  1  0.615661  0.156455  0.580202  1
  O  O16  1  0.178442  0.083351  0.727160  1
  O  O17  1  0.291636  0.445076  0.203384  1
  O  O18  1  0.071737  0.223319  0.374767  1
  O  O19  1  0.928471  0.776616  0.625232  1
  O  O20  1  0.821790  0.916567  0.272789  1
