# generated using pymatgen
data_Ca3(DySn2)2
_symmetry_space_group_name_H-M   'P 1'
_cell_length_a   7.93998900
_cell_length_b   8.50971000
_cell_length_c   16.10271700
_cell_angle_alpha   90.00000000
_cell_angle_beta   90.00000000
_cell_angle_gamma   90.00000000
_symmetry_Int_Tables_number   1
_chemical_formula_structural   Ca3(DySn2)2
_chemical_formula_sum   'Ca12 Dy8 Sn16'
_cell_volume   1088.01234062
_cell_formula_units_Z   4
loop_
 _symmetry_equiv_pos_site_id
 _symmetry_equiv_pos_as_xyz
  1  'x, y, z'
loop_
 _atom_site_type_symbol
 _atom_site_label
 _atom_site_symmetry_multiplicity
 _atom_site_fract_x
 _atom_site_fract_y
 _atom_site_fract_z
 _atom_site_occupancy
  Ca  Ca0  1  0.506388  0.684760  0.592393  1
  Ca  Ca1  1  0.006388  0.815240  0.907607  1
  Ca  Ca2  1  0.493612  0.315240  0.092393  1
  Ca  Ca3  1  0.993612  0.184760  0.407607  1
  Ca  Ca4  1  0.493612  0.315240  0.407607  1
  Ca  Ca5  1  0.993612  0.184760  0.092393  1
  Ca  Ca6  1  0.506388  0.684760  0.907607  1
  Ca  Ca7  1  0.006388  0.815240  0.592393  1
  Ca  Ca8  1  0.835420  0.513572  0.750000  1
  Ca  Ca9  1  0.335420  0.986428  0.750000  1
  Ca  Ca10  1  0.164580  0.486428  0.250000  1
  Ca  Ca11  1  0.664580  0.013572  0.250000  1
  Dy  Dy12  1  0.675274  0.167347  0.621706  1
  Dy  Dy13  1  0.175274  0.332653  0.878294  1
  Dy  Dy14  1  0.324726  0.832653  0.121706  1
  Dy  Dy15  1  0.824726  0.667347  0.378294  1
  Dy  Dy16  1  0.324726  0.832653  0.378294  1
  Dy  Dy17  1  0.824726  0.667347  0.121706  1
  Dy  Dy18  1  0.675274  0.167347  0.878294  1
  Dy  Dy19  1  0.175274  0.332653  0.621706  1
  Sn  Sn20  1  0.667428  0.961602  0.459820  1
  Sn  Sn21  1  0.167428  0.538398  0.040180  1
  Sn  Sn22  1  0.332572  0.038398  0.959820  1
  Sn  Sn23  1  0.832572  0.461602  0.540180  1
  Sn  Sn24  1  0.332572  0.038398  0.540180  1
  Sn  Sn25  1  0.832572  0.461602  0.959820  1
  Sn  Sn26  1  0.667428  0.961602  0.040180  1
  Sn  Sn27  1  0.167428  0.538398  0.459820  1
  Sn  Sn28  1  0.472105  0.369146  0.750000  1
  Sn  Sn29  1  0.972105  0.130854  0.750000  1
  Sn  Sn30  1  0.527895  0.630854  0.250000  1
  Sn  Sn31  1  0.027895  0.869146  0.250000  1
  Sn  Sn32  1  0.721041  0.878389  0.750000  1
  Sn  Sn33  1  0.221041  0.621611  0.750000  1
  Sn  Sn34  1  0.278959  0.121611  0.250000  1
  Sn  Sn35  1  0.778959  0.378389  0.250000  1
