# generated using pymatgen
data_Ce4CuSn2Ir2Pd
_symmetry_space_group_name_H-M   'P 1'
_cell_length_a   7.71627397
_cell_length_b   7.71627509
_cell_length_c   3.77791800
_cell_angle_alpha   90.00000000
_cell_angle_beta   90.00000000
_cell_angle_gamma   89.91854418
_symmetry_Int_Tables_number   1
_chemical_formula_structural   Ce4CuSn2Ir2Pd
_chemical_formula_sum   'Ce4 Cu1 Sn2 Ir2 Pd1'
_cell_volume   224.94038282
_cell_formula_units_Z   1
loop_
 _symmetry_equiv_pos_site_id
 _symmetry_equiv_pos_as_xyz
  1  'x, y, z'
loop_
 _atom_site_type_symbol
 _atom_site_label
 _atom_site_symmetry_multiplicity
 _atom_site_fract_x
 _atom_site_fract_y
 _atom_site_fract_z
 _atom_site_occupancy
  Ce  Ce0  1  0.680105  0.181000  0.500000  1
  Ce  Ce1  1  0.319000  0.819895  0.500000  1
  Ce  Ce2  1  0.167570  0.332430  0.500000  1
  Ce  Ce3  1  0.833190  0.666810  0.500000  1
  Cu  Cu4  1  0.623477  0.876523  0.000000  1
  Sn  Sn5  1  0.999106  0.999601  0.000000  1
  Sn  Sn6  1  0.500399  0.500894  0.000000  1
  Ir  Ir7  1  0.132442  0.633323  0.000000  1
  Ir  Ir8  1  0.866677  0.367558  0.000000  1
  Pd  Pd9  1  0.378034  0.121966  0.000000  1
