# generated using pymatgen
data_Tb4Al18(IrPd)3
_symmetry_space_group_name_H-M   'P 1'
_cell_length_a   7.61446090
_cell_length_b   7.61446032
_cell_length_c   9.47230256
_cell_angle_alpha   89.98023815
_cell_angle_beta   89.98023642
_cell_angle_gamma   119.65855789
_symmetry_Int_Tables_number   1
_chemical_formula_structural   Tb4Al18(IrPd)3
_chemical_formula_sum   'Tb4 Al18 Ir3 Pd3'
_cell_volume   477.25265568
_cell_formula_units_Z   1
loop_
 _symmetry_equiv_pos_site_id
 _symmetry_equiv_pos_as_xyz
  1  'x, y, z'
loop_
 _atom_site_type_symbol
 _atom_site_label
 _atom_site_symmetry_multiplicity
 _atom_site_fract_x
 _atom_site_fract_y
 _atom_site_fract_z
 _atom_site_occupancy
  Tb  Tb0  1  0.995769  0.670034  0.250356  1
  Tb  Tb1  1  0.005027  0.330204  0.749695  1
  Tb  Tb2  1  0.669796  0.994973  0.250305  1
  Tb  Tb3  1  0.329966  0.004231  0.749644  1
  Al  Al4  1  0.127245  0.128039  0.250465  1
  Al  Al5  1  0.871961  0.872755  0.749535  1
  Al  Al6  1  0.000557  0.331544  0.076326  1
  Al  Al7  1  0.999340  0.668680  0.922935  1
  Al  Al8  1  0.996776  0.665032  0.574956  1
  Al  Al9  1  0.334968  0.003224  0.425044  1
  Al  Al10  1  0.996588  0.330835  0.425114  1
  Al  Al11  1  0.669165  0.003412  0.574886  1
  Al  Al12  1  0.668456  0.999443  0.923674  1
  Al  Al13  1  0.331320  0.000660  0.077065  1
  Al  Al14  1  0.333148  0.330042  0.552548  1
  Al  Al15  1  0.669958  0.666852  0.447452  1
  Al  Al16  1  0.668892  0.668816  0.055909  1
  Al  Al17  1  0.331184  0.331108  0.944091  1
  Al  Al18  1  0.340220  0.546651  0.250656  1
  Al  Al19  1  0.659181  0.452360  0.747612  1
  Al  Al20  1  0.547640  0.340819  0.252388  1
  Al  Al21  1  0.453349  0.659780  0.749344  1
  Ir  Ir22  1  0.671889  0.328111  0.500000  1
  Ir  Ir23  1  0.000023  0.999977  0.000000  1
  Ir  Ir24  1  0.000348  0.999652  0.500000  1
  Pd  Pd25  1  0.671963  0.328037  0.000000  1
  Pd  Pd26  1  0.327637  0.672363  0.000000  1
  Pd  Pd27  1  0.327635  0.672365  0.500000  1
