# generated using pymatgen
data_Tb3Dy(HgO4)2
_symmetry_space_group_name_H-M   'P 1'
_cell_length_a   7.10525910
_cell_length_b   7.10525842
_cell_length_c   10.16474757
_cell_angle_alpha   58.80705019
_cell_angle_beta   58.80705317
_cell_angle_gamma   29.86102634
_symmetry_Int_Tables_number   1
_chemical_formula_structural   Tb3Dy(HgO4)2
_chemical_formula_sum   'Tb3 Dy1 Hg2 O8'
_cell_volume   215.69762792
_cell_formula_units_Z   1
loop_
 _symmetry_equiv_pos_site_id
 _symmetry_equiv_pos_as_xyz
  1  'x, y, z'
loop_
 _atom_site_type_symbol
 _atom_site_label
 _atom_site_symmetry_multiplicity
 _atom_site_fract_x
 _atom_site_fract_y
 _atom_site_fract_z
 _atom_site_occupancy
  Tb  Tb0  1  0.880717  0.880717  0.462609  1
  Tb  Tb1  1  0.118831  0.118831  0.538261  1
  Tb  Tb2  1  0.659317  0.659317  0.199502  1
  Dy  Dy3  1  0.341012  0.341012  0.799934  1
  Hg  Hg4  1  0.613930  0.613930  0.838065  1
  Hg  Hg5  1  0.386320  0.386320  0.161409  1
  O  O6  1  0.081910  0.081910  0.347313  1
  O  O7  1  0.917570  0.917570  0.653964  1
  O  O8  1  0.268086  0.268086  0.612889  1
  O  O9  1  0.731877  0.731877  0.387900  1
  O  O10  1  0.703882  0.703882  0.944117  1
  O  O11  1  0.297284  0.297284  0.053648  1
  O  O12  1  0.534118  0.534118  0.718367  1
  O  O13  1  0.465145  0.465145  0.282022  1
