# generated using pymatgen
data_ScNbNi6
_symmetry_space_group_name_H-M   'P 1'
_cell_length_a   5.22110600
_cell_length_b   5.22110613
_cell_length_c   8.46024600
_cell_angle_alpha   90.00000000
_cell_angle_beta   90.00000000
_cell_angle_gamma   120.00001187
_symmetry_Int_Tables_number   1
_chemical_formula_structural   ScNbNi6
_chemical_formula_sum   'Sc2 Nb2 Ni12'
_cell_volume   199.72783867
_cell_formula_units_Z   2
loop_
 _symmetry_equiv_pos_site_id
 _symmetry_equiv_pos_as_xyz
  1  'x, y, z'
loop_
 _atom_site_type_symbol
 _atom_site_label
 _atom_site_symmetry_multiplicity
 _atom_site_fract_x
 _atom_site_fract_y
 _atom_site_fract_z
 _atom_site_occupancy
  Sc  Sc0  1  0.333333  0.666667  0.750000  1
  Sc  Sc1  1  0.666667  0.333333  0.250000  1
  Nb  Nb2  1  0.000000  0.000000  0.000000  1
  Nb  Nb3  1  0.000000  0.000000  0.500000  1
  Ni  Ni4  1  0.826082  0.652165  0.750000  1
  Ni  Ni5  1  0.347835  0.173918  0.750000  1
  Ni  Ni6  1  0.826082  0.173918  0.750000  1
  Ni  Ni7  1  0.173918  0.347835  0.250000  1
  Ni  Ni8  1  0.652165  0.826082  0.250000  1
  Ni  Ni9  1  0.173918  0.826082  0.250000  1
  Ni  Ni10  1  0.500000  0.500000  0.000000  1
  Ni  Ni11  1  0.500000  0.000000  0.000000  1
  Ni  Ni12  1  0.000000  0.500000  0.000000  1
  Ni  Ni13  1  0.500000  0.500000  0.500000  1
  Ni  Ni14  1  0.500000  0.000000  0.500000  1
  Ni  Ni15  1  0.000000  0.500000  0.500000  1
