# generated using pymatgen
data_Ho20Fe3Bi8Ir
_symmetry_space_group_name_H-M   'P 1'
_cell_length_a   7.93207144
_cell_length_b   8.92762500
_cell_length_c   12.36665134
_cell_angle_alpha   90.00000000
_cell_angle_beta   89.81392072
_cell_angle_gamma   90.00000000
_symmetry_Int_Tables_number   1
_chemical_formula_structural   Ho20Fe3Bi8Ir
_chemical_formula_sum   'Ho20 Fe3 Bi8 Ir1'
_cell_volume   875.73434558
_cell_formula_units_Z   1
loop_
 _symmetry_equiv_pos_site_id
 _symmetry_equiv_pos_as_xyz
  1  'x, y, z'
loop_
 _atom_site_type_symbol
 _atom_site_label
 _atom_site_symmetry_multiplicity
 _atom_site_fract_x
 _atom_site_fract_y
 _atom_site_fract_z
 _atom_site_occupancy
  Ho  Ho0  1  0.348090  0.750000  0.699417  1
  Ho  Ho1  1  0.653627  0.250000  0.298602  1
  Ho  Ho2  1  0.846944  0.250000  0.799811  1
  Ho  Ho3  1  0.157703  0.750000  0.208317  1
  Ho  Ho4  1  0.877408  0.750000  0.806601  1
  Ho  Ho5  1  0.115345  0.250000  0.187592  1
  Ho  Ho6  1  0.384511  0.250000  0.688035  1
  Ho  Ho7  1  0.615898  0.750000  0.312684  1
  Ho  Ho8  1  0.674198  0.537837  0.562363  1
  Ho  Ho9  1  0.326813  0.463920  0.437858  1
  Ho  Ho10  1  0.177211  0.453042  0.934362  1
  Ho  Ho11  1  0.326813  0.036080  0.437858  1
  Ho  Ho12  1  0.826805  0.532570  0.063609  1
  Ho  Ho13  1  0.674198  0.962163  0.562363  1
  Ho  Ho14  1  0.826805  0.967430  0.063609  1
  Ho  Ho15  1  0.177211  0.046958  0.934362  1
  Ho  Ho16  1  0.054180  0.750000  0.496368  1
  Ho  Ho17  1  0.942244  0.250000  0.504758  1
  Ho  Ho18  1  0.554040  0.250000  0.004304  1
  Ho  Ho19  1  0.443894  0.750000  0.996022  1
  Fe  Fe20  1  0.927697  0.250000  0.009821  1
  Fe  Fe21  1  0.570262  0.250000  0.508701  1
  Fe  Fe22  1  0.426783  0.750000  0.489483  1
  Bi  Bi23  1  0.570325  0.507568  0.826787  1
  Bi  Bi24  1  0.429746  0.492369  0.173346  1
  Bi  Bi25  1  0.071330  0.492012  0.672642  1
  Bi  Bi26  1  0.429746  0.007631  0.173346  1
  Bi  Bi27  1  0.928866  0.507143  0.327985  1
  Bi  Bi28  1  0.570325  0.992432  0.826787  1
  Bi  Bi29  1  0.928866  0.992857  0.327985  1
  Bi  Bi30  1  0.071330  0.007988  0.672642  1
  Ir  Ir31  1  0.070788  0.750000  0.991584  1
