# generated using pymatgen
data_AuCl2F
_symmetry_space_group_name_H-M   'P 1'
_cell_length_a   6.34234370
_cell_length_b   6.77336384
_cell_length_c   12.22670255
_cell_angle_alpha   90.06581872
_cell_angle_beta   89.47961662
_cell_angle_gamma   118.01398896
_symmetry_Int_Tables_number   1
_chemical_formula_structural   AuCl2F
_chemical_formula_sum   'Au4 Cl8 F4'
_cell_volume   463.68327966
_cell_formula_units_Z   4
loop_
 _symmetry_equiv_pos_site_id
 _symmetry_equiv_pos_as_xyz
  1  'x, y, z'
loop_
 _atom_site_type_symbol
 _atom_site_label
 _atom_site_symmetry_multiplicity
 _atom_site_fract_x
 _atom_site_fract_y
 _atom_site_fract_z
 _atom_site_occupancy
  Au  Au0  1  0.988257  0.018419  0.235648  1
  Au  Au1  1  0.971453  0.981706  0.735773  1
  Au  Au2  1  0.359534  0.680548  0.763481  1
  Au  Au3  1  0.678550  0.319263  0.263925  1
  Cl  Cl4  1  0.233995  0.209536  0.606471  1
  Cl  Cl5  1  0.103288  0.453440  0.894824  1
  Cl  Cl6  1  0.650767  0.544889  0.395486  1
  Cl  Cl7  1  0.713012  0.073888  0.132583  1
  Cl  Cl8  1  0.022369  0.792495  0.106098  1
  Cl  Cl9  1  0.641777  0.927192  0.632211  1
  Cl  Cl10  1  0.950515  0.261795  0.367578  1
  Cl  Cl11  1  0.687824  0.736876  0.867600  1
  F  F12  1  0.451030  0.363706  0.171253  1
  F  F13  1  0.217264  0.976441  0.328133  1
  F  F14  1  0.089025  0.637807  0.670322  1
  F  F15  1  0.241341  0.021998  0.828617  1
