# generated using pymatgen
data_Tm3TlIn3CoIr
_symmetry_space_group_name_H-M   'P 1'
_cell_length_a   7.91696800
_cell_length_b   7.91696901
_cell_length_c   3.65076300
_cell_angle_alpha   90.00000000
_cell_angle_beta   90.00000000
_cell_angle_gamma   119.99999689
_symmetry_Int_Tables_number   1
_chemical_formula_structural   Tm3TlIn3CoIr
_chemical_formula_sum   'Tm3 Tl1 In3 Co1 Ir1'
_cell_volume   198.16735842
_cell_formula_units_Z   1
loop_
 _symmetry_equiv_pos_site_id
 _symmetry_equiv_pos_as_xyz
  1  'x, y, z'
loop_
 _atom_site_type_symbol
 _atom_site_label
 _atom_site_symmetry_multiplicity
 _atom_site_fract_x
 _atom_site_fract_y
 _atom_site_fract_z
 _atom_site_occupancy
  Tm  Tm0  1  0.036427  0.415343  0.500000  1
  Tm  Tm1  1  0.584657  0.621084  0.500000  1
  Tm  Tm2  1  0.378916  0.963573  0.500000  1
  Tl  Tl3  1  0.666667  0.333333  0.000000  1
  In  In4  1  0.248381  0.248455  0.000000  1
  In  In5  1  0.000073  0.751619  0.000000  1
  In  In6  1  0.751545  0.999927  0.000000  1
  Co  Co7  1  0.000000  0.000000  0.500000  1
  Ir  Ir8  1  0.333333  0.666667  0.000000  1
