# generated using pymatgen
data_La12Ga(SnI4)3
_symmetry_space_group_name_H-M   'P 1'
_cell_length_a   11.30229431
_cell_length_b   11.22545501
_cell_length_c   11.22545510
_cell_angle_alpha   109.33212857
_cell_angle_beta   109.60980358
_cell_angle_gamma   109.61025491
_symmetry_Int_Tables_number   1
_chemical_formula_structural   La12Ga(SnI4)3
_chemical_formula_sum   'La12 Ga1 Sn3 I12'
_cell_volume   1094.47385077
_cell_formula_units_Z   1
loop_
 _symmetry_equiv_pos_site_id
 _symmetry_equiv_pos_as_xyz
  1  'x, y, z'
loop_
 _atom_site_type_symbol
 _atom_site_label
 _atom_site_symmetry_multiplicity
 _atom_site_fract_x
 _atom_site_fract_y
 _atom_site_fract_z
 _atom_site_occupancy
  La  La0  1  0.475911  0.494082  0.233730  1
  La  La1  1  0.750000  0.241704  0.258291  1
  La  La2  1  0.749997  0.007565  0.492431  1
  La  La3  1  0.242431  0.484857  0.492428  1
  La  La4  1  0.257823  0.739659  0.233734  1
  La  La5  1  0.024095  0.266267  0.005937  1
  La  La6  1  0.008291  0.016585  0.258293  1
  La  La7  1  0.481840  0.739659  0.005930  1
  La  La8  1  0.491703  0.241707  0.483409  1
  La  La9  1  0.018156  0.494071  0.760335  1
  La  La10  1  0.257577  0.007578  0.015146  1
  La  La11  1  0.242176  0.266263  0.760338  1
  Ga  Ga12  1  0.249999  0.500000  0.999998  1
  Sn  Sn13  1  0.250000  0.249556  0.250445  1
  Sn  Sn14  1  0.500445  0.000888  0.250445  1
  Sn  Sn15  1  0.999555  0.249555  0.499111  1
  I  I16  1  0.250001  0.756833  0.743168  1
  I  I17  1  0.513393  0.506921  0.756698  1
  I  I18  1  0.986607  0.743303  0.993080  1
  I  I19  1  0.743305  0.249776  0.756698  1
  I  I20  1  0.993167  0.986331  0.743166  1
  I  I21  1  0.249999  0.994200  0.505799  1
  I  I22  1  0.755799  0.511603  0.505800  1
  I  I23  1  0.506473  0.249778  0.993079  1
  I  I24  1  0.756695  0.743302  0.250221  1
  I  I25  1  0.744200  0.994199  0.988396  1
  I  I26  1  0.993529  0.506923  0.250223  1
  I  I27  1  0.506833  0.756835  0.513670  1
