# generated using pymatgen
data_YbUH6
_symmetry_space_group_name_H-M   'P 1'
_cell_length_a   6.59841700
_cell_length_b   6.62762900
_cell_length_c   6.59841700
_cell_angle_alpha   90.00000000
_cell_angle_beta   90.00000000
_cell_angle_gamma   90.00000000
_symmetry_Int_Tables_number   1
_chemical_formula_structural   YbUH6
_chemical_formula_sum   'Yb4 U4 H24'
_cell_volume   288.56104756
_cell_formula_units_Z   4
loop_
 _symmetry_equiv_pos_site_id
 _symmetry_equiv_pos_as_xyz
  1  'x, y, z'
loop_
 _atom_site_type_symbol
 _atom_site_label
 _atom_site_symmetry_multiplicity
 _atom_site_fract_x
 _atom_site_fract_y
 _atom_site_fract_z
 _atom_site_occupancy
  Yb  Yb0  1  0.246003  0.000000  0.500000  1
  Yb  Yb1  1  0.753997  0.000000  0.500000  1
  Yb  Yb2  1  0.000000  0.500000  0.253997  1
  Yb  Yb3  1  0.000000  0.500000  0.746003  1
  U  U4  1  0.000000  0.000000  0.000000  1
  U  U5  1  0.500000  0.500000  0.500000  1
  U  U6  1  0.500000  0.750000  0.000000  1
  U  U7  1  0.500000  0.250000  0.000000  1
  H  H8  1  0.000000  0.149841  0.287883  1
  H  H9  1  0.500000  0.212207  0.661532  1
  H  H10  1  0.500000  0.787793  0.338468  1
  H  H11  1  0.787883  0.649841  0.500000  1
  H  H12  1  0.212117  0.649841  0.500000  1
  H  H13  1  0.353114  0.500000  0.809054  1
  H  H14  1  0.646886  0.500000  0.809054  1
  H  H15  1  0.309054  0.000000  0.146886  1
  H  H16  1  0.161532  0.287793  0.000000  1
  H  H17  1  0.838468  0.712207  0.000000  1
  H  H18  1  0.309054  0.000000  0.853114  1
  H  H19  1  0.838468  0.287793  0.000000  1
  H  H20  1  0.690946  0.000000  0.146886  1
  H  H21  1  0.690946  0.000000  0.853114  1
  H  H22  1  0.161532  0.712207  0.000000  1
  H  H23  1  0.000000  0.850159  0.712117  1
  H  H24  1  0.000000  0.149841  0.712117  1
  H  H25  1  0.000000  0.850159  0.287883  1
  H  H26  1  0.646886  0.500000  0.190946  1
  H  H27  1  0.353114  0.500000  0.190946  1
  H  H28  1  0.787883  0.350159  0.500000  1
  H  H29  1  0.212117  0.350159  0.500000  1
  H  H30  1  0.500000  0.787793  0.661532  1
  H  H31  1  0.500000  0.212207  0.338468  1
