# generated using pymatgen
data_YbCdCu2NiPt
_symmetry_space_group_name_H-M   'P 1'
_cell_length_a   5.05333852
_cell_length_b   5.05333955
_cell_length_c   5.23019357
_cell_angle_alpha   60.20627146
_cell_angle_beta   60.20627158
_cell_angle_gamma   59.52282589
_symmetry_Int_Tables_number   1
_chemical_formula_structural   YbCdCu2NiPt
_chemical_formula_sum   'Yb1 Cd1 Cu2 Ni1 Pt1'
_cell_volume   94.38574099
_cell_formula_units_Z   1
loop_
 _symmetry_equiv_pos_site_id
 _symmetry_equiv_pos_as_xyz
  1  'x, y, z'
loop_
 _atom_site_type_symbol
 _atom_site_label
 _atom_site_symmetry_multiplicity
 _atom_site_fract_x
 _atom_site_fract_y
 _atom_site_fract_z
 _atom_site_occupancy
  Yb  Yb0  1  0.250217  0.250217  0.252568  1
  Cd  Cd1  1  0.001281  0.001281  0.992596  1
  Cu  Cu2  1  0.624313  0.124444  0.626485  1
  Cu  Cu3  1  0.124444  0.624313  0.626485  1
  Ni  Ni4  1  0.624871  0.624871  0.626918  1
  Pt  Pt5  1  0.624875  0.624875  0.124949  1
