# generated using pymatgen
data_Eu4Ta3NiO14
_symmetry_space_group_name_H-M   'P 1'
_cell_length_a   7.51570468
_cell_length_b   7.51570400
_cell_length_c   7.42406673
_cell_angle_alpha   59.59083192
_cell_angle_beta   59.59083102
_cell_angle_gamma   60.00000080
_symmetry_Int_Tables_number   1
_chemical_formula_structural   Eu4Ta3NiO14
_chemical_formula_sum   'Eu4 Ta3 Ni1 O14'
_cell_volume   294.68121168
_cell_formula_units_Z   1
loop_
 _symmetry_equiv_pos_site_id
 _symmetry_equiv_pos_as_xyz
  1  'x, y, z'
loop_
 _atom_site_type_symbol
 _atom_site_label
 _atom_site_symmetry_multiplicity
 _atom_site_fract_x
 _atom_site_fract_y
 _atom_site_fract_z
 _atom_site_occupancy
  Eu  Eu0  1  0.125000  0.625000  0.125000  1
  Eu  Eu1  1  0.125000  0.125000  0.625000  1
  Eu  Eu2  1  0.625000  0.125000  0.125000  1
  Eu  Eu3  1  0.125000  0.125000  0.125000  1
  Ta  Ta4  1  0.625000  0.625000  0.625000  1
  Ta  Ta5  1  0.125000  0.625000  0.625000  1
  Ta  Ta6  1  0.625000  0.125000  0.625000  1
  Ni  Ni7  1  0.625000  0.625000  0.125000  1
  O  O8  1  0.305701  0.701997  0.686601  1
  O  O9  1  0.542291  0.967779  0.947640  1
  O  O10  1  0.707709  0.707709  0.302360  1
  O  O11  1  0.305701  0.305701  0.686601  1
  O  O12  1  0.001133  0.001133  0.996603  1
  O  O13  1  0.282221  0.707709  0.302360  1
  O  O14  1  0.701997  0.305701  0.686601  1
  O  O15  1  0.967779  0.542291  0.947640  1
  O  O16  1  0.542291  0.542291  0.947640  1
  O  O17  1  0.944299  0.944299  0.563399  1
  O  O18  1  0.248867  0.248867  0.253397  1
  O  O19  1  0.548003  0.944299  0.563399  1
  O  O20  1  0.707709  0.282221  0.302360  1
  O  O21  1  0.944299  0.548003  0.563399  1
