# generated using pymatgen
data_TbHoV2F14
_symmetry_space_group_name_H-M   'P 1'
_cell_length_a   5.50672300
_cell_length_b   8.81838745
_cell_length_c   11.80602570
_cell_angle_alpha   63.34149776
_cell_angle_beta   90.00000000
_cell_angle_gamma   90.00000000
_symmetry_Int_Tables_number   1
_chemical_formula_structural   TbHoV2F14
_chemical_formula_sum   'Tb2 Ho2 V4 F28'
_cell_volume   512.36119466
_cell_formula_units_Z   2
loop_
 _symmetry_equiv_pos_site_id
 _symmetry_equiv_pos_as_xyz
  1  'x, y, z'
loop_
 _atom_site_type_symbol
 _atom_site_label
 _atom_site_symmetry_multiplicity
 _atom_site_fract_x
 _atom_site_fract_y
 _atom_site_fract_z
 _atom_site_occupancy
  Tb  Tb0  1  0.758184  0.807200  0.770131  1
  Tb  Tb1  1  0.258184  0.192800  0.729869  1
  Ho  Ho2  1  0.241725  0.191302  0.230106  1
  Ho  Ho3  1  0.741725  0.808698  0.269894  1
  V  V4  1  0.754092  0.272062  0.956718  1
  V  V5  1  0.254092  0.727938  0.543282  1
  V  V6  1  0.244821  0.725776  0.046658  1
  V  V7  1  0.744821  0.274224  0.453342  1
  F  F8  1  0.447033  0.705930  0.924250  1
  F  F9  1  0.947033  0.294070  0.575750  1
  F  F10  1  0.551529  0.293392  0.078276  1
  F  F11  1  0.051529  0.706608  0.421724  1
  F  F12  1  0.459875  0.283137  0.543079  1
  F  F13  1  0.959875  0.716863  0.956921  1
  F  F14  1  0.540406  0.718477  0.453850  1
  F  F15  1  0.040406  0.281523  0.046150  1
  F  F16  1  0.770034  0.505228  0.864412  1
  F  F17  1  0.270034  0.494772  0.635588  1
  F  F18  1  0.231690  0.492995  0.138160  1
  F  F19  1  0.731690  0.507005  0.361840  1
  F  F20  1  0.756650  0.041758  0.046902  1
  F  F21  1  0.256650  0.958242  0.453098  1
  F  F22  1  0.242929  0.956613  0.955201  1
  F  F23  1  0.742929  0.043387  0.544799  1
  F  F24  1  0.977484  0.730144  0.638423  1
  F  F25  1  0.477484  0.269856  0.861577  1
  F  F26  1  0.020913  0.268703  0.358428  1
  F  F27  1  0.520913  0.731297  0.141572  1
  F  F28  1  0.042799  0.747621  0.170686  1
  F  F29  1  0.542799  0.252379  0.329314  1
  F  F30  1  0.954292  0.252670  0.831230  1
  F  F31  1  0.454292  0.747330  0.668770  1
  F  F32  1  0.422975  0.973886  0.231476  1
  F  F33  1  0.922975  0.026114  0.268524  1
  F  F34  1  0.582572  0.028816  0.769435  1
  F  F35  1  0.082572  0.971184  0.730565  1
