# generated using pymatgen
data_DyTmSc3Pt4
_symmetry_space_group_name_H-M   'P 1'
_cell_length_a   7.31969812
_cell_length_b   7.36560612
_cell_length_c   13.85973800
_cell_angle_alpha   90.00169514
_cell_angle_beta   90.00250812
_cell_angle_gamma   90.02031923
_symmetry_Int_Tables_number   1
_chemical_formula_structural   DyTmSc3Pt4
_chemical_formula_sum   'Dy4 Tm4 Sc12 Pt16'
_cell_volume   747.23405000
_cell_formula_units_Z   4
loop_
 _symmetry_equiv_pos_site_id
 _symmetry_equiv_pos_as_xyz
  1  'x, y, z'
loop_
 _atom_site_type_symbol
 _atom_site_label
 _atom_site_symmetry_multiplicity
 _atom_site_fract_x
 _atom_site_fract_y
 _atom_site_fract_z
 _atom_site_occupancy
  Dy  Dy0  1  0.006343  0.176875  0.094613  1
  Dy  Dy1  1  0.993419  0.823372  0.905333  1
  Dy  Dy2  1  0.493833  0.675846  0.905733  1
  Dy  Dy3  1  0.993112  0.823732  0.593998  1
  Tm  Tm4  1  0.506513  0.322791  0.095202  1
  Tm  Tm5  1  0.007258  0.177683  0.405050  1
  Tm  Tm6  1  0.506795  0.323130  0.405509  1
  Tm  Tm7  1  0.492909  0.676574  0.594583  1
  Sc  Sc8  1  0.165415  0.499888  0.749625  1
  Sc  Sc9  1  0.834252  0.499789  0.250377  1
  Sc  Sc10  1  0.334860  0.000441  0.250355  1
  Sc  Sc11  1  0.664849  0.999869  0.749622  1
  Sc  Sc12  1  0.333606  0.165973  0.623660  1
  Sc  Sc13  1  0.666796  0.834216  0.376414  1
  Sc  Sc14  1  0.167747  0.664989  0.376025  1
  Sc  Sc15  1  0.666757  0.834263  0.124472  1
  Sc  Sc16  1  0.832926  0.334549  0.623502  1
  Sc  Sc17  1  0.333946  0.166276  0.876037  1
  Sc  Sc18  1  0.832921  0.334582  0.875653  1
  Sc  Sc19  1  0.167450  0.665221  0.124287  1
  Pt  Pt20  1  0.030628  0.122908  0.749996  1
  Pt  Pt21  1  0.969600  0.877990  0.250544  1
  Pt  Pt22  1  0.470167  0.621658  0.250030  1
  Pt  Pt23  1  0.530032  0.377474  0.749442  1
  Pt  Pt24  1  0.296834  0.854395  0.749301  1
  Pt  Pt25  1  0.702967  0.146325  0.250557  1
  Pt  Pt26  1  0.204931  0.354036  0.250726  1
  Pt  Pt27  1  0.794973  0.645207  0.749428  1
  Pt  Pt28  1  0.176170  0.457709  0.542182  1
  Pt  Pt29  1  0.823968  0.540028  0.457061  1
  Pt  Pt30  1  0.324556  0.959553  0.456904  1
  Pt  Pt31  1  0.823808  0.540860  0.042968  1
  Pt  Pt32  1  0.674429  0.042124  0.542331  1
  Pt  Pt33  1  0.175149  0.457469  0.957774  1
  Pt  Pt34  1  0.674481  0.042900  0.957579  1
  Pt  Pt35  1  0.325602  0.959303  0.043128  1
