# generated using pymatgen
data_Tb5Dy3(GaBr6)2
_symmetry_space_group_name_H-M   'P 1'
_cell_length_a   4.06729800
_cell_length_b   13.38435640
_cell_length_c   14.15679842
_cell_angle_alpha   89.97203760
_cell_angle_beta   90.00000000
_cell_angle_gamma   90.00000000
_symmetry_Int_Tables_number   1
_chemical_formula_structural   Tb5Dy3(GaBr6)2
_chemical_formula_sum   'Tb5 Dy3 Ga2 Br12'
_cell_volume   770.67005087
_cell_formula_units_Z   1
loop_
 _symmetry_equiv_pos_site_id
 _symmetry_equiv_pos_as_xyz
  1  'x, y, z'
loop_
 _atom_site_type_symbol
 _atom_site_label
 _atom_site_symmetry_multiplicity
 _atom_site_fract_x
 _atom_site_fract_y
 _atom_site_fract_z
 _atom_site_occupancy
  Tb  Tb0  1  0.500000  0.381113  0.839603  1
  Tb  Tb1  1  0.000000  0.121314  0.580500  1
  Tb  Tb2  1  0.000000  0.878346  0.419488  1
  Tb  Tb3  1  0.000000  0.621995  0.918977  1
  Tb  Tb4  1  0.000000  0.378138  0.080898  1
  Dy  Dy5  1  0.500000  0.118527  0.339854  1
  Dy  Dy6  1  0.500000  0.881470  0.659987  1
  Dy  Dy7  1  0.500000  0.618824  0.160285  1
  Ga  Ga8  1  0.500000  0.999876  0.499892  1
  Ga  Ga9  1  0.500000  0.500290  0.000216  1
  Br  Br10  1  0.500000  0.244662  0.165531  1
  Br  Br11  1  0.500000  0.755599  0.834638  1
  Br  Br12  1  0.500000  0.744880  0.334553  1
  Br  Br13  1  0.500000  0.254827  0.664802  1
  Br  Br14  1  0.000000  0.254208  0.410158  1
  Br  Br15  1  0.000000  0.745718  0.589958  1
  Br  Br16  1  0.000000  0.754300  0.089666  1
  Br  Br17  1  0.000000  0.244992  0.911327  1
  Br  Br18  1  0.000000  0.003049  0.243523  1
  Br  Br19  1  0.000000  0.996896  0.756501  1
  Br  Br20  1  0.000000  0.503139  0.256556  1
  Br  Br21  1  0.000000  0.497836  0.743088  1
