# generated using pymatgen
data_La3Pr7Si5Ge
_symmetry_space_group_name_H-M   'P 1'
_cell_length_a   7.92511088
_cell_length_b   7.92367736
_cell_length_c   8.97173998
_cell_angle_alpha   116.25279653
_cell_angle_beta   116.19805143
_cell_angle_gamma   89.96251020
_symmetry_Int_Tables_number   1
_chemical_formula_structural   La3Pr7Si5Ge
_chemical_formula_sum   'La3 Pr7 Si5 Ge1'
_cell_volume   439.91189930
_cell_formula_units_Z   1
loop_
 _symmetry_equiv_pos_site_id
 _symmetry_equiv_pos_as_xyz
  1  'x, y, z'
loop_
 _atom_site_type_symbol
 _atom_site_label
 _atom_site_symmetry_multiplicity
 _atom_site_fract_x
 _atom_site_fract_y
 _atom_site_fract_z
 _atom_site_occupancy
  La  La0  1  0.499076  0.498927  0.997909  1
  La  La1  1  0.001237  0.001076  0.002526  1
  La  La2  1  0.967994  0.825972  0.291875  1
  Pr  Pr3  1  0.322723  0.465194  0.289977  1
  Pr  Pr4  1  0.824256  0.322430  0.290291  1
  Pr  Pr5  1  0.465853  0.968050  0.290342  1
  Pr  Pr6  1  0.033992  0.176823  0.708853  1
  Pr  Pr7  1  0.675315  0.532484  0.709855  1
  Pr  Pr8  1  0.177537  0.675201  0.710053  1
  Pr  Pr9  1  0.532715  0.034481  0.709967  1
  Si  Si10  1  0.250759  0.250854  0.500469  1
  Si  Si11  1  0.612531  0.887023  0.999620  1
  Si  Si12  1  0.386294  0.113299  0.999643  1
  Si  Si13  1  0.886477  0.385675  0.999164  1
  Si  Si14  1  0.113471  0.612661  0.999158  1
  Ge  Ge15  1  0.749767  0.749850  0.500298  1
