# generated using pymatgen
data_Y10Ho2Ru7
_symmetry_space_group_name_H-M   'P 1'
_cell_length_a   11.38816100
_cell_length_b   8.42358203
_cell_length_c   11.30793000
_cell_angle_alpha   56.38335651
_cell_angle_beta   90.00000000
_cell_angle_gamma   90.00000000
_symmetry_Int_Tables_number   1
_chemical_formula_structural   Y10Ho2Ru7
_chemical_formula_sum   'Y20 Ho4 Ru14'
_cell_volume   903.34493271
_cell_formula_units_Z   2
loop_
 _symmetry_equiv_pos_site_id
 _symmetry_equiv_pos_as_xyz
  1  'x, y, z'
loop_
 _atom_site_type_symbol
 _atom_site_label
 _atom_site_symmetry_multiplicity
 _atom_site_fract_x
 _atom_site_fract_y
 _atom_site_fract_z
 _atom_site_occupancy
  Y  Y0  1  0.705369  0.243997  0.531108  1
  Y  Y1  1  0.205369  0.756003  0.968892  1
  Y  Y2  1  0.845059  0.508677  0.655199  1
  Y  Y3  1  0.345059  0.491323  0.844801  1
  Y  Y4  1  0.154941  0.491323  0.344801  1
  Y  Y5  1  0.654941  0.508677  0.155199  1
  Y  Y6  1  0.006639  0.853836  0.359803  1
  Y  Y7  1  0.506639  0.146164  0.140197  1
  Y  Y8  1  0.993361  0.146164  0.640197  1
  Y  Y9  1  0.493361  0.853836  0.859803  1
  Y  Y10  1  0.794631  0.243997  0.031108  1
  Y  Y11  1  0.294631  0.756003  0.468892  1
  Y  Y12  1  0.931638  0.777971  0.089351  1
  Y  Y13  1  0.431638  0.222029  0.410649  1
  Y  Y14  1  0.068362  0.222029  0.910649  1
  Y  Y15  1  0.568362  0.777971  0.589351  1
  Y  Y16  1  0.300623  0.240179  0.676225  1
  Y  Y17  1  0.800623  0.759821  0.823775  1
  Y  Y18  1  0.699377  0.759821  0.323775  1
  Y  Y19  1  0.199377  0.240179  0.176225  1
  Ho  Ho20  1  0.925725  0.281376  0.293298  1
  Ho  Ho21  1  0.425725  0.718624  0.206702  1
  Ho  Ho22  1  0.074275  0.718624  0.706702  1
  Ho  Ho23  1  0.574275  0.281376  0.793298  1
  Ru  Ru24  1  0.500000  0.500000  0.500000  1
  Ru  Ru25  1  0.000000  0.500000  0.000000  1
  Ru  Ru26  1  0.646832  0.927396  0.031364  1
  Ru  Ru27  1  0.146832  0.072604  0.468636  1
  Ru  Ru28  1  0.353168  0.072604  0.968636  1
  Ru  Ru29  1  0.853168  0.927396  0.531364  1
  Ru  Ru30  1  0.398825  0.485429  0.103274  1
  Ru  Ru31  1  0.898825  0.514571  0.396726  1
  Ru  Ru32  1  0.601175  0.514571  0.896726  1
  Ru  Ru33  1  0.101175  0.485429  0.603274  1
  Ru  Ru34  1  0.816386  0.097280  0.851399  1
  Ru  Ru35  1  0.316386  0.902720  0.648601  1
  Ru  Ru36  1  0.183614  0.902720  0.148601  1
  Ru  Ru37  1  0.683614  0.097280  0.351399  1
