# generated using pymatgen
data_KNp(PS3)2
_symmetry_space_group_name_H-M   'P 1'
_cell_length_a   7.56391100
_cell_length_b   6.57634502
_cell_length_c   10.18681566
_cell_angle_alpha   87.64980827
_cell_angle_beta   90.00000000
_cell_angle_gamma   90.00000000
_symmetry_Int_Tables_number   1
_chemical_formula_structural   KNp(PS3)2
_chemical_formula_sum   'K2 Np2 P4 S12'
_cell_volume   506.29540929
_cell_formula_units_Z   2
loop_
 _symmetry_equiv_pos_site_id
 _symmetry_equiv_pos_as_xyz
  1  'x, y, z'
loop_
 _atom_site_type_symbol
 _atom_site_label
 _atom_site_symmetry_multiplicity
 _atom_site_fract_x
 _atom_site_fract_y
 _atom_site_fract_z
 _atom_site_occupancy
  K  K0  1  0.039236  0.310664  0.498648  1
  K  K1  1  0.539236  0.689336  0.501352  1
  Np  Np2  1  0.260742  0.210709  0.991985  1
  Np  Np3  1  0.760742  0.789291  0.008015  1
  P  P4  1  0.750636  0.329095  0.833287  1
  P  P5  1  0.250636  0.670905  0.166713  1
  P  P6  1  0.033691  0.801420  0.288821  1
  P  P7  1  0.533691  0.198580  0.711179  1
  S  S8  1  0.630813  0.366424  0.013317  1
  S  S9  1  0.120740  0.832189  0.470443  1
  S  S10  1  0.939410  0.101402  0.841818  1
  S  S11  1  0.832439  0.602415  0.266999  1
  S  S12  1  0.336827  0.402871  0.244735  1
  S  S13  1  0.332439  0.397585  0.733001  1
  S  S14  1  0.468966  0.945538  0.828491  1
  S  S15  1  0.968966  0.054462  0.171509  1
  S  S16  1  0.620740  0.167811  0.529557  1
  S  S17  1  0.130813  0.633576  0.986683  1
  S  S18  1  0.439410  0.898598  0.158182  1
  S  S19  1  0.836827  0.597129  0.755265  1
