# generated using pymatgen
data_Be7B3Os4
_symmetry_space_group_name_H-M   'P 1'
_cell_length_a   5.59037536
_cell_length_b   5.60952330
_cell_length_c   5.86793003
_cell_angle_alpha   98.58886196
_cell_angle_beta   99.10501639
_cell_angle_gamma   44.12608231
_symmetry_Int_Tables_number   1
_chemical_formula_structural   Be7B3Os4
_chemical_formula_sum   'Be7 B3 Os4'
_cell_volume   126.33263529
_cell_formula_units_Z   1
loop_
 _symmetry_equiv_pos_site_id
 _symmetry_equiv_pos_as_xyz
  1  'x, y, z'
loop_
 _atom_site_type_symbol
 _atom_site_label
 _atom_site_symmetry_multiplicity
 _atom_site_fract_x
 _atom_site_fract_y
 _atom_site_fract_z
 _atom_site_occupancy
  Be  Be0  1  0.753583  0.054555  0.423755  1
  Be  Be1  1  0.073130  0.354533  0.811193  1
  Be  Be2  1  0.643314  0.921469  0.689235  1
  Be  Be3  1  0.932418  0.640418  0.184005  1
  Be  Be4  1  0.346969  0.084625  0.314556  1
  Be  Be5  1  0.835229  0.168453  0.755376  1
  Be  Be6  1  0.176823  0.821919  0.247406  1
  B  B7  1  0.062343  0.741940  0.923962  1
  B  B8  1  0.239188  0.941835  0.571808  1
  B  B9  1  0.935411  0.258225  0.078194  1
  Os  Os10  1  0.235195  0.542010  0.576209  1
  Os  Os11  1  0.450053  0.776384  0.937230  1
  Os  Os12  1  0.769786  0.465254  0.432022  1
  Os  Os13  1  0.546556  0.228378  0.055049  1
