# generated using pymatgen
data_YbTm(Si2Ni9)2
_symmetry_space_group_name_H-M   'P 1'
_cell_length_a   7.52696483
_cell_length_b   7.52696422
_cell_length_c   7.52696444
_cell_angle_alpha   99.57066377
_cell_angle_beta   99.57066209
_cell_angle_gamma   131.87228158
_symmetry_Int_Tables_number   1
_chemical_formula_structural   YbTm(Si2Ni9)2
_chemical_formula_sum   'Yb1 Tm1 Si4 Ni18'
_cell_volume   289.94596917
_cell_formula_units_Z   1
loop_
 _symmetry_equiv_pos_site_id
 _symmetry_equiv_pos_as_xyz
  1  'x, y, z'
loop_
 _atom_site_type_symbol
 _atom_site_label
 _atom_site_symmetry_multiplicity
 _atom_site_fract_x
 _atom_site_fract_y
 _atom_site_fract_z
 _atom_site_occupancy
  Yb  Yb0  1  0.500000  0.500000  0.000000  1
  Tm  Tm1  1  0.750000  0.250000  0.500000  1
  Si  Si2  1  0.624850  0.874922  0.749927  1
  Si  Si3  1  0.125078  0.375150  0.250073  1
  Si  Si4  1  0.125078  0.875005  0.749927  1
  Si  Si5  1  0.124995  0.874922  0.250073  1
  Ni  Ni6  1  0.250000  0.750000  0.500000  1
  Ni  Ni7  1  0.000000  0.000000  0.000000  1
  Ni  Ni8  1  0.686148  0.012331  0.079357  1
  Ni  Ni9  1  0.686148  0.606791  0.673817  1
  Ni  Ni10  1  0.261855  0.435705  0.579056  1
  Ni  Ni11  1  0.261855  0.682799  0.826149  1
  Ni  Ni12  1  0.932974  0.012331  0.326183  1
  Ni  Ni13  1  0.932974  0.606791  0.920643  1
  Ni  Ni14  1  0.856650  0.435705  0.173851  1
  Ni  Ni15  1  0.856650  0.682799  0.420944  1
  Ni  Ni16  1  0.564295  0.738145  0.420944  1
  Ni  Ni17  1  0.564295  0.143350  0.826149  1
  Ni  Ni18  1  0.987669  0.313852  0.920643  1
  Ni  Ni19  1  0.987669  0.067026  0.673817  1
  Ni  Ni20  1  0.317201  0.738145  0.173851  1
  Ni  Ni21  1  0.317201  0.143350  0.579056  1
  Ni  Ni22  1  0.393209  0.313852  0.326183  1
  Ni  Ni23  1  0.393209  0.067026  0.079357  1
