# generated using pymatgen
data_Ta4Mn5Os3
_symmetry_space_group_name_H-M   'P 1'
_cell_length_a   4.86461000
_cell_length_b   4.92375849
_cell_length_c   8.23404200
_cell_angle_alpha   90.00000000
_cell_angle_beta   90.00000000
_cell_angle_gamma   119.60339324
_symmetry_Int_Tables_number   1
_chemical_formula_structural   Ta4Mn5Os3
_chemical_formula_sum   'Ta4 Mn5 Os3'
_cell_volume   171.47874263
_cell_formula_units_Z   1
loop_
 _symmetry_equiv_pos_site_id
 _symmetry_equiv_pos_as_xyz
  1  'x, y, z'
loop_
 _atom_site_type_symbol
 _atom_site_label
 _atom_site_symmetry_multiplicity
 _atom_site_fract_x
 _atom_site_fract_y
 _atom_site_fract_z
 _atom_site_occupancy
  Ta  Ta0  1  0.332928  0.665858  0.064844  1
  Ta  Ta1  1  0.665388  0.330775  0.569295  1
  Ta  Ta2  1  0.665388  0.330775  0.930705  1
  Ta  Ta3  1  0.332928  0.665858  0.435156  1
  Mn  Mn4  1  0.176958  0.821775  0.750000  1
  Mn  Mn5  1  0.644816  0.821775  0.750000  1
  Mn  Mn6  1  0.346876  0.165535  0.250000  1
  Mn  Mn7  1  0.818660  0.165535  0.250000  1
  Mn  Mn8  1  0.181246  0.362493  0.750000  1
  Os  Os9  1  0.005402  0.010803  0.994382  1
  Os  Os10  1  0.005402  0.010803  0.505618  1
  Os  Os11  1  0.824008  0.648015  0.250000  1
