# generated using pymatgen
data_Ho3Er(Fe2O7)2
_symmetry_space_group_name_H-M   'P 1'
_cell_length_a   7.13467615
_cell_length_b   7.13311317
_cell_length_c   7.13512627
_cell_angle_alpha   59.97668095
_cell_angle_beta   59.96656489
_cell_angle_gamma   60.02527257
_symmetry_Int_Tables_number   1
_chemical_formula_structural   Ho3Er(Fe2O7)2
_chemical_formula_sum   'Ho3 Er1 Fe4 O14'
_cell_volume   256.70624636
_cell_formula_units_Z   1
loop_
 _symmetry_equiv_pos_site_id
 _symmetry_equiv_pos_as_xyz
  1  'x, y, z'
loop_
 _atom_site_type_symbol
 _atom_site_label
 _atom_site_symmetry_multiplicity
 _atom_site_fract_x
 _atom_site_fract_y
 _atom_site_fract_z
 _atom_site_occupancy
  Ho  Ho0  1  0.500008  0.999996  0.500003  1
  Ho  Ho1  1  0.999990  0.499993  0.500009  1
  Ho  Ho2  1  0.499988  0.500007  0.500005  1
  Er  Er3  1  0.500025  0.500004  0.999963  1
  Fe  Fe4  1  0.000014  0.500000  0.999979  1
  Fe  Fe5  1  0.499995  0.000020  0.999990  1
  Fe  Fe6  1  0.999986  0.999979  0.500018  1
  Fe  Fe7  1  0.000029  0.000006  0.999989  1
  O  O8  1  0.624529  0.624497  0.626433  1
  O  O9  1  0.375469  0.375498  0.373576  1
  O  O10  1  0.334357  0.915136  0.916059  1
  O  O11  1  0.084326  0.665601  0.665811  1
  O  O12  1  0.914998  0.334533  0.915967  1
  O  O13  1  0.915963  0.915966  0.333962  1
  O  O14  1  0.334197  0.334196  0.916340  1
  O  O15  1  0.334499  0.915650  0.334285  1
  O  O16  1  0.915664  0.334397  0.334194  1
  O  O17  1  0.665800  0.665807  0.083666  1
  O  O18  1  0.084033  0.084035  0.666044  1
  O  O19  1  0.665637  0.084866  0.083947  1
  O  O20  1  0.665495  0.084350  0.665718  1
  O  O21  1  0.085001  0.665467  0.084044  1
