# generated using pymatgen
data_YbNiP2O7
_symmetry_space_group_name_H-M   'P 1'
_cell_length_a   6.42443607
_cell_length_b   6.52745056
_cell_length_c   6.65397405
_cell_angle_alpha   113.68639297
_cell_angle_beta   87.36519112
_cell_angle_gamma   97.44638926
_symmetry_Int_Tables_number   1
_chemical_formula_structural   YbNiP2O7
_chemical_formula_sum   'Yb2 Ni2 P4 O14'
_cell_volume   253.36844747
_cell_formula_units_Z   2
loop_
 _symmetry_equiv_pos_site_id
 _symmetry_equiv_pos_as_xyz
  1  'x, y, z'
loop_
 _atom_site_type_symbol
 _atom_site_label
 _atom_site_symmetry_multiplicity
 _atom_site_fract_x
 _atom_site_fract_y
 _atom_site_fract_z
 _atom_site_occupancy
  Yb  Yb0  1  0.141129  0.268571  0.829763  1
  Yb  Yb1  1  0.858871  0.731429  0.170237  1
  Ni  Ni2  1  0.351140  0.099452  0.224377  1
  Ni  Ni3  1  0.648860  0.900548  0.775623  1
  P  P4  1  0.856771  0.230827  0.250186  1
  P  P5  1  0.143229  0.769173  0.749814  1
  P  P6  1  0.372150  0.641155  0.327715  1
  P  P7  1  0.627850  0.358845  0.672285  1
  O  O8  1  0.223395  0.606651  0.518340  1
  O  O9  1  0.776605  0.393349  0.481660  1
  O  O10  1  0.027891  0.101612  0.281183  1
  O  O11  1  0.972109  0.898388  0.718817  1
  O  O12  1  0.409816  0.253673  0.568066  1
  O  O13  1  0.590184  0.746327  0.431934  1
  O  O14  1  0.627629  0.601572  0.844650  1
  O  O15  1  0.372371  0.398428  0.155350  1
  O  O16  1  0.068304  0.613318  0.862126  1
  O  O17  1  0.931696  0.386682  0.137874  1
  O  O18  1  0.330422  0.951014  0.865644  1
  O  O19  1  0.669578  0.048986  0.134356  1
  O  O20  1  0.733904  0.206447  0.747852  1
  O  O21  1  0.266096  0.793553  0.252148  1
