# generated using pymatgen
data_Ti2Nb8Ge6BH
_symmetry_space_group_name_H-M   'P 1'
_cell_length_a   7.69902800
_cell_length_b   7.69902901
_cell_length_c   5.31217100
_cell_angle_alpha   90.00000000
_cell_angle_beta   90.00000000
_cell_angle_gamma   119.99999566
_symmetry_Int_Tables_number   1
_chemical_formula_structural   Ti2Nb8Ge6BH
_chemical_formula_sum   'Ti2 Nb8 Ge6 B1 H1'
_cell_volume   272.69335335
_cell_formula_units_Z   1
loop_
 _symmetry_equiv_pos_site_id
 _symmetry_equiv_pos_as_xyz
  1  'x, y, z'
loop_
 _atom_site_type_symbol
 _atom_site_label
 _atom_site_symmetry_multiplicity
 _atom_site_fract_x
 _atom_site_fract_y
 _atom_site_fract_z
 _atom_site_occupancy
  Ti  Ti0  1  0.666667  0.333333  0.500000  1
  Ti  Ti1  1  0.333333  0.666667  0.500000  1
  Nb  Nb2  1  0.333333  0.666667  0.000000  1
  Nb  Nb3  1  0.666667  0.333333  0.000000  1
  Nb  Nb4  1  0.757226  0.757226  0.252348  1
  Nb  Nb5  1  0.242774  0.000000  0.252348  1
  Nb  Nb6  1  0.000000  0.242774  0.252348  1
  Nb  Nb7  1  0.242774  0.242774  0.747652  1
  Nb  Nb8  1  0.757226  0.000000  0.747652  1
  Nb  Nb9  1  0.000000  0.757226  0.747652  1
  Ge  Ge10  1  0.399831  0.399831  0.256503  1
  Ge  Ge11  1  0.600169  0.000000  0.256503  1
  Ge  Ge12  1  0.000000  0.600169  0.256503  1
  Ge  Ge13  1  0.600169  0.600169  0.743497  1
  Ge  Ge14  1  0.399831  0.000000  0.743497  1
  Ge  Ge15  1  0.000000  0.399831  0.743497  1
  B  B16  1  0.000000  0.000000  0.000000  1
  H  H17  1  0.000000  0.000000  0.500000  1
