# generated using pymatgen
data_Lu16Tl5InCoTc
_symmetry_space_group_name_H-M   'P 1'
_cell_length_a   10.15808347
_cell_length_b   10.15808299
_cell_length_c   6.99381100
_cell_angle_alpha   90.00133015
_cell_angle_beta   89.99866881
_cell_angle_gamma   119.96533425
_symmetry_Int_Tables_number   1
_chemical_formula_structural   Lu16Tl5InCoTc
_chemical_formula_sum   'Lu16 Tl5 In1 Co1 Tc1'
_cell_volume   625.20098936
_cell_formula_units_Z   1
loop_
 _symmetry_equiv_pos_site_id
 _symmetry_equiv_pos_as_xyz
  1  'x, y, z'
loop_
 _atom_site_type_symbol
 _atom_site_label
 _atom_site_symmetry_multiplicity
 _atom_site_fract_x
 _atom_site_fract_y
 _atom_site_fract_z
 _atom_site_occupancy
  Lu  Lu0  1  0.533418  0.069467  0.523931  1
  Lu  Lu1  1  0.930533  0.466582  0.523931  1
  Lu  Lu2  1  0.535181  0.464819  0.525780  1
  Lu  Lu3  1  0.462274  0.924351  0.026739  1
  Lu  Lu4  1  0.075649  0.537726  0.026739  1
  Lu  Lu5  1  0.461535  0.538465  0.025998  1
  Lu  Lu6  1  0.179344  0.359544  0.726055  1
  Lu  Lu7  1  0.640456  0.820656  0.726055  1
  Lu  Lu8  1  0.179912  0.820088  0.727706  1
  Lu  Lu9  1  0.822299  0.646190  0.221460  1
  Lu  Lu10  1  0.353810  0.177701  0.221460  1
  Lu  Lu11  1  0.823527  0.176473  0.222398  1
  Lu  Lu12  1  0.666915  0.333085  0.901848  1
  Lu  Lu13  1  0.333011  0.666989  0.416801  1
  Lu  Lu14  1  0.001125  0.998875  0.504689  1
  Lu  Lu15  1  0.000831  0.999169  0.004986  1
  Tl  Tl16  1  0.838256  0.675780  0.771452  1
  Tl  Tl17  1  0.324220  0.161744  0.771452  1
  Tl  Tl18  1  0.837770  0.162230  0.769871  1
  Tl  Tl19  1  0.163504  0.327112  0.277057  1
  Tl  Tl20  1  0.672888  0.836496  0.277057  1
  In  In21  1  0.163439  0.836561  0.274456  1
  Co  Co22  1  0.333346  0.666654  0.796457  1
  Tc  Tc23  1  0.666758  0.333242  0.291303  1
