# generated using pymatgen
data_Ca2MnRh3
_symmetry_space_group_name_H-M   'P 1'
_cell_length_a   5.23737290
_cell_length_b   5.51590653
_cell_length_c   5.51590600
_cell_angle_alpha   60.00000315
_cell_angle_beta   58.22459509
_cell_angle_gamma   58.22459388
_symmetry_Int_Tables_number   1
_chemical_formula_structural   Ca2MnRh3
_chemical_formula_sum   'Ca2 Mn1 Rh3'
_cell_volume   109.55721373
_cell_formula_units_Z   1
loop_
 _symmetry_equiv_pos_site_id
 _symmetry_equiv_pos_as_xyz
  1  'x, y, z'
loop_
 _atom_site_type_symbol
 _atom_site_label
 _atom_site_symmetry_multiplicity
 _atom_site_fract_x
 _atom_site_fract_y
 _atom_site_fract_z
 _atom_site_occupancy
  Ca  Ca0  1  0.498636  0.500455  0.500455  1
  Ca  Ca1  1  0.751364  0.749545  0.749545  1
  Mn  Mn2  1  0.625000  0.125000  0.125000  1
  Rh  Rh3  1  0.125000  0.125000  0.625000  1
  Rh  Rh4  1  0.125000  0.625000  0.125000  1
  Rh  Rh5  1  0.125000  0.125000  0.125000  1
