# generated using pymatgen
data_Dy4Ho6InSb5
_symmetry_space_group_name_H-M   'P 1'
_cell_length_a   6.36425600
_cell_length_b   8.98406619
_cell_length_c   8.95378977
_cell_angle_alpha   120.11193338
_cell_angle_beta   90.00001801
_cell_angle_gamma   89.99997186
_symmetry_Int_Tables_number   1
_chemical_formula_structural   Dy4Ho6InSb5
_chemical_formula_sum   'Dy4 Ho6 In1 Sb5'
_cell_volume   442.86071316
_cell_formula_units_Z   1
loop_
 _symmetry_equiv_pos_site_id
 _symmetry_equiv_pos_as_xyz
  1  'x, y, z'
loop_
 _atom_site_type_symbol
 _atom_site_label
 _atom_site_symmetry_multiplicity
 _atom_site_fract_x
 _atom_site_fract_y
 _atom_site_fract_z
 _atom_site_occupancy
  Dy  Dy0  1  0.750001  0.754680  0.757925  1
  Dy  Dy1  1  0.750001  0.996755  0.242075  1
  Dy  Dy2  1  0.250001  0.246053  0.244585  1
  Dy  Dy3  1  0.250001  0.001468  0.755415  1
  Ho  Ho4  1  0.499107  0.334778  0.668603  1
  Ho  Ho5  1  0.499107  0.666175  0.331397  1
  Ho  Ho6  1  0.000892  0.666176  0.331397  1
  Ho  Ho7  1  0.000892  0.334779  0.668603  1
  Ho  Ho8  1  0.750001  0.244001  0.000000  1
  Ho  Ho9  1  0.249999  0.756895  0.000000  1
  In  In10  1  0.749999  0.605433  0.000000  1
  Sb  Sb11  1  0.750001  0.389516  0.390036  1
  Sb  Sb12  1  0.750001  0.999479  0.609964  1
  Sb  Sb13  1  0.250000  0.391481  0.000000  1
  Sb  Sb14  1  0.250000  0.611191  0.610054  1
  Sb  Sb15  1  0.250000  0.001138  0.389946  1
