# generated using pymatgen
data_Y3Er5Al8
_symmetry_space_group_name_H-M   'P 1'
_cell_length_a   5.58716600
_cell_length_b   5.84094100
_cell_length_c   11.38681801
_cell_angle_alpha   89.99564383
_cell_angle_beta   90.00000000
_cell_angle_gamma   90.00000000
_symmetry_Int_Tables_number   1
_chemical_formula_structural   Y3Er5Al8
_chemical_formula_sum   'Y3 Er5 Al8'
_cell_volume   371.60091341
_cell_formula_units_Z   1
loop_
 _symmetry_equiv_pos_site_id
 _symmetry_equiv_pos_as_xyz
  1  'x, y, z'
loop_
 _atom_site_type_symbol
 _atom_site_label
 _atom_site_symmetry_multiplicity
 _atom_site_fract_x
 _atom_site_fract_y
 _atom_site_fract_z
 _atom_site_occupancy
  Y  Y0  1  0.750000  0.163087  0.484404  1
  Y  Y1  1  0.250000  0.836822  0.515754  1
  Y  Y2  1  0.250000  0.161873  0.015497  1
  Er  Er3  1  0.750000  0.837504  0.984108  1
  Er  Er4  1  0.750000  0.399135  0.167726  1
  Er  Er5  1  0.250000  0.601780  0.832294  1
  Er  Er6  1  0.250000  0.398566  0.331567  1
  Er  Er7  1  0.750000  0.601604  0.668514  1
  Al  Al8  1  0.500285  0.932644  0.249686  1
  Al  Al9  1  0.999974  0.067022  0.750285  1
  Al  Al10  1  0.500026  0.067022  0.750285  1
  Al  Al11  1  0.999715  0.932644  0.249686  1
  Al  Al12  1  0.750000  0.660049  0.401188  1
  Al  Al13  1  0.250000  0.339983  0.598885  1
  Al  Al14  1  0.250000  0.660210  0.098347  1
  Al  Al15  1  0.750000  0.340055  0.901775  1
