# generated using pymatgen
data_SmErRe4(SiC)2
_symmetry_space_group_name_H-M   'P 1'
_cell_length_a   5.82571272
_cell_length_b   5.82571206
_cell_length_c   7.27439200
_cell_angle_alpha   90.00000000
_cell_angle_beta   90.00000000
_cell_angle_gamma   140.15743579
_symmetry_Int_Tables_number   1
_chemical_formula_structural   SmErRe4(SiC)2
_chemical_formula_sum   'Sm1 Er1 Re4 Si2 C2'
_cell_volume   158.17437635
_cell_formula_units_Z   1
loop_
 _symmetry_equiv_pos_site_id
 _symmetry_equiv_pos_as_xyz
  1  'x, y, z'
loop_
 _atom_site_type_symbol
 _atom_site_label
 _atom_site_symmetry_multiplicity
 _atom_site_fract_x
 _atom_site_fract_y
 _atom_site_fract_z
 _atom_site_occupancy
  Sm  Sm0  1  0.543285  0.456715  0.250000  1
  Er  Er1  1  0.456892  0.543108  0.750000  1
  Re  Re2  1  0.826818  0.173182  0.060670  1
  Re  Re3  1  0.173387  0.826613  0.936735  1
  Re  Re4  1  0.173387  0.826613  0.563265  1
  Re  Re5  1  0.826818  0.173182  0.439330  1
  Si  Si6  1  0.266050  0.733950  0.250000  1
  Si  Si7  1  0.734204  0.265796  0.750000  1
  C  C8  1  0.999579  0.000421  0.995707  1
  C  C9  1  0.999579  0.000421  0.504293  1
