# generated using pymatgen
data_DyHo3Al8
_symmetry_space_group_name_H-M   'P 1'
_cell_length_a   9.62691347
_cell_length_b   9.62691325
_cell_length_c   9.62691359
_cell_angle_alpha   33.52255389
_cell_angle_beta   33.52255905
_cell_angle_gamma   33.52255209
_symmetry_Int_Tables_number   1
_chemical_formula_structural   DyHo3Al8
_chemical_formula_sum   'Dy1 Ho3 Al8'
_cell_volume   242.36767228
_cell_formula_units_Z   1
loop_
 _symmetry_equiv_pos_site_id
 _symmetry_equiv_pos_as_xyz
  1  'x, y, z'
loop_
 _atom_site_type_symbol
 _atom_site_label
 _atom_site_symmetry_multiplicity
 _atom_site_fract_x
 _atom_site_fract_y
 _atom_site_fract_z
 _atom_site_occupancy
  Dy  Dy0  1  0.687431  0.687431  0.687431  1
  Ho  Ho1  1  0.187455  0.187455  0.187455  1
  Ho  Ho2  1  0.812603  0.812603  0.812603  1
  Ho  Ho3  1  0.312505  0.312505  0.312505  1
  Al  Al4  1  0.000010  0.000010  0.000010  1
  Al  Al5  1  0.500011  0.500011  0.500011  1
  Al  Al6  1  0.750017  0.249948  0.249948  1
  Al  Al7  1  0.250105  0.749983  0.749983  1
  Al  Al8  1  0.249948  0.750017  0.249948  1
  Al  Al9  1  0.749983  0.250105  0.749983  1
  Al  Al10  1  0.249948  0.249948  0.750017  1
  Al  Al11  1  0.749983  0.749983  0.250105  1
