# generated using pymatgen
data_Tb8Ho8MgHg3Ir4
_symmetry_space_group_name_H-M   'P 1'
_cell_length_a   9.63436172
_cell_length_b   9.63717733
_cell_length_c   9.62895408
_cell_angle_alpha   59.95301604
_cell_angle_beta   59.99664757
_cell_angle_gamma   59.99422472
_symmetry_Int_Tables_number   1
_chemical_formula_structural   Tb8Ho8MgHg3Ir4
_chemical_formula_sum   'Tb8 Ho8 Mg1 Hg3 Ir4'
_cell_volume   631.90607037
_cell_formula_units_Z   1
loop_
 _symmetry_equiv_pos_site_id
 _symmetry_equiv_pos_as_xyz
  1  'x, y, z'
loop_
 _atom_site_type_symbol
 _atom_site_label
 _atom_site_symmetry_multiplicity
 _atom_site_fract_x
 _atom_site_fract_y
 _atom_site_fract_z
 _atom_site_occupancy
  Tb  Tb0  1  0.812940  0.189153  0.810404  1
  Tb  Tb1  1  0.439219  0.059854  0.437836  1
  Tb  Tb2  1  0.438397  0.438677  0.059892  1
  Tb  Tb3  1  0.438690  0.061475  0.062638  1
  Tb  Tb4  1  0.060809  0.439060  0.437780  1
  Tb  Tb5  1  0.191835  0.190995  0.811159  1
  Tb  Tb6  1  0.649215  0.650408  0.047360  1
  Tb  Tb7  1  0.650185  0.046304  0.650297  1
  Ho  Ho8  1  0.192057  0.808163  0.809177  1
  Ho  Ho9  1  0.815699  0.187854  0.188352  1
  Ho  Ho10  1  0.062332  0.439821  0.059955  1
  Ho  Ho11  1  0.053847  0.648987  0.647754  1
  Ho  Ho12  1  0.650878  0.653275  0.652670  1
  Ho  Ho13  1  0.063310  0.059777  0.438542  1
  Ho  Ho14  1  0.191109  0.810472  0.190970  1
  Ho  Ho15  1  0.813275  0.809954  0.189484  1
  Mg  Mg16  1  0.718598  0.427647  0.427439  1
  Hg  Hg17  1  0.417453  0.413919  0.755161  1
  Hg  Hg18  1  0.417535  0.755176  0.413737  1
  Hg  Hg19  1  0.418611  0.414276  0.414052  1
  Ir  Ir20  1  0.859523  0.856182  0.424400  1
  Ir  Ir21  1  0.858997  0.425689  0.856371  1
  Ir  Ir22  1  0.861569  0.856156  0.857014  1
  Ir  Ir23  1  0.423922  0.856725  0.857554  1
