# generated using pymatgen
data_Pr5TaMnO12
_symmetry_space_group_name_H-M   'P 1'
_cell_length_a   7.11890011
_cell_length_b   7.11890005
_cell_length_c   7.68378805
_cell_angle_alpha   74.45209044
_cell_angle_beta   74.45209805
_cell_angle_gamma   50.47458150
_symmetry_Int_Tables_number   1
_chemical_formula_structural   Pr5TaMnO12
_chemical_formula_sum   'Pr5 Ta1 Mn1 O12'
_cell_volume   286.87376160
_cell_formula_units_Z   1
loop_
 _symmetry_equiv_pos_site_id
 _symmetry_equiv_pos_as_xyz
  1  'x, y, z'
loop_
 _atom_site_type_symbol
 _atom_site_label
 _atom_site_symmetry_multiplicity
 _atom_site_fract_x
 _atom_site_fract_y
 _atom_site_fract_z
 _atom_site_occupancy
  Pr  Pr0  1  0.314529  0.296013  0.357688  1
  Pr  Pr1  1  0.703987  0.685471  0.642312  1
  Pr  Pr2  1  0.699484  0.690496  0.163968  1
  Pr  Pr3  1  0.309504  0.300516  0.836032  1
  Pr  Pr4  1  0.997193  0.002807  0.500000  1
  Ta  Ta5  1  0.221427  0.778573  0.000000  1
  Mn  Mn6  1  0.739176  0.260824  0.000000  1
  O  O7  1  0.100941  0.594345  0.577328  1
  O  O8  1  0.991674  0.006580  0.176464  1
  O  O9  1  0.405655  0.899059  0.422672  1
  O  O10  1  0.503267  0.498307  0.169678  1
  O  O11  1  0.104630  0.577394  0.078353  1
  O  O12  1  0.909667  0.401335  0.421552  1
  O  O13  1  0.993420  0.008326  0.823536  1
  O  O14  1  0.598665  0.090332  0.578448  1
  O  O15  1  0.501693  0.496733  0.830322  1
  O  O16  1  0.585438  0.102956  0.077295  1
  O  O17  1  0.422606  0.895370  0.921647  1
  O  O18  1  0.897044  0.414562  0.922705  1
