# generated using pymatgen
data_TbYMnRh3
_symmetry_space_group_name_H-M   'P 1'
_cell_length_a   5.18127262
_cell_length_b   5.18127312
_cell_length_c   5.18127231
_cell_angle_alpha   64.64975847
_cell_angle_beta   64.64977042
_cell_angle_gamma   64.64976287
_symmetry_Int_Tables_number   1
_chemical_formula_structural   TbYMnRh3
_chemical_formula_sum   'Tb1 Y1 Mn1 Rh3'
_cell_volume   108.37156702
_cell_formula_units_Z   1
loop_
 _symmetry_equiv_pos_site_id
 _symmetry_equiv_pos_as_xyz
  1  'x, y, z'
loop_
 _atom_site_type_symbol
 _atom_site_label
 _atom_site_symmetry_multiplicity
 _atom_site_fract_x
 _atom_site_fract_y
 _atom_site_fract_z
 _atom_site_occupancy
  Tb  Tb0  1  0.628713  0.628713  0.628713  1
  Y  Y1  1  0.371372  0.371372  0.371372  1
  Mn  Mn2  1  0.000014  0.000014  0.000014  1
  Rh  Rh3  1  0.999929  0.999929  0.500042  1
  Rh  Rh4  1  0.500042  0.999929  0.999929  1
  Rh  Rh5  1  0.999929  0.500042  0.999929  1
