# generated using pymatgen
data_Th4Mg2Ni3Au
_symmetry_space_group_name_H-M   'P 1'
_cell_length_a   3.73461600
_cell_length_b   7.71103812
_cell_length_c   7.71103800
_cell_angle_alpha   90.91586044
_cell_angle_beta   90.00000000
_cell_angle_gamma   90.00000000
_symmetry_Int_Tables_number   1
_chemical_formula_structural   Th4Mg2Ni3Au
_chemical_formula_sum   'Th4 Mg2 Ni3 Au1'
_cell_volume   222.03230130
_cell_formula_units_Z   1
loop_
 _symmetry_equiv_pos_site_id
 _symmetry_equiv_pos_as_xyz
  1  'x, y, z'
loop_
 _atom_site_type_symbol
 _atom_site_label
 _atom_site_symmetry_multiplicity
 _atom_site_fract_x
 _atom_site_fract_y
 _atom_site_fract_z
 _atom_site_occupancy
  Th  Th0  1  0.500000  0.168067  0.694067  1
  Th  Th1  1  0.500000  0.805933  0.331933  1
  Th  Th2  1  0.500000  0.348605  0.151395  1
  Th  Th3  1  0.500000  0.679041  0.820959  1
  Mg  Mg4  1  0.000000  0.996672  0.008647  1
  Mg  Mg5  1  0.000000  0.491353  0.503328  1
  Ni  Ni6  1  0.000000  0.631599  0.122226  1
  Ni  Ni7  1  0.000000  0.377774  0.868401  1
  Ni  Ni8  1  0.000000  0.871553  0.628447  1
  Au  Au9  1  0.000000  0.129402  0.370598  1
