# generated using pymatgen
data_Np4Zn4Pt3Rh
_symmetry_space_group_name_H-M   'P 1'
_cell_length_a   4.22624500
_cell_length_b   6.83129991
_cell_length_c   8.14354480
_cell_angle_alpha   89.71277485
_cell_angle_beta   90.00000000
_cell_angle_gamma   90.00000000
_symmetry_Int_Tables_number   1
_chemical_formula_structural   Np4Zn4Pt3Rh
_chemical_formula_sum   'Np4 Zn4 Pt3 Rh1'
_cell_volume   235.10726828
_cell_formula_units_Z   1
loop_
 _symmetry_equiv_pos_site_id
 _symmetry_equiv_pos_as_xyz
  1  'x, y, z'
loop_
 _atom_site_type_symbol
 _atom_site_label
 _atom_site_symmetry_multiplicity
 _atom_site_fract_x
 _atom_site_fract_y
 _atom_site_fract_z
 _atom_site_occupancy
  Np  Np0  1  0.250000  0.536948  0.189058  1
  Np  Np1  1  0.750000  0.459319  0.805438  1
  Np  Np2  1  0.750000  0.971314  0.686183  1
  Np  Np3  1  0.250000  0.040860  0.317116  1
  Zn  Zn4  1  0.250000  0.638441  0.562553  1
  Zn  Zn5  1  0.750000  0.358267  0.437376  1
  Zn  Zn6  1  0.750000  0.858010  0.063427  1
  Zn  Zn7  1  0.250000  0.142118  0.936072  1
  Pt  Pt8  1  0.250000  0.749716  0.881955  1
  Pt  Pt9  1  0.750000  0.248433  0.118806  1
  Pt  Pt10  1  0.750000  0.748102  0.382274  1
  Rh  Rh11  1  0.250000  0.248472  0.619743  1
