# generated using pymatgen
data_Er7Lu(Sc3Pt4)4
_symmetry_space_group_name_H-M   'P 1'
_cell_length_a   7.20913577
_cell_length_b   7.15550402
_cell_length_c   14.45049187
_cell_angle_alpha   90.00766646
_cell_angle_beta   89.84216176
_cell_angle_gamma   89.99829721
_symmetry_Int_Tables_number   1
_chemical_formula_structural   Er7Lu(Sc3Pt4)4
_chemical_formula_sum   'Er7 Lu1 Sc12 Pt16'
_cell_volume   745.42578758
_cell_formula_units_Z   1
loop_
 _symmetry_equiv_pos_site_id
 _symmetry_equiv_pos_as_xyz
  1  'x, y, z'
loop_
 _atom_site_type_symbol
 _atom_site_label
 _atom_site_symmetry_multiplicity
 _atom_site_fract_x
 _atom_site_fract_y
 _atom_site_fract_z
 _atom_site_occupancy
  Er  Er0  1  0.487409  0.676934  0.592327  1
  Er  Er1  1  0.987505  0.822990  0.907632  1
  Er  Er2  1  0.512533  0.323486  0.092071  1
  Er  Er3  1  0.011852  0.176137  0.408784  1
  Er  Er4  1  0.512292  0.322978  0.408394  1
  Er  Er5  1  0.012563  0.176859  0.092117  1
  Er  Er6  1  0.487187  0.676895  0.907137  1
  Lu  Lu7  1  0.988086  0.822303  0.592027  1
  Sc  Sc8  1  0.641871  0.167186  0.624106  1
  Sc  Sc9  1  0.139869  0.331775  0.874877  1
  Sc  Sc10  1  0.359899  0.831631  0.124427  1
  Sc  Sc11  1  0.860028  0.668247  0.376135  1
  Sc  Sc12  1  0.359338  0.832801  0.375775  1
  Sc  Sc13  1  0.859825  0.668024  0.124760  1
  Sc  Sc14  1  0.640391  0.167944  0.874863  1
  Sc  Sc15  1  0.140703  0.332474  0.624359  1
  Sc  Sc16  1  0.807798  0.502013  0.749227  1
  Sc  Sc17  1  0.308145  0.997652  0.749221  1
  Sc  Sc18  1  0.191999  0.497606  0.250430  1
  Sc  Sc19  1  0.691916  0.002528  0.250271  1
  Pt  Pt20  1  0.687819  0.955712  0.463414  1
  Pt  Pt21  1  0.186832  0.542600  0.037877  1
  Pt  Pt22  1  0.313233  0.042616  0.961387  1
  Pt  Pt23  1  0.813064  0.459776  0.539360  1
  Pt  Pt24  1  0.310943  0.040994  0.539076  1
  Pt  Pt25  1  0.812928  0.457818  0.961365  1
  Pt  Pt26  1  0.687084  0.957276  0.037742  1
  Pt  Pt27  1  0.187192  0.543987  0.462595  1
  Pt  Pt28  1  0.442154  0.383600  0.749505  1
  Pt  Pt29  1  0.943436  0.115665  0.748965  1
  Pt  Pt30  1  0.557023  0.617225  0.250470  1
  Pt  Pt31  1  0.057043  0.883264  0.250341  1
  Pt  Pt32  1  0.665022  0.852809  0.749179  1
  Pt  Pt33  1  0.162470  0.648137  0.748625  1
  Pt  Pt34  1  0.336240  0.147525  0.250412  1
  Pt  Pt35  1  0.836308  0.352535  0.250747  1
