# generated using pymatgen
data_Sc3Be(Ni4P)5
_symmetry_space_group_name_H-M   'P 1'
_cell_length_a   7.83190671
_cell_length_b   7.85042607
_cell_length_c   7.83190695
_cell_angle_alpha   59.92174878
_cell_angle_beta   60.15651011
_cell_angle_gamma   59.92174883
_symmetry_Int_Tables_number   1
_chemical_formula_structural   Sc3Be(Ni4P)5
_chemical_formula_sum   'Sc3 Be1 Ni20 P5'
_cell_volume   340.49317572
_cell_formula_units_Z   1
loop_
 _symmetry_equiv_pos_site_id
 _symmetry_equiv_pos_as_xyz
  1  'x, y, z'
loop_
 _atom_site_type_symbol
 _atom_site_label
 _atom_site_symmetry_multiplicity
 _atom_site_fract_x
 _atom_site_fract_y
 _atom_site_fract_z
 _atom_site_occupancy
  Sc  Sc0  1  0.749554  0.750446  0.749554  1
  Sc  Sc1  1  0.249554  0.250446  0.249554  1
  Sc  Sc2  1  0.997792  0.002208  0.997792  1
  Be  Be3  1  0.731937  0.268063  0.731937  1
  Ni  Ni4  1  0.384977  0.383032  0.848958  1
  Ni  Ni5  1  0.616968  0.615023  0.616968  1
  Ni  Ni6  1  0.999388  0.350311  0.999388  1
  Ni  Ni7  1  0.353636  0.000355  0.999645  1
  Ni  Ni8  1  0.996120  0.345590  0.654410  1
  Ni  Ni9  1  0.848958  0.383032  0.384977  1
  Ni  Ni10  1  0.349087  0.000612  0.649689  1
  Ni  Ni11  1  0.999645  0.000355  0.353636  1
  Ni  Ni12  1  0.654410  0.345590  0.996120  1
  Ni  Ni13  1  0.999645  0.646364  0.353636  1
  Ni  Ni14  1  0.996120  0.003880  0.654410  1
  Ni  Ni15  1  0.353636  0.646364  0.999645  1
  Ni  Ni16  1  0.654410  0.003880  0.996120  1
  Ni  Ni17  1  0.999388  0.650913  0.999388  1
  Ni  Ni18  1  0.384053  0.848020  0.384053  1
  Ni  Ni19  1  0.616125  0.615947  0.151980  1
  Ni  Ni20  1  0.616968  0.151042  0.616968  1
  Ni  Ni21  1  0.151980  0.615947  0.616125  1
  Ni  Ni22  1  0.384053  0.383875  0.384053  1
  Ni  Ni23  1  0.649689  0.000612  0.349087  1
  P  P24  1  0.261998  0.738002  0.261998  1
  P  P25  1  0.263989  0.736011  0.735967  1
  P  P26  1  0.263989  0.264033  0.735967  1
  P  P27  1  0.735967  0.736011  0.263989  1
  P  P28  1  0.735967  0.264033  0.263989  1
