# generated using pymatgen
data_Sc22Ir5Ru3
_symmetry_space_group_name_H-M   'P 1'
_cell_length_a   9.47312019
_cell_length_b   9.48441660
_cell_length_c   9.47312038
_cell_angle_alpha   59.96055251
_cell_angle_beta   59.92072014
_cell_angle_gamma   59.96055167
_symmetry_Int_Tables_number   1
_chemical_formula_structural   Sc22Ir5Ru3
_chemical_formula_sum   'Sc22 Ir5 Ru3'
_cell_volume   601.12106103
_cell_formula_units_Z   1
loop_
 _symmetry_equiv_pos_site_id
 _symmetry_equiv_pos_as_xyz
  1  'x, y, z'
loop_
 _atom_site_type_symbol
 _atom_site_label
 _atom_site_symmetry_multiplicity
 _atom_site_fract_x
 _atom_site_fract_y
 _atom_site_fract_z
 _atom_site_occupancy
  Sc  Sc0  1  0.803587  0.803127  0.196413  1
  Sc  Sc1  1  0.197243  0.802757  0.197243  1
  Sc  Sc2  1  0.803587  0.196873  0.196413  1
  Sc  Sc3  1  0.196413  0.196873  0.803587  1
  Sc  Sc4  1  0.802757  0.197243  0.802757  1
  Sc  Sc5  1  0.196413  0.803127  0.803587  1
  Sc  Sc6  1  0.616095  0.617352  0.149199  1
  Sc  Sc7  1  0.616381  0.149984  0.616381  1
  Sc  Sc8  1  0.149199  0.617352  0.616095  1
  Sc  Sc9  1  0.616381  0.617253  0.616381  1
  Sc  Sc10  1  0.383905  0.382648  0.850801  1
  Sc  Sc11  1  0.383619  0.850016  0.383619  1
  Sc  Sc12  1  0.850801  0.382648  0.383905  1
  Sc  Sc13  1  0.383619  0.382747  0.383619  1
  Sc  Sc14  1  0.841913  0.843989  0.470107  1
  Sc  Sc15  1  0.842918  0.470520  0.842918  1
  Sc  Sc16  1  0.470107  0.843989  0.841913  1
  Sc  Sc17  1  0.842918  0.843642  0.842918  1
  Sc  Sc18  1  0.158087  0.156011  0.529893  1
  Sc  Sc19  1  0.157082  0.529480  0.157082  1
  Sc  Sc20  1  0.529893  0.156011  0.158087  1
  Sc  Sc21  1  0.157082  0.156358  0.157082  1
  Ir  Ir22  1  0.000000  0.000000  0.500000  1
  Ir  Ir23  1  0.000000  0.500000  0.500000  1
  Ir  Ir24  1  0.500000  0.500000  0.000000  1
  Ir  Ir25  1  0.000000  0.500000  0.000000  1
  Ir  Ir26  1  0.500000  0.000000  0.000000  1
  Ru  Ru27  1  0.000000  0.000000  0.000000  1
  Ru  Ru28  1  0.500000  0.500000  0.500000  1
  Ru  Ru29  1  0.500000  0.000000  0.500000  1
