# generated using pymatgen
data_YTm9(InSb)3
_symmetry_space_group_name_H-M   'P 1'
_cell_length_a   8.87510500
_cell_length_b   8.89119963
_cell_length_c   6.54070600
_cell_angle_alpha   90.00000000
_cell_angle_beta   90.00000000
_cell_angle_gamma   120.01542034
_symmetry_Int_Tables_number   1
_chemical_formula_structural   YTm9(InSb)3
_chemical_formula_sum   'Y1 Tm9 In3 Sb3'
_cell_volume   446.91158949
_cell_formula_units_Z   1
loop_
 _symmetry_equiv_pos_site_id
 _symmetry_equiv_pos_as_xyz
  1  'x, y, z'
loop_
 _atom_site_type_symbol
 _atom_site_label
 _atom_site_symmetry_multiplicity
 _atom_site_fract_x
 _atom_site_fract_y
 _atom_site_fract_z
 _atom_site_occupancy
  Y  Y0  1  0.762819  0.759147  0.250000  1
  Tm  Tm1  1  0.330197  0.666256  0.001071  1
  Tm  Tm2  1  0.663787  0.333456  0.498971  1
  Tm  Tm3  1  0.663787  0.333456  0.001029  1
  Tm  Tm4  1  0.330197  0.666256  0.498929  1
  Tm  Tm5  1  0.237767  0.000243  0.250000  1
  Tm  Tm6  1  0.238503  0.234843  0.750000  1
  Tm  Tm7  1  0.004099  0.764005  0.750000  1
  Tm  Tm8  1  0.005065  0.242279  0.250000  1
  Tm  Tm9  1  0.760165  0.000296  0.750000  1
  In  In10  1  0.998792  0.602133  0.250000  1
  In  In11  1  0.394749  0.396481  0.250000  1
  In  In12  1  0.398698  0.000120  0.750000  1
  Sb  Sb13  1  0.608704  0.001183  0.250000  1
  Sb  Sb14  1  0.605360  0.607853  0.750000  1
  Sb  Sb15  1  0.997313  0.391990  0.750000  1
