# generated using pymatgen
data_Ti6Nb2Fe(CoSi2)7
_symmetry_space_group_name_H-M   'P 1'
_cell_length_a   9.19968692
_cell_length_b   9.19506473
_cell_length_c   9.20457699
_cell_angle_alpha   94.15927561
_cell_angle_beta   94.18186974
_cell_angle_gamma   148.69718520
_symmetry_Int_Tables_number   1
_chemical_formula_structural   Ti6Nb2Fe(CoSi2)7
_chemical_formula_sum   'Ti6 Nb2 Fe1 Co7 Si14'
_cell_volume   389.57022800
_cell_formula_units_Z   1
loop_
 _symmetry_equiv_pos_site_id
 _symmetry_equiv_pos_as_xyz
  1  'x, y, z'
loop_
 _atom_site_type_symbol
 _atom_site_label
 _atom_site_symmetry_multiplicity
 _atom_site_fract_x
 _atom_site_fract_y
 _atom_site_fract_z
 _atom_site_occupancy
  Ti  Ti0  1  0.862065  0.134136  0.999417  1
  Ti  Ti1  1  0.137361  0.865305  0.999435  1
  Ti  Ti2  1  0.500369  0.692093  0.192900  1
  Ti  Ti3  1  0.500490  0.307437  0.806853  1
  Ti  Ti4  1  0.306213  0.499275  0.806848  1
  Ti  Ti5  1  0.692570  0.500842  0.192901  1
  Nb  Nb6  1  0.133229  0.133212  0.266562  1
  Nb  Nb7  1  0.866480  0.866502  0.732792  1
  Fe  Fe8  1  0.400453  0.900433  0.800872  1
  Co  Co9  1  0.100536  0.600478  0.200988  1
  Co  Co10  1  0.100854  0.898686  0.500017  1
  Co  Co11  1  0.399174  0.601317  0.499997  1
  Co  Co12  1  0.601120  0.398156  0.500310  1
  Co  Co13  1  0.899188  0.102172  0.500323  1
  Co  Co14  1  0.899582  0.399617  0.799191  1
  Co  Co15  1  0.599889  0.099927  0.199822  1
  Si  Si16  1  0.292802  0.292816  0.585662  1
  Si  Si17  1  0.707343  0.707348  0.414609  1
  Si  Si18  1  0.707736  0.296350  0.999920  1
  Si  Si19  1  0.292229  0.703598  0.999908  1
  Si  Si20  1  0.999742  0.296092  0.294959  1
  Si  Si21  1  0.003221  0.706557  0.705419  1
  Si  Si22  1  0.702179  0.998848  0.705405  1
  Si  Si23  1  0.295168  0.998806  0.294945  1
  Si  Si24  1  0.501412  0.907170  0.404674  1
  Si  Si25  1  0.497690  0.090347  0.595649  1
  Si  Si26  1  0.097924  0.505262  0.595652  1
  Si  Si27  1  0.903338  0.497558  0.404671  1
  Si  Si28  1  0.748915  0.749201  0.999609  1
  Si  Si29  1  0.250729  0.250461  0.999692  1
