# generated using pymatgen
data_Er2ThSn3Ir2Rh
_symmetry_space_group_name_H-M   'P 1'
_cell_length_a   7.56153707
_cell_length_b   7.56153823
_cell_length_c   3.92397800
_cell_angle_alpha   90.00000000
_cell_angle_beta   90.00000000
_cell_angle_gamma   119.65922516
_symmetry_Int_Tables_number   1
_chemical_formula_structural   Er2ThSn3Ir2Rh
_chemical_formula_sum   'Er2 Th1 Sn3 Ir2 Rh1'
_cell_volume   194.96584073
_cell_formula_units_Z   1
loop_
 _symmetry_equiv_pos_site_id
 _symmetry_equiv_pos_as_xyz
  1  'x, y, z'
loop_
 _atom_site_type_symbol
 _atom_site_label
 _atom_site_symmetry_multiplicity
 _atom_site_fract_x
 _atom_site_fract_y
 _atom_site_fract_z
 _atom_site_occupancy
  Er  Er0  1  0.999196  0.592663  0.000000  1
  Er  Er1  1  0.592663  0.999196  0.000000  1
  Th  Th2  1  0.413499  0.413499  0.000000  1
  Sn  Sn3  1  0.754264  0.754264  0.500000  1
  Sn  Sn4  1  0.987998  0.257748  0.500000  1
  Sn  Sn5  1  0.257748  0.987998  0.500000  1
  Ir  Ir6  1  0.655940  0.333041  0.500000  1
  Ir  Ir7  1  0.333041  0.655940  0.500000  1
  Rh  Rh8  1  0.005651  0.005651  0.000000  1
