# generated using pymatgen
data_TbEuZr2(Co5P3)4
_symmetry_space_group_name_H-M   'P 1'
_cell_length_a   3.62878500
_cell_length_b   10.22596407
_cell_length_c   11.69429007
_cell_angle_alpha   90.01297654
_cell_angle_beta   90.00000000
_cell_angle_gamma   90.00000000
_symmetry_Int_Tables_number   1
_chemical_formula_structural   TbEuZr2(Co5P3)4
_chemical_formula_sum   'Tb1 Eu1 Zr2 Co20 P12'
_cell_volume   433.94965861
_cell_formula_units_Z   1
loop_
 _symmetry_equiv_pos_site_id
 _symmetry_equiv_pos_as_xyz
  1  'x, y, z'
loop_
 _atom_site_type_symbol
 _atom_site_label
 _atom_site_symmetry_multiplicity
 _atom_site_fract_x
 _atom_site_fract_y
 _atom_site_fract_z
 _atom_site_occupancy
  Tb  Tb0  1  0.750000  0.082437  0.796936  1
  Eu  Eu1  1  0.750000  0.416743  0.296488  1
  Zr  Zr2  1  0.250000  0.582063  0.701629  1
  Zr  Zr3  1  0.250000  0.917835  0.201030  1
  Co  Co4  1  0.250000  0.718276  0.992635  1
  Co  Co5  1  0.250000  0.782035  0.493717  1
  Co  Co6  1  0.750000  0.283258  0.008739  1
  Co  Co7  1  0.750000  0.216151  0.509265  1
  Co  Co8  1  0.250000  0.410299  0.494189  1
  Co  Co9  1  0.250000  0.089898  0.990267  1
  Co  Co10  1  0.750000  0.595184  0.516481  1
  Co  Co11  1  0.750000  0.906086  0.015808  1
  Co  Co12  1  0.250000  0.218088  0.176252  1
  Co  Co13  1  0.250000  0.278373  0.678105  1
  Co  Co14  1  0.750000  0.776581  0.822792  1
  Co  Co15  1  0.750000  0.724201  0.323440  1
  Co  Co16  1  0.250000  0.880029  0.698497  1
  Co  Co17  1  0.250000  0.623129  0.197382  1
  Co  Co18  1  0.750000  0.112675  0.299689  1
  Co  Co19  1  0.750000  0.386087  0.799274  1
  Co  Co20  1  0.250000  0.470383  0.928456  1
  Co  Co21  1  0.250000  0.029269  0.429033  1
  Co  Co22  1  0.750000  0.535596  0.065177  1
  Co  Co23  1  0.750000  0.964884  0.566622  1
  P  P24  1  0.250000  0.419376  0.109976  1
  P  P25  1  0.250000  0.080749  0.610309  1
  P  P26  1  0.750000  0.581693  0.883902  1
  P  P27  1  0.750000  0.918445  0.384648  1
  P  P28  1  0.250000  0.270638  0.871763  1
  P  P29  1  0.250000  0.228695  0.371898  1
  P  P30  1  0.750000  0.732263  0.131675  1
  P  P31  1  0.750000  0.767866  0.631654  1
  P  P32  1  0.250000  0.602932  0.391223  1
  P  P33  1  0.250000  0.897689  0.891045  1
  P  P34  1  0.750000  0.400267  0.610017  1
  P  P35  1  0.750000  0.099829  0.109991  1
