# generated using pymatgen
data_ErZr3(Si4Os3)2
_symmetry_space_group_name_H-M   'P 1'
_cell_length_a   10.02926761
_cell_length_b   10.02926781
_cell_length_c   13.49222795
_cell_angle_alpha   53.64640092
_cell_angle_beta   53.64640114
_cell_angle_gamma   31.29658057
_symmetry_Int_Tables_number   1
_chemical_formula_structural   ErZr3(Si4Os3)2
_chemical_formula_sum   'Er2 Zr6 Si16 Os12'
_cell_volume   555.58039111
_cell_formula_units_Z   2
loop_
 _symmetry_equiv_pos_site_id
 _symmetry_equiv_pos_as_xyz
  1  'x, y, z'
loop_
 _atom_site_type_symbol
 _atom_site_label
 _atom_site_symmetry_multiplicity
 _atom_site_fract_x
 _atom_site_fract_y
 _atom_site_fract_z
 _atom_site_occupancy
  Er  Er0  1  0.039297  0.290209  0.640201  1
  Er  Er1  1  0.709791  0.960703  0.859799  1
  Zr  Zr2  1  0.960201  0.704207  0.365611  1
  Zr  Zr3  1  0.295793  0.039799  0.134389  1
  Zr  Zr4  1  0.298333  0.555107  0.646638  1
  Zr  Zr5  1  0.444893  0.701667  0.853362  1
  Zr  Zr6  1  0.703165  0.447217  0.348499  1
  Zr  Zr7  1  0.552783  0.296835  0.151501  1
  Si  Si8  1  0.972847  0.251653  0.896332  1
  Si  Si9  1  0.748347  0.027153  0.603668  1
  Si  Si10  1  0.024034  0.748698  0.107005  1
  Si  Si11  1  0.251302  0.975966  0.392995  1
  Si  Si12  1  0.143382  0.384015  0.896131  1
  Si  Si13  1  0.615985  0.856618  0.603869  1
  Si  Si14  1  0.855401  0.614480  0.103122  1
  Si  Si15  1  0.385520  0.144599  0.396878  1
  Si  Si16  1  0.087607  0.573317  0.564096  1
  Si  Si17  1  0.426683  0.912393  0.935904  1
  Si  Si18  1  0.913282  0.427555  0.433845  1
  Si  Si19  1  0.572445  0.086718  0.066155  1
  Si  Si20  1  0.616073  0.383927  0.750000  1
  Si  Si21  1  0.379134  0.620866  0.250000  1
  Si  Si22  1  0.130874  0.869126  0.750000  1
  Si  Si23  1  0.874809  0.125191  0.250000  1
  Os  Os24  1  0.903012  0.136328  0.585205  1
  Os  Os25  1  0.863672  0.096988  0.914795  1
  Os  Os26  1  0.096707  0.865396  0.413956  1
  Os  Os27  1  0.134604  0.903293  0.086044  1
  Os  Os28  1  0.827124  0.643754  0.781856  1
  Os  Os29  1  0.356246  0.172876  0.718144  1
  Os  Os30  1  0.169432  0.356106  0.217527  1
  Os  Os31  1  0.643894  0.830568  0.282473  1
  Os  Os32  1  0.235622  0.515039  0.932155  1
  Os  Os33  1  0.484961  0.764378  0.567845  1
  Os  Os34  1  0.763105  0.480360  0.071942  1
  Os  Os35  1  0.519640  0.236895  0.428058  1
