# generated using pymatgen
data_K2BaFe3(CoAs2)3
_symmetry_space_group_name_H-M   'P 1'
_cell_length_a   8.63014155
_cell_length_b   8.63014183
_cell_length_c   7.24905070
_cell_angle_alpha   69.06209984
_cell_angle_beta   69.06210144
_cell_angle_gamma   36.81438539
_symmetry_Int_Tables_number   1
_chemical_formula_structural   K2BaFe3(CoAs2)3
_chemical_formula_sum   'K2 Ba1 Fe3 Co3 As6'
_cell_volume   299.70161392
_cell_formula_units_Z   1
loop_
 _symmetry_equiv_pos_site_id
 _symmetry_equiv_pos_as_xyz
  1  'x, y, z'
loop_
 _atom_site_type_symbol
 _atom_site_label
 _atom_site_symmetry_multiplicity
 _atom_site_fract_x
 _atom_site_fract_y
 _atom_site_fract_z
 _atom_site_occupancy
  K  K0  1  0.671600  0.671732  0.000017  1
  K  K1  1  0.328268  0.328400  0.999983  1
  Ba  Ba2  1  0.000191  0.999809  0.000000  1
  Fe  Fe3  1  0.583394  0.083882  0.498743  1
  Fe  Fe4  1  0.916118  0.416606  0.501257  1
  Fe  Fe5  1  0.250086  0.749914  0.500000  1
  Co  Co6  1  0.749855  0.250145  0.500000  1
  Co  Co7  1  0.084078  0.583449  0.498563  1
  Co  Co8  1  0.416551  0.915922  0.501437  1
  As  As9  1  0.884618  0.884869  0.690817  1
  As  As10  1  0.218647  0.218456  0.690573  1
  As  As11  1  0.550882  0.550963  0.692736  1
  As  As12  1  0.449037  0.449118  0.307264  1
  As  As13  1  0.781544  0.781353  0.309427  1
  As  As14  1  0.115131  0.115382  0.309183  1
