# generated using pymatgen
data_ErZn2SiAu
_symmetry_space_group_name_H-M   'P 1'
_cell_length_a   4.03840146
_cell_length_b   6.39042379
_cell_length_c   5.71252500
_cell_angle_alpha   63.34074710
_cell_angle_beta   44.86386230
_cell_angle_gamma   71.43066147
_symmetry_Int_Tables_number   1
_chemical_formula_structural   ErZn2SiAu
_chemical_formula_sum   'Er1 Zn2 Si1 Au1'
_cell_volume   92.94050842
_cell_formula_units_Z   1
loop_
 _symmetry_equiv_pos_site_id
 _symmetry_equiv_pos_as_xyz
  1  'x, y, z'
loop_
 _atom_site_type_symbol
 _atom_site_label
 _atom_site_symmetry_multiplicity
 _atom_site_fract_x
 _atom_site_fract_y
 _atom_site_fract_z
 _atom_site_occupancy
  Er  Er0  1  0.712105  0.355655  0.301489  1
  Zn  Zn1  1  0.212261  0.808116  0.073318  1
  Zn  Zn2  1  0.210802  0.806765  0.576088  1
  Si  Si3  1  0.713526  0.534525  0.710204  1
  Au  Au4  1  0.709125  0.107932  0.925804  1
