# generated using pymatgen
data_Li4CaLa2YbSi8
_symmetry_space_group_name_H-M   'P 1'
_cell_length_a   3.87293500
_cell_length_b   7.89669401
_cell_length_c   10.66946263
_cell_angle_alpha   89.97079961
_cell_angle_beta   90.00000000
_cell_angle_gamma   90.00000000
_symmetry_Int_Tables_number   1
_chemical_formula_structural   Li4CaLa2YbSi8
_chemical_formula_sum   'Li4 Ca1 La2 Yb1 Si8'
_cell_volume   326.30821542
_cell_formula_units_Z   1
loop_
 _symmetry_equiv_pos_site_id
 _symmetry_equiv_pos_as_xyz
  1  'x, y, z'
loop_
 _atom_site_type_symbol
 _atom_site_label
 _atom_site_symmetry_multiplicity
 _atom_site_fract_x
 _atom_site_fract_y
 _atom_site_fract_z
 _atom_site_occupancy
  Li  Li0  1  0.250000  0.000155  0.391148  1
  Li  Li1  1  0.750000  0.004884  0.610828  1
  Li  Li2  1  0.250000  0.495163  0.111456  1
  Li  Li3  1  0.750000  0.499915  0.891128  1
  Ca  Ca4  1  0.750000  0.365588  0.366238  1
  La  La5  1  0.750000  0.867821  0.132033  1
  La  La6  1  0.250000  0.631688  0.632627  1
  Yb  Yb7  1  0.250000  0.134129  0.866475  1
  Si  Si8  1  0.750000  0.266959  0.068368  1
  Si  Si9  1  0.250000  0.729662  0.928800  1
  Si  Si10  1  0.750000  0.771030  0.429230  1
  Si  Si11  1  0.250000  0.232213  0.570473  1
  Si  Si12  1  0.750000  0.835668  0.823769  1
  Si  Si13  1  0.250000  0.166544  0.175776  1
  Si  Si14  1  0.750000  0.331889  0.677991  1
  Si  Si15  1  0.250000  0.666691  0.323659  1
