# generated using pymatgen
data_Sr5Si9P3Ir19
_symmetry_space_group_name_H-M   'P 1'
_cell_length_a   12.94551600
_cell_length_b   12.94551574
_cell_length_c   4.01873500
_cell_angle_alpha   90.00000000
_cell_angle_beta   90.00000000
_cell_angle_gamma   119.99999555
_symmetry_Int_Tables_number   1
_chemical_formula_structural   Sr5Si9P3Ir19
_chemical_formula_sum   'Sr5 Si9 P3 Ir19'
_cell_volume   583.25536649
_cell_formula_units_Z   1
loop_
 _symmetry_equiv_pos_site_id
 _symmetry_equiv_pos_as_xyz
  1  'x, y, z'
loop_
 _atom_site_type_symbol
 _atom_site_label
 _atom_site_symmetry_multiplicity
 _atom_site_fract_x
 _atom_site_fract_y
 _atom_site_fract_z
 _atom_site_occupancy
  Sr  Sr0  1  0.333333  0.666667  0.500000  1
  Sr  Sr1  1  0.666667  0.333333  0.500000  1
  Sr  Sr2  1  0.000000  0.817543  0.000000  1
  Sr  Sr3  1  0.182457  0.182457  0.000000  1
  Sr  Sr4  1  0.817543  0.000000  0.000000  1
  Si  Si5  1  0.000000  0.629802  0.500000  1
  Si  Si6  1  0.370198  0.370198  0.500000  1
  Si  Si7  1  0.629802  0.000000  0.500000  1
  Si  Si8  1  0.521619  0.686243  0.000000  1
  Si  Si9  1  0.313757  0.835376  0.000000  1
  Si  Si10  1  0.164624  0.478381  0.000000  1
  Si  Si11  1  0.478381  0.164624  0.000000  1
  Si  Si12  1  0.686243  0.521619  0.000000  1
  Si  Si13  1  0.835376  0.313757  0.000000  1
  P  P14  1  0.000000  0.182843  0.500000  1
  P  P15  1  0.817157  0.817157  0.500000  1
  P  P16  1  0.182843  0.000000  0.500000  1
  Ir  Ir17  1  0.514709  0.874307  0.000000  1
  Ir  Ir18  1  0.125693  0.640403  0.000000  1
  Ir  Ir19  1  0.359597  0.485291  0.000000  1
  Ir  Ir20  1  0.485291  0.359597  0.000000  1
  Ir  Ir21  1  0.874307  0.514709  0.000000  1
  Ir  Ir22  1  0.640403  0.125693  0.000000  1
  Ir  Ir23  1  0.000000  0.447280  0.500000  1
  Ir  Ir24  1  0.552720  0.552720  0.500000  1
  Ir  Ir25  1  0.447280  0.000000  0.500000  1
  Ir  Ir26  1  0.000000  0.281867  0.000000  1
  Ir  Ir27  1  0.718133  0.718133  0.000000  1
  Ir  Ir28  1  0.281867  0.000000  0.000000  1
  Ir  Ir29  1  0.624009  0.804652  0.500000  1
  Ir  Ir30  1  0.195348  0.819356  0.500000  1
  Ir  Ir31  1  0.180644  0.375991  0.500000  1
  Ir  Ir32  1  0.375991  0.180644  0.500000  1
  Ir  Ir33  1  0.804652  0.624009  0.500000  1
  Ir  Ir34  1  0.819356  0.195348  0.500000  1
  Ir  Ir35  1  0.000000  0.000000  0.500000  1
