# generated using pymatgen
data_Na2SrB2Pt7
_symmetry_space_group_name_H-M   'P 1'
_cell_length_a   8.28478989
_cell_length_b   8.28478898
_cell_length_c   8.28478904
_cell_angle_alpha   39.08873514
_cell_angle_beta   39.08874370
_cell_angle_gamma   39.08873790
_symmetry_Int_Tables_number   1
_chemical_formula_structural   Na2SrB2Pt7
_chemical_formula_sum   'Na2 Sr1 B2 Pt7'
_cell_volume   203.34399312
_cell_formula_units_Z   1
loop_
 _symmetry_equiv_pos_site_id
 _symmetry_equiv_pos_as_xyz
  1  'x, y, z'
loop_
 _atom_site_type_symbol
 _atom_site_label
 _atom_site_symmetry_multiplicity
 _atom_site_fract_x
 _atom_site_fract_y
 _atom_site_fract_z
 _atom_site_occupancy
  Na  Na0  1  0.140105  0.140105  0.140105  1
  Na  Na1  1  0.004532  0.004532  0.004532  1
  Sr  Sr2  1  0.857318  0.857318  0.857318  1
  B  B3  1  0.668128  0.668128  0.668128  1
  B  B4  1  0.331634  0.331634  0.331634  1
  Pt  Pt5  1  0.436321  0.932712  0.436321  1
  Pt  Pt6  1  0.436321  0.436321  0.932712  1
  Pt  Pt7  1  0.932712  0.436321  0.436321  1
  Pt  Pt8  1  0.562628  0.068119  0.562628  1
  Pt  Pt9  1  0.562628  0.562628  0.068119  1
  Pt  Pt10  1  0.068119  0.562628  0.562628  1
  Pt  Pt11  1  0.499553  0.499553  0.499553  1
