# generated using pymatgen
data_K7RbLi4(ScAs2)4
_symmetry_space_group_name_H-M   'P 1'
_cell_length_a   10.11629359
_cell_length_b   10.11629230
_cell_length_c   6.58190142
_cell_angle_alpha   90.03147617
_cell_angle_beta   89.96852645
_cell_angle_gamma   99.00262029
_symmetry_Int_Tables_number   1
_chemical_formula_structural   K7RbLi4(ScAs2)4
_chemical_formula_sum   'K7 Rb1 Li4 Sc4 As8'
_cell_volume   665.28975502
_cell_formula_units_Z   1
loop_
 _symmetry_equiv_pos_site_id
 _symmetry_equiv_pos_as_xyz
  1  'x, y, z'
loop_
 _atom_site_type_symbol
 _atom_site_label
 _atom_site_symmetry_multiplicity
 _atom_site_fract_x
 _atom_site_fract_y
 _atom_site_fract_z
 _atom_site_occupancy
  K  K0  1  0.071439  0.427619  0.749998  1
  K  K1  1  0.674708  0.325292  0.787181  1
  K  K2  1  0.325811  0.674189  0.212799  1
  K  K3  1  0.572381  0.928561  0.749998  1
  K  K4  1  0.428686  0.072320  0.249815  1
  K  K5  1  0.927680  0.571314  0.249815  1
  K  K6  1  0.825056  0.174944  0.287294  1
  Rb  Rb7  1  0.178753  0.821247  0.712780  1
  Li  Li8  1  0.120479  0.121711  0.499604  1
  Li  Li9  1  0.878289  0.879521  0.499604  1
  Li  Li10  1  0.379444  0.379274  0.999765  1
  Li  Li11  1  0.620726  0.620556  0.999765  1
  Sc  Sc12  1  0.868631  0.870121  0.999960  1
  Sc  Sc13  1  0.370019  0.369722  0.499830  1
  Sc  Sc14  1  0.630278  0.629981  0.499830  1
  Sc  Sc15  1  0.129879  0.131369  0.999960  1
  As  As16  1  0.839454  0.658417  0.750920  1
  As  As17  1  0.090718  0.909282  0.225631  1
  As  As18  1  0.409491  0.590509  0.727411  1
  As  As19  1  0.592295  0.407705  0.273189  1
  As  As20  1  0.657955  0.841381  0.250318  1
  As  As21  1  0.158619  0.342045  0.250318  1
  As  As22  1  0.341583  0.160546  0.750920  1
  As  As23  1  0.907627  0.092373  0.773294  1
