# generated using pymatgen
data_SrNd3(FeO3)4
_symmetry_space_group_name_H-M   'P 1'
_cell_length_a   5.51547855
_cell_length_b   5.64541109
_cell_length_c   7.84709200
_cell_angle_alpha   90.00000000
_cell_angle_beta   90.00000000
_cell_angle_gamma   89.82086534
_symmetry_Int_Tables_number   1
_chemical_formula_structural   SrNd3(FeO3)4
_chemical_formula_sum   'Sr1 Nd3 Fe4 O12'
_cell_volume   244.33483780
_cell_formula_units_Z   1
loop_
 _symmetry_equiv_pos_site_id
 _symmetry_equiv_pos_as_xyz
  1  'x, y, z'
loop_
 _atom_site_type_symbol
 _atom_site_label
 _atom_site_symmetry_multiplicity
 _atom_site_fract_x
 _atom_site_fract_y
 _atom_site_fract_z
 _atom_site_occupancy
  Sr  Sr0  1  0.008456  0.962090  0.750000  1
  Nd  Nd1  1  0.508719  0.548640  0.250000  1
  Nd  Nd2  1  0.487497  0.448562  0.750000  1
  Nd  Nd3  1  0.987902  0.054103  0.250000  1
  Fe  Fe4  1  0.000974  0.503646  0.501032  1
  Fe  Fe5  1  0.498061  0.998448  0.500742  1
  Fe  Fe6  1  0.498061  0.998448  0.999258  1
  Fe  Fe7  1  0.000974  0.503646  0.998968  1
  O  O8  1  0.712751  0.289019  0.451937  1
  O  O9  1  0.216343  0.216186  0.534187  1
  O  O10  1  0.788762  0.789959  0.050928  1
  O  O11  1  0.300959  0.698940  0.961766  1
  O  O12  1  0.300959  0.698940  0.538234  1
  O  O13  1  0.788762  0.789959  0.449072  1
  O  O14  1  0.216343  0.216186  0.965813  1
  O  O15  1  0.712751  0.289019  0.048063  1
  O  O16  1  0.081796  0.481510  0.250000  1
  O  O17  1  0.564477  0.025212  0.750000  1
  O  O18  1  0.412197  0.975349  0.250000  1
  O  O19  1  0.913253  0.512139  0.750000  1
