# generated using pymatgen
data_Tm6TcB14Os
_symmetry_space_group_name_H-M   'P 1'
_cell_length_a   7.95218002
_cell_length_b   7.95217978
_cell_length_c   9.24117100
_cell_angle_alpha   90.00000000
_cell_angle_beta   90.00000000
_cell_angle_gamma   154.61228887
_symmetry_Int_Tables_number   1
_chemical_formula_structural   Tm6TcB14Os
_chemical_formula_sum   'Tm6 Tc1 B14 Os1'
_cell_volume   250.55022411
_cell_formula_units_Z   1
loop_
 _symmetry_equiv_pos_site_id
 _symmetry_equiv_pos_as_xyz
  1  'x, y, z'
loop_
 _atom_site_type_symbol
 _atom_site_label
 _atom_site_symmetry_multiplicity
 _atom_site_fract_x
 _atom_site_fract_y
 _atom_site_fract_z
 _atom_site_occupancy
  Tm  Tm0  1  0.894171  0.105829  0.059119  1
  Tm  Tm1  1  0.105819  0.894181  0.560662  1
  Tm  Tm2  1  0.105819  0.894181  0.939338  1
  Tm  Tm3  1  0.894171  0.105829  0.440881  1
  Tm  Tm4  1  0.243899  0.756101  0.250000  1
  Tm  Tm5  1  0.756676  0.243324  0.750000  1
  Tc  Tc6  1  0.947673  0.052327  0.750000  1
  B  B7  1  0.454317  0.545683  0.250000  1
  B  B8  1  0.546129  0.453871  0.750000  1
  B  B9  1  0.727189  0.272811  0.034802  1
  B  B10  1  0.272183  0.727817  0.533612  1
  B  B11  1  0.272183  0.727817  0.966388  1
  B  B12  1  0.727189  0.272811  0.465198  1
  B  B13  1  0.632039  0.367961  0.349318  1
  B  B14  1  0.367542  0.632458  0.849359  1
  B  B15  1  0.367542  0.632458  0.650641  1
  B  B16  1  0.632039  0.367961  0.150682  1
  B  B17  1  0.519810  0.480190  0.404548  1
  B  B18  1  0.480217  0.519783  0.905318  1
  B  B19  1  0.480217  0.519783  0.594682  1
  B  B20  1  0.519810  0.480190  0.095452  1
  Os  Os21  1  0.053367  0.946633  0.250000  1
