# generated using pymatgen
data_TmLuTh3Ge3C
_symmetry_space_group_name_H-M   'P 1'
_cell_length_a   8.77307300
_cell_length_b   8.77305908
_cell_length_c   6.35797901
_cell_angle_alpha   90.00015200
_cell_angle_beta   89.99991991
_cell_angle_gamma   119.99994802
_symmetry_Int_Tables_number   1
_chemical_formula_structural   TmLuTh3Ge3C
_chemical_formula_sum   'Tm2 Lu2 Th6 Ge6 C2'
_cell_volume   423.79199189
_cell_formula_units_Z   2
loop_
 _symmetry_equiv_pos_site_id
 _symmetry_equiv_pos_as_xyz
  1  'x, y, z'
loop_
 _atom_site_type_symbol
 _atom_site_label
 _atom_site_symmetry_multiplicity
 _atom_site_fract_x
 _atom_site_fract_y
 _atom_site_fract_z
 _atom_site_occupancy
  Tm  Tm0  1  0.666660  0.333330  0.500001  1
  Tm  Tm1  1  0.333340  0.666671  0.500001  1
  Lu  Lu2  1  0.333315  0.666656  0.999994  1
  Lu  Lu3  1  0.666685  0.333340  0.999994  1
  Th  Th4  1  0.767432  0.767422  0.249757  1
  Th  Th5  1  0.232568  0.999990  0.249757  1
  Th  Th6  1  0.000000  0.232569  0.249758  1
  Th  Th7  1  0.232572  0.232579  0.750248  1
  Th  Th8  1  0.767428  0.000008  0.750248  1
  Th  Th9  1  0.000000  0.767432  0.750239  1
  Ge  Ge10  1  0.403669  0.403672  0.249544  1
  Ge  Ge11  1  0.596331  0.000002  0.249544  1
  Ge  Ge12  1  0.000000  0.596311  0.249559  1
  Ge  Ge13  1  0.596336  0.596329  0.750456  1
  Ge  Ge14  1  0.403664  0.999993  0.750456  1
  Ge  Ge15  1  0.000000  0.403687  0.750437  1
  C  C16  1  0.000000  0.000004  0.500006  1
  C  C17  1  0.000000  0.000003  0.000002  1
