# generated using pymatgen
data_HfZr5MnSi6Ru5
_symmetry_space_group_name_H-M   'P 1'
_cell_length_a   7.64990464
_cell_length_b   7.63740564
_cell_length_c   7.64846917
_cell_angle_alpha   127.94660788
_cell_angle_beta   122.26516281
_cell_angle_gamma   81.47172652
_symmetry_Int_Tables_number   1
_chemical_formula_structural   HfZr5MnSi6Ru5
_chemical_formula_sum   'Hf1 Zr5 Mn1 Si6 Ru5'
_cell_volume   286.91837826
_cell_formula_units_Z   1
loop_
 _symmetry_equiv_pos_site_id
 _symmetry_equiv_pos_as_xyz
  1  'x, y, z'
loop_
 _atom_site_type_symbol
 _atom_site_label
 _atom_site_symmetry_multiplicity
 _atom_site_fract_x
 _atom_site_fract_y
 _atom_site_fract_z
 _atom_site_occupancy
  Hf  Hf0  1  0.950151  0.650521  0.203885  1
  Zr  Zr1  1  0.466460  0.694800  0.723948  1
  Zr  Zr2  1  0.533687  0.257458  0.228381  1
  Zr  Zr3  1  0.746559  0.832012  0.584086  1
  Zr  Zr4  1  0.254017  0.837539  0.084657  1
  Zr  Zr5  1  0.050332  0.256490  0.703136  1
  Mn  Mn6  1  0.504447  0.497304  0.001218  1
  Si  Si7  1  0.271696  0.270097  0.497160  1
  Si  Si8  1  0.726304  0.219821  0.994133  1
  Si  Si9  1  0.327747  0.586690  0.246040  1
  Si  Si10  1  0.673332  0.916548  0.258068  1
  Si  Si11  1  0.161186  0.923302  0.748748  1
  Si  Si12  1  0.838253  0.589505  0.763076  1
  Ru  Ru13  1  0.996416  0.499505  0.494794  1
  Ru  Ru14  1  0.097824  0.255471  0.106412  1
  Ru  Ru15  1  0.903006  0.006253  0.156643  1
  Ru  Ru16  1  0.348842  0.008729  0.603783  1
  Ru  Ru17  1  0.649743  0.257557  0.661434  1
