# generated using pymatgen
data_Th2MnTc4NiP7Ir6
_symmetry_space_group_name_H-M   'P 1'
_cell_length_a   9.41823300
_cell_length_b   9.42868346
_cell_length_c   3.92973000
_cell_angle_alpha   90.00000000
_cell_angle_beta   90.00000000
_cell_angle_gamma   119.60233075
_symmetry_Int_Tables_number   1
_chemical_formula_structural   Th2MnTc4NiP7Ir6
_chemical_formula_sum   'Th2 Mn1 Tc4 Ni1 P7 Ir6'
_cell_volume   303.41721350
_cell_formula_units_Z   1
loop_
 _symmetry_equiv_pos_site_id
 _symmetry_equiv_pos_as_xyz
  1  'x, y, z'
loop_
 _atom_site_type_symbol
 _atom_site_label
 _atom_site_symmetry_multiplicity
 _atom_site_fract_x
 _atom_site_fract_y
 _atom_site_fract_z
 _atom_site_occupancy
  Th  Th0  1  0.332881  0.666279  0.000000  1
  Th  Th1  1  0.001490  0.001318  0.500000  1
  Mn  Mn2  1  0.508226  0.446268  0.000000  1
  Tc  Tc3  1  0.932198  0.488459  0.000000  1
  Tc  Tc4  1  0.789389  0.242363  0.500000  1
  Tc  Tc5  1  0.757297  0.549390  0.500000  1
  Tc  Tc6  1  0.459362  0.219036  0.500000  1
  Ni  Ni7  1  0.555430  0.059827  0.000000  1
  P  P8  1  0.772810  0.034403  0.000000  1
  P  P9  1  0.966136  0.743329  0.000000  1
  P  P10  1  0.268300  0.228165  0.000000  1
  P  P11  1  0.386677  0.941241  0.500000  1
  P  P12  1  0.061517  0.448395  0.500000  1
  P  P13  1  0.548951  0.608319  0.500000  1
  P  P14  1  0.656342  0.327797  0.000000  1
  Ir  Ir15  1  0.029784  0.259912  0.000000  1
  Ir  Ir16  1  0.732647  0.764066  0.000000  1
  Ir  Ir17  1  0.241448  0.970741  0.000000  1
  Ir  Ir18  1  0.609501  0.888634  0.500000  1
  Ir  Ir19  1  0.110582  0.723990  0.500000  1
  Ir  Ir20  1  0.279030  0.388069  0.500000  1
