# generated using pymatgen
data_CaLaYb2Bi3
_symmetry_space_group_name_H-M   'P 1'
_cell_length_a   8.46400704
_cell_length_b   8.42308070
_cell_length_c   8.47903319
_cell_angle_alpha   109.49451725
_cell_angle_beta   109.69443096
_cell_angle_gamma   109.41924166
_symmetry_Int_Tables_number   1
_chemical_formula_structural   CaLaYb2Bi3
_chemical_formula_sum   'Ca2 La2 Yb4 Bi6'
_cell_volume   464.21844412
_cell_formula_units_Z   2
loop_
 _symmetry_equiv_pos_site_id
 _symmetry_equiv_pos_as_xyz
  1  'x, y, z'
loop_
 _atom_site_type_symbol
 _atom_site_label
 _atom_site_symmetry_multiplicity
 _atom_site_fract_x
 _atom_site_fract_y
 _atom_site_fract_z
 _atom_site_occupancy
  Ca  Ca0  1  0.146678  0.502160  0.002723  1
  Ca  Ca1  1  0.357355  0.356671  0.354294  1
  La  La2  1  0.854624  0.854891  0.855095  1
  La  La3  1  0.999348  0.144842  0.499890  1
  Yb  Yb4  1  0.644726  0.497836  0.000579  1
  Yb  Yb5  1  0.498014  0.001125  0.644712  1
  Yb  Yb6  1  0.497086  0.998983  0.143701  1
  Yb  Yb7  1  0.000621  0.643312  0.497548  1
  Bi  Bi8  1  0.252769  0.126230  0.875895  1
  Bi  Bi9  1  0.126085  0.873552  0.249906  1
  Bi  Bi10  1  0.750727  0.375012  0.625043  1
  Bi  Bi11  1  0.872952  0.250464  0.125409  1
  Bi  Bi12  1  0.623242  0.749762  0.375022  1
  Bi  Bi13  1  0.375771  0.625159  0.750182  1
