# generated using pymatgen
data_PrZr(PaPt2)2
_symmetry_space_group_name_H-M   'P 1'
_cell_length_a   4.47226900
_cell_length_b   5.61728137
_cell_length_c   7.09516483
_cell_angle_alpha   93.01484804
_cell_angle_beta   90.00000000
_cell_angle_gamma   90.00000000
_symmetry_Int_Tables_number   1
_chemical_formula_structural   PrZr(PaPt2)2
_chemical_formula_sum   'Pr1 Zr1 Pa2 Pt4'
_cell_volume   177.99798207
_cell_formula_units_Z   1
loop_
 _symmetry_equiv_pos_site_id
 _symmetry_equiv_pos_as_xyz
  1  'x, y, z'
loop_
 _atom_site_type_symbol
 _atom_site_label
 _atom_site_symmetry_multiplicity
 _atom_site_fract_x
 _atom_site_fract_y
 _atom_site_fract_z
 _atom_site_occupancy
  Pr  Pr0  1  0.750000  0.845237  0.812969  1
  Zr  Zr1  1  0.750000  0.643674  0.323060  1
  Pa  Pa2  1  0.250000  0.359521  0.677676  1
  Pa  Pa3  1  0.250000  0.148153  0.183042  1
  Pt  Pt4  1  0.250000  0.839707  0.513549  1
  Pt  Pt5  1  0.250000  0.648880  0.085400  1
  Pt  Pt6  1  0.750000  0.177617  0.443903  1
  Pt  Pt7  1  0.750000  0.337211  0.960400  1
