# generated using pymatgen
data_LaCd3P6N13
_symmetry_space_group_name_H-M   'P 1'
_cell_length_a   7.35862888
_cell_length_b   7.33305546
_cell_length_c   7.33305700
_cell_angle_alpha   109.40046386
_cell_angle_beta   109.54189351
_cell_angle_gamma   109.54188578
_symmetry_Int_Tables_number   1
_chemical_formula_structural   LaCd3P6N13
_chemical_formula_sum   'La1 Cd3 P6 N13'
_cell_volume   304.34453088
_cell_formula_units_Z   1
loop_
 _symmetry_equiv_pos_site_id
 _symmetry_equiv_pos_as_xyz
  1  'x, y, z'
loop_
 _atom_site_type_symbol
 _atom_site_label
 _atom_site_symmetry_multiplicity
 _atom_site_fract_x
 _atom_site_fract_y
 _atom_site_fract_z
 _atom_site_occupancy
  La  La0  1  0.705817  0.000000  0.000000  1
  Cd  Cd1  1  0.005866  0.000000  0.700883  1
  Cd  Cd2  1  0.005866  0.700883  0.000000  1
  Cd  Cd3  1  0.304983  0.299117  0.299117  1
  P  P4  1  0.244769  0.748936  0.496230  1
  P  P5  1  0.748540  0.252706  0.503770  1
  P  P6  1  0.748540  0.503770  0.252706  1
  P  P7  1  0.244769  0.496230  0.748936  1
  P  P8  1  0.495833  0.747294  0.251064  1
  P  P9  1  0.495833  0.251064  0.747294  1
  N  N10  1  0.012534  0.000000  0.000000  1
  N  N11  1  0.715329  0.290683  0.290683  1
  N  N12  1  0.277678  0.709408  0.279555  1
  N  N13  1  0.296405  0.577662  0.577662  1
  N  N14  1  0.568269  0.570146  0.290592  1
  N  N15  1  0.424646  0.709317  0.000000  1
  N  N16  1  0.998123  0.720445  0.429854  1
  N  N17  1  0.568269  0.290592  0.570146  1
  N  N18  1  0.718742  0.000000  0.422338  1
  N  N19  1  0.424646  0.000000  0.709317  1
  N  N20  1  0.718742  0.422338  0.000000  1
  N  N21  1  0.277678  0.279555  0.709408  1
  N  N22  1  0.998123  0.429854  0.720445  1
