# generated using pymatgen
data_Nd4In2Cu3Pt
_symmetry_space_group_name_H-M   'P 1'
_cell_length_a   7.85999787
_cell_length_b   7.85999727
_cell_length_c   3.81030600
_cell_angle_alpha   90.00000000
_cell_angle_beta   90.00000000
_cell_angle_gamma   89.90371238
_symmetry_Int_Tables_number   1
_chemical_formula_structural   Nd4In2Cu3Pt
_chemical_formula_sum   'Nd4 In2 Cu3 Pt1'
_cell_volume   235.39870262
_cell_formula_units_Z   1
loop_
 _symmetry_equiv_pos_site_id
 _symmetry_equiv_pos_as_xyz
  1  'x, y, z'
loop_
 _atom_site_type_symbol
 _atom_site_label
 _atom_site_symmetry_multiplicity
 _atom_site_fract_x
 _atom_site_fract_y
 _atom_site_fract_z
 _atom_site_occupancy
  Nd  Nd0  1  0.679646  0.179646  0.000000  1
  Nd  Nd1  1  0.325490  0.825490  0.000000  1
  Nd  Nd2  1  0.171070  0.321079  0.000000  1
  Nd  Nd3  1  0.821079  0.671070  0.000000  1
  In  In4  1  0.494153  0.501034  0.500000  1
  In  In5  1  0.001034  0.994153  0.500000  1
  Cu  Cu6  1  0.124087  0.624087  0.500000  1
  Cu  Cu7  1  0.383019  0.117398  0.500000  1
  Cu  Cu8  1  0.617398  0.883019  0.500000  1
  Pt  Pt9  1  0.883023  0.383023  0.500000  1
