# generated using pymatgen
data_Yb3DyHo6(CuPb3)2
_symmetry_space_group_name_H-M   'P 1'
_cell_length_a   9.16607900
_cell_length_b   9.16627276
_cell_length_c   6.83176900
_cell_angle_alpha   90.00036465
_cell_angle_beta   89.99929771
_cell_angle_gamma   120.00000086
_symmetry_Int_Tables_number   1
_chemical_formula_structural   Yb3DyHo6(CuPb3)2
_chemical_formula_sum   'Yb3 Dy1 Ho6 Cu2 Pb6'
_cell_volume   497.09589136
_cell_formula_units_Z   1
loop_
 _symmetry_equiv_pos_site_id
 _symmetry_equiv_pos_as_xyz
  1  'x, y, z'
loop_
 _atom_site_type_symbol
 _atom_site_label
 _atom_site_symmetry_multiplicity
 _atom_site_fract_x
 _atom_site_fract_y
 _atom_site_fract_z
 _atom_site_occupancy
  Yb  Yb0  1  0.333337  0.666662  0.499995  1
  Yb  Yb1  1  0.666676  0.333338  0.499996  1
  Yb  Yb2  1  0.666676  0.333338  0.000003  1
  Dy  Dy3  1  0.253318  0.000084  0.748564  1
  Ho  Ho4  1  0.746777  0.000075  0.251437  1
  Ho  Ho5  1  0.999919  0.253223  0.748563  1
  Ho  Ho6  1  0.999921  0.746696  0.251435  1
  Ho  Ho7  1  0.746775  0.746702  0.748564  1
  Ho  Ho8  1  0.253299  0.253226  0.251434  1
  Ho  Ho9  1  0.333337  0.666660  0.000004  1
  Cu  Cu10  1  0.999977  0.000001  0.499985  1
  Cu  Cu11  1  0.999975  0.999999  0.000017  1
  Pb  Pb12  1  0.609271  0.998141  0.753166  1
  Pb  Pb13  1  0.388903  0.998143  0.246834  1
  Pb  Pb14  1  0.001830  0.611059  0.753167  1
  Pb  Pb15  1  0.001858  0.390761  0.246832  1
  Pb  Pb16  1  0.388911  0.390795  0.753169  1
  Pb  Pb17  1  0.609242  0.611098  0.246834  1
