# generated using pymatgen
data_NdPa(GePd)2
_symmetry_space_group_name_H-M   'P 1'
_cell_length_a   4.45332600
_cell_length_b   7.59586387
_cell_length_c   7.38031075
_cell_angle_alpha   90.16221421
_cell_angle_beta   90.00014251
_cell_angle_gamma   90.00001643
_symmetry_Int_Tables_number   1
_chemical_formula_structural   NdPa(GePd)2
_chemical_formula_sum   'Nd2 Pa2 Ge4 Pd4'
_cell_volume   249.65172339
_cell_formula_units_Z   2
loop_
 _symmetry_equiv_pos_site_id
 _symmetry_equiv_pos_as_xyz
  1  'x, y, z'
loop_
 _atom_site_type_symbol
 _atom_site_label
 _atom_site_symmetry_multiplicity
 _atom_site_fract_x
 _atom_site_fract_y
 _atom_site_fract_z
 _atom_site_occupancy
  Nd  Nd0  1  0.750002  0.220149  0.503267  1
  Nd  Nd1  1  0.250001  0.779858  0.496712  1
  Pa  Pa2  1  0.250001  0.717099  0.994733  1
  Pa  Pa3  1  0.749997  0.282841  0.005268  1
  Ge  Ge4  1  0.249997  0.412927  0.267559  1
  Ge  Ge5  1  0.750002  0.586993  0.732109  1
  Ge  Ge6  1  0.750002  0.909874  0.189937  1
  Ge  Ge7  1  0.249998  0.090292  0.809956  1
  Pd  Pd8  1  0.250002  0.080486  0.204839  1
  Pd  Pd9  1  0.749998  0.919575  0.795347  1
  Pd  Pd10  1  0.749999  0.578476  0.271627  1
  Pd  Pd11  1  0.250001  0.421429  0.728646  1
