# generated using pymatgen
data_Tb5Y3Pt4
_symmetry_space_group_name_H-M   'P 1'
_cell_length_a   4.76773700
_cell_length_b   7.20664518
_cell_length_c   8.87874153
_cell_angle_alpha   89.85033537
_cell_angle_beta   90.00000000
_cell_angle_gamma   90.00000000
_symmetry_Int_Tables_number   1
_chemical_formula_structural   Tb5Y3Pt4
_chemical_formula_sum   'Tb5 Y3 Pt4'
_cell_volume   305.06709219
_cell_formula_units_Z   1
loop_
 _symmetry_equiv_pos_site_id
 _symmetry_equiv_pos_as_xyz
  1  'x, y, z'
loop_
 _atom_site_type_symbol
 _atom_site_label
 _atom_site_symmetry_multiplicity
 _atom_site_fract_x
 _atom_site_fract_y
 _atom_site_fract_z
 _atom_site_occupancy
  Tb  Tb0  1  0.250000  0.854717  0.919330  1
  Tb  Tb1  1  0.250000  0.354412  0.580402  1
  Tb  Tb2  1  0.750000  0.145041  0.080113  1
  Tb  Tb3  1  0.750000  0.645607  0.419403  1
  Tb  Tb4  1  0.250000  0.990686  0.332566  1
  Y  Y5  1  0.250000  0.490320  0.167777  1
  Y  Y6  1  0.750000  0.009379  0.668565  1
  Y  Y7  1  0.750000  0.509496  0.832159  1
  Pt  Pt8  1  0.250000  0.257898  0.906436  1
  Pt  Pt9  1  0.250000  0.758891  0.593301  1
  Pt  Pt10  1  0.750000  0.741976  0.093574  1
  Pt  Pt11  1  0.750000  0.241577  0.406372  1
