# generated using pymatgen
data_Tb4Dy3Tm(WO6)4
_symmetry_space_group_name_H-M   'P 1'
_cell_length_a   5.41023585
_cell_length_b   7.72253790
_cell_length_c   11.46768269
_cell_angle_alpha   75.53990465
_cell_angle_beta   89.99891643
_cell_angle_gamma   89.93758454
_symmetry_Int_Tables_number   1
_chemical_formula_structural   Tb4Dy3Tm(WO6)4
_chemical_formula_sum   'Tb4 Dy3 Tm1 W4 O24'
_cell_volume   463.95017721
_cell_formula_units_Z   1
loop_
 _symmetry_equiv_pos_site_id
 _symmetry_equiv_pos_as_xyz
  1  'x, y, z'
loop_
 _atom_site_type_symbol
 _atom_site_label
 _atom_site_symmetry_multiplicity
 _atom_site_fract_x
 _atom_site_fract_y
 _atom_site_fract_z
 _atom_site_occupancy
  Tb  Tb0  1  0.741372  0.000346  0.749163  1
  Tb  Tb1  1  0.258823  0.000543  0.251075  1
  Tb  Tb2  1  0.683846  0.499762  0.749725  1
  Tb  Tb3  1  0.316644  0.499325  0.250841  1
  Dy  Dy4  1  0.183067  0.794219  0.577967  1
  Dy  Dy5  1  0.816221  0.793754  0.078237  1
  Dy  Dy6  1  0.183993  0.206252  0.921674  1
  Tm  Tm7  1  0.816662  0.207311  0.420977  1
  W  W8  1  0.255966  0.723483  0.885561  1
  W  W9  1  0.744000  0.723271  0.385591  1
  W  W10  1  0.256206  0.276190  0.613424  1
  W  W11  1  0.744570  0.276176  0.115172  1
  O  O12  1  0.046003  0.938975  0.896194  1
  O  O13  1  0.533463  0.845887  0.931199  1
  O  O14  1  0.950023  0.941544  0.396455  1
  O  O15  1  0.457173  0.790284  0.727385  1
  O  O16  1  0.464906  0.844373  0.431383  1
  O  O17  1  0.981440  0.710910  0.771975  1
  O  O18  1  0.542382  0.789517  0.227841  1
  O  O19  1  0.848472  0.634723  0.548399  1
  O  O20  1  0.360023  0.490430  0.885614  1
  O  O21  1  0.019278  0.711869  0.272603  1
  O  O22  1  0.359175  0.509040  0.613356  1
  O  O23  1  0.848372  0.365265  0.952032  1
  O  O24  1  0.151695  0.634248  0.048504  1
  O  O25  1  0.643146  0.489079  0.385860  1
  O  O26  1  0.982244  0.288964  0.727839  1
  O  O27  1  0.640000  0.509133  0.114527  1
  O  O28  1  0.147892  0.364181  0.450947  1
  O  O29  1  0.457454  0.209216  0.771680  1
  O  O30  1  0.017779  0.288476  0.229765  1
  O  O31  1  0.536391  0.156388  0.566345  1
  O  O32  1  0.545171  0.209157  0.274365  1
  O  O33  1  0.045728  0.061707  0.602581  1
  O  O34  1  0.466017  0.154801  0.069824  1
  O  O35  1  0.954403  0.061201  0.103922  1
