# generated using pymatgen
data_Hf5MgZr3(In2Co)7
_symmetry_space_group_name_H-M   'P 1'
_cell_length_a   9.40832042
_cell_length_b   9.40967481
_cell_length_c   9.41015791
_cell_angle_alpha   60.41369161
_cell_angle_beta   60.41446103
_cell_angle_gamma   60.42372676
_symmetry_Int_Tables_number   1
_chemical_formula_structural   Hf5MgZr3(In2Co)7
_chemical_formula_sum   'Hf5 Mg1 Zr3 In14 Co7'
_cell_volume   594.63072913
_cell_formula_units_Z   1
loop_
 _symmetry_equiv_pos_site_id
 _symmetry_equiv_pos_as_xyz
  1  'x, y, z'
loop_
 _atom_site_type_symbol
 _atom_site_label
 _atom_site_symmetry_multiplicity
 _atom_site_fract_x
 _atom_site_fract_y
 _atom_site_fract_z
 _atom_site_occupancy
  Hf  Hf0  1  0.118549  0.642443  0.118573  1
  Hf  Hf1  1  0.357514  0.880625  0.881782  1
  Hf  Hf2  1  0.879518  0.879332  0.880868  1
  Hf  Hf3  1  0.642295  0.117744  0.119048  1
  Hf  Hf4  1  0.880958  0.880991  0.357463  1
  Mg  Mg5  1  0.499934  0.499722  0.500177  1
  Zr  Zr6  1  0.122439  0.121048  0.122653  1
  Zr  Zr7  1  0.878808  0.362955  0.880054  1
  Zr  Zr8  1  0.120815  0.119509  0.636894  1
  In  In9  1  0.500261  0.841683  0.157862  1
  In  In10  1  0.500509  0.841845  0.500357  1
  In  In11  1  0.499916  0.157293  0.500098  1
  In  In12  1  0.499897  0.499860  0.842639  1
  In  In13  1  0.157818  0.499685  0.499749  1
  In  In14  1  0.841699  0.157384  0.500494  1
  In  In15  1  0.157676  0.841537  0.500397  1
  In  In16  1  0.500228  0.157497  0.842019  1
  In  In17  1  0.157981  0.499867  0.842269  1
  In  In18  1  0.499370  0.499538  0.158108  1
  In  In19  1  0.842149  0.500154  0.500162  1
  In  In20  1  0.841978  0.500024  0.158080  1
  In  In21  1  0.252862  0.253452  0.248500  1
  In  In22  1  0.748297  0.752635  0.747747  1
  Co  Co23  1  0.782452  0.782382  0.215970  1
  Co  Co24  1  0.999494  0.997690  0.001432  1
  Co  Co25  1  0.217292  0.783460  0.217355  1
  Co  Co26  1  0.215785  0.781672  0.783465  1
  Co  Co27  1  0.218312  0.216628  0.784193  1
  Co  Co28  1  0.781705  0.214925  0.783420  1
  Co  Co29  1  0.783487  0.216420  0.218174  1
