# generated using pymatgen
data_CeSb12Ru3Rh
_symmetry_space_group_name_H-M   'P 1'
_cell_length_a   8.13042550
_cell_length_b   8.14692734
_cell_length_c   8.12298592
_cell_angle_alpha   109.56695607
_cell_angle_beta   109.43318869
_cell_angle_gamma   109.47034825
_symmetry_Int_Tables_number   1
_chemical_formula_structural   CeSb12Ru3Rh
_chemical_formula_sum   'Ce1 Sb12 Ru3 Rh1'
_cell_volume   413.90004912
_cell_formula_units_Z   1
loop_
 _symmetry_equiv_pos_site_id
 _symmetry_equiv_pos_as_xyz
  1  'x, y, z'
loop_
 _atom_site_type_symbol
 _atom_site_label
 _atom_site_symmetry_multiplicity
 _atom_site_fract_x
 _atom_site_fract_y
 _atom_site_fract_z
 _atom_site_occupancy
  Ce  Ce0  1  0.000000  0.000000  0.000000  1
  Sb  Sb1  1  0.338882  0.180515  0.842129  1
  Sb  Sb2  1  0.661117  0.819485  0.157871  1
  Sb  Sb3  1  0.658978  0.503301  0.841820  1
  Sb  Sb4  1  0.341022  0.496699  0.158180  1
  Sb  Sb5  1  0.182626  0.844603  0.340812  1
  Sb  Sb6  1  0.817374  0.155397  0.659189  1
  Sb  Sb7  1  0.503805  0.841736  0.661597  1
  Sb  Sb8  1  0.496195  0.158264  0.338404  1
  Sb  Sb9  1  0.841658  0.338097  0.182373  1
  Sb  Sb10  1  0.158342  0.661902  0.817627  1
  Sb  Sb11  1  0.841957  0.662107  0.503607  1
  Sb  Sb12  1  0.158043  0.337893  0.496393  1
  Ru  Ru13  1  0.000000  0.000000  0.500000  1
  Ru  Ru14  1  0.500000  0.000000  0.000000  1
  Ru  Ru15  1  0.500000  0.500000  0.500000  1
  Rh  Rh16  1  0.000000  0.500000  0.000000  1
