# generated using pymatgen
data_HfSc7Si4(Pt5Rh2)2
_symmetry_space_group_name_H-M   'P 1'
_cell_length_a   4.01928300
_cell_length_b   6.50975577
_cell_length_c   16.22128131
_cell_angle_alpha   89.83504293
_cell_angle_beta   90.00000000
_cell_angle_gamma   90.00000000
_symmetry_Int_Tables_number   1
_chemical_formula_structural   HfSc7Si4(Pt5Rh2)2
_chemical_formula_sum   'Hf1 Sc7 Si4 Pt10 Rh4'
_cell_volume   424.42077844
_cell_formula_units_Z   1
loop_
 _symmetry_equiv_pos_site_id
 _symmetry_equiv_pos_as_xyz
  1  'x, y, z'
loop_
 _atom_site_type_symbol
 _atom_site_label
 _atom_site_symmetry_multiplicity
 _atom_site_fract_x
 _atom_site_fract_y
 _atom_site_fract_z
 _atom_site_occupancy
  Hf  Hf0  1  0.000000  0.283326  0.460918  1
  Sc  Sc1  1  0.000000  0.718414  0.540382  1
  Sc  Sc2  1  0.000000  0.781961  0.038512  1
  Sc  Sc3  1  0.000000  0.217972  0.961400  1
  Sc  Sc4  1  0.000000  0.529917  0.288261  1
  Sc  Sc5  1  0.000000  0.471113  0.710693  1
  Sc  Sc6  1  0.000000  0.027872  0.208652  1
  Sc  Sc7  1  0.000000  0.971063  0.791572  1
  Si  Si8  1  0.500000  0.841407  0.307810  1
  Si  Si9  1  0.500000  0.157300  0.692656  1
  Si  Si10  1  0.500000  0.340433  0.192189  1
  Si  Si11  1  0.500000  0.658603  0.807719  1
  Pt  Pt12  1  0.500000  0.595371  0.421006  1
  Pt  Pt13  1  0.500000  0.401245  0.578431  1
  Pt  Pt14  1  0.500000  0.097129  0.078454  1
  Pt  Pt15  1  0.500000  0.902373  0.921369  1
  Pt  Pt16  1  0.500000  0.499850  0.999898  1
  Pt  Pt17  1  0.500000  0.000787  0.499697  1
  Pt  Pt18  1  0.500000  0.213601  0.334049  1
  Pt  Pt19  1  0.500000  0.786630  0.666941  1
  Pt  Pt20  1  0.500000  0.712550  0.166967  1
  Pt  Pt21  1  0.500000  0.287339  0.833115  1
  Rh  Rh22  1  0.000000  0.908201  0.381840  1
  Rh  Rh23  1  0.000000  0.095772  0.617577  1
  Rh  Rh24  1  0.000000  0.404703  0.118712  1
  Rh  Rh25  1  0.000000  0.595071  0.881177  1
