# generated using pymatgen
data_Tb2Nd3Dy3(CdPt)2
_symmetry_space_group_name_H-M   'P 1'
_cell_length_a   9.80637127
_cell_length_b   9.80637140
_cell_length_c   9.80637100
_cell_angle_alpha   60.00000472
_cell_angle_beta   60.00000427
_cell_angle_gamma   60.00000135
_symmetry_Int_Tables_number   1
_chemical_formula_structural   Tb2Nd3Dy3(CdPt)2
_chemical_formula_sum   'Tb4 Nd6 Dy6 Cd4 Pt4'
_cell_volume   666.82216095
_cell_formula_units_Z   2
loop_
 _symmetry_equiv_pos_site_id
 _symmetry_equiv_pos_as_xyz
  1  'x, y, z'
loop_
 _atom_site_type_symbol
 _atom_site_label
 _atom_site_symmetry_multiplicity
 _atom_site_fract_x
 _atom_site_fract_y
 _atom_site_fract_z
 _atom_site_occupancy
  Tb  Tb0  1  0.350519  0.350519  0.350519  1
  Tb  Tb1  1  0.350519  0.350519  0.948443  1
  Tb  Tb2  1  0.350519  0.948443  0.350519  1
  Tb  Tb3  1  0.948443  0.350519  0.350519  1
  Nd  Nd4  1  0.937904  0.562096  0.562096  1
  Nd  Nd5  1  0.562096  0.937904  0.937904  1
  Nd  Nd6  1  0.562096  0.937904  0.562096  1
  Nd  Nd7  1  0.937904  0.562096  0.937904  1
  Nd  Nd8  1  0.562096  0.562096  0.937904  1
  Nd  Nd9  1  0.937904  0.937904  0.562096  1
  Dy  Dy10  1  0.811483  0.188517  0.188517  1
  Dy  Dy11  1  0.188517  0.811483  0.811483  1
  Dy  Dy12  1  0.188517  0.811483  0.188517  1
  Dy  Dy13  1  0.811483  0.188517  0.811483  1
  Dy  Dy14  1  0.188517  0.188517  0.811483  1
  Dy  Dy15  1  0.811483  0.811483  0.188517  1
  Cd  Cd16  1  0.579915  0.579915  0.579915  1
  Cd  Cd17  1  0.579915  0.579915  0.260256  1
  Cd  Cd18  1  0.579915  0.260256  0.579915  1
  Cd  Cd19  1  0.260256  0.579915  0.579915  1
  Pt  Pt20  1  0.142518  0.142518  0.142518  1
  Pt  Pt21  1  0.142518  0.142518  0.572445  1
  Pt  Pt22  1  0.142518  0.572445  0.142518  1
  Pt  Pt23  1  0.572445  0.142518  0.142518  1
