# generated using pymatgen
data_Er6Mn2Al24(CuRu)3
_symmetry_space_group_name_H-M   'P 1'
_cell_length_a   8.81230002
_cell_length_b   8.77005163
_cell_length_c   9.47947700
_cell_angle_alpha   90.16244619
_cell_angle_beta   90.00416115
_cell_angle_gamma   119.70000811
_symmetry_Int_Tables_number   1
_chemical_formula_structural   Er6Mn2Al24(CuRu)3
_chemical_formula_sum   'Er6 Mn2 Al24 Cu3 Ru3'
_cell_volume   636.36894112
_cell_formula_units_Z   1
loop_
 _symmetry_equiv_pos_site_id
 _symmetry_equiv_pos_as_xyz
  1  'x, y, z'
loop_
 _atom_site_type_symbol
 _atom_site_label
 _atom_site_symmetry_multiplicity
 _atom_site_fract_x
 _atom_site_fract_y
 _atom_site_fract_z
 _atom_site_occupancy
  Er  Er0  1  0.190180  0.386134  0.251505  1
  Er  Er1  1  0.809820  0.613866  0.748495  1
  Er  Er2  1  0.617205  0.809338  0.248213  1
  Er  Er3  1  0.382795  0.190662  0.751787  1
  Er  Er4  1  0.191504  0.803355  0.248849  1
  Er  Er5  1  0.808496  0.196645  0.751151  1
  Mn  Mn6  1  0.000000  0.000000  0.000000  1
  Mn  Mn7  1  0.000000  0.000000  0.500000  1
  Al  Al8  1  0.330579  0.664586  0.022903  1
  Al  Al9  1  0.669421  0.335414  0.977097  1
  Al  Al10  1  0.667593  0.331186  0.521464  1
  Al  Al11  1  0.332407  0.668814  0.478536  1
  Al  Al12  1  0.153943  0.317987  0.576515  1
  Al  Al13  1  0.846057  0.682013  0.423485  1
  Al  Al14  1  0.682890  0.847898  0.575416  1
  Al  Al15  1  0.845605  0.681848  0.077093  1
  Al  Al16  1  0.317110  0.152102  0.424584  1
  Al  Al17  1  0.154395  0.318152  0.922907  1
  Al  Al18  1  0.161421  0.839852  0.575149  1
  Al  Al19  1  0.315057  0.158126  0.079441  1
  Al  Al20  1  0.838579  0.160148  0.424851  1
  Al  Al21  1  0.684943  0.841874  0.920559  1
  Al  Al22  1  0.845752  0.164792  0.078934  1
  Al  Al23  1  0.154248  0.835208  0.921066  1
  Al  Al24  1  0.560834  0.123749  0.251273  1
  Al  Al25  1  0.439166  0.876251  0.748727  1
  Al  Al26  1  0.876887  0.438633  0.249455  1
  Al  Al27  1  0.123113  0.561367  0.750545  1
  Al  Al28  1  0.560650  0.438440  0.249830  1
  Al  Al29  1  0.439350  0.561560  0.750170  1
  Al  Al30  1  0.997925  0.000002  0.250589  1
  Al  Al31  1  0.002075  0.999998  0.749411  1
  Cu  Cu32  1  0.500000  0.000000  0.000000  1
  Cu  Cu33  1  0.500000  0.500000  0.000000  1
  Cu  Cu34  1  0.500000  0.500000  0.500000  1
  Ru  Ru35  1  0.000000  0.500000  0.000000  1
  Ru  Ru36  1  0.500000  0.000000  0.500000  1
  Ru  Ru37  1  0.000000  0.500000  0.500000  1
