# generated using pymatgen
data_ErTi(NbSe2)8
_symmetry_space_group_name_H-M   'P 1'
_cell_length_a   7.01056000
_cell_length_b   7.01055909
_cell_length_c   13.62125200
_cell_angle_alpha   90.00000000
_cell_angle_beta   90.00000000
_cell_angle_gamma   120.00000431
_symmetry_Int_Tables_number   1
_chemical_formula_structural   ErTi(NbSe2)8
_chemical_formula_sum   'Er1 Ti1 Nb8 Se16'
_cell_volume   579.76635006
_cell_formula_units_Z   1
loop_
 _symmetry_equiv_pos_site_id
 _symmetry_equiv_pos_as_xyz
  1  'x, y, z'
loop_
 _atom_site_type_symbol
 _atom_site_label
 _atom_site_symmetry_multiplicity
 _atom_site_fract_x
 _atom_site_fract_y
 _atom_site_fract_z
 _atom_site_occupancy
  Er  Er0  1  0.000000  0.000000  0.500000  1
  Ti  Ti1  1  0.000000  0.000000  0.000000  1
  Nb  Nb2  1  0.000000  0.000000  0.238341  1
  Nb  Nb3  1  0.000000  0.000000  0.761659  1
  Nb  Nb4  1  0.506565  0.493435  0.237674  1
  Nb  Nb5  1  0.506565  0.013131  0.237674  1
  Nb  Nb6  1  0.986869  0.493435  0.237674  1
  Nb  Nb7  1  0.493435  0.506565  0.762326  1
  Nb  Nb8  1  0.493435  0.986869  0.762326  1
  Nb  Nb9  1  0.013131  0.506565  0.762326  1
  Se  Se10  1  0.333333  0.666667  0.888411  1
  Se  Se11  1  0.666667  0.333333  0.111589  1
  Se  Se12  1  0.666667  0.333333  0.365199  1
  Se  Se13  1  0.333333  0.666667  0.634801  1
  Se  Se14  1  0.170036  0.829964  0.360671  1
  Se  Se15  1  0.170036  0.340073  0.360671  1
  Se  Se16  1  0.659927  0.829964  0.360671  1
  Se  Se17  1  0.829964  0.170036  0.639329  1
  Se  Se18  1  0.829964  0.659927  0.639329  1
  Se  Se19  1  0.340073  0.170036  0.639329  1
  Se  Se20  1  0.831892  0.168108  0.884746  1
  Se  Se21  1  0.831892  0.663784  0.884746  1
  Se  Se22  1  0.336216  0.168108  0.884746  1
  Se  Se23  1  0.168108  0.831892  0.115254  1
  Se  Se24  1  0.168108  0.336216  0.115254  1
  Se  Se25  1  0.663784  0.831892  0.115254  1
