# generated using pymatgen
data_Pr5Ho(CI5)2
_symmetry_space_group_name_H-M   'P 1'
_cell_length_a   7.93131584
_cell_length_b   9.74746810
_cell_length_c   9.82975027
_cell_angle_alpha   107.15645290
_cell_angle_beta   96.39562752
_cell_angle_gamma   104.41120968
_symmetry_Int_Tables_number   1
_chemical_formula_structural   Pr5Ho(CI5)2
_chemical_formula_sum   'Pr5 Ho1 C2 I10'
_cell_volume   689.11156736
_cell_formula_units_Z   1
loop_
 _symmetry_equiv_pos_site_id
 _symmetry_equiv_pos_as_xyz
  1  'x, y, z'
loop_
 _atom_site_type_symbol
 _atom_site_label
 _atom_site_symmetry_multiplicity
 _atom_site_fract_x
 _atom_site_fract_y
 _atom_site_fract_z
 _atom_site_occupancy
  Pr  Pr0  1  0.106455  0.039295  0.774503  1
  Pr  Pr1  1  0.373072  0.133178  0.179078  1
  Pr  Pr2  1  0.890569  0.959255  0.224424  1
  Pr  Pr3  1  0.030714  0.733395  0.922287  1
  Pr  Pr4  1  0.967461  0.266528  0.076922  1
  Ho  Ho5  1  0.633523  0.869480  0.824591  1
  C  C6  1  0.908426  0.969325  0.958079  1
  C  C7  1  0.083127  0.028490  0.038970  1
  I  I8  1  0.208193  0.737254  0.648483  1
  I  I9  1  0.088824  0.370886  0.818237  1
  I  I10  1  0.460072  0.807241  0.083309  1
  I  I11  1  0.253327  0.083961  0.461951  1
  I  I12  1  0.545445  0.181522  0.901710  1
  I  I13  1  0.807737  0.267218  0.358647  1
  I  I14  1  0.345079  0.458063  0.273171  1
  I  I15  1  0.911571  0.629306  0.181556  1
  I  I16  1  0.649400  0.553015  0.727451  1
  I  I17  1  0.737004  0.912588  0.546630  1
