# generated using pymatgen
data_Tm3Al3SiPdPt
_symmetry_space_group_name_H-M   'P 1'
_cell_length_a   6.95764400
_cell_length_b   6.95764411
_cell_length_c   4.13242800
_cell_angle_alpha   90.00000000
_cell_angle_beta   90.00000000
_cell_angle_gamma   120.00000900
_symmetry_Int_Tables_number   1
_chemical_formula_structural   Tm3Al3SiPdPt
_chemical_formula_sum   'Tm3 Al3 Si1 Pd1 Pt1'
_cell_volume   173.24483732
_cell_formula_units_Z   1
loop_
 _symmetry_equiv_pos_site_id
 _symmetry_equiv_pos_as_xyz
  1  'x, y, z'
loop_
 _atom_site_type_symbol
 _atom_site_label
 _atom_site_symmetry_multiplicity
 _atom_site_fract_x
 _atom_site_fract_y
 _atom_site_fract_z
 _atom_site_occupancy
  Tm  Tm0  1  0.417434  0.420336  0.500000  1
  Tm  Tm1  1  0.579664  0.997098  0.500000  1
  Tm  Tm2  1  0.002902  0.582566  0.500000  1
  Al  Al3  1  0.009257  0.245701  0.000000  1
  Al  Al4  1  0.754299  0.763555  0.000000  1
  Al  Al5  1  0.236445  0.990743  0.000000  1
  Si  Si6  1  0.666667  0.333333  0.000000  1
  Pd  Pd7  1  0.000000  0.000000  0.500000  1
  Pt  Pt8  1  0.333333  0.666667  0.000000  1
