# generated using pymatgen
data_Ac8Nd9Ho3Sn16
_symmetry_space_group_name_H-M   'P 1'
_cell_length_a   8.35308600
_cell_length_b   8.41888936
_cell_length_c   16.13059000
_cell_angle_alpha   90.00000000
_cell_angle_beta   90.00000000
_cell_angle_gamma   90.21515344
_symmetry_Int_Tables_number   1
_chemical_formula_structural   Ac8Nd9Ho3Sn16
_chemical_formula_sum   'Ac8 Nd9 Ho3 Sn16'
_cell_volume   1134.35488428
_cell_formula_units_Z   1
loop_
 _symmetry_equiv_pos_site_id
 _symmetry_equiv_pos_as_xyz
  1  'x, y, z'
loop_
 _atom_site_type_symbol
 _atom_site_label
 _atom_site_symmetry_multiplicity
 _atom_site_fract_x
 _atom_site_fract_y
 _atom_site_fract_z
 _atom_site_occupancy
  Ac  Ac0  1  0.987870  0.821519  0.903197  1
  Ac  Ac1  1  0.488034  0.677884  0.596205  1
  Ac  Ac2  1  0.511422  0.322383  0.094722  1
  Ac  Ac3  1  0.011691  0.179364  0.404943  1
  Ac  Ac4  1  0.987870  0.821519  0.596803  1
  Ac  Ac5  1  0.488034  0.677884  0.903795  1
  Ac  Ac6  1  0.511422  0.322383  0.405278  1
  Ac  Ac7  1  0.011691  0.179364  0.095057  1
  Nd  Nd8  1  0.857287  0.663407  0.379193  1
  Nd  Nd9  1  0.356320  0.837027  0.121595  1
  Nd  Nd10  1  0.643820  0.161499  0.623936  1
  Nd  Nd11  1  0.143268  0.337905  0.877103  1
  Nd  Nd12  1  0.143268  0.337905  0.622897  1
  Nd  Nd13  1  0.643820  0.161499  0.876064  1
  Nd  Nd14  1  0.356320  0.837027  0.378405  1
  Nd  Nd15  1  0.857287  0.663407  0.120807  1
  Nd  Nd16  1  0.691240  0.998436  0.250000  1
  Ho  Ho17  1  0.308518  0.002299  0.750000  1
  Ho  Ho18  1  0.808163  0.497384  0.750000  1
  Ho  Ho19  1  0.191211  0.502716  0.250000  1
  Sn  Sn20  1  0.807748  0.458331  0.545825  1
  Sn  Sn21  1  0.307808  0.041804  0.954600  1
  Sn  Sn22  1  0.691750  0.958472  0.458004  1
  Sn  Sn23  1  0.191668  0.540812  0.044068  1
  Sn  Sn24  1  0.191668  0.540812  0.455932  1
  Sn  Sn25  1  0.691750  0.958472  0.041996  1
  Sn  Sn26  1  0.307808  0.041804  0.545400  1
  Sn  Sn27  1  0.807748  0.458331  0.954175  1
  Sn  Sn28  1  0.183809  0.640515  0.750000  1
  Sn  Sn29  1  0.682535  0.857523  0.750000  1
  Sn  Sn30  1  0.314749  0.140147  0.250000  1
  Sn  Sn31  1  0.817435  0.365463  0.250000  1
  Sn  Sn32  1  0.946002  0.124013  0.750000  1
  Sn  Sn33  1  0.444873  0.374606  0.750000  1
  Sn  Sn34  1  0.554554  0.622975  0.250000  1
  Sn  Sn35  1  0.059539  0.873109  0.250000  1
