# generated using pymatgen
data_PrMnSbO6
_symmetry_space_group_name_H-M   'P 1'
_cell_length_a   5.19097754
_cell_length_b   5.19129170
_cell_length_c   5.18086240
_cell_angle_alpha   89.99890983
_cell_angle_beta   90.00378104
_cell_angle_gamma   120.04427342
_symmetry_Int_Tables_number   1
_chemical_formula_structural   PrMnSbO6
_chemical_formula_sum   'Pr1 Mn1 Sb1 O6'
_cell_volume   120.85464517
_cell_formula_units_Z   1
loop_
 _symmetry_equiv_pos_site_id
 _symmetry_equiv_pos_as_xyz
  1  'x, y, z'
loop_
 _atom_site_type_symbol
 _atom_site_label
 _atom_site_symmetry_multiplicity
 _atom_site_fract_x
 _atom_site_fract_y
 _atom_site_fract_z
 _atom_site_occupancy
  Pr  Pr0  1  0.482567  0.517401  0.499999  1
  Mn  Mn1  1  0.816229  0.183982  0.999988  1
  Sb  Sb2  1  0.149294  0.850730  0.000004  1
  O  O3  1  0.107234  0.152369  0.211529  1
  O  O4  1  0.492644  0.893977  0.212055  1
  O  O5  1  0.848931  0.508323  0.212007  1
  O  O6  1  0.491648  0.151036  0.788006  1
  O  O7  1  0.105993  0.507305  0.787917  1
  O  O8  1  0.847615  0.892740  0.788466  1
