# generated using pymatgen
data_Lu2AgPt5
_symmetry_space_group_name_H-M   'P 1'
_cell_length_a   5.77859528
_cell_length_b   5.77859469
_cell_length_c   5.84429800
_cell_angle_alpha   59.62314979
_cell_angle_beta   59.62315326
_cell_angle_gamma   60.75367364
_symmetry_Int_Tables_number   1
_chemical_formula_structural   Lu2AgPt5
_chemical_formula_sum   'Lu2 Ag1 Pt5'
_cell_volume   137.95841269
_cell_formula_units_Z   1
loop_
 _symmetry_equiv_pos_site_id
 _symmetry_equiv_pos_as_xyz
  1  'x, y, z'
loop_
 _atom_site_type_symbol
 _atom_site_label
 _atom_site_symmetry_multiplicity
 _atom_site_fract_x
 _atom_site_fract_y
 _atom_site_fract_z
 _atom_site_occupancy
  Lu  Lu0  1  0.000000  0.000000  0.500000  1
  Lu  Lu1  1  0.500000  0.500000  0.000000  1
  Ag  Ag2  1  0.500000  0.500000  0.500000  1
  Pt  Pt3  1  0.000000  0.000000  0.000000  1
  Pt  Pt4  1  0.000000  0.500000  0.000000  1
  Pt  Pt5  1  0.500000  0.000000  0.000000  1
  Pt  Pt6  1  0.000000  0.500000  0.500000  1
  Pt  Pt7  1  0.500000  0.000000  0.500000  1
