# generated using pymatgen
data_SmP12Os3Rh
_symmetry_space_group_name_H-M   'P 1'
_cell_length_a   7.02893380
_cell_length_b   7.04498358
_cell_length_c   7.02893310
_cell_angle_alpha   109.51747541
_cell_angle_beta   109.42491768
_cell_angle_gamma   109.51748577
_symmetry_Int_Tables_number   1
_chemical_formula_structural   SmP12Os3Rh
_chemical_formula_sum   'Sm1 P12 Os3 Rh1'
_cell_volume   267.78652155
_cell_formula_units_Z   1
loop_
 _symmetry_equiv_pos_site_id
 _symmetry_equiv_pos_as_xyz
  1  'x, y, z'
loop_
 _atom_site_type_symbol
 _atom_site_label
 _atom_site_symmetry_multiplicity
 _atom_site_fract_x
 _atom_site_fract_y
 _atom_site_fract_z
 _atom_site_occupancy
  Sm  Sm0  1  0.000000  0.000000  0.000000  1
  P  P1  1  0.857459  0.645358  0.502296  1
  P  P2  1  0.142541  0.354642  0.497704  1
  P  P3  1  0.143441  0.645788  0.786001  1
  P  P4  1  0.856559  0.354212  0.213999  1
  P  P5  1  0.642560  0.502347  0.856559  1
  P  P6  1  0.357440  0.497653  0.143441  1
  P  P7  1  0.644837  0.787898  0.142541  1
  P  P8  1  0.355163  0.212102  0.857459  1
  P  P9  1  0.502296  0.856939  0.644837  1
  P  P10  1  0.497704  0.143061  0.355163  1
  P  P11  1  0.786001  0.140213  0.642560  1
  P  P12  1  0.213999  0.859787  0.357440  1
  Os  Os13  1  0.500000  0.500000  0.500000  1
  Os  Os14  1  0.500000  0.000000  0.000000  1
  Os  Os15  1  0.000000  0.000000  0.500000  1
  Rh  Rh16  1  0.000000  0.500000  0.000000  1
