# generated using pymatgen
data_Li4CoNi8As7Ru
_symmetry_space_group_name_H-M   'P 1'
_cell_length_a   9.39837435
_cell_length_b   9.42570015
_cell_length_c   3.73568100
_cell_angle_alpha   90.00000000
_cell_angle_beta   90.00000000
_cell_angle_gamma   120.13154410
_symmetry_Int_Tables_number   1
_chemical_formula_structural   Li4CoNi8As7Ru
_chemical_formula_sum   'Li4 Co1 Ni8 As7 Ru1'
_cell_volume   286.21314688
_cell_formula_units_Z   1
loop_
 _symmetry_equiv_pos_site_id
 _symmetry_equiv_pos_as_xyz
  1  'x, y, z'
loop_
 _atom_site_type_symbol
 _atom_site_label
 _atom_site_symmetry_multiplicity
 _atom_site_fract_x
 _atom_site_fract_y
 _atom_site_fract_z
 _atom_site_occupancy
  Li  Li0  1  0.444431  0.214848  0.500000  1
  Li  Li1  1  0.789629  0.234582  0.500000  1
  Li  Li2  1  0.334510  0.671376  0.000000  1
  Li  Li3  1  0.998755  0.001589  0.500000  1
  Co  Co4  1  0.497093  0.451565  0.000000  1
  Ni  Ni5  1  0.278854  0.374550  0.500000  1
  Ni  Ni6  1  0.622757  0.900880  0.500000  1
  Ni  Ni7  1  0.101676  0.719821  0.500000  1
  Ni  Ni8  1  0.550347  0.052478  0.000000  1
  Ni  Ni9  1  0.954981  0.499310  0.000000  1
  Ni  Ni10  1  0.720399  0.762243  0.000000  1
  Ni  Ni11  1  0.236017  0.953461  0.000000  1
  Ni  Ni12  1  0.046394  0.284260  0.000000  1
  As  As13  1  0.959221  0.752151  0.000000  1
  As  As14  1  0.243008  0.204994  0.000000  1
  As  As15  1  0.795029  0.036819  0.000000  1
  As  As16  1  0.667773  0.341841  0.000000  1
  As  As17  1  0.538189  0.619961  0.500000  1
  As  As18  1  0.377512  0.915918  0.500000  1
  As  As19  1  0.088593  0.463943  0.500000  1
  Ru  Ru20  1  0.754834  0.543407  0.500000  1
