# generated using pymatgen
data_La3Nd2In3Br
_symmetry_space_group_name_H-M   'P 1'
_cell_length_a   9.75001200
_cell_length_b   9.75001243
_cell_length_c   6.88726700
_cell_angle_alpha   90.00000000
_cell_angle_beta   90.00000000
_cell_angle_gamma   120.00000532
_symmetry_Int_Tables_number   1
_chemical_formula_structural   La3Nd2In3Br
_chemical_formula_sum   'La6 Nd4 In6 Br2'
_cell_volume   567.00625219
_cell_formula_units_Z   2
loop_
 _symmetry_equiv_pos_site_id
 _symmetry_equiv_pos_as_xyz
  1  'x, y, z'
loop_
 _atom_site_type_symbol
 _atom_site_label
 _atom_site_symmetry_multiplicity
 _atom_site_fract_x
 _atom_site_fract_y
 _atom_site_fract_z
 _atom_site_occupancy
  La  La0  1  0.733886  0.733886  0.250000  1
  La  La1  1  0.000000  0.733886  0.750000  1
  La  La2  1  0.733886  0.000000  0.750000  1
  La  La3  1  0.266114  0.266114  0.750000  1
  La  La4  1  0.000000  0.266114  0.250000  1
  La  La5  1  0.266114  0.000000  0.250000  1
  Nd  Nd6  1  0.333333  0.666667  0.500000  1
  Nd  Nd7  1  0.666667  0.333333  0.500000  1
  Nd  Nd8  1  0.333333  0.666667  0.000000  1
  Nd  Nd9  1  0.666667  0.333333  0.000000  1
  In  In10  1  0.391825  0.000000  0.750000  1
  In  In11  1  0.000000  0.608175  0.250000  1
  In  In12  1  0.608175  0.000000  0.250000  1
  In  In13  1  0.000000  0.391825  0.750000  1
  In  In14  1  0.391825  0.391825  0.250000  1
  In  In15  1  0.608175  0.608175  0.750000  1
  Br  Br16  1  0.000000  0.000000  0.500000  1
  Br  Br17  1  0.000000  0.000000  0.000000  1
