# generated using pymatgen
data_Er8Lu12(Ir3Os)3
_symmetry_space_group_name_H-M   'P 1'
_cell_length_a   10.67303600
_cell_length_b   10.67303600
_cell_length_c   6.30729200
_cell_angle_alpha   90.00000000
_cell_angle_beta   90.00000000
_cell_angle_gamma   90.00000000
_symmetry_Int_Tables_number   1
_chemical_formula_structural   Er8Lu12(Ir3Os)3
_chemical_formula_sum   'Er8 Lu12 Ir9 Os3'
_cell_volume   718.48695266
_cell_formula_units_Z   1
loop_
 _symmetry_equiv_pos_site_id
 _symmetry_equiv_pos_as_xyz
  1  'x, y, z'
loop_
 _atom_site_type_symbol
 _atom_site_label
 _atom_site_symmetry_multiplicity
 _atom_site_fract_x
 _atom_site_fract_y
 _atom_site_fract_z
 _atom_site_occupancy
  Er  Er0  1  0.209535  0.412695  0.625850  1
  Er  Er1  1  0.208981  0.587503  0.121532  1
  Er  Er2  1  0.791019  0.412497  0.121532  1
  Er  Er3  1  0.790465  0.587305  0.625850  1
  Er  Er4  1  0.912497  0.708981  0.121532  1
  Er  Er5  1  0.912695  0.290465  0.625850  1
  Er  Er6  1  0.087305  0.709535  0.625850  1
  Er  Er7  1  0.087503  0.291019  0.121532  1
  Lu  Lu8  1  0.294783  0.085237  0.377205  1
  Lu  Lu9  1  0.294808  0.915084  0.877532  1
  Lu  Lu10  1  0.705192  0.084916  0.877532  1
  Lu  Lu11  1  0.705217  0.914763  0.377205  1
  Lu  Lu12  1  0.584916  0.794808  0.877532  1
  Lu  Lu13  1  0.585237  0.205217  0.377205  1
  Lu  Lu14  1  0.414763  0.794783  0.377205  1
  Lu  Lu15  1  0.415084  0.205192  0.877532  1
  Lu  Lu16  1  0.000000  0.000000  0.498391  1
  Lu  Lu17  1  0.000000  0.000000  0.998599  1
  Lu  Lu18  1  0.500000  0.500000  0.998599  1
  Lu  Lu19  1  0.500000  0.500000  0.498391  1
  Ir  Ir20  1  0.847370  0.151392  0.249095  1
  Ir  Ir21  1  0.846976  0.849026  0.748592  1
  Ir  Ir22  1  0.153024  0.150974  0.748592  1
  Ir  Ir23  1  0.152630  0.848608  0.249095  1
  Ir  Ir24  1  0.650974  0.346976  0.748592  1
  Ir  Ir25  1  0.651392  0.652630  0.249095  1
  Ir  Ir26  1  0.348608  0.347370  0.249095  1
  Ir  Ir27  1  0.349026  0.653024  0.748592  1
  Ir  Ir28  1  0.000000  0.500000  0.378589  1
  Os  Os29  1  0.500000  0.000000  0.125887  1
  Os  Os30  1  0.500000  0.000000  0.625668  1
  Os  Os31  1  0.000000  0.500000  0.876653  1
