# generated using pymatgen
data_Er3In4NiRu
_symmetry_space_group_name_H-M   'P 1'
_cell_length_a   7.91576400
_cell_length_b   7.91576388
_cell_length_c   3.65920400
_cell_angle_alpha   90.00000000
_cell_angle_beta   90.00000000
_cell_angle_gamma   120.00000885
_symmetry_Int_Tables_number   1
_chemical_formula_structural   Er3In4NiRu
_chemical_formula_sum   'Er3 In4 Ni1 Ru1'
_cell_volume   198.56508401
_cell_formula_units_Z   1
loop_
 _symmetry_equiv_pos_site_id
 _symmetry_equiv_pos_as_xyz
  1  'x, y, z'
loop_
 _atom_site_type_symbol
 _atom_site_label
 _atom_site_symmetry_multiplicity
 _atom_site_fract_x
 _atom_site_fract_y
 _atom_site_fract_z
 _atom_site_occupancy
  Er  Er0  1  0.705563  0.952026  0.500000  1
  Er  Er1  1  0.246463  0.294437  0.500000  1
  Er  Er2  1  0.047974  0.753537  0.500000  1
  In  In3  1  0.917650  0.333806  0.000000  1
  In  In4  1  0.416157  0.082350  0.000000  1
  In  In5  1  0.666194  0.583843  0.000000  1
  In  In6  1  0.333333  0.666667  0.000000  1
  Ni  Ni7  1  0.666667  0.333333  0.500000  1
  Ru  Ru8  1  0.000000  0.000000  0.000000  1
