# generated using pymatgen
data_Tb7Ho5ZnCo4Bi
_symmetry_space_group_name_H-M   'P 1'
_cell_length_a   8.39472547
_cell_length_b   8.39472669
_cell_length_c   8.39337747
_cell_angle_alpha   111.97957048
_cell_angle_beta   108.67298272
_cell_angle_gamma   107.79844762
_symmetry_Int_Tables_number   1
_chemical_formula_structural   Tb7Ho5ZnCo4Bi
_chemical_formula_sum   'Tb7 Ho5 Zn1 Co4 Bi1'
_cell_volume   454.61178014
_cell_formula_units_Z   1
loop_
 _symmetry_equiv_pos_site_id
 _symmetry_equiv_pos_as_xyz
  1  'x, y, z'
loop_
 _atom_site_type_symbol
 _atom_site_label
 _atom_site_symmetry_multiplicity
 _atom_site_fract_x
 _atom_site_fract_y
 _atom_site_fract_z
 _atom_site_occupancy
  Tb  Tb0  1  0.428798  0.225510  0.202595  1
  Tb  Tb1  1  0.572458  0.775273  0.797764  1
  Tb  Tb2  1  0.022491  0.225306  0.797764  1
  Tb  Tb3  1  0.977085  0.773797  0.202595  1
  Tb  Tb4  1  0.178756  0.282601  0.461355  1
  Tb  Tb5  1  0.820719  0.717225  0.537946  1
  Tb  Tb6  1  0.179278  0.717361  0.896639  1
  Ho  Ho7  1  0.820953  0.282591  0.103545  1
  Ho  Ho8  1  0.322640  0.638156  0.315339  1
  Ho  Ho9  1  0.677181  0.361137  0.684991  1
  Ho  Ho10  1  0.323854  0.007809  0.684991  1
  Ho  Ho11  1  0.677183  0.992699  0.315339  1
  Zn  Zn12  1  0.999952  0.000854  0.000806  1
  Co  Co13  1  0.347972  0.000075  0.348047  1
  Co  Co14  1  0.652230  0.000857  0.653086  1
  Co  Co15  1  0.113330  0.613367  0.498611  1
  Co  Co16  1  0.885246  0.385281  0.498611  1
  Bi  Bi17  1  0.499874  0.500102  0.999975  1
