# generated using pymatgen
data_Cs3Gd2Br9
_symmetry_space_group_name_H-M   'P 1'
_cell_length_a   10.52146274
_cell_length_b   10.52146274
_cell_length_c   10.52146326
_cell_angle_alpha   83.63242643
_cell_angle_beta   83.63243102
_cell_angle_gamma   83.63243184
_symmetry_Int_Tables_number   1
_chemical_formula_structural   Cs3Gd2Br9
_chemical_formula_sum   'Cs6 Gd4 Br18'
_cell_volume   1144.66446529
_cell_formula_units_Z   2
loop_
 _symmetry_equiv_pos_site_id
 _symmetry_equiv_pos_as_xyz
  1  'x, y, z'
loop_
 _atom_site_type_symbol
 _atom_site_label
 _atom_site_symmetry_multiplicity
 _atom_site_fract_x
 _atom_site_fract_y
 _atom_site_fract_z
 _atom_site_occupancy
  Cs  Cs0  1  0.588670  0.911330  0.250000  1
  Cs  Cs1  1  0.250000  0.588670  0.911330  1
  Cs  Cs2  1  0.911330  0.250000  0.588670  1
  Cs  Cs3  1  0.750000  0.411330  0.088670  1
  Cs  Cs4  1  0.088670  0.750000  0.411330  1
  Cs  Cs5  1  0.411330  0.088670  0.750000  1
  Gd  Gd6  1  0.849324  0.849324  0.849324  1
  Gd  Gd7  1  0.349324  0.349324  0.349324  1
  Gd  Gd8  1  0.150676  0.150676  0.150676  1
  Gd  Gd9  1  0.650676  0.650676  0.650676  1
  Br  Br10  1  0.095427  0.404573  0.250000  1
  Br  Br11  1  0.250000  0.095427  0.404573  1
  Br  Br12  1  0.404573  0.250000  0.095427  1
  Br  Br13  1  0.750000  0.904573  0.595427  1
  Br  Br14  1  0.595427  0.750000  0.904573  1
  Br  Br15  1  0.904573  0.595427  0.750000  1
  Br  Br16  1  0.235262  0.417660  0.583574  1
  Br  Br17  1  0.583574  0.235262  0.417660  1
  Br  Br18  1  0.417660  0.583574  0.235262  1
  Br  Br19  1  0.083574  0.917660  0.735262  1
  Br  Br20  1  0.735262  0.083574  0.917660  1
  Br  Br21  1  0.917660  0.735262  0.083574  1
  Br  Br22  1  0.764738  0.582340  0.416426  1
  Br  Br23  1  0.416426  0.764738  0.582340  1
  Br  Br24  1  0.582340  0.416426  0.764738  1
  Br  Br25  1  0.916426  0.082340  0.264738  1
  Br  Br26  1  0.264738  0.916426  0.082340  1
  Br  Br27  1  0.082340  0.264738  0.916426  1
