# generated using pymatgen
data_Hf4BeAs
_symmetry_space_group_name_H-M   'P 1'
_cell_length_a   5.30118011
_cell_length_b   5.30118065
_cell_length_c   5.30118094
_cell_angle_alpha   103.87648914
_cell_angle_beta   103.87647178
_cell_angle_gamma   121.35513283
_symmetry_Int_Tables_number   1
_chemical_formula_structural   Hf4BeAs
_chemical_formula_sum   'Hf4 Be1 As1'
_cell_volume   110.92004537
_cell_formula_units_Z   1
loop_
 _symmetry_equiv_pos_site_id
 _symmetry_equiv_pos_as_xyz
  1  'x, y, z'
loop_
 _atom_site_type_symbol
 _atom_site_label
 _atom_site_symmetry_multiplicity
 _atom_site_fract_x
 _atom_site_fract_y
 _atom_site_fract_z
 _atom_site_occupancy
  Hf  Hf0  1  0.655514  0.155514  0.811027  1
  Hf  Hf1  1  0.844486  0.655514  0.500000  1
  Hf  Hf2  1  0.155514  0.344486  0.500000  1
  Hf  Hf3  1  0.344486  0.844486  0.188973  1
  Be  Be4  1  0.250000  0.250000  0.000000  1
  As  As5  1  0.750000  0.750000  0.000000  1
