# generated using pymatgen
data_NbV(B2W)2
_symmetry_space_group_name_H-M   'P 1'
_cell_length_a   3.09252900
_cell_length_b   3.18866200
_cell_length_c   8.46504000
_cell_angle_alpha   90.00000000
_cell_angle_beta   90.00000000
_cell_angle_gamma   90.00000000
_symmetry_Int_Tables_number   1
_chemical_formula_structural   NbV(B2W)2
_chemical_formula_sum   'Nb1 V1 B4 W2'
_cell_volume   83.47401090
_cell_formula_units_Z   1
loop_
 _symmetry_equiv_pos_site_id
 _symmetry_equiv_pos_as_xyz
  1  'x, y, z'
loop_
 _atom_site_type_symbol
 _atom_site_label
 _atom_site_symmetry_multiplicity
 _atom_site_fract_x
 _atom_site_fract_y
 _atom_site_fract_z
 _atom_site_occupancy
  Nb  Nb0  1  0.000000  0.000000  0.145856  1
  V  V1  1  0.000000  0.500000  0.645412  1
  B  B2  1  0.000000  0.000000  0.449371  1
  B  B3  1  0.000000  0.500000  0.930427  1
  B  B4  1  0.500000  0.500000  0.050747  1
  B  B5  1  0.500000  0.000000  0.568908  1
  W  W6  1  0.500000  0.500000  0.363861  1
  W  W7  1  0.500000  0.000000  0.845420  1
