# generated using pymatgen
data_DyTm5Al24CuOs7
_symmetry_space_group_name_H-M   'P 1'
_cell_length_a   8.80320109
_cell_length_b   8.79806471
_cell_length_c   9.50916317
_cell_angle_alpha   89.65643567
_cell_angle_beta   90.32380856
_cell_angle_gamma   119.83534607
_symmetry_Int_Tables_number   1
_chemical_formula_structural   DyTm5Al24CuOs7
_chemical_formula_sum   'Dy1 Tm5 Al24 Cu1 Os7'
_cell_volume   638.86488812
_cell_formula_units_Z   1
loop_
 _symmetry_equiv_pos_site_id
 _symmetry_equiv_pos_as_xyz
  1  'x, y, z'
loop_
 _atom_site_type_symbol
 _atom_site_label
 _atom_site_symmetry_multiplicity
 _atom_site_fract_x
 _atom_site_fract_y
 _atom_site_fract_z
 _atom_site_occupancy
  Dy  Dy0  1  0.190968  0.385665  0.248909  1
  Tm  Tm1  1  0.808324  0.611861  0.750441  1
  Tm  Tm2  1  0.611729  0.808451  0.249621  1
  Tm  Tm3  1  0.388119  0.191634  0.750354  1
  Tm  Tm4  1  0.196035  0.804197  0.252704  1
  Tm  Tm5  1  0.804241  0.196210  0.747241  1
  Al  Al6  1  0.332515  0.667659  0.022043  1
  Al  Al7  1  0.667237  0.332770  0.977178  1
  Al  Al8  1  0.666324  0.334060  0.518670  1
  Al  Al9  1  0.333966  0.666244  0.481795  1
  Al  Al10  1  0.163830  0.326039  0.576082  1
  Al  Al11  1  0.836360  0.674167  0.424803  1
  Al  Al12  1  0.674327  0.836421  0.575754  1
  Al  Al13  1  0.843287  0.675849  0.079528  1
  Al  Al14  1  0.326176  0.163413  0.424762  1
  Al  Al15  1  0.156687  0.324412  0.919528  1
  Al  Al16  1  0.163163  0.837073  0.576332  1
  Al  Al17  1  0.324429  0.156439  0.079498  1
  Al  Al18  1  0.836562  0.162972  0.424078  1
  Al  Al19  1  0.675917  0.843412  0.920085  1
  Al  Al20  1  0.835801  0.163456  0.075202  1
  Al  Al21  1  0.163612  0.836586  0.924174  1
  Al  Al22  1  0.561197  0.121269  0.249108  1
  Al  Al23  1  0.438840  0.878777  0.750931  1
  Al  Al24  1  0.878269  0.439004  0.249049  1
  Al  Al25  1  0.121389  0.561481  0.750789  1
  Al  Al26  1  0.562013  0.439073  0.249922  1
  Al  Al27  1  0.439057  0.561243  0.750614  1
  Al  Al28  1  0.998408  0.998553  0.250352  1
  Al  Al29  1  0.000526  0.999468  0.749712  1
  Cu  Cu30  1  0.499998  0.500172  0.000246  1
  Os  Os31  1  0.500127  0.000164  0.999905  1
  Os  Os32  1  0.999480  0.500270  0.999374  1
  Os  Os33  1  0.500255  0.000231  0.500152  1
  Os  Os34  1  0.999875  0.500291  0.500335  1
  Os  Os35  1  0.500598  0.500248  0.500615  1
  Os  Os36  1  0.000177  0.000487  0.000078  1
  Os  Os37  1  0.000177  0.000280  0.500037  1
