# generated using pymatgen
data_Dy3ThHgIr
_symmetry_space_group_name_H-M   'P 1'
_cell_length_a   9.74602095
_cell_length_b   9.74602092
_cell_length_c   9.74602200
_cell_angle_alpha   60.00000311
_cell_angle_beta   60.00000322
_cell_angle_gamma   60.00000204
_symmetry_Int_Tables_number   1
_chemical_formula_structural   Dy3ThHgIr
_chemical_formula_sum   'Dy12 Th4 Hg4 Ir4'
_cell_volume   654.58657877
_cell_formula_units_Z   4
loop_
 _symmetry_equiv_pos_site_id
 _symmetry_equiv_pos_as_xyz
  1  'x, y, z'
loop_
 _atom_site_type_symbol
 _atom_site_label
 _atom_site_symmetry_multiplicity
 _atom_site_fract_x
 _atom_site_fract_y
 _atom_site_fract_z
 _atom_site_occupancy
  Dy  Dy0  1  0.812211  0.187789  0.187789  1
  Dy  Dy1  1  0.187789  0.812211  0.812211  1
  Dy  Dy2  1  0.187789  0.812211  0.187789  1
  Dy  Dy3  1  0.812211  0.187789  0.812211  1
  Dy  Dy4  1  0.187789  0.187789  0.812211  1
  Dy  Dy5  1  0.812211  0.812211  0.187789  1
  Dy  Dy6  1  0.936049  0.563951  0.563951  1
  Dy  Dy7  1  0.563951  0.936049  0.936049  1
  Dy  Dy8  1  0.563951  0.936049  0.563951  1
  Dy  Dy9  1  0.936049  0.563951  0.936049  1
  Dy  Dy10  1  0.563951  0.563951  0.936049  1
  Dy  Dy11  1  0.936049  0.936049  0.563951  1
  Th  Th12  1  0.351020  0.351020  0.351020  1
  Th  Th13  1  0.351020  0.351020  0.946942  1
  Th  Th14  1  0.351020  0.946942  0.351020  1
  Th  Th15  1  0.946942  0.351020  0.351020  1
  Hg  Hg16  1  0.587438  0.587438  0.587438  1
  Hg  Hg17  1  0.587438  0.587438  0.237685  1
  Hg  Hg18  1  0.587438  0.237685  0.587438  1
  Hg  Hg19  1  0.237685  0.587438  0.587438  1
  Ir  Ir20  1  0.143561  0.143561  0.143561  1
  Ir  Ir21  1  0.143561  0.143561  0.569318  1
  Ir  Ir22  1  0.143561  0.569318  0.143561  1
  Ir  Ir23  1  0.569318  0.143561  0.143561  1
