# generated using pymatgen
data_V5B2S
_symmetry_space_group_name_H-M   'P 1'
_cell_length_a   6.66006125
_cell_length_b   6.66006178
_cell_length_c   6.66006053
_cell_angle_alpha   129.27413628
_cell_angle_beta   129.27413856
_cell_angle_gamma   74.56986746
_symmetry_Int_Tables_number   1
_chemical_formula_structural   V5B2S
_chemical_formula_sum   'V10 B4 S2'
_cell_volume   172.50675745
_cell_formula_units_Z   2
loop_
 _symmetry_equiv_pos_site_id
 _symmetry_equiv_pos_as_xyz
  1  'x, y, z'
loop_
 _atom_site_type_symbol
 _atom_site_label
 _atom_site_symmetry_multiplicity
 _atom_site_fract_x
 _atom_site_fract_y
 _atom_site_fract_z
 _atom_site_occupancy
  V  V0  1  0.528548  0.689880  0.500000  1
  V  V1  1  0.028548  0.528548  0.838668  1
  V  V2  1  0.689880  0.189880  0.161332  1
  V  V3  1  0.971452  0.471452  0.161332  1
  V  V4  1  0.189880  0.028548  0.500000  1
  V  V5  1  0.471452  0.310120  0.500000  1
  V  V6  1  0.810120  0.971452  0.500000  1
  V  V7  1  0.310120  0.810120  0.838668  1
  V  V8  1  0.000000  0.000000  0.000000  1
  V  V9  1  0.500000  0.500000  0.000000  1
  B  B10  1  0.615024  0.115024  0.730049  1
  B  B11  1  0.115024  0.384976  0.500000  1
  B  B12  1  0.884976  0.615024  0.500000  1
  B  B13  1  0.384976  0.884976  0.269951  1
  S  S14  1  0.250000  0.250000  0.000000  1
  S  S15  1  0.750000  0.750000  0.000000  1
