# generated using pymatgen
data_Rb2Np3TeBr18
_symmetry_space_group_name_H-M   'P 1'
_cell_length_a   7.45973969
_cell_length_b   11.03742510
_cell_length_c   13.44549907
_cell_angle_alpha   66.74955149
_cell_angle_beta   89.76074183
_cell_angle_gamma   89.71755978
_symmetry_Int_Tables_number   1
_chemical_formula_structural   Rb2Np3TeBr18
_chemical_formula_sum   'Rb2 Np3 Te1 Br18'
_cell_volume   1017.13168738
_cell_formula_units_Z   1
loop_
 _symmetry_equiv_pos_site_id
 _symmetry_equiv_pos_as_xyz
  1  'x, y, z'
loop_
 _atom_site_type_symbol
 _atom_site_label
 _atom_site_symmetry_multiplicity
 _atom_site_fract_x
 _atom_site_fract_y
 _atom_site_fract_z
 _atom_site_occupancy
  Rb  Rb0  1  0.580729  0.489882  0.743485  1
  Rb  Rb1  1  0.415812  0.487377  0.258416  1
  Np  Np2  1  0.732674  0.180278  0.134429  1
  Np  Np3  1  0.267469  0.172916  0.639608  1
  Np  Np4  1  0.734583  0.822415  0.364339  1
  Te  Te5  1  0.268682  0.818147  0.866966  1
  Br  Br6  1  0.129144  0.762074  0.057557  1
  Br  Br7  1  0.869111  0.243498  0.934319  1
  Br  Br8  1  0.131836  0.237243  0.438391  1
  Br  Br9  1  0.865912  0.760165  0.563965  1
  Br  Br10  1  0.135376  0.615547  0.841796  1
  Br  Br11  1  0.864166  0.392924  0.161783  1
  Br  Br12  1  0.133746  0.388616  0.665045  1
  Br  Br13  1  0.873519  0.614371  0.333957  1
  Br  Br14  1  0.978889  0.002879  0.748952  1
  Br  Br15  1  0.017812  0.000869  0.249133  1
  Br  Br16  1  0.409770  0.075677  0.852575  1
  Br  Br17  1  0.595967  0.930213  0.147176  1
  Br  Br18  1  0.410201  0.928356  0.645544  1
  Br  Br19  1  0.595133  0.072929  0.351749  1
  Br  Br20  1  0.572462  0.697922  0.941531  1
  Br  Br21  1  0.415741  0.304919  0.061761  1
  Br  Br22  1  0.580119  0.303157  0.560498  1
  Br  Br23  1  0.421147  0.697627  0.437025  1
