# generated using pymatgen
data_LiV7S12
_symmetry_space_group_name_H-M   'P 1'
_cell_length_a   5.54080600
_cell_length_b   5.54080585
_cell_length_c   12.45233600
_cell_angle_alpha   90.00000000
_cell_angle_beta   90.00000000
_cell_angle_gamma   120.00001285
_symmetry_Int_Tables_number   1
_chemical_formula_structural   LiV7S12
_chemical_formula_sum   'Li1 V7 S12'
_cell_volume   331.07568263
_cell_formula_units_Z   1
loop_
 _symmetry_equiv_pos_site_id
 _symmetry_equiv_pos_as_xyz
  1  'x, y, z'
loop_
 _atom_site_type_symbol
 _atom_site_label
 _atom_site_symmetry_multiplicity
 _atom_site_fract_x
 _atom_site_fract_y
 _atom_site_fract_z
 _atom_site_occupancy
  Li  Li0  1  0.666667  0.333333  0.750000  1
  V  V1  1  0.333333  0.666667  0.490273  1
  V  V2  1  0.666667  0.333333  0.010524  1
  V  V3  1  0.666667  0.333333  0.489476  1
  V  V4  1  0.333333  0.666667  0.009727  1
  V  V5  1  0.000000  0.000000  0.489733  1
  V  V6  1  0.000000  0.000000  0.010267  1
  V  V7  1  0.333333  0.666667  0.250000  1
  S  S8  1  0.666913  0.666683  0.372080  1
  S  S9  1  0.333317  0.000231  0.372080  1
  S  S10  1  0.999769  0.333087  0.372080  1
  S  S11  1  0.001207  0.668297  0.891801  1
  S  S12  1  0.331703  0.998793  0.608199  1
  S  S13  1  0.331703  0.332909  0.891801  1
  S  S14  1  0.667091  0.998793  0.891801  1
  S  S15  1  0.333317  0.333087  0.127920  1
  S  S16  1  0.666913  0.000231  0.127920  1
  S  S17  1  0.667091  0.668297  0.608199  1
  S  S18  1  0.001207  0.332909  0.608199  1
  S  S19  1  0.999769  0.666683  0.127920  1
