# generated using pymatgen
data_Cu3(TcO4)4
_symmetry_space_group_name_H-M   'P 1'
_cell_length_a   5.56487162
_cell_length_b   8.65982793
_cell_length_c   8.77071863
_cell_angle_alpha   80.46201537
_cell_angle_beta   82.02899016
_cell_angle_gamma   86.11341846
_symmetry_Int_Tables_number   1
_chemical_formula_structural   Cu3(TcO4)4
_chemical_formula_sum   'Cu3 Tc4 O16'
_cell_volume   412.36342699
_cell_formula_units_Z   1
loop_
 _symmetry_equiv_pos_site_id
 _symmetry_equiv_pos_as_xyz
  1  'x, y, z'
loop_
 _atom_site_type_symbol
 _atom_site_label
 _atom_site_symmetry_multiplicity
 _atom_site_fract_x
 _atom_site_fract_y
 _atom_site_fract_z
 _atom_site_occupancy
  Cu  Cu0  1  0.007996  0.469990  0.458357  1
  Cu  Cu1  1  0.561511  0.590362  0.918114  1
  Cu  Cu2  1  0.530263  0.031596  0.018445  1
  Tc  Tc3  1  0.535864  0.687761  0.292910  1
  Tc  Tc4  1  0.971547  0.192450  0.192729  1
  Tc  Tc5  1  0.027800  0.823698  0.827721  1
  Tc  Tc6  1  0.464831  0.306727  0.685768  1
  O  O7  1  0.041703  0.365239  0.254186  1
  O  O8  1  0.841393  0.921289  0.966001  1
  O  O9  1  0.078203  0.943263  0.652220  1
  O  O10  1  0.590124  0.585857  0.132946  1
  O  O11  1  0.193847  0.314428  0.603112  1
  O  O12  1  0.285784  0.609670  0.420677  1
  O  O13  1  0.795372  0.661747  0.388665  1
  O  O14  1  0.706577  0.354296  0.537745  1
  O  O15  1  0.213571  0.133705  0.058195  1
  O  O16  1  0.525187  0.120353  0.790441  1
  O  O17  1  0.438422  0.443914  0.814879  1
  O  O18  1  0.880443  0.655834  0.804226  1
  O  O19  1  0.921944  0.048273  0.351072  1
  O  O20  1  0.709211  0.222020  0.100103  1
  O  O21  1  0.309197  0.768103  0.896571  1
  O  O22  1  0.475850  0.886701  0.222957  1
