# generated using pymatgen
data_Ho8LuZrIr6
_symmetry_space_group_name_H-M   'P 1'
_cell_length_a   10.83257800
_cell_length_b   10.83257800
_cell_length_c   6.26500200
_cell_angle_alpha   90.00000000
_cell_angle_beta   90.00000000
_cell_angle_gamma   90.00000000
_symmetry_Int_Tables_number   1
_chemical_formula_structural   Ho8LuZrIr6
_chemical_formula_sum   'Ho16 Lu2 Zr2 Ir12'
_cell_volume   735.16506917
_cell_formula_units_Z   2
loop_
 _symmetry_equiv_pos_site_id
 _symmetry_equiv_pos_as_xyz
  1  'x, y, z'
loop_
 _atom_site_type_symbol
 _atom_site_label
 _atom_site_symmetry_multiplicity
 _atom_site_fract_x
 _atom_site_fract_y
 _atom_site_fract_z
 _atom_site_occupancy
  Ho  Ho0  1  0.290803  0.087473  0.375158  1
  Ho  Ho1  1  0.290803  0.912527  0.875158  1
  Ho  Ho2  1  0.709197  0.087473  0.875158  1
  Ho  Ho3  1  0.709197  0.912527  0.375158  1
  Ho  Ho4  1  0.587068  0.789069  0.874539  1
  Ho  Ho5  1  0.587068  0.210931  0.374539  1
  Ho  Ho6  1  0.412932  0.789069  0.374539  1
  Ho  Ho7  1  0.412932  0.210931  0.874539  1
  Ho  Ho8  1  0.210931  0.412932  0.625461  1
  Ho  Ho9  1  0.210931  0.587068  0.125461  1
  Ho  Ho10  1  0.789069  0.412932  0.125461  1
  Ho  Ho11  1  0.789069  0.587068  0.625461  1
  Ho  Ho12  1  0.912527  0.709197  0.124842  1
  Ho  Ho13  1  0.912527  0.290803  0.624842  1
  Ho  Ho14  1  0.087473  0.709197  0.624842  1
  Ho  Ho15  1  0.087473  0.290803  0.124842  1
  Lu  Lu16  1  0.000000  0.000000  0.500000  1
  Lu  Lu17  1  0.000000  0.000000  0.000000  1
  Zr  Zr18  1  0.500000  0.500000  0.000000  1
  Zr  Zr19  1  0.500000  0.500000  0.500000  1
  Ir  Ir20  1  0.847596  0.152404  0.250000  1
  Ir  Ir21  1  0.847596  0.847596  0.750000  1
  Ir  Ir22  1  0.152404  0.152404  0.750000  1
  Ir  Ir23  1  0.152404  0.847596  0.250000  1
  Ir  Ir24  1  0.645265  0.354735  0.750000  1
  Ir  Ir25  1  0.645265  0.645265  0.250000  1
  Ir  Ir26  1  0.354735  0.354735  0.250000  1
  Ir  Ir27  1  0.354735  0.645265  0.750000  1
  Ir  Ir28  1  0.500000  0.000000  0.122571  1
  Ir  Ir29  1  0.500000  0.000000  0.622571  1
  Ir  Ir30  1  0.000000  0.500000  0.877429  1
  Ir  Ir31  1  0.000000  0.500000  0.377429  1
