# generated using pymatgen
data_Ac6Si7Br3
_symmetry_space_group_name_H-M   'P 1'
_cell_length_a   4.30114800
_cell_length_b   12.26614100
_cell_length_c   17.61071000
_cell_angle_alpha   90.00000000
_cell_angle_beta   90.00000000
_cell_angle_gamma   90.00000000
_symmetry_Int_Tables_number   1
_chemical_formula_structural   Ac6Si7Br3
_chemical_formula_sum   'Ac12 Si14 Br6'
_cell_volume   929.11442921
_cell_formula_units_Z   2
loop_
 _symmetry_equiv_pos_site_id
 _symmetry_equiv_pos_as_xyz
  1  'x, y, z'
loop_
 _atom_site_type_symbol
 _atom_site_label
 _atom_site_symmetry_multiplicity
 _atom_site_fract_x
 _atom_site_fract_y
 _atom_site_fract_z
 _atom_site_occupancy
  Ac  Ac0  1  0.500000  0.344524  0.500000  1
  Ac  Ac1  1  0.000000  0.655476  0.000000  1
  Ac  Ac2  1  0.500000  0.359392  0.756092  1
  Ac  Ac3  1  0.000000  0.640608  0.743908  1
  Ac  Ac4  1  0.500000  0.359392  0.243908  1
  Ac  Ac5  1  0.000000  0.640608  0.256092  1
  Ac  Ac6  1  0.500000  0.065718  0.880781  1
  Ac  Ac7  1  0.000000  0.934282  0.619219  1
  Ac  Ac8  1  0.500000  0.065718  0.119219  1
  Ac  Ac9  1  0.000000  0.934282  0.380781  1
  Ac  Ac10  1  0.500000  0.359032  0.000000  1
  Ac  Ac11  1  0.000000  0.640968  0.500000  1
  Si  Si12  1  0.000000  0.154970  0.000000  1
  Si  Si13  1  0.500000  0.845030  0.500000  1
  Si  Si14  1  0.500000  0.561979  0.877740  1
  Si  Si15  1  0.000000  0.438021  0.622260  1
  Si  Si16  1  0.500000  0.561979  0.122260  1
  Si  Si17  1  0.000000  0.438021  0.377740  1
  Si  Si18  1  0.000000  0.256965  0.878164  1
  Si  Si19  1  0.500000  0.743035  0.621836  1
  Si  Si20  1  0.000000  0.256965  0.121836  1
  Si  Si21  1  0.500000  0.743035  0.378164  1
  Si  Si22  1  0.000000  0.457932  0.875591  1
  Si  Si23  1  0.500000  0.542068  0.624409  1
  Si  Si24  1  0.500000  0.542068  0.375591  1
  Si  Si25  1  0.000000  0.457932  0.124409  1
  Br  Br26  1  0.500000  0.107437  0.692662  1
  Br  Br27  1  0.000000  0.892563  0.807338  1
  Br  Br28  1  0.000000  0.137553  0.500000  1
  Br  Br29  1  0.500000  0.862447  0.000000  1
  Br  Br30  1  0.500000  0.107437  0.307338  1
  Br  Br31  1  0.000000  0.892563  0.192662  1
