# generated using pymatgen
data_Dy8Nb7Si16W5
_symmetry_space_group_name_H-M   'P 1'
_cell_length_a   6.97975190
_cell_length_b   6.98316966
_cell_length_c   12.96161257
_cell_angle_alpha   90.11402037
_cell_angle_beta   90.07606053
_cell_angle_gamma   90.02040982
_symmetry_Int_Tables_number   1
_chemical_formula_structural   Dy8Nb7Si16W5
_chemical_formula_sum   'Dy8 Nb7 Si16 W5'
_cell_volume   631.75741042
_cell_formula_units_Z   1
loop_
 _symmetry_equiv_pos_site_id
 _symmetry_equiv_pos_as_xyz
  1  'x, y, z'
loop_
 _atom_site_type_symbol
 _atom_site_label
 _atom_site_symmetry_multiplicity
 _atom_site_fract_x
 _atom_site_fract_y
 _atom_site_fract_z
 _atom_site_occupancy
  Dy  Dy0  1  0.999497  0.659083  0.032742  1
  Dy  Dy1  1  0.001159  0.340715  0.531392  1
  Dy  Dy2  1  0.659235  0.998544  0.967807  1
  Dy  Dy3  1  0.158888  0.501115  0.782246  1
  Dy  Dy4  1  0.840522  0.499045  0.282258  1
  Dy  Dy5  1  0.501550  0.159773  0.218870  1
  Dy  Dy6  1  0.498267  0.840320  0.717051  1
  Dy  Dy7  1  0.340782  0.000668  0.467753  1
  Nb  Nb8  1  0.846117  0.993907  0.375586  1
  Nb  Nb9  1  0.007765  0.155023  0.125523  1
  Nb  Nb10  1  0.994650  0.844549  0.623506  1
  Nb  Nb11  1  0.504809  0.345761  0.624932  1
  Nb  Nb12  1  0.153766  0.006095  0.875376  1
  Nb  Nb13  1  0.494675  0.653905  0.125767  1
  Nb  Nb14  1  0.653751  0.493932  0.874454  1
  Si  Si15  1  0.047745  0.705532  0.434100  1
  Si  Si16  1  0.955466  0.293833  0.935332  1
  Si  Si17  1  0.706679  0.044744  0.564983  1
  Si  Si18  1  0.208042  0.456969  0.186928  1
  Si  Si19  1  0.793172  0.544326  0.684785  1
  Si  Si20  1  0.455152  0.206384  0.814743  1
  Si  Si21  1  0.541956  0.790325  0.315069  1
  Si  Si22  1  0.294265  0.955266  0.065186  1
  Si  Si23  1  0.798903  0.868252  0.183417  1
  Si  Si24  1  0.299272  0.631510  0.565084  1
  Si  Si25  1  0.701518  0.366643  0.067053  1
  Si  Si26  1  0.629290  0.301323  0.432294  1
  Si  Si27  1  0.367039  0.701369  0.933303  1
  Si  Si28  1  0.132545  0.205336  0.318129  1
  Si  Si29  1  0.200716  0.132686  0.682963  1
  Si  Si30  1  0.867292  0.798511  0.816477  1
  W  W31  1  0.344890  0.505558  0.374575  1
  W  W32  1  0.670188  0.669696  0.499328  1
  W  W33  1  0.828922  0.170976  0.749967  1
  W  W34  1  0.171984  0.829260  0.250568  1
  W  W35  1  0.329529  0.329065  0.000451  1
