# generated using pymatgen
data_YErZnNi6B2Pt
_symmetry_space_group_name_H-M   'P 1'
_cell_length_a   5.06220300
_cell_length_b   5.06220277
_cell_length_c   7.14958600
_cell_angle_alpha   90.00000000
_cell_angle_beta   90.00000000
_cell_angle_gamma   119.99998189
_symmetry_Int_Tables_number   1
_chemical_formula_structural   YErZnNi6B2Pt
_chemical_formula_sum   'Y1 Er1 Zn1 Ni6 B2 Pt1'
_cell_volume   158.66849400
_cell_formula_units_Z   1
loop_
 _symmetry_equiv_pos_site_id
 _symmetry_equiv_pos_as_xyz
  1  'x, y, z'
loop_
 _atom_site_type_symbol
 _atom_site_label
 _atom_site_symmetry_multiplicity
 _atom_site_fract_x
 _atom_site_fract_y
 _atom_site_fract_z
 _atom_site_occupancy
  Y  Y0  1  0.000000  0.000000  0.000000  1
  Er  Er1  1  0.000000  0.000000  0.500000  1
  Zn  Zn2  1  0.333333  0.666667  0.000000  1
  Ni  Ni3  1  0.500285  0.000570  0.305063  1
  Ni  Ni4  1  0.500285  0.499715  0.305063  1
  Ni  Ni5  1  0.999430  0.499715  0.305063  1
  Ni  Ni6  1  0.500285  0.000570  0.694937  1
  Ni  Ni7  1  0.500285  0.499715  0.694937  1
  Ni  Ni8  1  0.999430  0.499715  0.694937  1
  B  B9  1  0.666667  0.333333  0.500000  1
  B  B10  1  0.333333  0.666667  0.500000  1
  Pt  Pt11  1  0.666667  0.333333  0.000000  1
