# generated using pymatgen
data_Rb12MgScSe8
_symmetry_space_group_name_H-M   'P 1'
_cell_length_a   10.94136800
_cell_length_b   10.94136645
_cell_length_c   8.36079300
_cell_angle_alpha   90.00000000
_cell_angle_beta   90.00000000
_cell_angle_gamma   119.99999261
_symmetry_Int_Tables_number   1
_chemical_formula_structural   Rb12MgScSe8
_chemical_formula_sum   'Rb12 Mg1 Sc1 Se8'
_cell_volume   866.80483274
_cell_formula_units_Z   1
loop_
 _symmetry_equiv_pos_site_id
 _symmetry_equiv_pos_as_xyz
  1  'x, y, z'
loop_
 _atom_site_type_symbol
 _atom_site_label
 _atom_site_symmetry_multiplicity
 _atom_site_fract_x
 _atom_site_fract_y
 _atom_site_fract_z
 _atom_site_occupancy
  Rb  Rb0  1  0.140182  0.859818  0.544980  1
  Rb  Rb1  1  0.273703  0.136852  0.043185  1
  Rb  Rb2  1  0.863148  0.726297  0.043185  1
  Rb  Rb3  1  0.140182  0.280362  0.544980  1
  Rb  Rb4  1  0.719638  0.859818  0.544980  1
  Rb  Rb5  1  0.863148  0.136852  0.043185  1
  Rb  Rb6  1  0.526166  0.473834  0.358294  1
  Rb  Rb7  1  0.067833  0.533916  0.866847  1
  Rb  Rb8  1  0.466084  0.932167  0.866847  1
  Rb  Rb9  1  0.526166  0.052333  0.358294  1
  Rb  Rb10  1  0.947667  0.473834  0.358294  1
  Rb  Rb11  1  0.466084  0.533916  0.866847  1
  Mg  Mg12  1  0.333333  0.666667  0.256047  1
  Sc  Sc13  1  0.666667  0.333333  0.755607  1
  Se  Se14  1  0.333333  0.666667  0.571594  1
  Se  Se15  1  0.666667  0.333333  0.067311  1
  Se  Se16  1  0.200001  0.799999  0.155539  1
  Se  Se17  1  0.407572  0.203786  0.654102  1
  Se  Se18  1  0.796214  0.592428  0.654102  1
  Se  Se19  1  0.200001  0.400001  0.155539  1
  Se  Se20  1  0.599999  0.799999  0.155539  1
  Se  Se21  1  0.796214  0.203786  0.654102  1
