# generated using pymatgen
data_Dy20Ir7Ru3Pt2
_symmetry_space_group_name_H-M   'P 1'
_cell_length_a   10.86654600
_cell_length_b   10.86165915
_cell_length_c   6.44870165
_cell_angle_alpha   90.01709645
_cell_angle_beta   90.04868260
_cell_angle_gamma   90.00769093
_symmetry_Int_Tables_number   1
_chemical_formula_structural   Dy20Ir7Ru3Pt2
_chemical_formula_sum   'Dy20 Ir7 Ru3 Pt2'
_cell_volume   761.13167857
_cell_formula_units_Z   1
loop_
 _symmetry_equiv_pos_site_id
 _symmetry_equiv_pos_as_xyz
  1  'x, y, z'
loop_
 _atom_site_type_symbol
 _atom_site_label
 _atom_site_symmetry_multiplicity
 _atom_site_fract_x
 _atom_site_fract_y
 _atom_site_fract_z
 _atom_site_occupancy
  Dy  Dy0  1  0.293812  0.086803  0.378866  1
  Dy  Dy1  1  0.293859  0.913483  0.879097  1
  Dy  Dy2  1  0.702780  0.088009  0.876328  1
  Dy  Dy3  1  0.702828  0.911637  0.376111  1
  Dy  Dy4  1  0.583483  0.793467  0.879907  1
  Dy  Dy5  1  0.583763  0.206638  0.379566  1
  Dy  Dy6  1  0.412414  0.793492  0.379501  1
  Dy  Dy7  1  0.412725  0.206412  0.879910  1
  Dy  Dy8  1  0.208394  0.411948  0.621727  1
  Dy  Dy9  1  0.207861  0.588160  0.119131  1
  Dy  Dy10  1  0.792085  0.415076  0.118770  1
  Dy  Dy11  1  0.791697  0.584798  0.621623  1
  Dy  Dy12  1  0.913577  0.705877  0.123805  1
  Dy  Dy13  1  0.913791  0.293711  0.626741  1
  Dy  Dy14  1  0.090767  0.706239  0.621614  1
  Dy  Dy15  1  0.090822  0.294198  0.119049  1
  Dy  Dy16  1  0.002989  0.999680  0.498926  1
  Dy  Dy17  1  0.002991  0.000324  0.998885  1
  Dy  Dy18  1  0.499701  0.499931  0.998743  1
  Dy  Dy19  1  0.499752  0.500091  0.498727  1
  Ir  Ir20  1  0.151588  0.152711  0.749698  1
  Ir  Ir21  1  0.151077  0.847356  0.249818  1
  Ir  Ir22  1  0.653920  0.346586  0.749831  1
  Ir  Ir23  1  0.653877  0.652974  0.250009  1
  Ir  Ir24  1  0.346966  0.347684  0.249819  1
  Ir  Ir25  1  0.346855  0.652784  0.749624  1
  Ir  Ir26  1  0.999803  0.499830  0.377013  1
  Ru  Ru27  1  0.500787  0.999943  0.125756  1
  Ru  Ru28  1  0.500763  0.000053  0.625474  1
  Ru  Ru29  1  0.999838  0.500042  0.876173  1
  Pt  Pt30  1  0.847477  0.152843  0.249904  1
  Pt  Pt31  1  0.846962  0.847221  0.749854  1
