# generated using pymatgen
data_Pr2GeP3Ir3Rh
_symmetry_space_group_name_H-M   'P 1'
_cell_length_a   4.24518800
_cell_length_b   4.25969200
_cell_length_c   9.67598400
_cell_angle_alpha   90.00000000
_cell_angle_beta   90.00000000
_cell_angle_gamma   90.00000000
_symmetry_Int_Tables_number   1
_chemical_formula_structural   Pr2GeP3Ir3Rh
_chemical_formula_sum   'Pr2 Ge1 P3 Ir3 Rh1'
_cell_volume   174.97268964
_cell_formula_units_Z   1
loop_
 _symmetry_equiv_pos_site_id
 _symmetry_equiv_pos_as_xyz
  1  'x, y, z'
loop_
 _atom_site_type_symbol
 _atom_site_label
 _atom_site_symmetry_multiplicity
 _atom_site_fract_x
 _atom_site_fract_y
 _atom_site_fract_z
 _atom_site_occupancy
  Pr  Pr0  1  0.000000  0.500000  0.265917  1
  Pr  Pr1  1  0.500000  0.000000  0.737532  1
  Ge  Ge2  1  0.500000  0.000000  0.136798  1
  P  P3  1  0.000000  0.500000  0.862639  1
  P  P4  1  0.000000  0.000000  0.503200  1
  P  P5  1  0.500000  0.500000  0.503367  1
  Ir  Ir6  1  0.000000  0.500000  0.612337  1
  Ir  Ir7  1  0.500000  0.000000  0.398072  1
  Ir  Ir8  1  0.500000  0.500000  0.989717  1
  Rh  Rh9  1  0.000000  0.000000  0.990420  1
