# generated using pymatgen
data_Nd3Mg2CdAgSn2
_symmetry_space_group_name_H-M   'P 1'
_cell_length_a   7.64043800
_cell_length_b   7.62674902
_cell_length_c   4.67980600
_cell_angle_alpha   90.00000000
_cell_angle_beta   90.00000000
_cell_angle_gamma   120.05939142
_symmetry_Int_Tables_number   1
_chemical_formula_structural   Nd3Mg2CdAgSn2
_chemical_formula_sum   'Nd3 Mg2 Cd1 Ag1 Sn2'
_cell_volume   236.02389341
_cell_formula_units_Z   1
loop_
 _symmetry_equiv_pos_site_id
 _symmetry_equiv_pos_as_xyz
  1  'x, y, z'
loop_
 _atom_site_type_symbol
 _atom_site_label
 _atom_site_symmetry_multiplicity
 _atom_site_fract_x
 _atom_site_fract_y
 _atom_site_fract_z
 _atom_site_occupancy
  Nd  Nd0  1  0.583454  0.000000  0.000000  1
  Nd  Nd1  1  0.001844  0.589299  0.000000  1
  Nd  Nd2  1  0.412545  0.410701  0.000000  1
  Mg  Mg3  1  0.001328  0.234143  0.500000  1
  Mg  Mg4  1  0.767184  0.765857  0.500000  1
  Cd  Cd5  1  0.236632  0.000000  0.500000  1
  Ag  Ag6  1  0.993181  0.000000  0.000000  1
  Sn  Sn7  1  0.334009  0.664187  0.500000  1
  Sn  Sn8  1  0.669823  0.335813  0.500000  1
