# generated using pymatgen
data_Dy3MgCd2Ga2Ag
_symmetry_space_group_name_H-M   'P 1'
_cell_length_a   7.38066667
_cell_length_b   7.38066624
_cell_length_c   4.36314700
_cell_angle_alpha   90.00000000
_cell_angle_beta   90.00000000
_cell_angle_gamma   120.16674120
_symmetry_Int_Tables_number   1
_chemical_formula_structural   Dy3MgCd2Ga2Ag
_chemical_formula_sum   'Dy3 Mg1 Cd2 Ga2 Ag1'
_cell_volume   205.48942703
_cell_formula_units_Z   1
loop_
 _symmetry_equiv_pos_site_id
 _symmetry_equiv_pos_as_xyz
  1  'x, y, z'
loop_
 _atom_site_type_symbol
 _atom_site_label
 _atom_site_symmetry_multiplicity
 _atom_site_fract_x
 _atom_site_fract_y
 _atom_site_fract_z
 _atom_site_occupancy
  Dy  Dy0  1  0.420069  0.420069  0.500000  1
  Dy  Dy1  1  0.576027  0.000495  0.500000  1
  Dy  Dy2  1  0.000495  0.576027  0.500000  1
  Mg  Mg3  1  0.759537  0.759537  0.000000  1
  Cd  Cd4  1  0.249615  0.998356  0.000000  1
  Cd  Cd5  1  0.998356  0.249615  0.000000  1
  Ga  Ga6  1  0.665846  0.337691  0.000000  1
  Ga  Ga7  1  0.337691  0.665846  0.000000  1
  Ag  Ag8  1  0.992363  0.992363  0.500000  1
