# generated using pymatgen
data_LaPr7SiPd24
_symmetry_space_group_name_H-M   'P 1'
_cell_length_a   8.51033519
_cell_length_b   8.51033519
_cell_length_c   8.51033519
_cell_angle_alpha   89.98291166
_cell_angle_beta   89.98291166
_cell_angle_gamma   89.98291166
_symmetry_Int_Tables_number   1
_chemical_formula_structural   LaPr7SiPd24
_chemical_formula_sum   'La1 Pr7 Si1 Pd24'
_cell_volume   616.36779496
_cell_formula_units_Z   1
loop_
 _symmetry_equiv_pos_site_id
 _symmetry_equiv_pos_as_xyz
  1  'x, y, z'
loop_
 _atom_site_type_symbol
 _atom_site_label
 _atom_site_symmetry_multiplicity
 _atom_site_fract_x
 _atom_site_fract_y
 _atom_site_fract_z
 _atom_site_occupancy
  La  La0  1  0.253961  0.253961  0.253961  1
  Pr  Pr1  1  0.746553  0.746553  0.746553  1
  Pr  Pr2  1  0.746511  0.746511  0.253435  1
  Pr  Pr3  1  0.746511  0.253435  0.746511  1
  Pr  Pr4  1  0.253443  0.253443  0.746718  1
  Pr  Pr5  1  0.253443  0.746718  0.253443  1
  Pr  Pr6  1  0.253435  0.746511  0.746511  1
  Pr  Pr7  1  0.746718  0.253443  0.253443  1
  Si  Si8  1  0.999897  0.999897  0.999897  1
  Pd  Pd9  1  0.256969  0.500005  0.000050  1
  Pd  Pd10  1  0.743002  0.500003  0.999936  1
  Pd  Pd11  1  0.000050  0.256969  0.500005  1
  Pd  Pd12  1  0.500005  0.256969  0.000050  1
  Pd  Pd13  1  0.999936  0.743002  0.500003  1
  Pd  Pd14  1  0.500003  0.743002  0.999936  1
  Pd  Pd15  1  0.500005  0.000050  0.256969  1
  Pd  Pd16  1  0.256969  0.000050  0.500005  1
  Pd  Pd17  1  0.500003  0.999936  0.743002  1
  Pd  Pd18  1  0.743002  0.999936  0.500003  1
  Pd  Pd19  1  0.000050  0.500005  0.256969  1
  Pd  Pd20  1  0.999936  0.500003  0.743002  1
  Pd  Pd21  1  0.252073  0.499951  0.499951  1
  Pd  Pd22  1  0.747915  0.500038  0.500038  1
  Pd  Pd23  1  0.499951  0.252073  0.499951  1
  Pd  Pd24  1  0.500038  0.747915  0.500038  1
  Pd  Pd25  1  0.499951  0.499951  0.252073  1
  Pd  Pd26  1  0.500038  0.500038  0.747915  1
  Pd  Pd27  1  0.280555  0.999818  0.999818  1
  Pd  Pd28  1  0.719479  0.999981  0.999981  1
  Pd  Pd29  1  0.999818  0.280555  0.999818  1
  Pd  Pd30  1  0.999981  0.719479  0.999981  1
  Pd  Pd31  1  0.999818  0.999818  0.280555  1
  Pd  Pd32  1  0.999981  0.999981  0.719479  1
