# generated using pymatgen
data_NaTi(Cu2Te3)2
_symmetry_space_group_name_H-M   'P 1'
_cell_length_a   11.58774992
_cell_length_b   11.58774983
_cell_length_c   8.50068377
_cell_angle_alpha   78.72013683
_cell_angle_beta   78.72013757
_cell_angle_gamma   15.49067631
_symmetry_Int_Tables_number   1
_chemical_formula_structural   NaTi(Cu2Te3)2
_chemical_formula_sum   'Na1 Ti1 Cu4 Te6'
_cell_volume   298.85806601
_cell_formula_units_Z   1
loop_
 _symmetry_equiv_pos_site_id
 _symmetry_equiv_pos_as_xyz
  1  'x, y, z'
loop_
 _atom_site_type_symbol
 _atom_site_label
 _atom_site_symmetry_multiplicity
 _atom_site_fract_x
 _atom_site_fract_y
 _atom_site_fract_z
 _atom_site_occupancy
  Na  Na0  1  0.653208  0.653208  0.401878  1
  Ti  Ti1  1  0.352444  0.352444  0.616876  1
  Cu  Cu2  1  0.702484  0.702484  0.055359  1
  Cu  Cu3  1  0.293293  0.293293  0.941248  1
  Cu  Cu4  1  0.041165  0.041165  0.367613  1
  Cu  Cu5  1  0.958940  0.958940  0.632612  1
  Te  Te6  1  0.749107  0.749107  0.722854  1
  Te  Te7  1  0.267178  0.267178  0.245953  1
  Te  Te8  1  0.586632  0.586632  0.109481  1
  Te  Te9  1  0.408704  0.408704  0.878990  1
  Te  Te10  1  0.918897  0.918897  0.369999  1
  Te  Te11  1  0.067948  0.067948  0.657135  1
