# generated using pymatgen
data_HoLu9In8RuPt3
_symmetry_space_group_name_H-M   'P 1'
_cell_length_a   3.56504300
_cell_length_b   8.01441190
_cell_length_c   18.00823630
_cell_angle_alpha   90.07374256
_cell_angle_beta   90.00000000
_cell_angle_gamma   90.00000000
_symmetry_Int_Tables_number   1
_chemical_formula_structural   HoLu9In8RuPt3
_chemical_formula_sum   'Ho1 Lu9 In8 Ru1 Pt3'
_cell_volume   514.52591370
_cell_formula_units_Z   1
loop_
 _symmetry_equiv_pos_site_id
 _symmetry_equiv_pos_as_xyz
  1  'x, y, z'
loop_
 _atom_site_type_symbol
 _atom_site_label
 _atom_site_symmetry_multiplicity
 _atom_site_fract_x
 _atom_site_fract_y
 _atom_site_fract_z
 _atom_site_occupancy
  Ho  Ho0  1  0.000000  0.500292  0.499288  1
  Lu  Lu1  1  0.000000  0.116028  0.411747  1
  Lu  Lu2  1  0.000000  0.884034  0.585630  1
  Lu  Lu3  1  0.000000  0.383774  0.914456  1
  Lu  Lu4  1  0.000000  0.618371  0.087158  1
  Lu  Lu5  1  0.000000  0.233358  0.222869  1
  Lu  Lu6  1  0.000000  0.757213  0.778516  1
  Lu  Lu7  1  0.000000  0.256793  0.721621  1
  Lu  Lu8  1  0.000000  0.751138  0.278530  1
  Lu  Lu9  1  0.000000  0.999804  0.000400  1
  In  In10  1  0.500000  0.423304  0.351094  1
  In  In11  1  0.500000  0.575162  0.647660  1
  In  In12  1  0.500000  0.074796  0.852957  1
  In  In13  1  0.500000  0.930343  0.148929  1
  In  In14  1  0.500000  0.292540  0.065666  1
  In  In15  1  0.500000  0.708402  0.934414  1
  In  In16  1  0.500000  0.207729  0.566534  1
  In  In17  1  0.500000  0.795128  0.431315  1
  Ru  Ru18  1  0.500000  0.019868  0.304401  1
  Pt  Pt19  1  0.500000  0.975874  0.696222  1
  Pt  Pt20  1  0.500000  0.476495  0.804269  1
  Pt  Pt21  1  0.500000  0.519553  0.196324  1
