# generated using pymatgen
data_Ce3Ho16TmPb16
_symmetry_space_group_name_H-M   'P 1'
_cell_length_a   8.14956856
_cell_length_b   15.56704900
_cell_length_c   8.23212400
_cell_angle_alpha   90.00000000
_cell_angle_beta   89.96451692
_cell_angle_gamma   90.00000000
_symmetry_Int_Tables_number   1
_chemical_formula_structural   Ce3Ho16TmPb16
_chemical_formula_sum   'Ce3 Ho16 Tm1 Pb16'
_cell_volume   1044.36601421
_cell_formula_units_Z   1
loop_
 _symmetry_equiv_pos_site_id
 _symmetry_equiv_pos_as_xyz
  1  'x, y, z'
loop_
 _atom_site_type_symbol
 _atom_site_label
 _atom_site_symmetry_multiplicity
 _atom_site_fract_x
 _atom_site_fract_y
 _atom_site_fract_z
 _atom_site_occupancy
  Ce  Ce0  1  0.791880  0.750000  0.494911  1
  Ce  Ce1  1  0.291768  0.750000  0.004727  1
  Ce  Ce2  1  0.208408  0.250000  0.504453  1
  Ho  Ho3  1  0.623112  0.620770  0.158326  1
  Ho  Ho4  1  0.123313  0.878699  0.342112  1
  Ho  Ho5  1  0.377563  0.121565  0.842141  1
  Ho  Ho6  1  0.875915  0.378279  0.658378  1
  Ho  Ho7  1  0.377563  0.378435  0.842141  1
  Ho  Ho8  1  0.875915  0.121721  0.658378  1
  Ho  Ho9  1  0.623112  0.879230  0.158326  1
  Ho  Ho10  1  0.123313  0.621301  0.342112  1
  Ho  Ho11  1  0.464157  0.601193  0.676805  1
  Ho  Ho12  1  0.963974  0.899289  0.823008  1
  Ho  Ho13  1  0.536560  0.101378  0.322651  1
  Ho  Ho14  1  0.035561  0.398403  0.175492  1
  Ho  Ho15  1  0.536560  0.398622  0.322651  1
  Ho  Ho16  1  0.035561  0.101597  0.175492  1
  Ho  Ho17  1  0.464157  0.898807  0.676805  1
  Ho  Ho18  1  0.963974  0.600711  0.823008  1
  Tm  Tm19  1  0.708573  0.250000  0.996773  1
  Pb  Pb20  1  0.719191  0.456998  0.967065  1
  Pb  Pb21  1  0.218947  0.042074  0.533134  1
  Pb  Pb22  1  0.280629  0.957996  0.033169  1
  Pb  Pb23  1  0.780833  0.542176  0.467211  1
  Pb  Pb24  1  0.280629  0.542004  0.033169  1
  Pb  Pb25  1  0.780833  0.957824  0.467211  1
  Pb  Pb26  1  0.719191  0.043002  0.967065  1
  Pb  Pb27  1  0.218947  0.457926  0.533134  1
  Pb  Pb28  1  0.427347  0.750000  0.375940  1
  Pb  Pb29  1  0.926590  0.750000  0.124012  1
  Pb  Pb30  1  0.573585  0.250000  0.627129  1
  Pb  Pb31  1  0.069832  0.250000  0.875922  1
  Pb  Pb32  1  0.654916  0.750000  0.849702  1
  Pb  Pb33  1  0.154139  0.750000  0.650743  1
  Pb  Pb34  1  0.347754  0.250000  0.150433  1
  Pb  Pb35  1  0.845696  0.250000  0.346263  1
