# generated using pymatgen
data_DyPa3(ReB4)4
_symmetry_space_group_name_H-M   'P 1'
_cell_length_a   3.65163000
_cell_length_b   5.98388750
_cell_length_c   11.57895097
_cell_angle_alpha   89.95322671
_cell_angle_beta   90.00000000
_cell_angle_gamma   90.00000000
_symmetry_Int_Tables_number   1
_chemical_formula_structural   DyPa3(ReB4)4
_chemical_formula_sum   'Dy1 Pa3 Re4 B16'
_cell_volume   253.01091445
_cell_formula_units_Z   1
loop_
 _symmetry_equiv_pos_site_id
 _symmetry_equiv_pos_as_xyz
  1  'x, y, z'
loop_
 _atom_site_type_symbol
 _atom_site_label
 _atom_site_symmetry_multiplicity
 _atom_site_fract_x
 _atom_site_fract_y
 _atom_site_fract_z
 _atom_site_occupancy
  Dy  Dy0  1  0.000000  0.872475  0.850414  1
  Pa  Pa1  1  0.000000  0.628644  0.350124  1
  Pa  Pa2  1  0.000000  0.372081  0.651297  1
  Pa  Pa3  1  0.000000  0.127574  0.148638  1
  Re  Re4  1  0.000000  0.637313  0.094231  1
  Re  Re5  1  0.000000  0.361586  0.908776  1
  Re  Re6  1  0.000000  0.139198  0.405747  1
  Re  Re7  1  0.000000  0.860755  0.592208  1
  B  B8  1  0.500000  0.789690  0.186444  1
  B  B9  1  0.500000  0.212938  0.813342  1
  B  B10  1  0.500000  0.289870  0.312837  1
  B  B11  1  0.500000  0.710576  0.685807  1
  B  B12  1  0.500000  0.863851  0.031765  1
  B  B13  1  0.500000  0.137185  0.968935  1
  B  B14  1  0.500000  0.364138  0.468828  1
  B  B15  1  0.500000  0.634667  0.531469  1
  B  B16  1  0.500000  0.887381  0.454028  1
  B  B17  1  0.500000  0.111891  0.547013  1
  B  B18  1  0.500000  0.387802  0.045676  1
  B  B19  1  0.500000  0.613338  0.952976  1
  B  B20  1  0.500000  0.973144  0.308407  1
  B  B21  1  0.500000  0.026861  0.691280  1
  B  B22  1  0.500000  0.473301  0.191355  1
  B  B23  1  0.500000  0.523742  0.808402  1
