# generated using pymatgen
data_K4Mn2SeS(O4F3)2
_symmetry_space_group_name_H-M   'P 1'
_cell_length_a   7.45957000
_cell_length_b   8.53063300
_cell_length_c   10.98786500
_cell_angle_alpha   90.00000000
_cell_angle_beta   90.00000000
_cell_angle_gamma   90.00000000
_symmetry_Int_Tables_number   1
_chemical_formula_structural   K4Mn2SeS(O4F3)2
_chemical_formula_sum   'K8 Mn4 Se2 S2 O16 F12'
_cell_volume   699.21118513
_cell_formula_units_Z   2
loop_
 _symmetry_equiv_pos_site_id
 _symmetry_equiv_pos_as_xyz
  1  'x, y, z'
loop_
 _atom_site_type_symbol
 _atom_site_label
 _atom_site_symmetry_multiplicity
 _atom_site_fract_x
 _atom_site_fract_y
 _atom_site_fract_z
 _atom_site_occupancy
  K  K0  1  0.813383  0.677356  0.193826  1
  K  K1  1  0.805830  0.171835  0.312227  1
  K  K2  1  0.313383  0.822644  0.306174  1
  K  K3  1  0.686617  0.677356  0.806174  1
  K  K4  1  0.694170  0.171835  0.687773  1
  K  K5  1  0.305830  0.328165  0.187773  1
  K  K6  1  0.194170  0.328165  0.812227  1
  K  K7  1  0.186617  0.822644  0.693826  1
  Mn  Mn8  1  0.502095  0.504491  0.498370  1
  Mn  Mn9  1  0.497905  0.995509  0.998370  1
  Mn  Mn10  1  0.997905  0.504491  0.501630  1
  Mn  Mn11  1  0.002095  0.995509  0.001630  1
  Se  Se12  1  0.250000  0.186014  0.500000  1
  Se  Se13  1  0.750000  0.313986  0.000000  1
  S  S14  1  0.750000  0.810436  0.500000  1
  S  S15  1  0.250000  0.689564  0.000000  1
  O  O16  1  0.345570  0.082286  0.608758  1
  O  O17  1  0.845570  0.417714  0.891242  1
  O  O18  1  0.154430  0.082286  0.391242  1
  O  O19  1  0.654430  0.417714  0.108758  1
  O  O20  1  0.664883  0.904106  0.404111  1
  O  O21  1  0.164883  0.595894  0.095889  1
  O  O22  1  0.835117  0.904106  0.595889  1
  O  O23  1  0.335117  0.595894  0.904111  1
  O  O24  1  0.404110  0.302256  0.429769  1
  O  O25  1  0.904110  0.197744  0.070231  1
  O  O26  1  0.095890  0.302256  0.570231  1
  O  O27  1  0.595890  0.197744  0.929769  1
  O  O28  1  0.112074  0.794540  0.938396  1
  O  O29  1  0.887926  0.705460  0.438396  1
  O  O30  1  0.612074  0.705460  0.561604  1
  O  O31  1  0.387926  0.794540  0.061604  1
  F  F32  1  0.471336  0.932927  0.837213  1
  F  F33  1  0.971336  0.567073  0.662787  1
  F  F34  1  0.028664  0.932927  0.162787  1
  F  F35  1  0.528664  0.567073  0.337213  1
  F  F36  1  0.750000  0.881613  0.000000  1
  F  F37  1  0.250000  0.618387  0.500000  1
  F  F38  1  0.250000  0.113944  0.000000  1
  F  F39  1  0.750000  0.386056  0.500000  1
  F  F40  1  0.972385  0.059002  0.840334  1
  F  F41  1  0.527615  0.059002  0.159666  1
  F  F42  1  0.027615  0.440998  0.340334  1
  F  F43  1  0.472385  0.440998  0.659666  1
