# generated using pymatgen
data_Sm2InBiO7
_symmetry_space_group_name_H-M   'P 1'
_cell_length_a   7.64976203
_cell_length_b   7.64976182
_cell_length_c   7.76010300
_cell_angle_alpha   59.52168231
_cell_angle_beta   59.52168322
_cell_angle_gamma   59.37065159
_symmetry_Int_Tables_number   1
_chemical_formula_structural   Sm2InBiO7
_chemical_formula_sum   'Sm4 In2 Bi2 O14'
_cell_volume   317.24305727
_cell_formula_units_Z   2
loop_
 _symmetry_equiv_pos_site_id
 _symmetry_equiv_pos_as_xyz
  1  'x, y, z'
loop_
 _atom_site_type_symbol
 _atom_site_label
 _atom_site_symmetry_multiplicity
 _atom_site_fract_x
 _atom_site_fract_y
 _atom_site_fract_z
 _atom_site_occupancy
  Sm  Sm0  1  0.625000  0.125000  0.125000  1
  Sm  Sm1  1  0.125000  0.125000  0.125000  1
  Sm  Sm2  1  0.125000  0.625000  0.125000  1
  Sm  Sm3  1  0.125000  0.125000  0.625000  1
  In  In4  1  0.625000  0.125000  0.625000  1
  In  In5  1  0.125000  0.625000  0.625000  1
  Bi  Bi6  1  0.625000  0.625000  0.125000  1
  Bi  Bi7  1  0.625000  0.625000  0.625000  1
  O  O8  1  0.711994  0.285472  0.278530  1
  O  O9  1  0.712145  0.712145  0.287855  1
  O  O10  1  0.285472  0.711994  0.278530  1
  O  O11  1  0.998534  0.998534  0.001466  1
  O  O12  1  0.711994  0.285472  0.724003  1
  O  O13  1  0.964528  0.538006  0.525997  1
  O  O14  1  0.285472  0.711994  0.724003  1
  O  O15  1  0.538006  0.964528  0.525997  1
  O  O16  1  0.251466  0.251466  0.248534  1
  O  O17  1  0.964528  0.538006  0.971470  1
  O  O18  1  0.537855  0.537855  0.962145  1
  O  O19  1  0.973149  0.973149  0.526851  1
  O  O20  1  0.538006  0.964528  0.971470  1
  O  O21  1  0.276851  0.276851  0.723149  1
