# generated using pymatgen
data_Na4CuP2Au
_symmetry_space_group_name_H-M   'P 1'
_cell_length_a   5.59928923
_cell_length_b   5.59928960
_cell_length_c   5.47050712
_cell_angle_alpha   89.34674440
_cell_angle_beta   89.34674598
_cell_angle_gamma   102.97554262
_symmetry_Int_Tables_number   1
_chemical_formula_structural   Na4CuP2Au
_chemical_formula_sum   'Na4 Cu1 P2 Au1'
_cell_volume   167.10417456
_cell_formula_units_Z   1
loop_
 _symmetry_equiv_pos_site_id
 _symmetry_equiv_pos_as_xyz
  1  'x, y, z'
loop_
 _atom_site_type_symbol
 _atom_site_label
 _atom_site_symmetry_multiplicity
 _atom_site_fract_x
 _atom_site_fract_y
 _atom_site_fract_z
 _atom_site_occupancy
  Na  Na0  1  0.032665  0.679936  0.249851  1
  Na  Na1  1  0.967335  0.320064  0.750149  1
  Na  Na2  1  0.679936  0.032665  0.249851  1
  Na  Na3  1  0.320064  0.967335  0.750149  1
  Cu  Cu4  1  0.500000  0.500000  0.000000  1
  P  P5  1  0.772387  0.772387  0.769322  1
  P  P6  1  0.227613  0.227613  0.230678  1
  Au  Au7  1  0.500000  0.500000  0.500000  1
