# generated using pymatgen
data_TmLu5(Fe3P2)6
_symmetry_space_group_name_H-M   'P 1'
_cell_length_a   3.66012300
_cell_length_b   10.43084400
_cell_length_c   12.14718400
_cell_angle_alpha   90.00000000
_cell_angle_beta   90.00000000
_cell_angle_gamma   90.00000000
_symmetry_Int_Tables_number   1
_chemical_formula_structural   TmLu5(Fe3P2)6
_chemical_formula_sum   'Tm1 Lu5 Fe18 P12'
_cell_volume   463.75728048
_cell_formula_units_Z   1
loop_
 _symmetry_equiv_pos_site_id
 _symmetry_equiv_pos_as_xyz
  1  'x, y, z'
loop_
 _atom_site_type_symbol
 _atom_site_label
 _atom_site_symmetry_multiplicity
 _atom_site_fract_x
 _atom_site_fract_y
 _atom_site_fract_z
 _atom_site_occupancy
  Tm  Tm0  1  0.000000  0.500000  0.526258  1
  Lu  Lu1  1  0.500000  0.000000  0.473690  1
  Lu  Lu2  1  0.500000  0.820707  0.207496  1
  Lu  Lu3  1  0.500000  0.179293  0.207496  1
  Lu  Lu4  1  0.000000  0.679364  0.792580  1
  Lu  Lu5  1  0.000000  0.320636  0.792580  1
  Fe  Fe6  1  0.500000  0.500000  0.154079  1
  Fe  Fe7  1  0.000000  0.000000  0.845894  1
  Fe  Fe8  1  0.500000  0.500000  0.699517  1
  Fe  Fe9  1  0.000000  0.000000  0.301029  1
  Fe  Fe10  1  0.000000  0.500000  0.989855  1
  Fe  Fe11  1  0.500000  0.000000  0.010173  1
  Fe  Fe12  1  0.500000  0.327608  0.996194  1
  Fe  Fe13  1  0.500000  0.672392  0.996194  1
  Fe  Fe14  1  0.000000  0.172386  0.003813  1
  Fe  Fe15  1  0.000000  0.827614  0.003813  1
  Fe  Fe16  1  0.500000  0.299373  0.430499  1
  Fe  Fe17  1  0.500000  0.700627  0.430499  1
  Fe  Fe18  1  0.000000  0.200109  0.569321  1
  Fe  Fe19  1  0.000000  0.799891  0.569321  1
  Fe  Fe20  1  0.500000  0.881858  0.707663  1
  Fe  Fe21  1  0.500000  0.118142  0.707663  1
  Fe  Fe22  1  0.000000  0.618281  0.292199  1
  Fe  Fe23  1  0.000000  0.381719  0.292199  1
  P  P24  1  0.500000  0.500000  0.882232  1
  P  P25  1  0.000000  0.000000  0.118005  1
  P  P26  1  0.500000  0.500000  0.341379  1
  P  P27  1  0.000000  0.000000  0.658242  1
  P  P28  1  0.500000  0.307257  0.615000  1
  P  P29  1  0.500000  0.692743  0.615000  1
  P  P30  1  0.000000  0.192377  0.385092  1
  P  P31  1  0.000000  0.807623  0.385092  1
  P  P32  1  0.500000  0.850857  0.886615  1
  P  P33  1  0.500000  0.149143  0.886615  1
  P  P34  1  0.000000  0.649173  0.113352  1
  P  P35  1  0.000000  0.350827  0.113352  1
