# generated using pymatgen
data_Ba4TbDy3(LuTe4)4
_symmetry_space_group_name_H-M   'P 1'
_cell_length_a   4.46457500
_cell_length_b   13.79277900
_cell_length_c   16.18584101
_cell_angle_alpha   89.99704150
_cell_angle_beta   90.00000000
_cell_angle_gamma   90.00000000
_symmetry_Int_Tables_number   1
_chemical_formula_structural   Ba4TbDy3(LuTe4)4
_chemical_formula_sum   'Ba4 Tb1 Dy3 Lu4 Te16'
_cell_volume   996.70622387
_cell_formula_units_Z   1
loop_
 _symmetry_equiv_pos_site_id
 _symmetry_equiv_pos_as_xyz
  1  'x, y, z'
loop_
 _atom_site_type_symbol
 _atom_site_label
 _atom_site_symmetry_multiplicity
 _atom_site_fract_x
 _atom_site_fract_y
 _atom_site_fract_z
 _atom_site_occupancy
  Ba  Ba0  1  0.750000  0.260858  0.830997  1
  Ba  Ba1  1  0.250000  0.739156  0.169013  1
  Ba  Ba2  1  0.750000  0.760796  0.668981  1
  Ba  Ba3  1  0.250000  0.239179  0.330995  1
  Tb  Tb4  1  0.750000  0.940137  0.889942  1
  Dy  Dy5  1  0.250000  0.059757  0.110087  1
  Dy  Dy6  1  0.750000  0.440241  0.610089  1
  Dy  Dy7  1  0.250000  0.559758  0.389917  1
  Lu  Lu8  1  0.250000  0.079989  0.596106  1
  Lu  Lu9  1  0.750000  0.920023  0.403856  1
  Lu  Lu10  1  0.250000  0.579957  0.903850  1
  Lu  Lu11  1  0.750000  0.420023  0.096136  1
  Te  Te12  1  0.250000  0.471865  0.213964  1
  Te  Te13  1  0.750000  0.528128  0.786034  1
  Te  Te14  1  0.250000  0.971865  0.286052  1
  Te  Te15  1  0.750000  0.028249  0.713770  1
  Te  Te16  1  0.250000  0.375130  0.973026  1
  Te  Te17  1  0.750000  0.624876  0.026970  1
  Te  Te18  1  0.250000  0.875126  0.526983  1
  Te  Te19  1  0.750000  0.124883  0.473010  1
  Te  Te20  1  0.250000  0.292726  0.660346  1
  Te  Te21  1  0.750000  0.707272  0.339659  1
  Te  Te22  1  0.250000  0.792370  0.839498  1
  Te  Te23  1  0.750000  0.207266  0.160340  1
  Te  Te24  1  0.750000  0.409954  0.423203  1
  Te  Te25  1  0.250000  0.590055  0.576793  1
  Te  Te26  1  0.750000  0.909928  0.077105  1
  Te  Te27  1  0.250000  0.090434  0.923280  1
