# generated using pymatgen
data_Ce3Sm3(Co8Si)2
_symmetry_space_group_name_H-M   'P 1'
_cell_length_a   5.04867800
_cell_length_b   5.04867852
_cell_length_c   15.76886500
_cell_angle_alpha   90.00000000
_cell_angle_beta   90.00000000
_cell_angle_gamma   119.99999662
_symmetry_Int_Tables_number   1
_chemical_formula_structural   Ce3Sm3(Co8Si)2
_chemical_formula_sum   'Ce3 Sm3 Co16 Si2'
_cell_volume   348.08593194
_cell_formula_units_Z   1
loop_
 _symmetry_equiv_pos_site_id
 _symmetry_equiv_pos_as_xyz
  1  'x, y, z'
loop_
 _atom_site_type_symbol
 _atom_site_label
 _atom_site_symmetry_multiplicity
 _atom_site_fract_x
 _atom_site_fract_y
 _atom_site_fract_z
 _atom_site_occupancy
  Ce  Ce0  1  0.666667  0.333333  0.040659  1
  Ce  Ce1  1  0.666667  0.333333  0.462351  1
  Ce  Ce2  1  0.333333  0.666667  0.536888  1
  Sm  Sm3  1  0.333333  0.666667  0.962746  1
  Sm  Sm4  1  0.333333  0.666667  0.749045  1
  Sm  Sm5  1  0.666667  0.333333  0.251345  1
  Co  Co6  1  0.164748  0.835252  0.370040  1
  Co  Co7  1  0.164748  0.329496  0.370040  1
  Co  Co8  1  0.670504  0.835252  0.370040  1
  Co  Co9  1  0.834630  0.165370  0.629487  1
  Co  Co10  1  0.834630  0.669259  0.629487  1
  Co  Co11  1  0.330741  0.165370  0.629487  1
  Co  Co12  1  0.836077  0.163923  0.868576  1
  Co  Co13  1  0.836077  0.672155  0.868576  1
  Co  Co14  1  0.327845  0.163923  0.868576  1
  Co  Co15  1  0.165108  0.834892  0.131078  1
  Co  Co16  1  0.165108  0.330215  0.131078  1
  Co  Co17  1  0.669785  0.834892  0.131078  1
  Co  Co18  1  0.333333  0.666667  0.250613  1
  Co  Co19  1  0.666667  0.333333  0.750111  1
  Co  Co20  1  0.000000  0.000000  0.500137  1
  Co  Co21  1  0.000000  0.000000  0.000312  1
  Si  Si22  1  0.000000  0.000000  0.250389  1
  Si  Si23  1  0.000000  0.000000  0.747858  1
