# generated using pymatgen
data_Li4Pr3Er(Si2Sn)2
_symmetry_space_group_name_H-M   'P 1'
_cell_length_a   9.74889732
_cell_length_b   9.74889562
_cell_length_c   6.89147600
_cell_angle_alpha   90.00000000
_cell_angle_beta   90.00000000
_cell_angle_gamma   153.22281168
_symmetry_Int_Tables_number   1
_chemical_formula_structural   Li4Pr3Er(Si2Sn)2
_chemical_formula_sum   'Li4 Pr3 Er1 Si4 Sn2'
_cell_volume   295.07967421
_cell_formula_units_Z   1
loop_
 _symmetry_equiv_pos_site_id
 _symmetry_equiv_pos_as_xyz
  1  'x, y, z'
loop_
 _atom_site_type_symbol
 _atom_site_label
 _atom_site_symmetry_multiplicity
 _atom_site_fract_x
 _atom_site_fract_y
 _atom_site_fract_z
 _atom_site_occupancy
  Li  Li0  1  0.184961  0.815039  0.056292  1
  Li  Li1  1  0.184961  0.815039  0.443708  1
  Li  Li2  1  0.816218  0.183782  0.946603  1
  Li  Li3  1  0.816218  0.183782  0.553397  1
  Pr  Pr4  1  0.649834  0.350166  0.750000  1
  Pr  Pr5  1  0.548217  0.451783  0.250000  1
  Pr  Pr6  1  0.449972  0.550028  0.750000  1
  Er  Er7  1  0.351891  0.648109  0.250000  1
  Si  Si8  1  0.056051  0.943949  0.925353  1
  Si  Si9  1  0.941386  0.058614  0.076173  1
  Si  Si10  1  0.941386  0.058614  0.423827  1
  Si  Si11  1  0.056051  0.943949  0.574647  1
  Sn  Sn12  1  0.722105  0.277895  0.250000  1
  Sn  Sn13  1  0.280753  0.719247  0.750000  1
