# generated using pymatgen
data_Er16TlZn(InRh2)2
_symmetry_space_group_name_H-M   'P 1'
_cell_length_a   9.55005951
_cell_length_b   9.53271073
_cell_length_c   9.54832120
_cell_angle_alpha   59.96103825
_cell_angle_beta   59.99398021
_cell_angle_gamma   59.93978253
_symmetry_Int_Tables_number   1
_chemical_formula_structural   Er16TlZn(InRh2)2
_chemical_formula_sum   'Er16 Tl1 Zn1 In2 Rh4'
_cell_volume   614.17031498
_cell_formula_units_Z   1
loop_
 _symmetry_equiv_pos_site_id
 _symmetry_equiv_pos_as_xyz
  1  'x, y, z'
loop_
 _atom_site_type_symbol
 _atom_site_label
 _atom_site_symmetry_multiplicity
 _atom_site_fract_x
 _atom_site_fract_y
 _atom_site_fract_z
 _atom_site_occupancy
  Er  Er0  1  0.189017  0.190356  0.810277  1
  Er  Er1  1  0.438230  0.055457  0.068083  1
  Er  Er2  1  0.436943  0.057414  0.436644  1
  Er  Er3  1  0.062464  0.435868  0.063218  1
  Er  Er4  1  0.650429  0.050958  0.648182  1
  Er  Er5  1  0.189210  0.811954  0.809627  1
  Er  Er6  1  0.068999  0.057414  0.436644  1
  Er  Er7  1  0.809939  0.190330  0.189792  1
  Er  Er8  1  0.809369  0.811799  0.189795  1
  Er  Er9  1  0.649042  0.648550  0.053366  1
  Er  Er10  1  0.651051  0.649943  0.648385  1
  Er  Er11  1  0.064020  0.434642  0.437319  1
  Er  Er12  1  0.050622  0.649943  0.648385  1
  Er  Er13  1  0.810351  0.190356  0.810277  1
  Er  Er14  1  0.438450  0.435868  0.063218  1
  Er  Er15  1  0.189037  0.811799  0.189795  1
  Tl  Tl16  1  0.414449  0.420263  0.750838  1
  Zn  Zn17  1  0.415834  0.753306  0.415025  1
  In  In18  1  0.746507  0.421544  0.415696  1
  In  In19  1  0.416253  0.421544  0.415696  1
  Rh  Rh20  1  0.856699  0.429544  0.857058  1
  Rh  Rh21  1  0.857520  0.857304  0.427656  1
  Rh  Rh22  1  0.428326  0.856923  0.857513  1
  Rh  Rh23  1  0.857239  0.856923  0.857513  1
