# generated using pymatgen
data_Hf3Ga3NiPt2
_symmetry_space_group_name_H-M   'P 1'
_cell_length_a   7.10237300
_cell_length_b   7.10237286
_cell_length_c   6.93175100
_cell_angle_alpha   90.00000000
_cell_angle_beta   90.00000000
_cell_angle_gamma   120.00000529
_symmetry_Int_Tables_number   1
_chemical_formula_structural   Hf3Ga3NiPt2
_chemical_formula_sum   'Hf6 Ga6 Ni2 Pt4'
_cell_volume   302.81717766
_cell_formula_units_Z   2
loop_
 _symmetry_equiv_pos_site_id
 _symmetry_equiv_pos_as_xyz
  1  'x, y, z'
loop_
 _atom_site_type_symbol
 _atom_site_label
 _atom_site_symmetry_multiplicity
 _atom_site_fract_x
 _atom_site_fract_y
 _atom_site_fract_z
 _atom_site_occupancy
  Hf  Hf0  1  0.404285  0.381146  0.250000  1
  Hf  Hf1  1  0.595715  0.976861  0.750000  1
  Hf  Hf2  1  0.381146  0.404285  0.750000  1
  Hf  Hf3  1  0.023139  0.618854  0.750000  1
  Hf  Hf4  1  0.976861  0.595715  0.250000  1
  Hf  Hf5  1  0.618854  0.023139  0.250000  1
  Ga  Ga6  1  0.254115  0.000000  0.000000  1
  Ga  Ga7  1  0.254115  0.000000  0.500000  1
  Ga  Ga8  1  0.000000  0.254115  0.500000  1
  Ga  Ga9  1  0.000000  0.254115  0.000000  1
  Ga  Ga10  1  0.745885  0.745885  0.000000  1
  Ga  Ga11  1  0.745885  0.745885  0.500000  1
  Ni  Ni12  1  0.000000  0.000000  0.750000  1
  Ni  Ni13  1  0.000000  0.000000  0.250000  1
  Pt  Pt14  1  0.666667  0.333333  0.532456  1
  Pt  Pt15  1  0.666667  0.333333  0.967544  1
  Pt  Pt16  1  0.333333  0.666667  0.032456  1
  Pt  Pt17  1  0.333333  0.666667  0.467544  1
