# generated using pymatgen
data_Tb3HoPt4F28
_symmetry_space_group_name_H-M   'P 1'
_cell_length_a   5.54967607
_cell_length_b   8.94022713
_cell_length_c   12.05295790
_cell_angle_alpha   62.26500253
_cell_angle_beta   90.00594719
_cell_angle_gamma   89.98782316
_symmetry_Int_Tables_number   1
_chemical_formula_structural   Tb3HoPt4F28
_chemical_formula_sum   'Tb3 Ho1 Pt4 F28'
_cell_volume   529.30600301
_cell_formula_units_Z   1
loop_
 _symmetry_equiv_pos_site_id
 _symmetry_equiv_pos_as_xyz
  1  'x, y, z'
loop_
 _atom_site_type_symbol
 _atom_site_label
 _atom_site_symmetry_multiplicity
 _atom_site_fract_x
 _atom_site_fract_y
 _atom_site_fract_z
 _atom_site_occupancy
  Tb  Tb0  1  0.739001  0.185678  0.736338  1
  Tb  Tb1  1  0.760825  0.184457  0.236401  1
  Tb  Tb2  1  0.238998  0.814170  0.763711  1
  Ho  Ho3  1  0.261304  0.814605  0.263499  1
  Pt  Pt4  1  0.759023  0.727222  0.042958  1
  Pt  Pt5  1  0.241415  0.272421  0.958170  1
  Pt  Pt6  1  0.258761  0.273739  0.457391  1
  Pt  Pt7  1  0.741118  0.727274  0.541532  1
  F  F8  1  0.937942  0.707394  0.413088  1
  F  F9  1  0.063735  0.293658  0.585920  1
  F  F10  1  0.436819  0.292833  0.086550  1
  F  F11  1  0.563314  0.706916  0.914628  1
  F  F12  1  0.466073  0.728498  0.135006  1
  F  F13  1  0.534186  0.272050  0.866371  1
  F  F14  1  0.965933  0.272391  0.365771  1
  F  F15  1  0.033527  0.727744  0.633621  1
  F  F16  1  0.951948  0.742241  0.175106  1
  F  F17  1  0.050569  0.258320  0.825605  1
  F  F18  1  0.449718  0.258943  0.325060  1
  F  F19  1  0.549739  0.741404  0.674057  1
  F  F20  1  0.768279  0.479198  0.140776  1
  F  F21  1  0.231901  0.520388  0.859854  1
  F  F22  1  0.268112  0.522261  0.359214  1
  F  F23  1  0.731478  0.479485  0.639851  1
  F  F24  1  0.941999  0.280751  0.043170  1
  F  F25  1  0.057677  0.718705  0.957412  1
  F  F26  1  0.441421  0.719685  0.455538  1
  F  F27  1  0.558151  0.281730  0.542536  1
  F  F28  1  0.739786  0.975299  0.448717  1
  F  F29  1  0.260483  0.025694  0.550585  1
  F  F30  1  0.239568  0.024035  0.051819  1
  F  F31  1  0.760596  0.975187  0.949571  1
  F  F32  1  0.587606  0.966614  0.231818  1
  F  F33  1  0.408759  0.031977  0.768674  1
  F  F34  1  0.091276  0.029328  0.268348  1
  F  F35  1  0.908956  0.967707  0.731331  1
