# generated using pymatgen
data_Yb5Bi2Pb
_symmetry_space_group_name_H-M   'P 1'
_cell_length_a   9.30209200
_cell_length_b   9.36040167
_cell_length_c   6.96803800
_cell_angle_alpha   90.00000000
_cell_angle_beta   90.00000000
_cell_angle_gamma   119.79413917
_symmetry_Int_Tables_number   1
_chemical_formula_structural   Yb5Bi2Pb
_chemical_formula_sum   'Yb10 Bi4 Pb2'
_cell_volume   526.51824103
_cell_formula_units_Z   2
loop_
 _symmetry_equiv_pos_site_id
 _symmetry_equiv_pos_as_xyz
  1  'x, y, z'
loop_
 _atom_site_type_symbol
 _atom_site_label
 _atom_site_symmetry_multiplicity
 _atom_site_fract_x
 _atom_site_fract_y
 _atom_site_fract_z
 _atom_site_occupancy
  Yb  Yb0  1  0.004444  0.735183  0.750000  1
  Yb  Yb1  1  0.730738  0.735183  0.250000  1
  Yb  Yb2  1  0.269262  0.264817  0.750000  1
  Yb  Yb3  1  0.732418  0.000000  0.750000  1
  Yb  Yb4  1  0.334384  0.668770  0.500000  1
  Yb  Yb5  1  0.267582  0.000000  0.250000  1
  Yb  Yb6  1  0.995556  0.264817  0.250000  1
  Yb  Yb7  1  0.665616  0.331230  0.500000  1
  Yb  Yb8  1  0.334384  0.668770  0.000000  1
  Yb  Yb9  1  0.665616  0.331230  0.000000  1
  Bi  Bi10  1  0.379744  0.381695  0.250000  1
  Bi  Bi11  1  0.001950  0.381695  0.750000  1
  Bi  Bi12  1  0.620256  0.618305  0.750000  1
  Bi  Bi13  1  0.998050  0.618305  0.250000  1
  Pb  Pb14  1  0.613329  0.000000  0.250000  1
  Pb  Pb15  1  0.386671  0.000000  0.750000  1
