# generated using pymatgen
data_Pr3Si2PdRh2
_symmetry_space_group_name_H-M   'P 1'
_cell_length_a   5.80310300
_cell_length_b   7.77619600
_cell_length_c   15.33433500
_cell_angle_alpha   90.00000000
_cell_angle_beta   90.00000000
_cell_angle_gamma   90.00000000
_symmetry_Int_Tables_number   1
_chemical_formula_structural   Pr3Si2PdRh2
_chemical_formula_sum   'Pr12 Si8 Pd4 Rh8'
_cell_volume   691.97821843
_cell_formula_units_Z   4
loop_
 _symmetry_equiv_pos_site_id
 _symmetry_equiv_pos_as_xyz
  1  'x, y, z'
loop_
 _atom_site_type_symbol
 _atom_site_label
 _atom_site_symmetry_multiplicity
 _atom_site_fract_x
 _atom_site_fract_y
 _atom_site_fract_z
 _atom_site_occupancy
  Pr  Pr0  1  0.141474  0.474496  0.894538  1
  Pr  Pr1  1  0.358526  0.974496  0.894538  1
  Pr  Pr2  1  0.623371  0.335328  0.750000  1
  Pr  Pr3  1  0.376629  0.664672  0.250000  1
  Pr  Pr4  1  0.641474  0.025504  0.394538  1
  Pr  Pr5  1  0.858526  0.525504  0.105462  1
  Pr  Pr6  1  0.858526  0.525504  0.394538  1
  Pr  Pr7  1  0.358526  0.974496  0.605462  1
  Pr  Pr8  1  0.876629  0.835328  0.750000  1
  Pr  Pr9  1  0.141474  0.474496  0.605462  1
  Pr  Pr10  1  0.641474  0.025504  0.105462  1
  Pr  Pr11  1  0.123371  0.164672  0.250000  1
  Si  Si12  1  0.359331  0.376086  0.095386  1
  Si  Si13  1  0.640669  0.623914  0.904614  1
  Si  Si14  1  0.859331  0.123914  0.904614  1
  Si  Si15  1  0.359331  0.376086  0.404614  1
  Si  Si16  1  0.859331  0.123914  0.595386  1
  Si  Si17  1  0.640669  0.623914  0.595386  1
  Si  Si18  1  0.140669  0.876086  0.404614  1
  Si  Si19  1  0.140669  0.876086  0.095386  1
  Pd  Pd20  1  0.590162  0.312845  0.250000  1
  Pd  Pd21  1  0.090162  0.187155  0.750000  1
  Pd  Pd22  1  0.409838  0.687155  0.750000  1
  Pd  Pd23  1  0.909838  0.812845  0.250000  1
  Rh  Rh24  1  0.599143  0.336003  0.963538  1
  Rh  Rh25  1  0.400857  0.663997  0.036462  1
  Rh  Rh26  1  0.400857  0.663997  0.463538  1
  Rh  Rh27  1  0.099143  0.163997  0.463538  1
  Rh  Rh28  1  0.099143  0.163997  0.036462  1
  Rh  Rh29  1  0.599143  0.336003  0.536462  1
  Rh  Rh30  1  0.900857  0.836003  0.536462  1
  Rh  Rh31  1  0.900857  0.836003  0.963538  1
