# generated using pymatgen
data_Li2TbCeSi2Sn
_symmetry_space_group_name_H-M   'P 1'
_cell_length_a   9.66303742
_cell_length_b   9.66303883
_cell_length_c   6.78818400
_cell_angle_alpha   90.00000000
_cell_angle_beta   90.00000000
_cell_angle_gamma   153.21274217
_symmetry_Int_Tables_number   1
_chemical_formula_structural   Li2TbCeSi2Sn
_chemical_formula_sum   'Li4 Tb2 Ce2 Si4 Sn2'
_cell_volume   285.65928035
_cell_formula_units_Z   2
loop_
 _symmetry_equiv_pos_site_id
 _symmetry_equiv_pos_as_xyz
  1  'x, y, z'
loop_
 _atom_site_type_symbol
 _atom_site_label
 _atom_site_symmetry_multiplicity
 _atom_site_fract_x
 _atom_site_fract_y
 _atom_site_fract_z
 _atom_site_occupancy
  Li  Li0  1  0.184376  0.815624  0.056244  1
  Li  Li1  1  0.184376  0.815624  0.443756  1
  Li  Li2  1  0.815624  0.184376  0.943756  1
  Li  Li3  1  0.815624  0.184376  0.556244  1
  Tb  Tb4  1  0.351938  0.648062  0.250000  1
  Tb  Tb5  1  0.648062  0.351938  0.750000  1
  Ce  Ce6  1  0.548023  0.451977  0.250000  1
  Ce  Ce7  1  0.451977  0.548023  0.750000  1
  Si  Si8  1  0.057687  0.942313  0.927759  1
  Si  Si9  1  0.942313  0.057687  0.072241  1
  Si  Si10  1  0.942313  0.057687  0.427759  1
  Si  Si11  1  0.057687  0.942313  0.572241  1
  Sn  Sn12  1  0.720467  0.279533  0.250000  1
  Sn  Sn13  1  0.279533  0.720467  0.750000  1
