# generated using pymatgen
data_Mn3(TlS2)2
_symmetry_space_group_name_H-M   'P 1'
_cell_length_a   5.27929261
_cell_length_b   9.02893232
_cell_length_c   9.02893200
_cell_angle_alpha   96.78873697
_cell_angle_beta   106.99894705
_cell_angle_gamma   106.99894834
_symmetry_Int_Tables_number   1
_chemical_formula_structural   Mn3(TlS2)2
_chemical_formula_sum   'Mn6 Tl4 S8'
_cell_volume   383.70613561
_cell_formula_units_Z   2
loop_
 _symmetry_equiv_pos_site_id
 _symmetry_equiv_pos_as_xyz
  1  'x, y, z'
loop_
 _atom_site_type_symbol
 _atom_site_label
 _atom_site_symmetry_multiplicity
 _atom_site_fract_x
 _atom_site_fract_y
 _atom_site_fract_z
 _atom_site_occupancy
  Mn  Mn0  1  0.245595  0.495595  0.995595  1
  Mn  Mn1  1  0.500000  0.750000  0.250001  1
  Mn  Mn2  1  0.754406  0.004406  0.504405  1
  Mn  Mn3  1  0.245595  0.995595  0.495595  1
  Mn  Mn4  1  0.500000  0.250001  0.750000  1
  Mn  Mn5  1  0.754406  0.504405  0.004406  1
  Tl  Tl6  1  0.884239  0.126684  0.126684  1
  Tl  Tl7  1  0.630872  0.373316  0.373316  1
  Tl  Tl8  1  0.369128  0.626684  0.626684  1
  Tl  Tl9  1  0.115761  0.873317  0.873317  1
  S  S10  1  0.612611  0.715374  0.024173  1
  S  S11  1  0.126935  0.524172  0.215374  1
  S  S12  1  0.387390  0.975828  0.284627  1
  S  S13  1  0.873065  0.784627  0.475829  1
  S  S14  1  0.126935  0.215374  0.524172  1
  S  S15  1  0.612611  0.024173  0.715374  1
  S  S16  1  0.873065  0.475829  0.784627  1
  S  S17  1  0.387390  0.284627  0.975828  1
