# generated using pymatgen
data_Li2LaTmSi4
_symmetry_space_group_name_H-M   'P 1'
_cell_length_a   3.84880500
_cell_length_b   7.71510671
_cell_length_c   10.34847315
_cell_angle_alpha   89.49849236
_cell_angle_beta   90.00000000
_cell_angle_gamma   90.00000000
_symmetry_Int_Tables_number   1
_chemical_formula_structural   Li2LaTmSi4
_chemical_formula_sum   'Li4 La2 Tm2 Si8'
_cell_volume   307.27518278
_cell_formula_units_Z   2
loop_
 _symmetry_equiv_pos_site_id
 _symmetry_equiv_pos_as_xyz
  1  'x, y, z'
loop_
 _atom_site_type_symbol
 _atom_site_label
 _atom_site_symmetry_multiplicity
 _atom_site_fract_x
 _atom_site_fract_y
 _atom_site_fract_z
 _atom_site_occupancy
  Li  Li0  1  0.250000  0.995973  0.388757  1
  Li  Li1  1  0.750000  0.004027  0.611243  1
  Li  Li2  1  0.250000  0.489539  0.105999  1
  Li  Li3  1  0.750000  0.510461  0.894001  1
  La  La4  1  0.250000  0.640862  0.637661  1
  La  La5  1  0.750000  0.359138  0.362339  1
  Tm  Tm6  1  0.250000  0.130161  0.865578  1
  Tm  Tm7  1  0.750000  0.869839  0.134422  1
  Si  Si8  1  0.750000  0.260570  0.060579  1
  Si  Si9  1  0.250000  0.739430  0.939421  1
  Si  Si10  1  0.750000  0.779615  0.421493  1
  Si  Si11  1  0.250000  0.220385  0.578507  1
  Si  Si12  1  0.750000  0.846049  0.828343  1
  Si  Si13  1  0.250000  0.153951  0.171657  1
  Si  Si14  1  0.750000  0.329905  0.686684  1
  Si  Si15  1  0.250000  0.670095  0.313316  1
