# generated using pymatgen
data_V20Si12C
_symmetry_space_group_name_H-M   'P 1'
_cell_length_a   12.35743400
_cell_length_b   4.82782063
_cell_length_c   7.13326705
_cell_angle_alpha   90.00175077
_cell_angle_beta   90.00000000
_cell_angle_gamma   90.00000000
_symmetry_Int_Tables_number   1
_chemical_formula_structural   V20Si12C
_chemical_formula_sum   'V20 Si12 C1'
_cell_volume   425.56696558
_cell_formula_units_Z   1
loop_
 _symmetry_equiv_pos_site_id
 _symmetry_equiv_pos_as_xyz
  1  'x, y, z'
loop_
 _atom_site_type_symbol
 _atom_site_label
 _atom_site_symmetry_multiplicity
 _atom_site_fract_x
 _atom_site_fract_y
 _atom_site_fract_z
 _atom_site_occupancy
  V  V0  1  0.332467  0.500000  0.000000  1
  V  V1  1  0.834216  0.500000  0.500000  1
  V  V2  1  0.165784  0.500000  0.500000  1
  V  V3  1  0.667533  0.500000  0.000000  1
  V  V4  1  0.168184  0.000000  0.500000  1
  V  V5  1  0.665170  0.000000  0.000000  1
  V  V6  1  0.334830  0.000000  0.000000  1
  V  V7  1  0.831816  0.000000  0.500000  1
  V  V8  1  0.500000  0.249168  0.743981  1
  V  V9  1  0.000000  0.255173  0.238645  1
  V  V10  1  0.377902  0.249364  0.376414  1
  V  V11  1  0.880634  0.255252  0.881166  1
  V  V12  1  0.119366  0.255252  0.881166  1
  V  V13  1  0.622098  0.249364  0.376414  1
  V  V14  1  0.500000  0.750832  0.256019  1
  V  V15  1  0.000000  0.744827  0.761355  1
  V  V16  1  0.119366  0.744748  0.118834  1
  V  V17  1  0.622098  0.750636  0.623586  1
  V  V18  1  0.377902  0.750636  0.623586  1
  V  V19  1  0.880634  0.744748  0.118834  1
  Si  Si20  1  0.500000  0.252564  0.104162  1
  Si  Si21  1  0.000000  0.241191  0.599257  1
  Si  Si22  1  0.200599  0.242691  0.200424  1
  Si  Si23  1  0.697763  0.250778  0.697551  1
  Si  Si24  1  0.302237  0.250778  0.697551  1
  Si  Si25  1  0.799401  0.242691  0.200424  1
  Si  Si26  1  0.500000  0.747436  0.895838  1
  Si  Si27  1  0.000000  0.758809  0.400743  1
  Si  Si28  1  0.302237  0.749222  0.302449  1
  Si  Si29  1  0.799401  0.757309  0.799576  1
  Si  Si30  1  0.200599  0.757309  0.799576  1
  Si  Si31  1  0.697763  0.749222  0.302449  1
  C  C32  1  0.000000  0.500000  0.000000  1
