# generated using pymatgen
data_Tm3LuBe2(SiMo)6
_symmetry_space_group_name_H-M   'P 1'
_cell_length_a   6.66976900
_cell_length_b   6.79004410
_cell_length_c   12.84749519
_cell_angle_alpha   89.98024464
_cell_angle_beta   90.00000000
_cell_angle_gamma   90.00000000
_symmetry_Int_Tables_number   1
_chemical_formula_structural   Tm3LuBe2(SiMo)6
_chemical_formula_sum   'Tm6 Lu2 Be4 Si12 Mo12'
_cell_volume   581.83765720
_cell_formula_units_Z   2
loop_
 _symmetry_equiv_pos_site_id
 _symmetry_equiv_pos_as_xyz
  1  'x, y, z'
loop_
 _atom_site_type_symbol
 _atom_site_label
 _atom_site_symmetry_multiplicity
 _atom_site_fract_x
 _atom_site_fract_y
 _atom_site_fract_z
 _atom_site_occupancy
  Tm  Tm0  1  0.500746  0.333011  0.095957  1
  Tm  Tm1  1  0.000746  0.166989  0.404043  1
  Tm  Tm2  1  0.499237  0.666898  0.595843  1
  Tm  Tm3  1  0.999237  0.833102  0.904157  1
  Tm  Tm4  1  0.499235  0.666978  0.904125  1
  Tm  Tm5  1  0.999235  0.833022  0.595875  1
  Lu  Lu6  1  0.500465  0.332842  0.403706  1
  Lu  Lu7  1  0.000465  0.167158  0.096294  1
  Be  Be8  1  0.542424  0.369186  0.750035  1
  Be  Be9  1  0.042424  0.130814  0.749965  1
  Be  Be10  1  0.457619  0.630640  0.250102  1
  Be  Be11  1  0.957619  0.869360  0.249898  1
  Si  Si12  1  0.661688  0.042880  0.542757  1
  Si  Si13  1  0.161688  0.457120  0.957243  1
  Si  Si14  1  0.337565  0.957857  0.043093  1
  Si  Si15  1  0.837565  0.542143  0.456907  1
  Si  Si16  1  0.338431  0.957988  0.456897  1
  Si  Si17  1  0.838431  0.542012  0.043103  1
  Si  Si18  1  0.662065  0.042613  0.957228  1
  Si  Si19  1  0.162065  0.457387  0.542772  1
  Si  Si20  1  0.794332  0.622109  0.750021  1
  Si  Si21  1  0.294332  0.877891  0.749979  1
  Si  Si22  1  0.205828  0.377426  0.250004  1
  Si  Si23  1  0.705828  0.122574  0.249996  1
  Mo  Mo24  1  0.837980  0.328521  0.628107  1
  Mo  Mo25  1  0.337980  0.171479  0.871893  1
  Mo  Mo26  1  0.161963  0.671505  0.128199  1
  Mo  Mo27  1  0.661963  0.828495  0.371801  1
  Mo  Mo28  1  0.162239  0.671155  0.371932  1
  Mo  Mo29  1  0.662239  0.828845  0.128068  1
  Mo  Mo30  1  0.838214  0.328339  0.872004  1
  Mo  Mo31  1  0.338214  0.171661  0.627996  1
  Mo  Mo32  1  0.664985  0.012074  0.750032  1
  Mo  Mo33  1  0.164985  0.487926  0.749968  1
  Mo  Mo34  1  0.334983  0.988276  0.249898  1
  Mo  Mo35  1  0.834983  0.511724  0.250102  1
