# generated using pymatgen
data_DyTa4(NbCl9)2
_symmetry_space_group_name_H-M   'P 1'
_cell_length_a   10.15242644
_cell_length_b   10.14964856
_cell_length_c   10.14940151
_cell_angle_alpha   55.96956018
_cell_angle_beta   55.97321927
_cell_angle_gamma   55.97880129
_symmetry_Int_Tables_number   1
_chemical_formula_structural   DyTa4(NbCl9)2
_chemical_formula_sum   'Dy1 Ta4 Nb2 Cl18'
_cell_volume   670.52837830
_cell_formula_units_Z   1
loop_
 _symmetry_equiv_pos_site_id
 _symmetry_equiv_pos_as_xyz
  1  'x, y, z'
loop_
 _atom_site_type_symbol
 _atom_site_label
 _atom_site_symmetry_multiplicity
 _atom_site_fract_x
 _atom_site_fract_y
 _atom_site_fract_z
 _atom_site_occupancy
  Dy  Dy0  1  0.999379  0.000202  0.000420  1
  Ta  Ta1  1  0.409066  0.301300  0.648806  1
  Ta  Ta2  1  0.351158  0.591221  0.698474  1
  Ta  Ta3  1  0.699418  0.350632  0.591130  1
  Ta  Ta4  1  0.301124  0.649513  0.408191  1
  Nb  Nb5  1  0.650050  0.408568  0.299948  1
  Nb  Nb6  1  0.591879  0.699684  0.349828  1
  Cl  Cl7  1  0.566728  0.159817  0.444606  1
  Cl  Cl8  1  0.223763  0.370853  0.908073  1
  Cl  Cl9  1  0.909413  0.222707  0.372914  1
  Cl  Cl10  1  0.368111  0.908732  0.223797  1
  Cl  Cl11  1  0.777612  0.630106  0.089249  1
  Cl  Cl12  1  0.092095  0.775975  0.629185  1
  Cl  Cl13  1  0.703451  0.958633  0.160074  1
  Cl  Cl14  1  0.955143  0.161470  0.702670  1
  Cl  Cl15  1  0.162152  0.701811  0.955110  1
  Cl  Cl16  1  0.297496  0.045256  0.838157  1
  Cl  Cl17  1  0.044250  0.837615  0.298497  1
  Cl  Cl18  1  0.840538  0.296206  0.041508  1
  Cl  Cl19  1  0.558053  0.431463  0.838412  1
  Cl  Cl20  1  0.161723  0.441870  0.568574  1
  Cl  Cl21  1  0.439003  0.570502  0.161664  1
  Cl  Cl22  1  0.429402  0.838357  0.561047  1
  Cl  Cl23  1  0.840021  0.555452  0.433332  1
  Cl  Cl24  1  0.628976  0.092055  0.776333  1
