# generated using pymatgen
data_TbYSi2NiRu
_symmetry_space_group_name_H-M   'P 1'
_cell_length_a   4.25248000
_cell_length_b   6.94714651
_cell_length_c   7.18650104
_cell_angle_alpha   91.49842420
_cell_angle_beta   90.00000000
_cell_angle_gamma   90.00000000
_symmetry_Int_Tables_number   1
_chemical_formula_structural   TbYSi2NiRu
_chemical_formula_sum   'Tb2 Y2 Si4 Ni2 Ru2'
_cell_volume   212.23533716
_cell_formula_units_Z   2
loop_
 _symmetry_equiv_pos_site_id
 _symmetry_equiv_pos_as_xyz
  1  'x, y, z'
loop_
 _atom_site_type_symbol
 _atom_site_label
 _atom_site_symmetry_multiplicity
 _atom_site_fract_x
 _atom_site_fract_y
 _atom_site_fract_z
 _atom_site_occupancy
  Tb  Tb0  1  0.750000  0.010709  0.700223  1
  Tb  Tb1  1  0.250000  0.989291  0.299777  1
  Y  Y2  1  0.250000  0.488743  0.182218  1
  Y  Y3  1  0.750000  0.511257  0.817782  1
  Si  Si4  1  0.250000  0.804511  0.897512  1
  Si  Si5  1  0.750000  0.195489  0.102488  1
  Si  Si6  1  0.750000  0.697930  0.402647  1
  Si  Si7  1  0.250000  0.302070  0.597353  1
  Ni  Ni8  1  0.750000  0.836608  0.075873  1
  Ni  Ni9  1  0.250000  0.163392  0.924127  1
  Ru  Ru10  1  0.250000  0.654903  0.569572  1
  Ru  Ru11  1  0.750000  0.345097  0.430428  1
