# generated using pymatgen
data_TbErP7(RuRh)6
_symmetry_space_group_name_H-M   'P 1'
_cell_length_a   3.87254701
_cell_length_b   9.55612589
_cell_length_c   9.54870335
_cell_angle_alpha   120.01579854
_cell_angle_beta   90.01543616
_cell_angle_gamma   89.99346436
_symmetry_Int_Tables_number   1
_chemical_formula_structural   TbErP7(RuRh)6
_chemical_formula_sum   'Tb1 Er1 P7 Ru6 Rh6'
_cell_volume   305.97392526
_cell_formula_units_Z   1
loop_
 _symmetry_equiv_pos_site_id
 _symmetry_equiv_pos_as_xyz
  1  'x, y, z'
loop_
 _atom_site_type_symbol
 _atom_site_label
 _atom_site_symmetry_multiplicity
 _atom_site_fract_x
 _atom_site_fract_y
 _atom_site_fract_z
 _atom_site_occupancy
  Tb  Tb0  1  0.746600  0.333167  0.666513  1
  Er  Er1  1  0.253326  0.666832  0.333550  1
  P  P2  1  0.499262  0.000001  0.000001  1
  P  P3  1  0.753748  0.882275  0.596998  1
  P  P4  1  0.753812  0.403089  0.285325  1
  P  P5  1  0.753973  0.714775  0.117715  1
  P  P6  1  0.246246  0.117352  0.402250  1
  P  P7  1  0.246170  0.597646  0.715029  1
  P  P8  1  0.246028  0.284883  0.882663  1
  Ru  Ru9  1  0.742882  0.114934  0.851593  1
  Ru  Ru10  1  0.743167  0.148287  0.262973  1
  Ru  Ru11  1  0.742973  0.736825  0.885167  1
  Ru  Ru12  1  0.257318  0.884908  0.148360  1
  Ru  Ru13  1  0.257040  0.851760  0.736918  1
  Ru  Ru14  1  0.257203  0.263282  0.114974  1
  Rh  Rh15  1  0.752867  0.617194  0.552045  1
  Rh  Rh16  1  0.752841  0.448143  0.065291  1
  Rh  Rh17  1  0.752849  0.935012  0.382954  1
  Rh  Rh18  1  0.247214  0.383561  0.446788  1
  Rh  Rh19  1  0.247238  0.553017  0.936613  1
  Rh  Rh20  1  0.247243  0.063057  0.616278  1
