# generated using pymatgen
data_Pu3Ga3NiPt2
_symmetry_space_group_name_H-M   'P 1'
_cell_length_a   7.08143372
_cell_length_b   7.03957921
_cell_length_c   4.04253500
_cell_angle_alpha   90.00000000
_cell_angle_beta   90.00000000
_cell_angle_gamma   120.08133230
_symmetry_Int_Tables_number   1
_chemical_formula_structural   Pu3Ga3NiPt2
_chemical_formula_sum   'Pu3 Ga3 Ni1 Pt2'
_cell_volume   174.37964994
_cell_formula_units_Z   1
loop_
 _symmetry_equiv_pos_site_id
 _symmetry_equiv_pos_as_xyz
  1  'x, y, z'
loop_
 _atom_site_type_symbol
 _atom_site_label
 _atom_site_symmetry_multiplicity
 _atom_site_fract_x
 _atom_site_fract_y
 _atom_site_fract_z
 _atom_site_occupancy
  Pu  Pu0  1  0.427264  0.010433  0.500000  1
  Pu  Pu1  1  0.990079  0.417652  0.500000  1
  Pu  Pu2  1  0.582626  0.572118  0.500000  1
  Ga  Ga3  1  0.758315  0.006970  0.000000  1
  Ga  Ga4  1  0.992113  0.750734  0.000000  1
  Ga  Ga5  1  0.249101  0.241295  0.000000  1
  Ni  Ni6  1  0.667096  0.333470  0.000000  1
  Pt  Pt7  1  0.333416  0.667079  0.000000  1
  Pt  Pt8  1  0.999991  0.000249  0.500000  1
