# generated using pymatgen
data_Nd2TmBi(MoO4)6
_symmetry_space_group_name_H-M   'P 1'
_cell_length_a   7.57111384
_cell_length_b   7.57669901
_cell_length_c   10.86605240
_cell_angle_alpha   89.79403384
_cell_angle_beta   90.13677400
_cell_angle_gamma   89.73466510
_symmetry_Int_Tables_number   1
_chemical_formula_structural   Nd2TmBi(MoO4)6
_chemical_formula_sum   'Nd2 Tm1 Bi1 Mo6 O24'
_cell_volume   623.30826898
_cell_formula_units_Z   1
loop_
 _symmetry_equiv_pos_site_id
 _symmetry_equiv_pos_as_xyz
  1  'x, y, z'
loop_
 _atom_site_type_symbol
 _atom_site_label
 _atom_site_symmetry_multiplicity
 _atom_site_fract_x
 _atom_site_fract_y
 _atom_site_fract_z
 _atom_site_occupancy
  Nd  Nd0  1  0.812196  0.311921  0.738731  1
  Nd  Nd1  1  0.684761  0.815266  0.260345  1
  Tm  Tm2  1  0.308164  0.191844  0.264819  1
  Bi  Bi3  1  0.193258  0.692839  0.739566  1
  Mo  Mo4  1  0.210040  0.706759  0.352549  1
  Mo  Mo5  1  0.793605  0.290574  0.352542  1
  Mo  Mo6  1  0.706608  0.792546  0.645917  1
  Mo  Mo7  1  0.292128  0.207263  0.637654  1
  Mo  Mo8  1  0.008683  0.003442  0.004037  1
  Mo  Mo9  1  0.492709  0.494738  0.004066  1
  O  O10  1  0.005780  0.221866  0.296823  1
  O  O11  1  0.998169  0.768487  0.295165  1
  O  O12  1  0.226703  0.999114  0.700543  1
  O  O13  1  0.498754  0.725721  0.708485  1
  O  O14  1  0.775638  0.999818  0.705031  1
  O  O15  1  0.500109  0.274756  0.697508  1
  O  O16  1  0.278468  0.494171  0.297433  1
  O  O17  1  0.731834  0.501837  0.294568  1
  O  O18  1  0.190059  0.051932  0.104597  1
  O  O19  1  0.815617  0.959235  0.093491  1
  O  O20  1  0.056972  0.814521  0.909660  1
  O  O21  1  0.306087  0.537588  0.905628  1
  O  O22  1  0.965394  0.189262  0.906598  1
  O  O23  1  0.681241  0.446756  0.910635  1
  O  O24  1  0.445159  0.312210  0.103992  1
  O  O25  1  0.537114  0.686693  0.094256  1
  O  O26  1  0.620763  0.134181  0.305922  1
  O  O27  1  0.366581  0.879853  0.306022  1
  O  O28  1  0.127127  0.369962  0.684163  1
  O  O29  1  0.870614  0.626613  0.691137  1
  O  O30  1  0.200954  0.698182  0.515890  1
  O  O31  1  0.802735  0.300357  0.516121  1
  O  O32  1  0.692097  0.805490  0.482559  1
  O  O33  1  0.303877  0.194204  0.473547  1
