# generated using pymatgen
data_Rb3Na2ZrP3
_symmetry_space_group_name_H-M   'P 1'
_cell_length_a   10.81253642
_cell_length_b   10.81253721
_cell_length_c   15.61769800
_cell_angle_alpha   90.00000000
_cell_angle_beta   90.00000000
_cell_angle_gamma   142.85206128
_symmetry_Int_Tables_number   1
_chemical_formula_structural   Rb3Na2ZrP3
_chemical_formula_sum   'Rb12 Na8 Zr4 P12'
_cell_volume   1102.60344695
_cell_formula_units_Z   4
loop_
 _symmetry_equiv_pos_site_id
 _symmetry_equiv_pos_as_xyz
  1  'x, y, z'
loop_
 _atom_site_type_symbol
 _atom_site_label
 _atom_site_symmetry_multiplicity
 _atom_site_fract_x
 _atom_site_fract_y
 _atom_site_fract_z
 _atom_site_occupancy
  Rb  Rb0  1  0.946793  0.607045  0.822727  1
  Rb  Rb1  1  0.553207  0.892955  0.322727  1
  Rb  Rb2  1  0.392955  0.053207  0.177273  1
  Rb  Rb3  1  0.053207  0.392955  0.177273  1
  Rb  Rb4  1  0.892955  0.553207  0.322727  1
  Rb  Rb5  1  0.446793  0.107045  0.677273  1
  Rb  Rb6  1  0.607045  0.946793  0.822727  1
  Rb  Rb7  1  0.277035  0.277035  0.315487  1
  Rb  Rb8  1  0.777035  0.777035  0.184513  1
  Rb  Rb9  1  0.222965  0.222965  0.815487  1
  Rb  Rb10  1  0.722965  0.722965  0.684513  1
  Rb  Rb11  1  0.107045  0.446793  0.677273  1
  Na  Na12  1  0.919638  0.080362  0.000000  1
  Na  Na13  1  0.580362  0.419638  0.500000  1
  Na  Na14  1  0.080362  0.919638  0.000000  1
  Na  Na15  1  0.419638  0.580362  0.500000  1
  Na  Na16  1  0.754927  0.245073  0.000000  1
  Na  Na17  1  0.745073  0.254927  0.500000  1
  Na  Na18  1  0.245073  0.754927  0.000000  1
  Na  Na19  1  0.254927  0.745073  0.500000  1
  Zr  Zr20  1  0.586037  0.413963  0.000000  1
  Zr  Zr21  1  0.913963  0.086037  0.500000  1
  Zr  Zr22  1  0.413963  0.586037  0.000000  1
  Zr  Zr23  1  0.086037  0.913963  0.500000  1
  P  P24  1  0.871567  0.559472  0.095291  1
  P  P25  1  0.440528  0.128433  0.904709  1
  P  P26  1  0.628433  0.940528  0.595291  1
  P  P27  1  0.940528  0.628433  0.595291  1
  P  P28  1  0.128433  0.440528  0.904709  1
  P  P29  1  0.559472  0.871567  0.095291  1
  P  P30  1  0.371567  0.059472  0.404709  1
  P  P31  1  0.199802  0.199802  0.585957  1
  P  P32  1  0.699802  0.699802  0.914043  1
  P  P33  1  0.300198  0.300198  0.085957  1
  P  P34  1  0.059472  0.371567  0.404709  1
  P  P35  1  0.800198  0.800198  0.414043  1
