# generated using pymatgen
data_Ti5Fe10ReB4
_symmetry_space_group_name_H-M   'P 1'
_cell_length_a   8.67312400
_cell_length_b   8.67312400
_cell_length_c   2.88922500
_cell_angle_alpha   90.00000000
_cell_angle_beta   90.00000000
_cell_angle_gamma   90.00000000
_symmetry_Int_Tables_number   1
_chemical_formula_structural   Ti5Fe10ReB4
_chemical_formula_sum   'Ti5 Fe10 Re1 B4'
_cell_volume   217.33640308
_cell_formula_units_Z   1
loop_
 _symmetry_equiv_pos_site_id
 _symmetry_equiv_pos_as_xyz
  1  'x, y, z'
loop_
 _atom_site_type_symbol
 _atom_site_label
 _atom_site_symmetry_multiplicity
 _atom_site_fract_x
 _atom_site_fract_y
 _atom_site_fract_z
 _atom_site_occupancy
  Ti  Ti0  1  0.500000  0.500000  0.000000  1
  Ti  Ti1  1  0.822654  0.327469  0.000000  1
  Ti  Ti2  1  0.327469  0.177346  0.000000  1
  Ti  Ti3  1  0.672531  0.822654  0.000000  1
  Ti  Ti4  1  0.177346  0.672531  0.000000  1
  Fe  Fe5  1  0.500000  0.000000  0.500000  1
  Fe  Fe6  1  0.000000  0.500000  0.500000  1
  Fe  Fe7  1  0.066842  0.218343  0.500000  1
  Fe  Fe8  1  0.218343  0.933158  0.500000  1
  Fe  Fe9  1  0.781657  0.066842  0.500000  1
  Fe  Fe10  1  0.933158  0.781657  0.500000  1
  Fe  Fe11  1  0.427562  0.718785  0.500000  1
  Fe  Fe12  1  0.572438  0.281215  0.500000  1
  Fe  Fe13  1  0.718785  0.572438  0.500000  1
  Fe  Fe14  1  0.281215  0.427562  0.500000  1
  Re  Re15  1  0.000000  0.000000  0.000000  1
  B  B16  1  0.616356  0.124713  0.000000  1
  B  B17  1  0.124713  0.383644  0.000000  1
  B  B18  1  0.875287  0.616356  0.000000  1
  B  B19  1  0.383644  0.875287  0.000000  1
