# generated using pymatgen
data_TbYCo2Ge2C
_symmetry_space_group_name_H-M   'P 1'
_cell_length_a   5.72680690
_cell_length_b   5.72680706
_cell_length_c   6.86865627
_cell_angle_alpha   125.67215176
_cell_angle_beta   125.67215372
_cell_angle_gamma   40.19567743
_symmetry_Int_Tables_number   1
_chemical_formula_structural   TbYCo2Ge2C
_chemical_formula_sum   'Tb1 Y1 Co2 Ge2 C1'
_cell_volume   113.96074552
_cell_formula_units_Z   1
loop_
 _symmetry_equiv_pos_site_id
 _symmetry_equiv_pos_as_xyz
  1  'x, y, z'
loop_
 _atom_site_type_symbol
 _atom_site_label
 _atom_site_symmetry_multiplicity
 _atom_site_fract_x
 _atom_site_fract_y
 _atom_site_fract_z
 _atom_site_occupancy
  Tb  Tb0  1  0.559757  0.559757  0.292719  1
  Y  Y1  1  0.440091  0.440091  0.707102  1
  Co  Co2  1  0.191452  0.191452  0.081288  1
  Co  Co3  1  0.808614  0.808614  0.918788  1
  Ge  Ge4  1  0.837916  0.837916  0.296333  1
  Ge  Ge5  1  0.162140  0.162140  0.703769  1
  C  C6  1  0.000028  0.000028  0.000001  1
