# generated using pymatgen
data_ScMn3Al8Fe
_symmetry_space_group_name_H-M   'P 1'
_cell_length_a   6.63025776
_cell_length_b   6.63025791
_cell_length_c   6.66509214
_cell_angle_alpha   98.77305757
_cell_angle_beta   98.77306412
_cell_angle_gamma   134.40928897
_symmetry_Int_Tables_number   1
_chemical_formula_structural   ScMn3Al8Fe
_chemical_formula_sum   'Sc1 Mn3 Al8 Fe1'
_cell_volume   192.40641777
_cell_formula_units_Z   1
loop_
 _symmetry_equiv_pos_site_id
 _symmetry_equiv_pos_as_xyz
  1  'x, y, z'
loop_
 _atom_site_type_symbol
 _atom_site_label
 _atom_site_symmetry_multiplicity
 _atom_site_fract_x
 _atom_site_fract_y
 _atom_site_fract_z
 _atom_site_occupancy
  Sc  Sc0  1  0.000000  0.000000  0.000000  1
  Mn  Mn1  1  0.500000  0.000000  0.000000  1
  Mn  Mn2  1  0.000000  0.500000  0.000000  1
  Mn  Mn3  1  0.500000  0.500000  0.500000  1
  Al  Al4  1  0.668296  0.999579  0.666047  1
  Al  Al5  1  0.999579  0.668296  0.666047  1
  Al  Al6  1  0.000421  0.331704  0.333953  1
  Al  Al7  1  0.331704  0.000421  0.333953  1
  Al  Al8  1  0.724966  0.504336  0.222968  1
  Al  Al9  1  0.275034  0.495664  0.777032  1
  Al  Al10  1  0.495664  0.275034  0.777032  1
  Al  Al11  1  0.504336  0.724966  0.222968  1
  Fe  Fe12  1  0.000000  0.000000  0.500000  1
