# generated using pymatgen
data_BaMn5AlO12
_symmetry_space_group_name_H-M   'P 1'
_cell_length_a   8.27054217
_cell_length_b   8.27512161
_cell_length_c   9.80883825
_cell_angle_alpha   54.09995096
_cell_angle_beta   54.13267549
_cell_angle_gamma   64.07885230
_symmetry_Int_Tables_number   1
_chemical_formula_structural   BaMn5AlO12
_chemical_formula_sum   'Ba2 Mn10 Al2 O24'
_cell_volume   436.17611364
_cell_formula_units_Z   2
loop_
 _symmetry_equiv_pos_site_id
 _symmetry_equiv_pos_as_xyz
  1  'x, y, z'
loop_
 _atom_site_type_symbol
 _atom_site_label
 _atom_site_symmetry_multiplicity
 _atom_site_fract_x
 _atom_site_fract_y
 _atom_site_fract_z
 _atom_site_occupancy
  Ba  Ba0  1  0.722078  0.282191  0.005212  1
  Ba  Ba1  1  0.283143  0.717810  0.001083  1
  Mn  Mn2  1  0.672072  0.004220  0.817044  1
  Mn  Mn3  1  0.005272  0.337143  0.171263  1
  Mn  Mn4  1  0.670212  0.665998  0.176514  1
  Mn  Mn5  1  0.332213  0.004882  0.176927  1
  Mn  Mn6  1  0.145110  0.145329  0.520984  1
  Mn  Mn7  1  0.475756  0.807387  0.527998  1
  Mn  Mn8  1  0.810708  0.478859  0.522038  1
  Mn  Mn9  1  0.851947  0.850039  0.485312  1
  Mn  Mn10  1  0.183972  0.516224  0.481987  1
  Mn  Mn11  1  0.515386  0.185665  0.486436  1
  Al  Al12  1  0.336790  0.341862  0.811734  1
  Al  Al13  1  0.009064  0.672032  0.810355  1
  O  O14  1  0.341708  0.347654  0.614928  1
  O  O15  1  0.008737  0.667973  0.620983  1
  O  O16  1  0.669840  0.004658  0.627297  1
  O  O17  1  0.989181  0.325219  0.384469  1
  O  O18  1  0.655294  0.654095  0.387705  1
  O  O19  1  0.328123  0.993852  0.381667  1
  O  O20  1  0.335721  0.345357  0.352820  1
  O  O21  1  0.007731  0.667503  0.359119  1
  O  O22  1  0.671205  0.004694  0.365733  1
  O  O23  1  0.989657  0.321274  0.645894  1
  O  O24  1  0.643747  0.641452  0.658796  1
  O  O25  1  0.310609  0.980758  0.651893  1
  O  O26  1  0.622148  0.291717  0.719635  1
  O  O27  1  0.289036  0.623853  0.717630  1
  O  O28  1  0.959932  0.954348  0.712420  1
  O  O29  1  0.716377  0.380953  0.270705  1
  O  O30  1  0.373978  0.710309  0.275834  1
  O  O31  1  0.049510  0.049817  0.277007  1
  O  O32  1  0.961868  0.633771  0.049066  1
  O  O33  1  0.631331  0.963366  0.055183  1
  O  O34  1  0.302864  0.298815  0.048945  1
  O  O35  1  0.375639  0.044542  0.942866  1
  O  O36  1  0.045143  0.377815  0.940458  1
  O  O37  1  0.706898  0.706563  0.944056  1
