# generated using pymatgen
data_LiHfAsPt8
_symmetry_space_group_name_H-M   'P 1'
_cell_length_a   3.99608800
_cell_length_b   3.99608800
_cell_length_c   11.09397300
_cell_angle_alpha   90.00000000
_cell_angle_beta   90.00000000
_cell_angle_gamma   90.00000000
_symmetry_Int_Tables_number   1
_chemical_formula_structural   LiHfAsPt8
_chemical_formula_sum   'Li1 Hf1 As1 Pt8'
_cell_volume   177.15654080
_cell_formula_units_Z   1
loop_
 _symmetry_equiv_pos_site_id
 _symmetry_equiv_pos_as_xyz
  1  'x, y, z'
loop_
 _atom_site_type_symbol
 _atom_site_label
 _atom_site_symmetry_multiplicity
 _atom_site_fract_x
 _atom_site_fract_y
 _atom_site_fract_z
 _atom_site_occupancy
  Li  Li0  1  0.500000  0.500000  0.183152  1
  Hf  Hf1  1  0.500000  0.500000  0.827499  1
  As  As2  1  0.000000  0.000000  0.494620  1
  Pt  Pt3  1  0.500000  0.000000  0.004748  1
  Pt  Pt4  1  0.000000  0.500000  0.004748  1
  Pt  Pt5  1  0.500000  0.000000  0.641533  1
  Pt  Pt6  1  0.000000  0.500000  0.641533  1
  Pt  Pt7  1  0.500000  0.000000  0.350868  1
  Pt  Pt8  1  0.000000  0.500000  0.350868  1
  Pt  Pt9  1  0.000000  0.000000  0.823769  1
  Pt  Pt10  1  0.000000  0.000000  0.176664  1
