# generated using pymatgen
data_LaNp3F15
_symmetry_space_group_name_H-M   'P 1'
_cell_length_a   8.75336181
_cell_length_b   8.75336127
_cell_length_c   8.76196770
_cell_angle_alpha   79.77566851
_cell_angle_beta   79.77566369
_cell_angle_gamma   100.46156411
_symmetry_Int_Tables_number   1
_chemical_formula_structural   LaNp3F15
_chemical_formula_sum   'La2 Np6 F30'
_cell_volume   634.26896852
_cell_formula_units_Z   2
loop_
 _symmetry_equiv_pos_site_id
 _symmetry_equiv_pos_as_xyz
  1  'x, y, z'
loop_
 _atom_site_type_symbol
 _atom_site_label
 _atom_site_symmetry_multiplicity
 _atom_site_fract_x
 _atom_site_fract_y
 _atom_site_fract_z
 _atom_site_occupancy
  La  La0  1  0.177391  0.822609  0.250000  1
  La  La1  1  0.822609  0.177391  0.750000  1
  Np  Np2  1  0.749760  0.250240  0.250000  1
  Np  Np3  1  0.250240  0.749760  0.750000  1
  Np  Np4  1  0.751425  0.676698  0.678345  1
  Np  Np5  1  0.323302  0.248575  0.821655  1
  Np  Np6  1  0.248575  0.323302  0.321655  1
  Np  Np7  1  0.676698  0.751425  0.178345  1
  F  F8  1  0.466042  0.533958  0.250000  1
  F  F9  1  0.750338  0.956926  0.972961  1
  F  F10  1  0.043074  0.249662  0.527039  1
  F  F11  1  0.249662  0.043074  0.027039  1
  F  F12  1  0.956926  0.750338  0.472961  1
  F  F13  1  0.533958  0.466042  0.750000  1
  F  F14  1  0.222307  0.492794  0.776438  1
  F  F15  1  0.224646  0.717506  0.003453  1
  F  F16  1  0.989708  0.723275  0.781409  1
  F  F17  1  0.723275  0.989708  0.281409  1
  F  F18  1  0.717506  0.224646  0.503453  1
  F  F19  1  0.492794  0.222307  0.276438  1
  F  F20  1  0.777694  0.507206  0.223562  1
  F  F21  1  0.775354  0.282494  0.996547  1
  F  F22  1  0.010292  0.276725  0.218591  1
  F  F23  1  0.276725  0.010292  0.718591  1
  F  F24  1  0.282494  0.775354  0.496547  1
  F  F25  1  0.507206  0.777693  0.723562  1
  F  F26  1  0.540526  0.155742  0.821197  1
  F  F27  1  0.188914  0.063401  0.347316  1
  F  F28  1  0.654033  0.677925  0.449880  1
  F  F29  1  0.677925  0.654033  0.949880  1
  F  F30  1  0.063401  0.188914  0.847316  1
  F  F31  1  0.155742  0.540526  0.321197  1
  F  F32  1  0.459474  0.844258  0.178803  1
  F  F33  1  0.811086  0.936599  0.652684  1
  F  F34  1  0.345967  0.322075  0.550120  1
  F  F35  1  0.322075  0.345967  0.050120  1
  F  F36  1  0.936599  0.811086  0.152684  1
  F  F37  1  0.844258  0.459474  0.678803  1
