# generated using pymatgen
data_Ta4Cu3NiPt8
_symmetry_space_group_name_H-M   'P 1'
_cell_length_a   4.56338900
_cell_length_b   4.79468500
_cell_length_c   11.01840500
_cell_angle_alpha   90.00000000
_cell_angle_beta   90.00000000
_cell_angle_gamma   90.00000000
_symmetry_Int_Tables_number   1
_chemical_formula_structural   Ta4Cu3NiPt8
_chemical_formula_sum   'Ta4 Cu3 Ni1 Pt8'
_cell_volume   241.08284230
_cell_formula_units_Z   1
loop_
 _symmetry_equiv_pos_site_id
 _symmetry_equiv_pos_as_xyz
  1  'x, y, z'
loop_
 _atom_site_type_symbol
 _atom_site_label
 _atom_site_symmetry_multiplicity
 _atom_site_fract_x
 _atom_site_fract_y
 _atom_site_fract_z
 _atom_site_occupancy
  Ta  Ta0  1  0.500000  0.661243  0.254799  1
  Ta  Ta1  1  0.500000  0.661243  0.745201  1
  Ta  Ta2  1  0.000000  0.338484  0.000000  1
  Ta  Ta3  1  0.000000  0.346975  0.500000  1
  Cu  Cu4  1  0.000000  0.325234  0.249845  1
  Cu  Cu5  1  0.000000  0.325234  0.750155  1
  Cu  Cu6  1  0.500000  0.674682  0.000000  1
  Ni  Ni7  1  0.500000  0.665998  0.500000  1
  Pt  Pt8  1  0.500000  0.178180  0.375846  1
  Pt  Pt9  1  0.500000  0.180326  0.875342  1
  Pt  Pt10  1  0.500000  0.180326  0.124658  1
  Pt  Pt11  1  0.500000  0.178180  0.624154  1
  Pt  Pt12  1  0.000000  0.824074  0.374856  1
  Pt  Pt13  1  0.000000  0.817874  0.874233  1
  Pt  Pt14  1  0.000000  0.817874  0.125767  1
  Pt  Pt15  1  0.000000  0.824074  0.625144  1
