# generated using pymatgen
data_Y3B7Os
_symmetry_space_group_name_H-M   'P 1'
_cell_length_a   8.07993914
_cell_length_b   8.07993952
_cell_length_c   9.35551300
_cell_angle_alpha   90.00000000
_cell_angle_beta   90.00000000
_cell_angle_gamma   154.83064690
_symmetry_Int_Tables_number   1
_chemical_formula_structural   Y3B7Os
_chemical_formula_sum   'Y6 B14 Os2'
_cell_volume   259.76123265
_cell_formula_units_Z   2
loop_
 _symmetry_equiv_pos_site_id
 _symmetry_equiv_pos_as_xyz
  1  'x, y, z'
loop_
 _atom_site_type_symbol
 _atom_site_label
 _atom_site_symmetry_multiplicity
 _atom_site_fract_x
 _atom_site_fract_y
 _atom_site_fract_z
 _atom_site_occupancy
  Y  Y0  1  0.893887  0.106113  0.439436  1
  Y  Y1  1  0.106113  0.893887  0.560564  1
  Y  Y2  1  0.893887  0.106113  0.060564  1
  Y  Y3  1  0.106113  0.893887  0.939436  1
  Y  Y4  1  0.244124  0.755876  0.250000  1
  Y  Y5  1  0.755876  0.244124  0.750000  1
  B  B6  1  0.727151  0.272849  0.465959  1
  B  B7  1  0.272849  0.727151  0.534041  1
  B  B8  1  0.727151  0.272849  0.034041  1
  B  B9  1  0.272849  0.727151  0.965959  1
  B  B10  1  0.631858  0.368142  0.150713  1
  B  B11  1  0.368142  0.631858  0.849287  1
  B  B12  1  0.631858  0.368142  0.349287  1
  B  B13  1  0.368142  0.631858  0.650713  1
  B  B14  1  0.520890  0.479110  0.096221  1
  B  B15  1  0.479110  0.520890  0.903779  1
  B  B16  1  0.520890  0.479110  0.403779  1
  B  B17  1  0.479110  0.520890  0.596221  1
  B  B18  1  0.457456  0.542544  0.250000  1
  B  B19  1  0.542544  0.457456  0.750000  1
  Os  Os20  1  0.054085  0.945915  0.250000  1
  Os  Os21  1  0.945915  0.054085  0.750000  1
