# generated using pymatgen
data_KNd10(C2Br9)2
_symmetry_space_group_name_H-M   'P 1'
_cell_length_a   11.03050526
_cell_length_b   11.09436257
_cell_length_c   11.26851200
_cell_angle_alpha   113.01344990
_cell_angle_beta   87.83782598
_cell_angle_gamma   118.65525698
_symmetry_Int_Tables_number   1
_chemical_formula_structural   KNd10(C2Br9)2
_chemical_formula_sum   'K1 Nd10 C4 Br18'
_cell_volume   1094.48312171
_cell_formula_units_Z   1
loop_
 _symmetry_equiv_pos_site_id
 _symmetry_equiv_pos_as_xyz
  1  'x, y, z'
loop_
 _atom_site_type_symbol
 _atom_site_label
 _atom_site_symmetry_multiplicity
 _atom_site_fract_x
 _atom_site_fract_y
 _atom_site_fract_z
 _atom_site_occupancy
  K  K0  1  0.500000  0.000000  0.500000  1
  Nd  Nd1  1  0.655401  0.714002  0.697745  1
  Nd  Nd2  1  0.282082  0.368023  0.014080  1
  Nd  Nd3  1  0.093086  0.413603  0.305584  1
  Nd  Nd4  1  0.961934  0.038320  0.334872  1
  Nd  Nd5  1  0.906914  0.586397  0.694416  1
  Nd  Nd6  1  0.115142  0.941468  0.000983  1
  Nd  Nd7  1  0.038066  0.961680  0.665128  1
  Nd  Nd8  1  0.344599  0.285998  0.302255  1
  Nd  Nd9  1  0.717918  0.631977  0.985920  1
  Nd  Nd10  1  0.884858  0.058532  0.999017  1
  C  C11  1  0.156512  0.230075  0.128310  1
  C  C12  1  0.843488  0.769925  0.871690  1
  C  C13  1  0.918087  0.846316  0.794976  1
  C  C14  1  0.081913  0.153684  0.205024  1
  Br  Br15  1  0.451533  0.530842  0.831240  1
  Br  Br16  1  0.384323  0.036777  0.161853  1
  Br  Br17  1  0.772505  0.857231  0.502002  1
  Br  Br18  1  0.836077  0.312834  0.155629  1
  Br  Br19  1  0.548467  0.469158  0.168760  1
  Br  Br20  1  0.227495  0.142769  0.497998  1
  Br  Br21  1  0.312649  0.099424  0.832059  1
  Br  Br22  1  0.687351  0.900576  0.167941  1
  Br  Br23  1  0.978213  0.763737  0.171917  1
  Br  Br24  1  0.929455  0.300226  0.500952  1
  Br  Br25  1  0.021787  0.236263  0.828083  1
  Br  Br26  1  0.070545  0.699774  0.499048  1
  Br  Br27  1  0.265198  0.630158  0.193272  1
  Br  Br28  1  0.734802  0.369842  0.806728  1
  Br  Br29  1  0.636557  0.428782  0.496948  1
  Br  Br30  1  0.163923  0.687166  0.844371  1
  Br  Br31  1  0.615677  0.963223  0.838147  1
  Br  Br32  1  0.363443  0.571218  0.503052  1
