# generated using pymatgen
data_Ce9Dy(RuPb3)2
_symmetry_space_group_name_H-M   'P 1'
_cell_length_a   9.61097408
_cell_length_b   9.61097603
_cell_length_c   6.38779000
_cell_angle_alpha   90.00000000
_cell_angle_beta   90.00000000
_cell_angle_gamma   119.39246017
_symmetry_Int_Tables_number   1
_chemical_formula_structural   Ce9Dy(RuPb3)2
_chemical_formula_sum   'Ce9 Dy1 Ru2 Pb6'
_cell_volume   514.09393395
_cell_formula_units_Z   1
loop_
 _symmetry_equiv_pos_site_id
 _symmetry_equiv_pos_as_xyz
  1  'x, y, z'
loop_
 _atom_site_type_symbol
 _atom_site_label
 _atom_site_symmetry_multiplicity
 _atom_site_fract_x
 _atom_site_fract_y
 _atom_site_fract_z
 _atom_site_occupancy
  Ce  Ce0  1  0.757837  0.757837  0.250000  1
  Ce  Ce1  1  0.238808  0.000004  0.250000  1
  Ce  Ce2  1  0.761850  0.997538  0.750000  1
  Ce  Ce3  1  0.333046  0.668118  0.500414  1
  Ce  Ce4  1  0.668118  0.333046  0.500414  1
  Ce  Ce5  1  0.000004  0.238808  0.250000  1
  Ce  Ce6  1  0.997538  0.761850  0.750000  1
  Ce  Ce7  1  0.333046  0.668118  0.999586  1
  Ce  Ce8  1  0.668118  0.333046  0.999586  1
  Dy  Dy9  1  0.247885  0.247885  0.750000  1
  Ru  Ru10  1  0.998854  0.998854  0.001926  1
  Ru  Ru11  1  0.998854  0.998854  0.498074  1
  Pb  Pb12  1  0.395744  0.395744  0.250000  1
  Pb  Pb13  1  0.600260  0.600260  0.750000  1
  Pb  Pb14  1  0.002466  0.394465  0.750000  1
  Pb  Pb15  1  0.602790  0.000315  0.250000  1
  Pb  Pb16  1  0.394465  0.002466  0.750000  1
  Pb  Pb17  1  0.000315  0.602790  0.250000  1
