# generated using pymatgen
data_CeDy3Ho4(B6Os)4
_symmetry_space_group_name_H-M   'P 1'
_cell_length_a   3.66030500
_cell_length_b   9.15311678
_cell_length_c   11.52311000
_cell_angle_alpha   90.05181333
_cell_angle_beta   90.00000000
_cell_angle_gamma   90.00000000
_symmetry_Int_Tables_number   1
_chemical_formula_structural   CeDy3Ho4(B6Os)4
_chemical_formula_sum   'Ce1 Dy3 Ho4 B24 Os4'
_cell_volume   386.06089085
_cell_formula_units_Z   1
loop_
 _symmetry_equiv_pos_site_id
 _symmetry_equiv_pos_as_xyz
  1  'x, y, z'
loop_
 _atom_site_type_symbol
 _atom_site_label
 _atom_site_symmetry_multiplicity
 _atom_site_fract_x
 _atom_site_fract_y
 _atom_site_fract_z
 _atom_site_occupancy
  Ce  Ce0  1  0.000000  0.322698  0.413412  1
  Dy  Dy1  1  0.000000  0.679125  0.587123  1
  Dy  Dy2  1  0.000000  0.821683  0.085696  1
  Dy  Dy3  1  0.000000  0.177888  0.913537  1
  Ho  Ho4  1  0.000000  0.943704  0.373556  1
  Ho  Ho5  1  0.000000  0.054710  0.627094  1
  Ho  Ho6  1  0.000000  0.444425  0.125729  1
  Ho  Ho7  1  0.000000  0.556197  0.874082  1
  B  B8  1  0.500000  0.554880  0.432165  1
  B  B9  1  0.500000  0.446277  0.568232  1
  B  B10  1  0.500000  0.053732  0.067036  1
  B  B11  1  0.500000  0.945852  0.932884  1
  B  B12  1  0.500000  0.748793  0.419931  1
  B  B13  1  0.500000  0.251904  0.581188  1
  B  B14  1  0.500000  0.247829  0.079167  1
  B  B15  1  0.500000  0.752169  0.920144  1
  B  B16  1  0.500000  0.791430  0.266339  1
  B  B17  1  0.500000  0.208616  0.734411  1
  B  B18  1  0.500000  0.290582  0.232159  1
  B  B19  1  0.500000  0.708935  0.767143  1
  B  B20  1  0.500000  0.632579  0.184644  1
  B  B21  1  0.500000  0.368061  0.814997  1
  B  B22  1  0.500000  0.131202  0.313747  1
  B  B23  1  0.500000  0.867884  0.685776  1
  B  B24  1  0.500000  0.982716  0.212658  1
  B  B25  1  0.500000  0.016376  0.786986  1
  B  B26  1  0.500000  0.484912  0.285957  1
  B  B27  1  0.500000  0.516625  0.714156  1
  B  B28  1  0.500000  0.609920  0.030184  1
  B  B29  1  0.500000  0.390180  0.969527  1
  B  B30  1  0.500000  0.107255  0.470349  1
  B  B31  1  0.500000  0.890520  0.530218  1
  Os  Os32  1  0.000000  0.638151  0.321024  1
  Os  Os33  1  0.000000  0.362071  0.678328  1
  Os  Os34  1  0.000000  0.137735  0.179098  1
  Os  Os35  1  0.000000  0.862383  0.821322  1
