# generated using pymatgen
data_U2FeC3
_symmetry_space_group_name_H-M   'P 1'
_cell_length_a   3.54791800
_cell_length_b   6.38748300
_cell_length_c   12.99137100
_cell_angle_alpha   90.00000000
_cell_angle_beta   90.00000000
_cell_angle_gamma   90.00000000
_symmetry_Int_Tables_number   1
_chemical_formula_structural   U2FeC3
_chemical_formula_sum   'U8 Fe4 C12'
_cell_volume   294.41390414
_cell_formula_units_Z   4
loop_
 _symmetry_equiv_pos_site_id
 _symmetry_equiv_pos_as_xyz
  1  'x, y, z'
loop_
 _atom_site_type_symbol
 _atom_site_label
 _atom_site_symmetry_multiplicity
 _atom_site_fract_x
 _atom_site_fract_y
 _atom_site_fract_z
 _atom_site_occupancy
  U  U0  1  0.250000  0.746990  0.021406  1
  U  U1  1  0.750000  0.253010  0.978594  1
  U  U2  1  0.750000  0.753010  0.521406  1
  U  U3  1  0.250000  0.246990  0.478594  1
  U  U4  1  0.250000  0.623193  0.287798  1
  U  U5  1  0.750000  0.376807  0.712202  1
  U  U6  1  0.750000  0.876807  0.787798  1
  U  U7  1  0.250000  0.123193  0.212202  1
  Fe  Fe8  1  0.250000  0.516022  0.841585  1
  Fe  Fe9  1  0.750000  0.483978  0.158415  1
  Fe  Fe10  1  0.750000  0.983978  0.341585  1
  Fe  Fe11  1  0.250000  0.016022  0.658415  1
  C  C12  1  0.250000  0.684563  0.676800  1
  C  C13  1  0.750000  0.315437  0.323200  1
  C  C14  1  0.750000  0.815437  0.176800  1
  C  C15  1  0.250000  0.184563  0.823200  1
  C  C16  1  0.250000  0.526897  0.596362  1
  C  C17  1  0.750000  0.473103  0.403638  1
  C  C18  1  0.750000  0.973103  0.096362  1
  C  C19  1  0.250000  0.026897  0.903638  1
  C  C20  1  0.250000  0.904320  0.401395  1
  C  C21  1  0.750000  0.095680  0.598605  1
  C  C22  1  0.750000  0.595680  0.901395  1
  C  C23  1  0.250000  0.404320  0.098605  1
