# generated using pymatgen
data_Ce8Si12OsPd3
_symmetry_space_group_name_H-M   'P 1'
_cell_length_a   8.23824000
_cell_length_b   8.23823903
_cell_length_c   8.32889900
_cell_angle_alpha   90.00000000
_cell_angle_beta   90.00000000
_cell_angle_gamma   120.00000390
_symmetry_Int_Tables_number   1
_chemical_formula_structural   Ce8Si12OsPd3
_chemical_formula_sum   'Ce8 Si12 Os1 Pd3'
_cell_volume   489.53870962
_cell_formula_units_Z   1
loop_
 _symmetry_equiv_pos_site_id
 _symmetry_equiv_pos_as_xyz
  1  'x, y, z'
loop_
 _atom_site_type_symbol
 _atom_site_label
 _atom_site_symmetry_multiplicity
 _atom_site_fract_x
 _atom_site_fract_y
 _atom_site_fract_z
 _atom_site_occupancy
  Ce  Ce0  1  0.495798  0.991593  0.243847  1
  Ce  Ce1  1  0.495687  0.991377  0.755609  1
  Ce  Ce2  1  0.008407  0.504202  0.243847  1
  Ce  Ce3  1  0.008623  0.504313  0.755609  1
  Ce  Ce4  1  0.495798  0.504202  0.243847  1
  Ce  Ce5  1  0.495687  0.504313  0.755609  1
  Ce  Ce6  1  0.000000  0.000000  0.250500  1
  Ce  Ce7  1  0.000000  0.000000  0.749931  1
  Si  Si8  1  0.164772  0.329544  0.998790  1
  Si  Si9  1  0.835959  0.671917  0.000000  1
  Si  Si10  1  0.670456  0.835228  0.998790  1
  Si  Si11  1  0.834695  0.669389  0.501140  1
  Si  Si12  1  0.328083  0.164041  0.000000  1
  Si  Si13  1  0.163862  0.327724  0.500334  1
  Si  Si14  1  0.164772  0.835228  0.998790  1
  Si  Si15  1  0.330611  0.165305  0.501140  1
  Si  Si16  1  0.835959  0.164041  0.000000  1
  Si  Si17  1  0.672276  0.836138  0.500334  1
  Si  Si18  1  0.834695  0.165305  0.501140  1
  Si  Si19  1  0.163862  0.836138  0.500334  1
  Os  Os20  1  0.333333  0.666667  0.001876  1
  Pd  Pd21  1  0.666667  0.333333  0.997448  1
  Pd  Pd22  1  0.666667  0.333333  0.501187  1
  Pd  Pd23  1  0.333333  0.666667  0.499896  1
