# generated using pymatgen
data_Zr8Ta11Si16Tc
_symmetry_space_group_name_H-M   'P 1'
_cell_length_a   6.86036775
_cell_length_b   6.86036775
_cell_length_c   12.69979039
_cell_angle_alpha   89.85153651
_cell_angle_beta   90.14846349
_cell_angle_gamma   89.76873731
_symmetry_Int_Tables_number   1
_chemical_formula_structural   Zr8Ta11Si16Tc
_chemical_formula_sum   'Zr8 Ta11 Si16 Tc1'
_cell_volume   597.70223543
_cell_formula_units_Z   1
loop_
 _symmetry_equiv_pos_site_id
 _symmetry_equiv_pos_as_xyz
  1  'x, y, z'
loop_
 _atom_site_type_symbol
 _atom_site_label
 _atom_site_symmetry_multiplicity
 _atom_site_fract_x
 _atom_site_fract_y
 _atom_site_fract_z
 _atom_site_occupancy
  Zr  Zr0  1  0.000229  0.660532  0.031019  1
  Zr  Zr1  1  0.999501  0.339602  0.532321  1
  Zr  Zr2  1  0.660532  0.000229  0.968981  1
  Zr  Zr3  1  0.160344  0.499760  0.779630  1
  Zr  Zr4  1  0.840210  0.500138  0.280777  1
  Zr  Zr5  1  0.499760  0.160344  0.220370  1
  Zr  Zr6  1  0.500138  0.840210  0.719223  1
  Zr  Zr7  1  0.339602  0.999501  0.467679  1
  Ta  Ta8  1  0.342591  0.503133  0.377312  1
  Ta  Ta9  1  0.848991  0.998895  0.372449  1
  Ta  Ta10  1  0.004024  0.151805  0.127005  1
  Ta  Ta11  1  0.998895  0.848991  0.627551  1
  Ta  Ta12  1  0.652453  0.496771  0.876145  1
  Ta  Ta13  1  0.503133  0.342591  0.622688  1
  Ta  Ta14  1  0.496771  0.652453  0.123855  1
  Ta  Ta15  1  0.151805  0.004024  0.872995  1
  Ta  Ta16  1  0.829440  0.170283  0.748170  1
  Ta  Ta17  1  0.170283  0.829440  0.251830  1
  Ta  Ta18  1  0.331900  0.331900  0.000000  1
  Si  Si19  1  0.038036  0.701785  0.439476  1
  Si  Si20  1  0.956334  0.298901  0.936217  1
  Si  Si21  1  0.701785  0.038036  0.560524  1
  Si  Si22  1  0.202319  0.456161  0.186866  1
  Si  Si23  1  0.794507  0.548081  0.682437  1
  Si  Si24  1  0.456161  0.202319  0.813134  1
  Si  Si25  1  0.548081  0.794507  0.317563  1
  Si  Si26  1  0.298901  0.956334  0.063783  1
  Si  Si27  1  0.864313  0.790534  0.821848  1
  Si  Si28  1  0.135479  0.209079  0.322749  1
  Si  Si29  1  0.790534  0.864313  0.178152  1
  Si  Si30  1  0.295329  0.635561  0.571015  1
  Si  Si31  1  0.708692  0.364473  0.072792  1
  Si  Si32  1  0.635561  0.295329  0.428985  1
  Si  Si33  1  0.364473  0.708692  0.927208  1
  Si  Si34  1  0.209079  0.135479  0.677251  1
  Tc  Tc35  1  0.669818  0.669818  0.500000  1
