# generated using pymatgen
data_Li2YbEu2AgPb3
_symmetry_space_group_name_H-M   'P 1'
_cell_length_a   5.01614700
_cell_length_b   5.01614698
_cell_length_c   11.20386400
_cell_angle_alpha   90.00000000
_cell_angle_beta   90.00000000
_cell_angle_gamma   119.99999352
_symmetry_Int_Tables_number   1
_chemical_formula_structural   Li2YbEu2AgPb3
_chemical_formula_sum   'Li2 Yb1 Eu2 Ag1 Pb3'
_cell_volume   244.14003210
_cell_formula_units_Z   1
loop_
 _symmetry_equiv_pos_site_id
 _symmetry_equiv_pos_as_xyz
  1  'x, y, z'
loop_
 _atom_site_type_symbol
 _atom_site_label
 _atom_site_symmetry_multiplicity
 _atom_site_fract_x
 _atom_site_fract_y
 _atom_site_fract_z
 _atom_site_occupancy
  Li  Li0  1  0.333333  0.666667  0.494817  1
  Li  Li1  1  0.000000  0.000000  0.172952  1
  Yb  Yb2  1  0.666667  0.333333  0.999014  1
  Eu  Eu3  1  0.666667  0.333333  0.329832  1
  Eu  Eu4  1  0.666667  0.333333  0.672101  1
  Ag  Ag5  1  0.000000  0.000000  0.820542  1
  Pb  Pb6  1  0.333333  0.666667  0.155303  1
  Pb  Pb7  1  0.333333  0.666667  0.854811  1
  Pb  Pb8  1  0.000000  0.000000  0.500628  1
