# generated using pymatgen
data_NdSnH2Pt
_symmetry_space_group_name_H-M   'P 1'
_cell_length_a   4.62180400
_cell_length_b   4.62180342
_cell_length_c   8.47325200
_cell_angle_alpha   90.00000000
_cell_angle_beta   90.00000000
_cell_angle_gamma   120.00000419
_symmetry_Int_Tables_number   1
_chemical_formula_structural   NdSnH2Pt
_chemical_formula_sum   'Nd2 Sn2 H4 Pt2'
_cell_volume   156.74862123
_cell_formula_units_Z   2
loop_
 _symmetry_equiv_pos_site_id
 _symmetry_equiv_pos_as_xyz
  1  'x, y, z'
loop_
 _atom_site_type_symbol
 _atom_site_label
 _atom_site_symmetry_multiplicity
 _atom_site_fract_x
 _atom_site_fract_y
 _atom_site_fract_z
 _atom_site_occupancy
  Nd  Nd0  1  0.000000  0.000000  0.500000  1
  Nd  Nd1  1  0.000000  0.000000  0.000000  1
  Sn  Sn2  1  0.666667  0.333333  0.750000  1
  Sn  Sn3  1  0.333333  0.666667  0.250000  1
  H  H4  1  0.666667  0.333333  0.047514  1
  H  H5  1  0.333333  0.666667  0.952486  1
  H  H6  1  0.666667  0.333333  0.452486  1
  H  H7  1  0.333333  0.666667  0.547514  1
  Pt  Pt8  1  0.333333  0.666667  0.750000  1
  Pt  Pt9  1  0.666667  0.333333  0.250000  1
