# generated using pymatgen
data_CaYbHo2(Ga2Ag)4
_symmetry_space_group_name_H-M   'P 1'
_cell_length_a   4.34453000
_cell_length_b   6.98431006
_cell_length_c   10.38911706
_cell_angle_alpha   90.05603807
_cell_angle_beta   90.00000000
_cell_angle_gamma   90.00000000
_symmetry_Int_Tables_number   1
_chemical_formula_structural   CaYbHo2(Ga2Ag)4
_chemical_formula_sum   'Ca1 Yb1 Ho2 Ga8 Ag4'
_cell_volume   315.24248600
_cell_formula_units_Z   1
loop_
 _symmetry_equiv_pos_site_id
 _symmetry_equiv_pos_as_xyz
  1  'x, y, z'
loop_
 _atom_site_type_symbol
 _atom_site_label
 _atom_site_symmetry_multiplicity
 _atom_site_fract_x
 _atom_site_fract_y
 _atom_site_fract_z
 _atom_site_occupancy
  Ca  Ca0  1  0.250000  0.775349  0.825880  1
  Yb  Yb1  1  0.250000  0.275004  0.672181  1
  Ho  Ho2  1  0.750000  0.221595  0.171705  1
  Ho  Ho3  1  0.750000  0.721608  0.329295  1
  Ga  Ga4  1  0.250000  0.703023  0.532770  1
  Ga  Ga5  1  0.750000  0.298030  0.463932  1
  Ga  Ga6  1  0.750000  0.796710  0.037525  1
  Ga  Ga7  1  0.250000  0.203342  0.966694  1
  Ga  Ga8  1  0.250000  0.926623  0.156826  1
  Ga  Ga9  1  0.750000  0.074913  0.850628  1
  Ga  Ga10  1  0.750000  0.571282  0.648051  1
  Ga  Ga11  1  0.250000  0.426369  0.343992  1
  Ag  Ag12  1  0.250000  0.543361  0.099265  1
  Ag  Ag13  1  0.750000  0.457758  0.900996  1
  Ag  Ag14  1  0.750000  0.960495  0.598477  1
  Ag  Ag15  1  0.250000  0.044538  0.401781  1
