# generated using pymatgen
data_Pr4Hg3Au10
_symmetry_space_group_name_H-M   'P 1'
_cell_length_a   8.81179248
_cell_length_b   8.81177343
_cell_length_c   10.45337800
_cell_angle_alpha   89.99983881
_cell_angle_beta   90.00003603
_cell_angle_gamma   108.68463713
_symmetry_Int_Tables_number   1
_chemical_formula_structural   Pr4Hg3Au10
_chemical_formula_sum   'Pr8 Hg6 Au20'
_cell_volume   768.90031388
_cell_formula_units_Z   2
loop_
 _symmetry_equiv_pos_site_id
 _symmetry_equiv_pos_as_xyz
  1  'x, y, z'
loop_
 _atom_site_type_symbol
 _atom_site_label
 _atom_site_symmetry_multiplicity
 _atom_site_fract_x
 _atom_site_fract_y
 _atom_site_fract_z
 _atom_site_occupancy
  Pr  Pr0  1  0.703811  0.296200  0.999999  1
  Pr  Pr1  1  0.203813  0.796200  0.499998  1
  Pr  Pr2  1  0.803163  0.803152  0.292340  1
  Pr  Pr3  1  0.303164  0.303153  0.207662  1
  Pr  Pr4  1  0.796187  0.203800  0.500002  1
  Pr  Pr5  1  0.296189  0.703800  0.000001  1
  Pr  Pr6  1  0.696836  0.696847  0.792338  1
  Pr  Pr7  1  0.196837  0.196848  0.707660  1
  Hg  Hg8  1  0.528455  0.028459  0.249996  1
  Hg  Hg9  1  0.971547  0.471542  0.749998  1
  Hg  Hg10  1  0.000000  0.000000  0.000000  1
  Hg  Hg11  1  0.028453  0.528458  0.250002  1
  Hg  Hg12  1  0.471545  0.971541  0.750004  1
  Hg  Hg13  1  0.500000  0.500000  0.500000  1
  Au  Au14  1  0.155509  0.427162  0.482974  1
  Au  Au15  1  0.902611  0.902611  0.592169  1
  Au  Au16  1  0.572837  0.844482  0.517027  1
  Au  Au17  1  0.895131  0.172191  0.213411  1
  Au  Au18  1  0.395133  0.672194  0.286591  1
  Au  Au19  1  0.672194  0.395132  0.286593  1
  Au  Au20  1  0.402611  0.402611  0.907831  1
  Au  Au21  1  0.927164  0.655518  0.017021  1
  Au  Au22  1  0.327806  0.604868  0.713407  1
  Au  Au23  1  0.344492  0.072839  0.982975  1
  Au  Au24  1  0.597389  0.597389  0.092169  1
  Au  Au25  1  0.655508  0.927161  0.017025  1
  Au  Au26  1  0.097389  0.097389  0.407831  1
  Au  Au27  1  0.604867  0.327806  0.713409  1
  Au  Au28  1  0.104869  0.827809  0.786589  1
  Au  Au29  1  0.072836  0.344482  0.982979  1
  Au  Au30  1  0.844491  0.572838  0.517026  1
  Au  Au31  1  0.172193  0.895132  0.213406  1
  Au  Au32  1  0.427163  0.155518  0.482973  1
  Au  Au33  1  0.827807  0.104868  0.786594  1
