# generated using pymatgen
data_La6TcHgI6
_symmetry_space_group_name_H-M   'P 1'
_cell_length_a   11.09123313
_cell_length_b   11.09123385
_cell_length_c   11.31655949
_cell_angle_alpha   109.29294777
_cell_angle_beta   109.29294567
_cell_angle_gamma   109.01279426
_symmetry_Int_Tables_number   1
_chemical_formula_structural   La6TcHgI6
_chemical_formula_sum   'La12 Tc2 Hg2 I12'
_cell_volume   1082.28596286
_cell_formula_units_Z   2
loop_
 _symmetry_equiv_pos_site_id
 _symmetry_equiv_pos_as_xyz
  1  'x, y, z'
loop_
 _atom_site_type_symbol
 _atom_site_label
 _atom_site_symmetry_multiplicity
 _atom_site_fract_x
 _atom_site_fract_y
 _atom_site_fract_z
 _atom_site_occupancy
  La  La0  1  0.462234  0.469071  0.244966  1
  La  La1  1  0.724104  0.217268  0.255034  1
  La  La2  1  0.727000  0.006645  0.465540  1
  La  La3  1  0.238541  0.458894  0.465540  1
  La  La4  1  0.282732  0.775896  0.244966  1
  La  La5  1  0.041106  0.261459  0.034460  1
  La  La6  1  0.030929  0.037766  0.255034  1
  La  La7  1  0.493355  0.773000  0.034460  1
  La  La8  1  0.479948  0.229948  0.459895  1
  La  La9  1  0.011135  0.488865  0.750000  1
  La  La10  1  0.270052  0.020052  0.040105  1
  La  La11  1  0.238865  0.261135  0.750000  1
  Tc  Tc12  1  0.246407  0.253593  0.250000  1
  Tc  Tc13  1  0.503593  0.996407  0.250000  1
  Hg  Hg14  1  0.998716  0.248716  0.497432  1
  Hg  Hg15  1  0.251284  0.501284  0.002568  1
  I  I16  1  0.251828  0.756783  0.748348  1
  I  I17  1  0.508436  0.503479  0.751652  1
  I  I18  1  0.986036  0.740293  0.991928  1
  I  I19  1  0.743217  0.248172  0.751652  1
  I  I20  1  0.996521  0.991564  0.748348  1
  I  I21  1  0.248366  0.994109  0.508072  1
  I  I22  1  0.759707  0.513964  0.508072  1
  I  I23  1  0.505891  0.251634  0.991928  1
  I  I24  1  0.756020  0.743980  0.250000  1
  I  I25  1  0.741700  0.991700  0.983399  1
  I  I26  1  0.993980  0.506020  0.250000  1
  I  I27  1  0.508300  0.758300  0.516601  1
