# generated using pymatgen
data_Nb9Co10B10W
_symmetry_space_group_name_H-M   'P 1'
_cell_length_a   3.27830800
_cell_length_b   5.92336311
_cell_length_c   17.03489705
_cell_angle_alpha   89.86367389
_cell_angle_beta   90.00000000
_cell_angle_gamma   90.00000000
_symmetry_Int_Tables_number   1
_chemical_formula_structural   Nb9Co10B10W
_chemical_formula_sum   'Nb9 Co10 B10 W1'
_cell_volume   330.79306351
_cell_formula_units_Z   1
loop_
 _symmetry_equiv_pos_site_id
 _symmetry_equiv_pos_as_xyz
  1  'x, y, z'
loop_
 _atom_site_type_symbol
 _atom_site_label
 _atom_site_symmetry_multiplicity
 _atom_site_fract_x
 _atom_site_fract_y
 _atom_site_fract_z
 _atom_site_occupancy
  Nb  Nb0  1  0.000000  0.472714  0.320678  1
  Nb  Nb1  1  0.000000  0.469492  0.680682  1
  Nb  Nb2  1  0.500000  0.529668  0.178632  1
  Nb  Nb3  1  0.500000  0.528053  0.821606  1
  Nb  Nb4  1  0.000000  0.976655  0.375447  1
  Nb  Nb5  1  0.000000  0.975722  0.625391  1
  Nb  Nb6  1  0.500000  0.027224  0.123322  1
  Nb  Nb7  1  0.000000  0.353306  0.500544  1
  Nb  Nb8  1  0.500000  0.646067  0.999461  1
  Co  Co9  1  0.000000  0.858223  0.225797  1
  Co  Co10  1  0.000000  0.854314  0.773650  1
  Co  Co11  1  0.500000  0.143713  0.273296  1
  Co  Co12  1  0.500000  0.139797  0.728455  1
  Co  Co13  1  0.000000  0.353491  0.070854  1
  Co  Co14  1  0.000000  0.351764  0.927204  1
  Co  Co15  1  0.500000  0.648822  0.429175  1
  Co  Co16  1  0.500000  0.647241  0.572781  1
  Co  Co17  1  0.000000  0.993340  0.998633  1
  Co  Co18  1  0.500000  0.004680  0.500672  1
  B  B19  1  0.000000  0.231167  0.202369  1
  B  B20  1  0.000000  0.223328  0.800909  1
  B  B21  1  0.500000  0.771278  0.297007  1
  B  B22  1  0.500000  0.767980  0.703161  1
  B  B23  1  0.000000  0.734165  0.100045  1
  B  B24  1  0.000000  0.743225  0.897882  1
  B  B25  1  0.500000  0.269426  0.399237  1
  B  B26  1  0.500000  0.268544  0.601978  1
  B  B27  1  0.000000  0.764568  0.500793  1
  B  B28  1  0.500000  0.230370  0.994964  1
  W  W29  1  0.500000  0.021666  0.875377  1
