# generated using pymatgen
data_Ce16NdAl12
_symmetry_space_group_name_H-M   'P 1'
_cell_length_a   9.59845263
_cell_length_b   9.59845278
_cell_length_c   9.59845400
_cell_angle_alpha   109.47121899
_cell_angle_beta   109.47121930
_cell_angle_gamma   109.47122166
_symmetry_Int_Tables_number   1
_chemical_formula_structural   Ce16NdAl12
_chemical_formula_sum   'Ce16 Nd1 Al12'
_cell_volume   680.74093400
_cell_formula_units_Z   1
loop_
 _symmetry_equiv_pos_site_id
 _symmetry_equiv_pos_as_xyz
  1  'x, y, z'
loop_
 _atom_site_type_symbol
 _atom_site_label
 _atom_site_symmetry_multiplicity
 _atom_site_fract_x
 _atom_site_fract_y
 _atom_site_fract_z
 _atom_site_occupancy
  Ce  Ce0  1  0.000000  0.374533  0.000000  1
  Ce  Ce1  1  0.309764  0.588584  0.000000  1
  Ce  Ce2  1  0.374533  0.000000  0.000000  1
  Ce  Ce3  1  0.588584  0.309764  0.000000  1
  Ce  Ce4  1  0.411416  0.411416  0.721180  1
  Ce  Ce5  1  0.690236  0.278820  0.690236  1
  Ce  Ce6  1  0.278820  0.690236  0.690236  1
  Ce  Ce7  1  0.625467  0.625467  0.625467  1
  Ce  Ce8  1  0.000000  0.309764  0.588584  1
  Ce  Ce9  1  0.309764  0.000000  0.588584  1
  Ce  Ce10  1  0.721180  0.411416  0.411416  1
  Ce  Ce11  1  0.411416  0.721180  0.411416  1
  Ce  Ce12  1  0.000000  0.000000  0.374533  1
  Ce  Ce13  1  0.000000  0.588584  0.309764  1
  Ce  Ce14  1  0.588584  0.000000  0.309764  1
  Ce  Ce15  1  0.690236  0.690236  0.278820  1
  Nd  Nd16  1  0.000000  0.000000  0.000000  1
  Al  Al17  1  0.819990  0.642282  0.000000  1
  Al  Al18  1  0.642282  0.819990  0.000000  1
  Al  Al19  1  0.180010  0.180010  0.822293  1
  Al  Al20  1  0.000000  0.642282  0.819990  1
  Al  Al21  1  0.642282  0.000000  0.819990  1
  Al  Al22  1  0.000000  0.819990  0.642282  1
  Al  Al23  1  0.819990  0.000000  0.642282  1
  Al  Al24  1  0.357718  0.177707  0.357718  1
  Al  Al25  1  0.177707  0.357718  0.357718  1
  Al  Al26  1  0.822293  0.180010  0.180010  1
  Al  Al27  1  0.180010  0.822293  0.180010  1
  Al  Al28  1  0.357718  0.357718  0.177707  1
