# generated using pymatgen
data_TbCe8TiSn6
_symmetry_space_group_name_H-M   'P 1'
_cell_length_a   8.98802463
_cell_length_b   8.98802377
_cell_length_c   8.98802500
_cell_angle_alpha   96.57349224
_cell_angle_beta   96.57348519
_cell_angle_gamma   140.44784490
_symmetry_Int_Tables_number   1
_chemical_formula_structural   TbCe8TiSn6
_chemical_formula_sum   'Tb1 Ce8 Ti1 Sn6'
_cell_volume   435.09306615
_cell_formula_units_Z   1
loop_
 _symmetry_equiv_pos_site_id
 _symmetry_equiv_pos_as_xyz
  1  'x, y, z'
loop_
 _atom_site_type_symbol
 _atom_site_label
 _atom_site_symmetry_multiplicity
 _atom_site_fract_x
 _atom_site_fract_y
 _atom_site_fract_z
 _atom_site_occupancy
  Tb  Tb0  1  0.750000  0.250000  0.500000  1
  Ce  Ce1  1  0.098337  0.235606  0.331641  1
  Ce  Ce2  1  0.903963  0.766695  0.668359  1
  Ce  Ce3  1  0.764394  0.096037  0.862731  1
  Ce  Ce4  1  0.401663  0.733305  0.137269  1
  Ce  Ce5  1  0.233305  0.901663  0.137269  1
  Ce  Ce6  1  0.596037  0.264394  0.862731  1
  Ce  Ce7  1  0.735606  0.598337  0.331641  1
  Ce  Ce8  1  0.266695  0.403963  0.668359  1
  Ti  Ti9  1  0.250000  0.750000  0.500000  1
  Sn  Sn10  1  0.164438  0.664438  0.801460  1
  Sn  Sn11  1  0.862978  0.362978  0.198540  1
  Sn  Sn12  1  0.335562  0.137022  0.500000  1
  Sn  Sn13  1  0.637022  0.835562  0.500000  1
  Sn  Sn14  1  0.250000  0.250000  0.000000  1
  Sn  Sn15  1  0.750000  0.750000  0.000000  1
