# generated using pymatgen
data_Ho4VOs7
_symmetry_space_group_name_H-M   'P 1'
_cell_length_a   5.23849379
_cell_length_b   5.23849393
_cell_length_c   8.86000700
_cell_angle_alpha   90.00000000
_cell_angle_beta   90.00000000
_cell_angle_gamma   117.35181696
_symmetry_Int_Tables_number   1
_chemical_formula_structural   Ho4VOs7
_chemical_formula_sum   'Ho4 V1 Os7'
_cell_volume   215.95274453
_cell_formula_units_Z   1
loop_
 _symmetry_equiv_pos_site_id
 _symmetry_equiv_pos_as_xyz
  1  'x, y, z'
loop_
 _atom_site_type_symbol
 _atom_site_label
 _atom_site_symmetry_multiplicity
 _atom_site_fract_x
 _atom_site_fract_y
 _atom_site_fract_z
 _atom_site_occupancy
  Ho  Ho0  1  0.330933  0.669067  0.436971  1
  Ho  Ho1  1  0.668196  0.331804  0.566071  1
  Ho  Ho2  1  0.668196  0.331804  0.933929  1
  Ho  Ho3  1  0.330933  0.669067  0.063029  1
  V  V4  1  0.833784  0.166216  0.250000  1
  Os  Os5  1  0.996131  0.003869  0.498546  1
  Os  Os6  1  0.996131  0.003869  0.001454  1
  Os  Os7  1  0.824915  0.651438  0.250000  1
  Os  Os8  1  0.348562  0.175085  0.250000  1
  Os  Os9  1  0.171603  0.828397  0.750000  1
  Os  Os10  1  0.173858  0.343243  0.750000  1
  Os  Os11  1  0.656757  0.826142  0.750000  1
