# generated using pymatgen
data_YbNiB3O7
_symmetry_space_group_name_H-M   'P 1'
_cell_length_a   7.09047248
_cell_length_b   7.09047358
_cell_length_c   4.47145300
_cell_angle_alpha   90.00000000
_cell_angle_beta   90.00000000
_cell_angle_gamma   111.50955619
_symmetry_Int_Tables_number   1
_chemical_formula_structural   YbNiB3O7
_chemical_formula_sum   'Yb2 Ni2 B6 O14'
_cell_volume   209.14546465
_cell_formula_units_Z   2
loop_
 _symmetry_equiv_pos_site_id
 _symmetry_equiv_pos_as_xyz
  1  'x, y, z'
loop_
 _atom_site_type_symbol
 _atom_site_label
 _atom_site_symmetry_multiplicity
 _atom_site_fract_x
 _atom_site_fract_y
 _atom_site_fract_z
 _atom_site_occupancy
  Yb  Yb0  1  0.000000  0.500000  0.000000  1
  Yb  Yb1  1  0.500000  0.000000  0.000000  1
  Ni  Ni2  1  0.500000  0.500000  0.000000  1
  Ni  Ni3  1  0.000000  0.000000  0.000000  1
  B  B4  1  0.863687  0.136313  0.456228  1
  B  B5  1  0.363687  0.636313  0.543772  1
  B  B6  1  0.250000  0.250000  0.500000  1
  B  B7  1  0.636313  0.363687  0.456228  1
  B  B8  1  0.136313  0.863687  0.543772  1
  B  B9  1  0.750000  0.750000  0.500000  1
  O  O10  1  0.137732  0.862268  0.223957  1
  O  O11  1  0.637732  0.362268  0.776043  1
  O  O12  1  0.276073  0.427489  0.691487  1
  O  O13  1  0.572511  0.723927  0.691487  1
  O  O14  1  0.223927  0.072511  0.691487  1
  O  O15  1  0.723927  0.572511  0.308513  1
  O  O16  1  0.927489  0.776073  0.691487  1
  O  O17  1  0.862268  0.137732  0.776043  1
  O  O18  1  0.427489  0.276073  0.308513  1
  O  O19  1  0.750000  0.250000  0.328919  1
  O  O20  1  0.250000  0.750000  0.671081  1
  O  O21  1  0.776073  0.927489  0.308513  1
  O  O22  1  0.072511  0.223927  0.308513  1
  O  O23  1  0.362268  0.637732  0.223957  1
