# generated using pymatgen
data_Dy2Er3Co19(Si2P)4
_symmetry_space_group_name_H-M   'P 1'
_cell_length_a   12.09275700
_cell_length_b   12.08971148
_cell_length_c   3.68188900
_cell_angle_alpha   90.00000000
_cell_angle_beta   90.00000000
_cell_angle_gamma   120.04666989
_symmetry_Int_Tables_number   1
_chemical_formula_structural   Dy2Er3Co19(Si2P)4
_chemical_formula_sum   'Dy2 Er3 Co19 Si8 P4'
_cell_volume   465.94875435
_cell_formula_units_Z   1
loop_
 _symmetry_equiv_pos_site_id
 _symmetry_equiv_pos_as_xyz
  1  'x, y, z'
loop_
 _atom_site_type_symbol
 _atom_site_label
 _atom_site_symmetry_multiplicity
 _atom_site_fract_x
 _atom_site_fract_y
 _atom_site_fract_z
 _atom_site_occupancy
  Dy  Dy0  1  0.666397  0.333335  0.000000  1
  Dy  Dy1  1  0.331704  0.664827  0.000000  1
  Er  Er2  1  0.183053  0.181971  0.500000  1
  Er  Er3  1  0.817322  0.000734  0.500000  1
  Er  Er4  1  0.999894  0.815860  0.500000  1
  Co  Co5  1  0.556195  0.557071  0.000000  1
  Co  Co6  1  0.442759  0.000357  0.000000  1
  Co  Co7  1  0.997460  0.442660  0.000000  1
  Co  Co8  1  0.825919  0.197380  0.000000  1
  Co  Co9  1  0.803243  0.627597  0.000000  1
  Co  Co10  1  0.371331  0.175093  0.000000  1
  Co  Co11  1  0.196710  0.822902  0.000000  1
  Co  Co12  1  0.627701  0.803255  0.000000  1
  Co  Co13  1  0.175060  0.376902  0.000000  1
  Co  Co14  1  0.645849  0.124074  0.500000  1
  Co  Co15  1  0.876119  0.521808  0.500000  1
  Co  Co16  1  0.477221  0.354563  0.500000  1
  Co  Co17  1  0.124313  0.639298  0.500000  1
  Co  Co18  1  0.521514  0.876176  0.500000  1
  Co  Co19  1  0.352305  0.478061  0.500000  1
  Co  Co20  1  0.723219  0.723412  0.500000  1
  Co  Co21  1  0.276412  0.999092  0.500000  1
  Co  Co22  1  0.004587  0.282533  0.500000  1
  Co  Co23  1  0.000087  0.000762  0.000000  1
  Si  Si24  1  0.367873  0.368498  0.000000  1
  Si  Si25  1  0.631448  0.000116  0.000000  1
  Si  Si26  1  0.000402  0.631522  0.000000  1
  Si  Si27  1  0.841105  0.318860  0.500000  1
  Si  Si28  1  0.680596  0.522334  0.500000  1
  Si  Si29  1  0.477234  0.158646  0.500000  1
  Si  Si30  1  0.318523  0.840282  0.500000  1
  Si  Si31  1  0.522162  0.681295  0.500000  1
  P  P32  1  0.163785  0.478654  0.500000  1
  P  P33  1  0.820011  0.820156  0.000000  1
  P  P34  1  0.179536  0.998720  0.000000  1
  P  P35  1  0.000949  0.181189  0.000000  1
