# generated using pymatgen
data_Sc10In8GaRh3
_symmetry_space_group_name_H-M   'P 1'
_cell_length_a   17.64596902
_cell_length_b   7.76167499
_cell_length_c   3.37884200
_cell_angle_alpha   90.00000000
_cell_angle_beta   90.00000000
_cell_angle_gamma   89.60321003
_symmetry_Int_Tables_number   1
_chemical_formula_structural   Sc10In8GaRh3
_chemical_formula_sum   'Sc10 In8 Ga1 Rh3'
_cell_volume   462.76279487
_cell_formula_units_Z   1
loop_
 _symmetry_equiv_pos_site_id
 _symmetry_equiv_pos_as_xyz
  1  'x, y, z'
loop_
 _atom_site_type_symbol
 _atom_site_label
 _atom_site_symmetry_multiplicity
 _atom_site_fract_x
 _atom_site_fract_y
 _atom_site_fract_z
 _atom_site_occupancy
  Sc  Sc0  1  0.999676  0.000741  0.000000  1
  Sc  Sc1  1  0.422021  0.131375  0.000000  1
  Sc  Sc2  1  0.721254  0.243673  0.000000  1
  Sc  Sc3  1  0.217256  0.265592  0.000000  1
  Sc  Sc4  1  0.913685  0.375744  0.000000  1
  Sc  Sc5  1  0.499095  0.499210  0.000000  1
  Sc  Sc6  1  0.083519  0.624357  0.000000  1
  Sc  Sc7  1  0.779554  0.744725  0.000000  1
  Sc  Sc8  1  0.276767  0.733483  0.000000  1
  Sc  Sc9  1  0.585837  0.878461  0.000000  1
  In  In10  1  0.850861  0.069512  0.500001  1
  In  In11  1  0.568473  0.206971  0.500001  1
  In  In12  1  0.065354  0.298604  0.500001  1
  In  In13  1  0.352200  0.432205  0.500001  1
  In  In14  1  0.648559  0.570187  0.500001  1
  In  In15  1  0.934027  0.702765  0.500001  1
  In  In16  1  0.435280  0.798896  0.500001  1
  In  In17  1  0.148141  0.925424  0.500001  1
  Ga  Ga18  1  0.303825  0.034854  0.500001  1
  Rh  Rh19  1  0.805640  0.463882  0.500001  1
  Rh  Rh20  1  0.194920  0.536600  0.500001  1
  Rh  Rh21  1  0.694054  0.962739  0.500001  1
