# generated using pymatgen
data_Na16SiSnAs8
_symmetry_space_group_name_H-M   'P 1'
_cell_length_a   9.86206324
_cell_length_b   9.86206470
_cell_length_c   9.86206374
_cell_angle_alpha   60.12455318
_cell_angle_beta   60.12454385
_cell_angle_gamma   60.12454667
_symmetry_Int_Tables_number   1
_chemical_formula_structural   Na16SiSnAs8
_chemical_formula_sum   'Na16 Si1 Sn1 As8'
_cell_volume   680.16160445
_cell_formula_units_Z   1
loop_
 _symmetry_equiv_pos_site_id
 _symmetry_equiv_pos_as_xyz
  1  'x, y, z'
loop_
 _atom_site_type_symbol
 _atom_site_label
 _atom_site_symmetry_multiplicity
 _atom_site_fract_x
 _atom_site_fract_y
 _atom_site_fract_z
 _atom_site_occupancy
  Na  Na0  1  0.628260  0.628260  0.115233  1
  Na  Na1  1  0.628260  0.115232  0.628260  1
  Na  Na2  1  0.115233  0.628260  0.628260  1
  Na  Na3  1  0.628257  0.628257  0.628257  1
  Na  Na4  1  0.026499  0.473508  0.473509  1
  Na  Na5  1  0.773851  0.226105  0.226105  1
  Na  Na6  1  0.473509  0.026498  0.473509  1
  Na  Na7  1  0.473509  0.473509  0.026498  1
  Na  Na8  1  0.026487  0.026487  0.473569  1
  Na  Na9  1  0.026487  0.473569  0.026486  1
  Na  Na10  1  0.473569  0.026487  0.026487  1
  Na  Na11  1  0.773895  0.226087  0.773895  1
  Na  Na12  1  0.226106  0.773851  0.226106  1
  Na  Na13  1  0.226105  0.226105  0.773851  1
  Na  Na14  1  0.773895  0.773895  0.226087  1
  Na  Na15  1  0.226086  0.773895  0.773896  1
  Si  Si16  1  0.749832  0.749832  0.749832  1
  Sn  Sn17  1  0.500120  0.500121  0.500120  1
  As  As18  1  0.852030  0.852030  0.444044  1
  As  As19  1  0.852030  0.444044  0.852030  1
  As  As20  1  0.389238  0.389238  0.832284  1
  As  As21  1  0.389238  0.832284  0.389238  1
  As  As22  1  0.832284  0.389238  0.389238  1
  As  As23  1  0.852052  0.852052  0.852052  1
  As  As24  1  0.444044  0.852030  0.852030  1
  As  As25  1  0.389125  0.389125  0.389125  1
