# generated using pymatgen
data_Y8Cd4Hg3Ru
_symmetry_space_group_name_H-M   'P 1'
_cell_length_a   7.43157411
_cell_length_b   7.48325800
_cell_length_c   7.43174000
_cell_angle_alpha   90.00000000
_cell_angle_beta   89.99013920
_cell_angle_gamma   90.00000000
_symmetry_Int_Tables_number   1
_chemical_formula_structural   Y8Cd4Hg3Ru
_chemical_formula_sum   'Y8 Cd4 Hg3 Ru1'
_cell_volume   413.29679047
_cell_formula_units_Z   1
loop_
 _symmetry_equiv_pos_site_id
 _symmetry_equiv_pos_as_xyz
  1  'x, y, z'
loop_
 _atom_site_type_symbol
 _atom_site_label
 _atom_site_symmetry_multiplicity
 _atom_site_fract_x
 _atom_site_fract_y
 _atom_site_fract_z
 _atom_site_occupancy
  Y  Y0  1  0.259597  0.009792  0.240409  1
  Y  Y1  1  0.259597  0.490205  0.240409  1
  Y  Y2  1  0.740494  0.009760  0.240490  1
  Y  Y3  1  0.740494  0.490244  0.240490  1
  Y  Y4  1  0.259507  0.009758  0.759512  1
  Y  Y5  1  0.259507  0.490239  0.759512  1
  Y  Y6  1  0.740405  0.009788  0.759590  1
  Y  Y7  1  0.740405  0.490216  0.759590  1
  Cd  Cd8  1  0.999997  0.250001  0.000000  1
  Cd  Cd9  1  0.000001  0.750000  0.000000  1
  Cd  Cd10  1  0.499996  0.750000  0.499999  1
  Cd  Cd11  1  0.500002  0.250001  0.500000  1
  Hg  Hg12  1  0.499996  0.750000  0.000002  1
  Hg  Hg13  1  0.999999  0.250001  0.499998  1
  Hg  Hg14  1  0.000000  0.750000  0.500003  1
  Ru  Ru15  1  0.500005  0.250001  0.000002  1
