# generated using pymatgen
data_Cd2GaBiO6
_symmetry_space_group_name_H-M   'P 1'
_cell_length_a   6.00848793
_cell_length_b   6.00848850
_cell_length_c   6.00848873
_cell_angle_alpha   54.63067102
_cell_angle_beta   54.63067117
_cell_angle_gamma   54.63066719
_symmetry_Int_Tables_number   1
_chemical_formula_structural   Cd2GaBiO6
_chemical_formula_sum   'Cd2 Ga1 Bi1 O6'
_cell_volume   134.19377256
_cell_formula_units_Z   1
loop_
 _symmetry_equiv_pos_site_id
 _symmetry_equiv_pos_as_xyz
  1  'x, y, z'
loop_
 _atom_site_type_symbol
 _atom_site_label
 _atom_site_symmetry_multiplicity
 _atom_site_fract_x
 _atom_site_fract_y
 _atom_site_fract_z
 _atom_site_occupancy
  Cd  Cd0  1  0.366868  0.366868  0.366868  1
  Cd  Cd1  1  0.634165  0.634165  0.634165  1
  Ga  Ga2  1  0.153465  0.153465  0.153465  1
  Bi  Bi3  1  0.845820  0.845820  0.845820  1
  O  O4  1  0.801416  0.040752  0.428027  1
  O  O5  1  0.040752  0.428027  0.801416  1
  O  O6  1  0.428027  0.801416  0.040752  1
  O  O7  1  0.540058  0.221946  0.967052  1
  O  O8  1  0.967052  0.540058  0.221946  1
  O  O9  1  0.221946  0.967052  0.540058  1
