# generated using pymatgen
data_La7Pr3(Tl3Cl)2
_symmetry_space_group_name_H-M   'P 1'
_cell_length_a   9.75767100
_cell_length_b   9.75767128
_cell_length_c   6.75006400
_cell_angle_alpha   90.00000000
_cell_angle_beta   90.00000000
_cell_angle_gamma   120.00000245
_symmetry_Int_Tables_number   1
_chemical_formula_structural   La7Pr3(Tl3Cl)2
_chemical_formula_sum   'La7 Pr3 Tl6 Cl2'
_cell_volume   556.58418979
_cell_formula_units_Z   1
loop_
 _symmetry_equiv_pos_site_id
 _symmetry_equiv_pos_as_xyz
  1  'x, y, z'
loop_
 _atom_site_type_symbol
 _atom_site_label
 _atom_site_symmetry_multiplicity
 _atom_site_fract_x
 _atom_site_fract_y
 _atom_site_fract_z
 _atom_site_occupancy
  La  La0  1  0.737950  0.000348  0.750635  1
  La  La1  1  0.999652  0.262050  0.249365  1
  La  La2  1  0.737950  0.737602  0.249365  1
  La  La3  1  0.333333  0.666667  0.500000  1
  La  La4  1  0.262398  0.000348  0.249365  1
  La  La5  1  0.262398  0.262050  0.750635  1
  La  La6  1  0.999652  0.737602  0.750635  1
  Pr  Pr7  1  0.333333  0.666667  0.000000  1
  Pr  Pr8  1  0.666667  0.333333  0.500000  1
  Pr  Pr9  1  0.666667  0.333333  0.000000  1
  Tl  Tl10  1  0.389345  0.000583  0.750402  1
  Tl  Tl11  1  0.611238  0.000583  0.249598  1
  Tl  Tl12  1  0.999417  0.610655  0.249598  1
  Tl  Tl13  1  0.611238  0.610655  0.750402  1
  Tl  Tl14  1  0.999417  0.388762  0.750402  1
  Tl  Tl15  1  0.389345  0.388762  0.249598  1
  Cl  Cl16  1  0.000000  0.000000  0.500000  1
  Cl  Cl17  1  0.000000  0.000000  0.000000  1
