# generated using pymatgen
data_Hf2Zr18Si15Se
_symmetry_space_group_name_H-M   'P 1'
_cell_length_a   7.16825575
_cell_length_b   7.14834376
_cell_length_c   13.06152998
_cell_angle_alpha   90.03394168
_cell_angle_beta   89.58200157
_cell_angle_gamma   89.81446863
_symmetry_Int_Tables_number   1
_chemical_formula_structural   Hf2Zr18Si15Se
_chemical_formula_sum   'Hf2 Zr18 Si15 Se1'
_cell_volume   669.26645281
_cell_formula_units_Z   1
loop_
 _symmetry_equiv_pos_site_id
 _symmetry_equiv_pos_as_xyz
  1  'x, y, z'
loop_
 _atom_site_type_symbol
 _atom_site_label
 _atom_site_symmetry_multiplicity
 _atom_site_fract_x
 _atom_site_fract_y
 _atom_site_fract_z
 _atom_site_occupancy
  Hf  Hf0  1  0.006337  0.851183  0.125427  1
  Hf  Hf1  1  0.996866  0.145205  0.623352  1
  Zr  Zr2  1  0.674669  0.324915  0.749799  1
  Zr  Zr3  1  0.327257  0.674352  0.250149  1
  Zr  Zr4  1  0.824608  0.824352  0.500262  1
  Zr  Zr5  1  0.176412  0.177212  0.999874  1
  Zr  Zr6  1  0.499575  0.149162  0.535248  1
  Zr  Zr7  1  0.496067  0.844227  0.031223  1
  Zr  Zr8  1  0.651787  0.997551  0.288107  1
  Zr  Zr9  1  0.341765  0.995274  0.781610  1
  Zr  Zr10  1  0.850052  0.506237  0.965570  1
  Zr  Zr11  1  0.152410  0.497731  0.465427  1
  Zr  Zr12  1  0.997774  0.652879  0.715301  1
  Zr  Zr13  1  0.010841  0.353331  0.219638  1
  Zr  Zr14  1  0.501174  0.351331  0.124406  1
  Zr  Zr15  1  0.501137  0.646168  0.627207  1
  Zr  Zr16  1  0.847549  0.003924  0.878689  1
  Zr  Zr17  1  0.147904  0.999394  0.376912  1
  Zr  Zr18  1  0.650119  0.500655  0.372539  1
  Zr  Zr19  1  0.348306  0.501225  0.871473  1
  Si  Si20  1  0.204844  0.855633  0.573196  1
  Si  Si21  1  0.643420  0.705765  0.823090  1
  Si  Si22  1  0.359780  0.293590  0.323010  1
  Si  Si23  1  0.855500  0.204622  0.428669  1
  Si  Si24  1  0.140661  0.796521  0.927589  1
  Si  Si25  1  0.706696  0.647221  0.176277  1
  Si  Si26  1  0.290635  0.354833  0.674797  1
  Si  Si27  1  0.532863  0.196325  0.928208  1
  Si  Si28  1  0.449247  0.798141  0.438596  1
  Si  Si29  1  0.698689  0.950057  0.688037  1
  Si  Si30  1  0.303025  0.049672  0.187618  1
  Si  Si31  1  0.801235  0.448633  0.562316  1
  Si  Si32  1  0.202537  0.552806  0.062663  1
  Si  Si33  1  0.951159  0.700886  0.312922  1
  Si  Si34  1  0.047996  0.299922  0.810907  1
  Se  Se35  1  0.809103  0.149062  0.079891  1
