# generated using pymatgen
data_Ho6Al6PtAu5
_symmetry_space_group_name_H-M   'P 1'
_cell_length_a   7.35916500
_cell_length_b   7.35916575
_cell_length_c   7.98004300
_cell_angle_alpha   90.00000000
_cell_angle_beta   90.00000000
_cell_angle_gamma   119.99999212
_symmetry_Int_Tables_number   1
_chemical_formula_structural   Ho6Al6PtAu5
_chemical_formula_sum   'Ho6 Al6 Pt1 Au5'
_cell_volume   374.27689934
_cell_formula_units_Z   1
loop_
 _symmetry_equiv_pos_site_id
 _symmetry_equiv_pos_as_xyz
  1  'x, y, z'
loop_
 _atom_site_type_symbol
 _atom_site_label
 _atom_site_symmetry_multiplicity
 _atom_site_fract_x
 _atom_site_fract_y
 _atom_site_fract_z
 _atom_site_occupancy
  Ho  Ho0  1  0.581586  0.994319  0.750000  1
  Ho  Ho1  1  0.005681  0.587268  0.750000  1
  Ho  Ho2  1  0.412732  0.418414  0.750000  1
  Ho  Ho3  1  0.993861  0.589630  0.250000  1
  Ho  Ho4  1  0.595769  0.006139  0.250000  1
  Ho  Ho5  1  0.410370  0.404231  0.250000  1
  Al  Al6  1  0.757775  0.758546  0.005799  1
  Al  Al7  1  0.241454  0.999230  0.005799  1
  Al  Al8  1  0.000770  0.242225  0.005799  1
  Al  Al9  1  0.757775  0.758546  0.494201  1
  Al  Al10  1  0.241454  0.999230  0.494201  1
  Al  Al11  1  0.000770  0.242225  0.494201  1
  Pt  Pt12  1  0.000000  0.000000  0.250000  1
  Au  Au13  1  0.000000  0.000000  0.750000  1
  Au  Au14  1  0.666667  0.333333  0.993409  1
  Au  Au15  1  0.666667  0.333333  0.506591  1
  Au  Au16  1  0.333333  0.666667  0.490807  1
  Au  Au17  1  0.333333  0.666667  0.009193  1
