# generated using pymatgen
data_ErSc(SbO4)2
_symmetry_space_group_name_H-M   'P 1'
_cell_length_a   5.30234911
_cell_length_b   7.46550835
_cell_length_c   7.55458321
_cell_angle_alpha   80.92607787
_cell_angle_beta   86.99393492
_cell_angle_gamma   91.04569756
_symmetry_Int_Tables_number   1
_chemical_formula_structural   ErSc(SbO4)2
_chemical_formula_sum   'Er2 Sc2 Sb4 O16'
_cell_volume   294.79078797
_cell_formula_units_Z   2
loop_
 _symmetry_equiv_pos_site_id
 _symmetry_equiv_pos_as_xyz
  1  'x, y, z'
loop_
 _atom_site_type_symbol
 _atom_site_label
 _atom_site_symmetry_multiplicity
 _atom_site_fract_x
 _atom_site_fract_y
 _atom_site_fract_z
 _atom_site_occupancy
  Er  Er0  1  0.748734  0.875527  0.373387  1
  Er  Er1  1  0.251266  0.124473  0.626613  1
  Sc  Sc2  1  0.720340  0.367222  0.333537  1
  Sc  Sc3  1  0.279660  0.632778  0.666463  1
  Sb  Sb4  1  0.774341  0.811001  0.839825  1
  Sb  Sb5  1  0.225659  0.188999  0.160175  1
  Sb  Sb6  1  0.246759  0.685880  0.172350  1
  Sb  Sb7  1  0.753241  0.314120  0.827650  1
  O  O8  1  0.902216  0.307444  0.069125  1
  O  O9  1  0.097784  0.692556  0.930875  1
  O  O10  1  0.386424  0.436070  0.178228  1
  O  O11  1  0.613576  0.563930  0.821772  1
  O  O12  1  0.094577  0.933938  0.176451  1
  O  O13  1  0.905423  0.066062  0.823549  1
  O  O14  1  0.580676  0.812022  0.072814  1
  O  O15  1  0.419324  0.187978  0.927186  1
  O  O16  1  0.994544  0.819299  0.610643  1
  O  O17  1  0.005456  0.180701  0.389357  1
  O  O18  1  0.414807  0.684196  0.403194  1
  O  O19  1  0.585193  0.315804  0.596806  1
  O  O20  1  0.493453  0.114319  0.329240  1
  O  O21  1  0.506547  0.885681  0.670760  1
  O  O22  1  0.925622  0.604483  0.304971  1
  O  O23  1  0.074378  0.395517  0.695029  1
