# generated using pymatgen
data_Dy2TmCdGa8Ru3
_symmetry_space_group_name_H-M   'P 1'
_cell_length_a   6.44812300
_cell_length_b   6.48559800
_cell_length_c   6.44812300
_cell_angle_alpha   90.00000000
_cell_angle_beta   90.00000000
_cell_angle_gamma   90.00000000
_symmetry_Int_Tables_number   1
_chemical_formula_structural   Dy2TmCdGa8Ru3
_chemical_formula_sum   'Dy2 Tm1 Cd1 Ga8 Ru3'
_cell_volume   269.66007591
_cell_formula_units_Z   1
loop_
 _symmetry_equiv_pos_site_id
 _symmetry_equiv_pos_as_xyz
  1  'x, y, z'
loop_
 _atom_site_type_symbol
 _atom_site_label
 _atom_site_symmetry_multiplicity
 _atom_site_fract_x
 _atom_site_fract_y
 _atom_site_fract_z
 _atom_site_occupancy
  Dy  Dy0  1  0.000000  0.500000  0.500000  1
  Dy  Dy1  1  0.500000  0.500000  0.000000  1
  Tm  Tm2  1  0.500000  0.000000  0.500000  1
  Cd  Cd3  1  0.500000  0.500000  0.500000  1
  Ga  Ga4  1  0.210063  0.208910  0.210063  1
  Ga  Ga5  1  0.210063  0.791090  0.210063  1
  Ga  Ga6  1  0.210063  0.208910  0.789937  1
  Ga  Ga7  1  0.789937  0.208910  0.210063  1
  Ga  Ga8  1  0.789937  0.791090  0.210063  1
  Ga  Ga9  1  0.210063  0.791090  0.789937  1
  Ga  Ga10  1  0.789937  0.208910  0.789937  1
  Ga  Ga11  1  0.789937  0.791090  0.789937  1
  Ru  Ru12  1  0.500000  0.000000  0.000000  1
  Ru  Ru13  1  0.000000  0.000000  0.500000  1
  Ru  Ru14  1  0.000000  0.500000  0.000000  1
