# generated using pymatgen
data_Se2SN2
_symmetry_space_group_name_H-M   'P 1'
_cell_length_a   4.19977215
_cell_length_b   4.82092294
_cell_length_c   8.34469358
_cell_angle_alpha   81.20536797
_cell_angle_beta   85.43261692
_cell_angle_gamma   89.36610987
_symmetry_Int_Tables_number   1
_chemical_formula_structural   Se2SN2
_chemical_formula_sum   'Se2 S1 N2'
_cell_volume   166.43639595
_cell_formula_units_Z   1
loop_
 _symmetry_equiv_pos_site_id
 _symmetry_equiv_pos_as_xyz
  1  'x, y, z'
loop_
 _atom_site_type_symbol
 _atom_site_label
 _atom_site_symmetry_multiplicity
 _atom_site_fract_x
 _atom_site_fract_y
 _atom_site_fract_z
 _atom_site_occupancy
  Se  Se0  1  0.346159  0.260244  0.614085  1
  Se  Se1  1  0.701827  0.640301  0.506796  1
  S  S2  1  0.666269  0.903912  0.704377  1
  N  N3  1  0.650517  0.288801  0.064453  1
  N  N4  1  0.451931  0.399504  0.124885  1
