# generated using pymatgen
data_Fe7(Tc2Mo)2
_symmetry_space_group_name_H-M   'P 1'
_cell_length_a   8.95785490
_cell_length_b   8.95785484
_cell_length_c   8.95785439
_cell_angle_alpha   30.41811248
_cell_angle_beta   30.41811395
_cell_angle_gamma   30.41810904
_symmetry_Int_Tables_number   1
_chemical_formula_structural   Fe7(Tc2Mo)2
_chemical_formula_sum   'Fe7 Tc4 Mo2'
_cell_volume   163.31896927
_cell_formula_units_Z   1
loop_
 _symmetry_equiv_pos_site_id
 _symmetry_equiv_pos_as_xyz
  1  'x, y, z'
loop_
 _atom_site_type_symbol
 _atom_site_label
 _atom_site_symmetry_multiplicity
 _atom_site_fract_x
 _atom_site_fract_y
 _atom_site_fract_z
 _atom_site_occupancy
  Fe  Fe0  1  0.590543  0.089790  0.089790  1
  Fe  Fe1  1  0.089790  0.089790  0.590543  1
  Fe  Fe2  1  0.908445  0.908445  0.412972  1
  Fe  Fe3  1  0.908445  0.412972  0.908445  1
  Fe  Fe4  1  0.999636  0.999636  0.999636  1
  Fe  Fe5  1  0.089790  0.590543  0.089790  1
  Fe  Fe6  1  0.412972  0.908445  0.908445  1
  Tc  Tc7  1  0.547878  0.547878  0.547878  1
  Tc  Tc8  1  0.652576  0.652576  0.652576  1
  Tc  Tc9  1  0.452389  0.452389  0.452389  1
  Tc  Tc10  1  0.833419  0.833419  0.833419  1
  Mo  Mo11  1  0.347006  0.347006  0.347006  1
  Mo  Mo12  1  0.167112  0.167112  0.167112  1
