# generated using pymatgen
data_SrHoBi2(Rh2O7)2
_symmetry_space_group_name_H-M   'P 1'
_cell_length_a   7.25857780
_cell_length_b   7.31467325
_cell_length_c   7.31467311
_cell_angle_alpha   60.45790671
_cell_angle_beta   60.14066254
_cell_angle_gamma   60.14066469
_symmetry_Int_Tables_number   1
_chemical_formula_structural   SrHoBi2(Rh2O7)2
_chemical_formula_sum   'Sr1 Ho1 Bi2 Rh4 O14'
_cell_volume   276.14255115
_cell_formula_units_Z   1
loop_
 _symmetry_equiv_pos_site_id
 _symmetry_equiv_pos_as_xyz
  1  'x, y, z'
loop_
 _atom_site_type_symbol
 _atom_site_label
 _atom_site_symmetry_multiplicity
 _atom_site_fract_x
 _atom_site_fract_y
 _atom_site_fract_z
 _atom_site_occupancy
  Sr  Sr0  1  0.625000  0.125000  0.125000  1
  Ho  Ho1  1  0.125000  0.125000  0.125000  1
  Bi  Bi2  1  0.125000  0.625000  0.125000  1
  Bi  Bi3  1  0.125000  0.125000  0.625000  1
  Rh  Rh4  1  0.625000  0.625000  0.625000  1
  Rh  Rh5  1  0.625000  0.625000  0.125000  1
  Rh  Rh6  1  0.125000  0.625000  0.625000  1
  Rh  Rh7  1  0.625000  0.125000  0.625000  1
  O  O8  1  0.228781  0.255062  0.255062  1
  O  O9  1  0.288073  0.713414  0.292346  1
  O  O10  1  0.961927  0.957654  0.536586  1
  O  O11  1  0.537303  0.954446  0.553753  1
  O  O12  1  0.712697  0.696247  0.295554  1
  O  O13  1  0.957662  0.544066  0.544066  1
  O  O14  1  0.712697  0.295554  0.696247  1
  O  O15  1  0.288073  0.292346  0.713414  1
  O  O16  1  0.720105  0.294812  0.294812  1
  O  O17  1  0.292338  0.705934  0.705934  1
  O  O18  1  0.961927  0.536586  0.957654  1
  O  O19  1  0.537303  0.553753  0.954446  1
  O  O20  1  0.021219  0.994938  0.994938  1
  O  O21  1  0.529895  0.955188  0.955188  1
