# generated using pymatgen
data_TbTm7Sc12(GaSi3)4
_symmetry_space_group_name_H-M   'P 1'
_cell_length_a   7.09294644
_cell_length_b   7.37768814
_cell_length_c   14.08502987
_cell_angle_alpha   90.09060022
_cell_angle_beta   89.83632210
_cell_angle_gamma   90.22616416
_symmetry_Int_Tables_number   1
_chemical_formula_structural   TbTm7Sc12(GaSi3)4
_chemical_formula_sum   'Tb1 Tm7 Sc12 Ga4 Si12'
_cell_volume   737.05357177
_cell_formula_units_Z   1
loop_
 _symmetry_equiv_pos_site_id
 _symmetry_equiv_pos_as_xyz
  1  'x, y, z'
loop_
 _atom_site_type_symbol
 _atom_site_label
 _atom_site_symmetry_multiplicity
 _atom_site_fract_x
 _atom_site_fract_y
 _atom_site_fract_z
 _atom_site_occupancy
  Tb  Tb0  1  0.013326  0.174513  0.096228  1
  Tm  Tm1  1  0.988203  0.824430  0.901453  1
  Tm  Tm2  1  0.487692  0.677687  0.901415  1
  Tm  Tm3  1  0.988254  0.826911  0.600433  1
  Tm  Tm4  1  0.510448  0.320949  0.097007  1
  Tm  Tm5  1  0.009174  0.175371  0.400326  1
  Tm  Tm6  1  0.510661  0.324029  0.400935  1
  Tm  Tm7  1  0.490677  0.676390  0.600762  1
  Sc  Sc8  1  0.162839  0.501737  0.751456  1
  Sc  Sc9  1  0.836583  0.497479  0.250166  1
  Sc  Sc10  1  0.336140  0.002871  0.248484  1
  Sc  Sc11  1  0.663300  0.997426  0.749977  1
  Sc  Sc12  1  0.333605  0.174381  0.627952  1
  Sc  Sc13  1  0.668898  0.826399  0.373763  1
  Sc  Sc14  1  0.169928  0.673292  0.373135  1
  Sc  Sc15  1  0.668318  0.826227  0.125667  1
  Sc  Sc16  1  0.829140  0.324841  0.626830  1
  Sc  Sc17  1  0.330672  0.175530  0.874556  1
  Sc  Sc18  1  0.829212  0.323777  0.874167  1
  Sc  Sc19  1  0.173160  0.675212  0.124412  1
  Ga  Ga20  1  0.163108  0.461188  0.539807  1
  Ga  Ga21  1  0.837909  0.537967  0.461694  1
  Ga  Ga22  1  0.337707  0.961784  0.461806  1
  Ga  Ga23  1  0.838218  0.539533  0.038157  1
  Si  Si24  1  0.032797  0.114832  0.751329  1
  Si  Si25  1  0.966813  0.883442  0.249551  1
  Si  Si26  1  0.467449  0.612871  0.248434  1
  Si  Si27  1  0.532881  0.387198  0.751460  1
  Si  Si28  1  0.286309  0.869820  0.751345  1
  Si  Si29  1  0.713159  0.129619  0.249287  1
  Si  Si30  1  0.214767  0.370990  0.249139  1
  Si  Si31  1  0.787135  0.631061  0.751726  1
  Si  Si32  1  0.659268  0.036186  0.539377  1
  Si  Si33  1  0.159276  0.465615  0.960009  1
  Si  Si34  1  0.657328  0.035562  0.960789  1
  Si  Si35  1  0.345649  0.962883  0.036971  1
