# generated using pymatgen
data_K2CdI4
_symmetry_space_group_name_H-M   'P 1'
_cell_length_a   7.59807420
_cell_length_b   7.59807323
_cell_length_c   12.07737900
_cell_angle_alpha   90.00000000
_cell_angle_beta   90.00000000
_cell_angle_gamma   109.61105031
_symmetry_Int_Tables_number   1
_chemical_formula_structural   K2CdI4
_chemical_formula_sum   'K4 Cd2 I8'
_cell_volume   656.79109505
_cell_formula_units_Z   2
loop_
 _symmetry_equiv_pos_site_id
 _symmetry_equiv_pos_as_xyz
  1  'x, y, z'
loop_
 _atom_site_type_symbol
 _atom_site_label
 _atom_site_symmetry_multiplicity
 _atom_site_fract_x
 _atom_site_fract_y
 _atom_site_fract_z
 _atom_site_occupancy
  K  K0  1  0.615751  0.615751  0.500000  1
  K  K1  1  0.615751  0.615751  0.000000  1
  K  K2  1  0.247581  0.876446  0.250000  1
  K  K3  1  0.876446  0.247581  0.750000  1
  Cd  Cd4  1  0.857026  0.306941  0.250000  1
  Cd  Cd5  1  0.306941  0.857026  0.750000  1
  I  I6  1  0.047188  0.489227  0.441282  1
  I  I7  1  0.489227  0.047188  0.558718  1
  I  I8  1  0.047188  0.489227  0.058718  1
  I  I9  1  0.489227  0.047188  0.941282  1
  I  I10  1  0.497145  0.353110  0.250000  1
  I  I11  1  0.353110  0.497145  0.750000  1
  I  I12  1  0.780419  0.914999  0.250000  1
  I  I13  1  0.914999  0.780419  0.750000  1
