# generated using pymatgen
data_Sc8Ti2Si16Mo9W
_symmetry_space_group_name_H-M   'P 1'
_cell_length_a   6.55954523
_cell_length_b   6.80073469
_cell_length_c   12.73099500
_cell_angle_alpha   90.00000000
_cell_angle_beta   90.00000000
_cell_angle_gamma   90.04463174
_symmetry_Int_Tables_number   1
_chemical_formula_structural   Sc8Ti2Si16Mo9W
_chemical_formula_sum   'Sc8 Ti2 Si16 Mo9 W1'
_cell_volume   567.92603635
_cell_formula_units_Z   1
loop_
 _symmetry_equiv_pos_site_id
 _symmetry_equiv_pos_as_xyz
  1  'x, y, z'
loop_
 _atom_site_type_symbol
 _atom_site_label
 _atom_site_symmetry_multiplicity
 _atom_site_fract_x
 _atom_site_fract_y
 _atom_site_fract_z
 _atom_site_occupancy
  Sc  Sc0  1  0.496902  0.673831  0.593950  1
  Sc  Sc1  1  0.999217  0.829338  0.906373  1
  Sc  Sc2  1  0.501120  0.328799  0.093994  1
  Sc  Sc3  1  0.002731  0.173589  0.405560  1
  Sc  Sc4  1  0.501120  0.328799  0.406006  1
  Sc  Sc5  1  0.002731  0.173589  0.094440  1
  Sc  Sc6  1  0.496902  0.673831  0.906050  1
  Sc  Sc7  1  0.999217  0.829338  0.593627  1
  Ti  Ti8  1  0.340986  0.004349  0.750000  1
  Ti  Ti9  1  0.159082  0.504784  0.250000  1
  Si  Si10  1  0.667491  0.962471  0.456260  1
  Si  Si11  1  0.166151  0.536923  0.042179  1
  Si  Si12  1  0.333789  0.037109  0.957876  1
  Si  Si13  1  0.832769  0.462307  0.544160  1
  Si  Si14  1  0.333789  0.037109  0.542124  1
  Si  Si15  1  0.832769  0.462307  0.955840  1
  Si  Si16  1  0.667491  0.962471  0.043740  1
  Si  Si17  1  0.166151  0.536923  0.457821  1
  Si  Si18  1  0.467608  0.380407  0.750000  1
  Si  Si19  1  0.964968  0.119659  0.750000  1
  Si  Si20  1  0.534395  0.618545  0.250000  1
  Si  Si21  1  0.033084  0.880161  0.250000  1
  Si  Si22  1  0.704716  0.859854  0.750000  1
  Si  Si23  1  0.201057  0.637776  0.750000  1
  Si  Si24  1  0.297941  0.138726  0.250000  1
  Si  Si25  1  0.795470  0.360268  0.250000  1
  Mo  Mo26  1  0.668954  0.164875  0.623825  1
  Mo  Mo27  1  0.168868  0.331240  0.875881  1
  Mo  Mo28  1  0.331825  0.831799  0.124317  1
  Mo  Mo29  1  0.831005  0.665239  0.376205  1
  Mo  Mo30  1  0.331825  0.831799  0.375683  1
  Mo  Mo31  1  0.831005  0.665239  0.123795  1
  Mo  Mo32  1  0.668954  0.164875  0.876175  1
  Mo  Mo33  1  0.168868  0.331240  0.624119  1
  Mo  Mo34  1  0.836054  0.500759  0.750000  1
  W  W35  1  0.662994  0.999672  0.250000  1
