# generated using pymatgen
data_AcTb3Ir4F28
_symmetry_space_group_name_H-M   'P 1'
_cell_length_a   5.63952120
_cell_length_b   9.11437218
_cell_length_c   12.20506436
_cell_angle_alpha   62.48663864
_cell_angle_beta   89.88364094
_cell_angle_gamma   89.87866606
_symmetry_Int_Tables_number   1
_chemical_formula_structural   AcTb3Ir4F28
_chemical_formula_sum   'Ac1 Tb3 Ir4 F28'
_cell_volume   556.39596774
_cell_formula_units_Z   1
loop_
 _symmetry_equiv_pos_site_id
 _symmetry_equiv_pos_as_xyz
  1  'x, y, z'
loop_
 _atom_site_type_symbol
 _atom_site_label
 _atom_site_symmetry_multiplicity
 _atom_site_fract_x
 _atom_site_fract_y
 _atom_site_fract_z
 _atom_site_occupancy
  Ac  Ac0  1  0.260280  0.815650  0.265957  1
  Tb  Tb1  1  0.739793  0.185070  0.735534  1
  Tb  Tb2  1  0.763509  0.200081  0.231768  1
  Tb  Tb3  1  0.240729  0.816238  0.764696  1
  Ir  Ir4  1  0.753516  0.725866  0.034439  1
  Ir  Ir5  1  0.240876  0.280444  0.951056  1
  Ir  Ir6  1  0.256897  0.264812  0.460957  1
  Ir  Ir7  1  0.742667  0.722641  0.553469  1
  F  F8  1  0.929369  0.701505  0.425462  1
  F  F9  1  0.054365  0.287943  0.583794  1
  F  F10  1  0.442483  0.295070  0.077648  1
  F  F11  1  0.558688  0.706677  0.909025  1
  F  F12  1  0.464357  0.726121  0.123016  1
  F  F13  1  0.522731  0.271779  0.857715  1
  F  F14  1  0.969441  0.266504  0.367046  1
  F  F15  1  0.032118  0.731498  0.641227  1
  F  F16  1  0.936214  0.739411  0.165614  1
  F  F17  1  0.041087  0.260155  0.825739  1
  F  F18  1  0.457559  0.247271  0.333856  1
  F  F19  1  0.550840  0.744719  0.680105  1
  F  F20  1  0.763419  0.483397  0.132879  1
  F  F21  1  0.233421  0.520749  0.858423  1
  F  F22  1  0.268025  0.503707  0.364706  1
  F  F23  1  0.737807  0.481233  0.647379  1
  F  F24  1  0.952326  0.285585  0.042336  1
  F  F25  1  0.052191  0.719533  0.951018  1
  F  F26  1  0.450508  0.709435  0.471289  1
  F  F27  1  0.547659  0.275571  0.549433  1
  F  F28  1  0.738580  0.961827  0.456543  1
  F  F29  1  0.258371  0.023979  0.553880  1
  F  F30  1  0.240003  0.040786  0.040355  1
  F  F31  1  0.755842  0.968818  0.944570  1
  F  F32  1  0.614588  0.982557  0.228526  1
  F  F33  1  0.421660  0.026754  0.767895  1
  F  F34  1  0.085674  0.052292  0.270155  1
  F  F35  1  0.922404  0.974321  0.732488  1
