# generated using pymatgen
data_Yb10SiGeSb4
_symmetry_space_group_name_H-M   'P 1'
_cell_length_a   7.92993107
_cell_length_b   9.45242500
_cell_length_c   12.61322712
_cell_angle_alpha   90.00000000
_cell_angle_beta   89.98450685
_cell_angle_gamma   90.00000000
_symmetry_Int_Tables_number   1
_chemical_formula_structural   Yb10SiGeSb4
_chemical_formula_sum   'Yb20 Si2 Ge2 Sb8'
_cell_volume   945.45062320
_cell_formula_units_Z   2
loop_
 _symmetry_equiv_pos_site_id
 _symmetry_equiv_pos_as_xyz
  1  'x, y, z'
loop_
 _atom_site_type_symbol
 _atom_site_label
 _atom_site_symmetry_multiplicity
 _atom_site_fract_x
 _atom_site_fract_y
 _atom_site_fract_z
 _atom_site_occupancy
  Yb  Yb0  1  0.327969  0.750000  0.718038  1
  Yb  Yb1  1  0.672031  0.250000  0.281962  1
  Yb  Yb2  1  0.827881  0.250000  0.781841  1
  Yb  Yb3  1  0.172119  0.750000  0.218159  1
  Yb  Yb4  1  0.055211  0.750000  0.500640  1
  Yb  Yb5  1  0.944789  0.250000  0.499360  1
  Yb  Yb6  1  0.555115  0.250000  0.999386  1
  Yb  Yb7  1  0.444885  0.750000  0.000614  1
  Yb  Yb8  1  0.852828  0.750000  0.800821  1
  Yb  Yb9  1  0.147172  0.250000  0.199179  1
  Yb  Yb10  1  0.353266  0.250000  0.698724  1
  Yb  Yb11  1  0.646734  0.750000  0.301276  1
  Yb  Yb12  1  0.677026  0.527223  0.574656  1
  Yb  Yb13  1  0.322974  0.472777  0.425344  1
  Yb  Yb14  1  0.177415  0.472422  0.925090  1
  Yb  Yb15  1  0.322974  0.027223  0.425344  1
  Yb  Yb16  1  0.822585  0.527578  0.074910  1
  Yb  Yb17  1  0.677026  0.972777  0.574656  1
  Yb  Yb18  1  0.822585  0.972422  0.074910  1
  Yb  Yb19  1  0.177415  0.027578  0.925090  1
  Si  Si20  1  0.059429  0.750000  0.990715  1
  Si  Si21  1  0.940571  0.250000  0.009285  1
  Ge  Ge22  1  0.559153  0.250000  0.509358  1
  Ge  Ge23  1  0.440847  0.750000  0.490642  1
  Sb  Sb24  1  0.560216  0.507392  0.831425  1
  Sb  Sb25  1  0.439784  0.492608  0.168575  1
  Sb  Sb26  1  0.060146  0.492575  0.668487  1
  Sb  Sb27  1  0.439784  0.007392  0.168575  1
  Sb  Sb28  1  0.939854  0.507425  0.331513  1
  Sb  Sb29  1  0.560216  0.992608  0.831425  1
  Sb  Sb30  1  0.939854  0.992575  0.331513  1
  Sb  Sb31  1  0.060146  0.007425  0.668487  1
