# generated using pymatgen
data_TbDy5Al15Si9Os8
_symmetry_space_group_name_H-M   'P 1'
_cell_length_a   8.71963600
_cell_length_b   8.70962851
_cell_length_c   9.38318000
_cell_angle_alpha   90.00000000
_cell_angle_beta   90.00000000
_cell_angle_gamma   120.03800877
_symmetry_Int_Tables_number   1
_chemical_formula_structural   TbDy5Al15Si9Os8
_chemical_formula_sum   'Tb1 Dy5 Al15 Si9 Os8'
_cell_volume   616.89635434
_cell_formula_units_Z   1
loop_
 _symmetry_equiv_pos_site_id
 _symmetry_equiv_pos_as_xyz
  1  'x, y, z'
loop_
 _atom_site_type_symbol
 _atom_site_label
 _atom_site_symmetry_multiplicity
 _atom_site_fract_x
 _atom_site_fract_y
 _atom_site_fract_z
 _atom_site_occupancy
  Tb  Tb0  1  0.192178  0.384358  0.250000  1
  Dy  Dy1  1  0.807575  0.615149  0.750000  1
  Dy  Dy2  1  0.613144  0.807494  0.250000  1
  Dy  Dy3  1  0.386898  0.190954  0.750000  1
  Dy  Dy4  1  0.194349  0.807494  0.250000  1
  Dy  Dy5  1  0.804057  0.190954  0.750000  1
  Al  Al6  1  0.164613  0.329227  0.578305  1
  Al  Al7  1  0.834170  0.668339  0.420523  1
  Al  Al8  1  0.671262  0.834807  0.577357  1
  Al  Al9  1  0.834170  0.668339  0.079477  1
  Al  Al10  1  0.332920  0.166141  0.421706  1
  Al  Al11  1  0.164613  0.329227  0.921695  1
  Al  Al12  1  0.163544  0.834807  0.577357  1
  Al  Al13  1  0.332920  0.166141  0.078294  1
  Al  Al14  1  0.833222  0.166141  0.421706  1
  Al  Al15  1  0.671262  0.834807  0.922643  1
  Al  Al16  1  0.833222  0.166141  0.078294  1
  Al  Al17  1  0.163544  0.834807  0.922643  1
  Al  Al18  1  0.126359  0.565690  0.750000  1
  Al  Al19  1  0.439332  0.565690  0.750000  1
  Al  Al20  1  0.000330  0.000660  0.750000  1
  Si  Si21  1  0.332542  0.665084  0.039475  1
  Si  Si22  1  0.667420  0.334839  0.957903  1
  Si  Si23  1  0.667420  0.334839  0.542097  1
  Si  Si24  1  0.332542  0.665084  0.460525  1
  Si  Si25  1  0.561831  0.123662  0.250000  1
  Si  Si26  1  0.436619  0.873238  0.750000  1
  Si  Si27  1  0.875184  0.438367  0.250000  1
  Si  Si28  1  0.563183  0.438367  0.250000  1
  Si  Si29  1  0.998581  0.997162  0.250000  1
  Os  Os30  1  0.500849  0.001699  0.001315  1
  Os  Os31  1  0.997630  0.499418  0.006718  1
  Os  Os32  1  0.500849  0.001699  0.498685  1
  Os  Os33  1  0.501788  0.499418  0.006718  1
  Os  Os34  1  0.997630  0.499418  0.493282  1
  Os  Os35  1  0.501788  0.499418  0.493282  1
  Os  Os36  1  0.000231  0.000463  0.007751  1
  Os  Os37  1  0.000231  0.000463  0.492249  1
