# generated using pymatgen
data_Zr8Tc4Os3Pd
_symmetry_space_group_name_H-M   'P 1'
_cell_length_a   6.58860000
_cell_length_b   4.67266500
_cell_length_c   9.32307400
_cell_angle_alpha   90.00000000
_cell_angle_beta   89.99934023
_cell_angle_gamma   90.00000000
_symmetry_Int_Tables_number   1
_chemical_formula_structural   Zr8Tc4Os3Pd
_chemical_formula_sum   'Zr8 Tc4 Os3 Pd1'
_cell_volume   287.02314531
_cell_formula_units_Z   1
loop_
 _symmetry_equiv_pos_site_id
 _symmetry_equiv_pos_as_xyz
  1  'x, y, z'
loop_
 _atom_site_type_symbol
 _atom_site_label
 _atom_site_symmetry_multiplicity
 _atom_site_fract_x
 _atom_site_fract_y
 _atom_site_fract_z
 _atom_site_occupancy
  Zr  Zr0  1  0.993497  0.749999  0.124998  1
  Zr  Zr1  1  0.506593  0.749999  0.125005  1
  Zr  Zr2  1  0.997113  0.249999  0.378724  1
  Zr  Zr3  1  0.502990  0.249999  0.378724  1
  Zr  Zr4  1  0.499295  0.749999  0.625010  1
  Zr  Zr5  1  0.000597  0.749999  0.625016  1
  Zr  Zr6  1  0.502885  0.249999  0.871265  1
  Zr  Zr7  1  0.997027  0.249999  0.871273  1
  Tc  Tc8  1  0.750042  0.249999  0.125000  1
  Tc  Tc9  1  0.250042  0.749999  0.373697  1
  Tc  Tc10  1  0.749957  0.249999  0.625001  1
  Tc  Tc11  1  0.249955  0.749999  0.876289  1
  Os  Os12  1  0.750040  0.749999  0.374902  1
  Os  Os13  1  0.249960  0.249999  0.624995  1
  Os  Os14  1  0.749955  0.749999  0.875090  1
  Pd  Pd15  1  0.250053  0.249999  0.125010  1
