# generated using pymatgen
data_ErHf8(In2Co)7
_symmetry_space_group_name_H-M   'P 1'
_cell_length_a   9.44231195
_cell_length_b   9.44231142
_cell_length_c   9.44231200
_cell_angle_alpha   59.99999798
_cell_angle_beta   59.99999981
_cell_angle_gamma   60.00000209
_symmetry_Int_Tables_number   1
_chemical_formula_structural   ErHf8(In2Co)7
_chemical_formula_sum   'Er1 Hf8 In14 Co7'
_cell_volume   595.27824695
_cell_formula_units_Z   1
loop_
 _symmetry_equiv_pos_site_id
 _symmetry_equiv_pos_as_xyz
  1  'x, y, z'
loop_
 _atom_site_type_symbol
 _atom_site_label
 _atom_site_symmetry_multiplicity
 _atom_site_fract_x
 _atom_site_fract_y
 _atom_site_fract_z
 _atom_site_occupancy
  Er  Er0  1  0.500000  0.500000  0.500000  1
  Hf  Hf1  1  0.119439  0.641684  0.119439  1
  Hf  Hf2  1  0.358316  0.880561  0.880561  1
  Hf  Hf3  1  0.880561  0.880561  0.880561  1
  Hf  Hf4  1  0.641684  0.119439  0.119439  1
  Hf  Hf5  1  0.880561  0.880561  0.358316  1
  Hf  Hf6  1  0.119439  0.119439  0.119439  1
  Hf  Hf7  1  0.880561  0.358316  0.880561  1
  Hf  Hf8  1  0.119439  0.119439  0.641684  1
  In  In9  1  0.500000  0.844629  0.155371  1
  In  In10  1  0.500000  0.844629  0.500000  1
  In  In11  1  0.500000  0.155371  0.500000  1
  In  In12  1  0.500000  0.500000  0.844629  1
  In  In13  1  0.155371  0.500000  0.500000  1
  In  In14  1  0.844629  0.155371  0.500000  1
  In  In15  1  0.155371  0.844629  0.500000  1
  In  In16  1  0.500000  0.155371  0.844629  1
  In  In17  1  0.155371  0.500000  0.844629  1
  In  In18  1  0.500000  0.500000  0.155371  1
  In  In19  1  0.844629  0.500000  0.500000  1
  In  In20  1  0.844629  0.500000  0.155371  1
  In  In21  1  0.250000  0.250000  0.250000  1
  In  In22  1  0.750000  0.750000  0.750000  1
  Co  Co23  1  0.781004  0.781004  0.218996  1
  Co  Co24  1  0.000000  0.000000  0.000000  1
  Co  Co25  1  0.218996  0.781004  0.218996  1
  Co  Co26  1  0.218996  0.781004  0.781004  1
  Co  Co27  1  0.218996  0.218996  0.781004  1
  Co  Co28  1  0.781004  0.218996  0.781004  1
  Co  Co29  1  0.781004  0.218996  0.218996  1
