# generated using pymatgen
data_PrS27
_symmetry_space_group_name_H-M   'P 1'
_cell_length_a   14.53631932
_cell_length_b   14.53631362
_cell_length_c   14.53631499
_cell_angle_alpha   118.82911328
_cell_angle_beta   118.82915901
_cell_angle_gamma   118.82918785
_symmetry_Int_Tables_number   1
_chemical_formula_structural   PrS27
_chemical_formula_sum   'Pr1 S27'
_cell_volume   859.01524287
_cell_formula_units_Z   1
loop_
 _symmetry_equiv_pos_site_id
 _symmetry_equiv_pos_as_xyz
  1  'x, y, z'
loop_
 _atom_site_type_symbol
 _atom_site_label
 _atom_site_symmetry_multiplicity
 _atom_site_fract_x
 _atom_site_fract_y
 _atom_site_fract_z
 _atom_site_occupancy
  Pr  Pr0  1  0.444627  0.444627  0.444627  1
  S  S1  1  0.019911  0.622342  0.622342  1
  S  S2  1  0.622339  0.622338  0.019907  1
  S  S3  1  0.622342  0.019911  0.622342  1
  S  S4  1  0.248981  0.863197  0.730149  1
  S  S5  1  0.863191  0.730143  0.248975  1
  S  S6  1  0.730146  0.248978  0.863194  1
  S  S7  1  0.863199  0.248983  0.730151  1
  S  S8  1  0.248977  0.730144  0.863193  1
  S  S9  1  0.730140  0.863189  0.248973  1
  S  S10  1  0.094033  0.623231  0.436145  1
  S  S11  1  0.623225  0.436140  0.094028  1
  S  S12  1  0.436143  0.094032  0.623229  1
  S  S13  1  0.623229  0.094031  0.436143  1
  S  S14  1  0.094029  0.436141  0.623227  1
  S  S15  1  0.436141  0.623227  0.094029  1
  S  S16  1  0.361781  0.744192  0.609485  1
  S  S17  1  0.744189  0.609483  0.361779  1
  S  S18  1  0.609486  0.361781  0.744192  1
  S  S19  1  0.744190  0.361779  0.609483  1
  S  S20  1  0.361781  0.609485  0.744191  1
  S  S21  1  0.609488  0.744193  0.361783  1
  S  S22  1  0.181539  0.450358  0.450358  1
  S  S23  1  0.450358  0.450359  0.181541  1
  S  S24  1  0.450356  0.181537  0.450356  1
  S  S25  1  0.019999  0.906641  0.906642  1
  S  S26  1  0.906640  0.906640  0.019997  1
  S  S27  1  0.906641  0.019998  0.906640  1
