# generated using pymatgen
data_UTl4BiSe6
_symmetry_space_group_name_H-M   'P 1'
_cell_length_a   7.62368726
_cell_length_b   7.62368671
_cell_length_c   8.03371500
_cell_angle_alpha   80.77483737
_cell_angle_beta   80.77483043
_cell_angle_gamma   120.13664780
_symmetry_Int_Tables_number   1
_chemical_formula_structural   UTl4BiSe6
_chemical_formula_sum   'U1 Tl4 Bi1 Se6'
_cell_volume   382.40027174
_cell_formula_units_Z   1
loop_
 _symmetry_equiv_pos_site_id
 _symmetry_equiv_pos_as_xyz
  1  'x, y, z'
loop_
 _atom_site_type_symbol
 _atom_site_label
 _atom_site_symmetry_multiplicity
 _atom_site_fract_x
 _atom_site_fract_y
 _atom_site_fract_z
 _atom_site_occupancy
  U  U0  1  0.832484  0.167516  0.000000  1
  Tl  Tl1  1  0.342852  0.657148  0.500000  1
  Tl  Tl2  1  0.655879  0.344121  0.500000  1
  Tl  Tl3  1  0.002346  0.997654  0.500000  1
  Tl  Tl4  1  0.499770  0.500230  0.000000  1
  Bi  Bi5  1  0.167347  0.832653  0.000000  1
  Se  Se6  1  0.789824  0.810896  0.204327  1
  Se  Se7  1  0.448662  0.067715  0.212597  1
  Se  Se8  1  0.046021  0.406577  0.215085  1
  Se  Se9  1  0.593423  0.953979  0.784915  1
  Se  Se10  1  0.932285  0.551338  0.787403  1
  Se  Se11  1  0.189104  0.210176  0.795673  1
