# generated using pymatgen
data_LiYb(BeB14)2
_symmetry_space_group_name_H-M   'P 1'
_cell_length_a   7.17213969
_cell_length_b   7.17213908
_cell_length_c   7.17213802
_cell_angle_alpha   133.14407825
_cell_angle_beta   110.31290183
_cell_angle_gamma   88.22456603
_symmetry_Int_Tables_number   1
_chemical_formula_structural   LiYb(BeB14)2
_chemical_formula_sum   'Li1 Yb1 Be2 B28'
_cell_volume   240.68615862
_cell_formula_units_Z   1
loop_
 _symmetry_equiv_pos_site_id
 _symmetry_equiv_pos_as_xyz
  1  'x, y, z'
loop_
 _atom_site_type_symbol
 _atom_site_label
 _atom_site_symmetry_multiplicity
 _atom_site_fract_x
 _atom_site_fract_y
 _atom_site_fract_z
 _atom_site_occupancy
  Li  Li0  1  0.618845  0.250000  0.368845  1
  Yb  Yb1  1  0.398131  0.750000  0.648131  1
  Be  Be2  1  0.998484  0.001826  0.500310  1
  Be  Be3  1  0.998484  0.498174  0.996659  1
  B  B4  1  0.633301  0.666188  0.967113  1
  B  B5  1  0.366660  0.333096  0.033564  1
  B  B6  1  0.200469  0.166904  0.033564  1
  B  B7  1  0.800925  0.833812  0.967113  1
  B  B8  1  0.789467  0.159443  0.630022  1
  B  B9  1  0.206698  0.841656  0.365044  1
  B  B10  1  0.023388  0.658344  0.365044  1
  B  B11  1  0.970580  0.340557  0.630022  1
  B  B12  1  0.921869  0.091239  0.830631  1
  B  B13  1  0.077568  0.909692  0.167876  1
  B  B14  1  0.758186  0.590308  0.167876  1
  B  B15  1  0.239390  0.408761  0.830631  1
  B  B16  1  0.396902  0.396555  0.675865  1
  B  B17  1  0.603098  0.279686  0.002565  1
  B  B18  1  0.222878  0.899467  0.002565  1
  B  B19  1  0.779310  0.778962  0.675865  1
  B  B20  1  0.603098  0.600533  0.323411  1
  B  B21  1  0.396902  0.721038  0.000347  1
  B  B22  1  0.779310  0.103445  0.000347  1
  B  B23  1  0.222878  0.220314  0.323411  1
  B  B24  1  0.035259  0.827457  0.701313  1
  B  B25  1  0.963202  0.664947  0.789221  1
  B  B26  1  0.624273  0.326020  0.789221  1
  B  B27  1  0.373856  0.166053  0.701313  1
  B  B28  1  0.963202  0.173980  0.298253  1
  B  B29  1  0.035259  0.333947  0.207802  1
  B  B30  1  0.373856  0.672543  0.207802  1
  B  B31  1  0.624273  0.835053  0.298253  1
