# generated using pymatgen
data_La8VW3C8
_symmetry_space_group_name_H-M   'P 1'
_cell_length_a   5.81954262
_cell_length_b   5.81954159
_cell_length_c   10.70930200
_cell_angle_alpha   90.00000000
_cell_angle_beta   90.00000000
_cell_angle_gamma   89.62339952
_symmetry_Int_Tables_number   1
_chemical_formula_structural   La8VW3C8
_chemical_formula_sum   'La8 V1 W3 C8'
_cell_volume   362.68484948
_cell_formula_units_Z   1
loop_
 _symmetry_equiv_pos_site_id
 _symmetry_equiv_pos_as_xyz
  1  'x, y, z'
loop_
 _atom_site_type_symbol
 _atom_site_label
 _atom_site_symmetry_multiplicity
 _atom_site_fract_x
 _atom_site_fract_y
 _atom_site_fract_z
 _atom_site_occupancy
  La  La0  1  0.193657  0.193657  0.342558  1
  La  La1  1  0.806228  0.806228  0.657144  1
  La  La2  1  0.307726  0.692935  0.844958  1
  La  La3  1  0.806228  0.806228  0.342856  1
  La  La4  1  0.193657  0.193657  0.657442  1
  La  La5  1  0.692935  0.307726  0.155042  1
  La  La6  1  0.692935  0.307726  0.844958  1
  La  La7  1  0.307726  0.692935  0.155042  1
  V  V8  1  0.171758  0.171758  0.000000  1
  W  W9  1  0.824186  0.824186  0.000000  1
  W  W10  1  0.322194  0.677782  0.500000  1
  W  W11  1  0.677782  0.322194  0.500000  1
  C  C12  1  0.002115  0.002115  0.134129  1
  C  C13  1  0.499937  0.499937  0.361458  1
  C  C14  1  0.499937  0.499937  0.638542  1
  C  C15  1  0.498966  0.000643  0.000000  1
  C  C16  1  0.000643  0.498966  0.000000  1
  C  C17  1  0.002115  0.002115  0.865871  1
  C  C18  1  0.499669  0.999605  0.500000  1
  C  C19  1  0.999605  0.499669  0.500000  1
