# generated using pymatgen
data_Ca3Pr2Si12Rh19
_symmetry_space_group_name_H-M   'P 1'
_cell_length_a   12.83665700
_cell_length_b   12.83665583
_cell_length_c   4.01654700
_cell_angle_alpha   90.00000000
_cell_angle_beta   90.00000000
_cell_angle_gamma   120.00000044
_symmetry_Int_Tables_number   1
_chemical_formula_structural   Ca3Pr2Si12Rh19
_chemical_formula_sum   'Ca3 Pr2 Si12 Rh19'
_cell_volume   573.17510235
_cell_formula_units_Z   1
loop_
 _symmetry_equiv_pos_site_id
 _symmetry_equiv_pos_as_xyz
  1  'x, y, z'
loop_
 _atom_site_type_symbol
 _atom_site_label
 _atom_site_symmetry_multiplicity
 _atom_site_fract_x
 _atom_site_fract_y
 _atom_site_fract_z
 _atom_site_occupancy
  Ca  Ca0  1  0.000000  0.184276  0.500000  1
  Ca  Ca1  1  0.815724  0.815724  0.500000  1
  Ca  Ca2  1  0.184276  0.000000  0.500000  1
  Pr  Pr3  1  0.666667  0.333333  0.000000  1
  Pr  Pr4  1  0.333333  0.666667  0.000000  1
  Si  Si5  1  0.473605  0.312829  0.500000  1
  Si  Si6  1  0.817367  0.000000  0.000000  1
  Si  Si7  1  0.182633  0.182633  0.000000  1
  Si  Si8  1  0.000000  0.817367  0.000000  1
  Si  Si9  1  0.372590  0.000000  0.000000  1
  Si  Si10  1  0.687171  0.160776  0.500000  1
  Si  Si11  1  0.839224  0.526395  0.500000  1
  Si  Si12  1  0.526395  0.839224  0.500000  1
  Si  Si13  1  0.160776  0.687171  0.500000  1
  Si  Si14  1  0.312829  0.473605  0.500000  1
  Si  Si15  1  0.000000  0.372590  0.000000  1
  Si  Si16  1  0.627410  0.627410  0.000000  1
  Rh  Rh17  1  0.807670  0.183258  0.000000  1
  Rh  Rh18  1  0.375588  0.192330  0.000000  1
  Rh  Rh19  1  0.639782  0.514298  0.500000  1
  Rh  Rh20  1  0.874515  0.360218  0.500000  1
  Rh  Rh21  1  0.360218  0.874515  0.500000  1
  Rh  Rh22  1  0.514298  0.639782  0.500000  1
  Rh  Rh23  1  0.125485  0.485702  0.500000  1
  Rh  Rh24  1  0.816742  0.624412  0.000000  1
  Rh  Rh25  1  0.624412  0.816742  0.000000  1
  Rh  Rh26  1  0.183258  0.807670  0.000000  1
  Rh  Rh27  1  0.192330  0.375588  0.000000  1
  Rh  Rh28  1  0.000000  0.722966  0.500000  1
  Rh  Rh29  1  0.277034  0.277034  0.500000  1
  Rh  Rh30  1  0.722966  0.000000  0.500000  1
  Rh  Rh31  1  0.000000  0.554743  0.000000  1
  Rh  Rh32  1  0.445257  0.445257  0.000000  1
  Rh  Rh33  1  0.554743  0.000000  0.000000  1
  Rh  Rh34  1  0.000000  0.000000  0.000000  1
  Rh  Rh35  1  0.485702  0.125485  0.500000  1
