# generated using pymatgen
data_HoLu2Hf(Co4P3)2
_symmetry_space_group_name_H-M   'P 1'
_cell_length_a   3.68738200
_cell_length_b   10.62018000
_cell_length_c   12.31242100
_cell_angle_alpha   90.00000000
_cell_angle_beta   90.00000000
_cell_angle_gamma   90.00000000
_symmetry_Int_Tables_number   1
_chemical_formula_structural   HoLu2Hf(Co4P3)2
_chemical_formula_sum   'Ho2 Lu4 Hf2 Co16 P12'
_cell_volume   482.16253956
_cell_formula_units_Z   2
loop_
 _symmetry_equiv_pos_site_id
 _symmetry_equiv_pos_as_xyz
  1  'x, y, z'
loop_
 _atom_site_type_symbol
 _atom_site_label
 _atom_site_symmetry_multiplicity
 _atom_site_fract_x
 _atom_site_fract_y
 _atom_site_fract_z
 _atom_site_occupancy
  Ho  Ho0  1  0.000000  0.500000  0.529092  1
  Ho  Ho1  1  0.500000  0.000000  0.470908  1
  Lu  Lu2  1  0.500000  0.822149  0.204581  1
  Lu  Lu3  1  0.500000  0.177851  0.204581  1
  Lu  Lu4  1  0.000000  0.677851  0.795419  1
  Lu  Lu5  1  0.000000  0.322149  0.795419  1
  Hf  Hf6  1  0.500000  0.500000  0.157559  1
  Hf  Hf7  1  0.000000  0.000000  0.842441  1
  Co  Co8  1  0.000000  0.500000  0.986041  1
  Co  Co9  1  0.500000  0.000000  0.013959  1
  Co  Co10  1  0.500000  0.295074  0.432822  1
  Co  Co11  1  0.500000  0.704926  0.432822  1
  Co  Co12  1  0.000000  0.204926  0.567178  1
  Co  Co13  1  0.000000  0.795074  0.567178  1
  Co  Co14  1  0.500000  0.876859  0.703464  1
  Co  Co15  1  0.500000  0.123141  0.703464  1
  Co  Co16  1  0.000000  0.623141  0.296536  1
  Co  Co17  1  0.000000  0.376859  0.296536  1
  Co  Co18  1  0.500000  0.331999  0.992980  1
  Co  Co19  1  0.500000  0.668001  0.992980  1
  Co  Co20  1  0.000000  0.168001  0.007020  1
  Co  Co21  1  0.000000  0.831999  0.007020  1
  Co  Co22  1  0.500000  0.500000  0.703827  1
  Co  Co23  1  0.000000  0.000000  0.296173  1
  P  P24  1  0.500000  0.311001  0.616756  1
  P  P25  1  0.500000  0.688999  0.616756  1
  P  P26  1  0.000000  0.188999  0.383244  1
  P  P27  1  0.000000  0.811001  0.383244  1
  P  P28  1  0.500000  0.500000  0.882042  1
  P  P29  1  0.000000  0.000000  0.117958  1
  P  P30  1  0.500000  0.837472  0.891996  1
  P  P31  1  0.500000  0.162528  0.891996  1
  P  P32  1  0.000000  0.662528  0.108004  1
  P  P33  1  0.000000  0.337472  0.108004  1
  P  P34  1  0.500000  0.500000  0.362411  1
  P  P35  1  0.000000  0.000000  0.637589  1
