# generated using pymatgen
data_Dy3Zr3Sn6(IrRh2)2
_symmetry_space_group_name_H-M   'P 1'
_cell_length_a   7.49738700
_cell_length_b   7.49738673
_cell_length_c   7.53339200
_cell_angle_alpha   90.00000000
_cell_angle_beta   90.00000000
_cell_angle_gamma   120.00000562
_symmetry_Int_Tables_number   1
_chemical_formula_structural   Dy3Zr3Sn6(IrRh2)2
_chemical_formula_sum   'Dy3 Zr3 Sn6 Ir2 Rh4'
_cell_volume   366.72542072
_cell_formula_units_Z   1
loop_
 _symmetry_equiv_pos_site_id
 _symmetry_equiv_pos_as_xyz
  1  'x, y, z'
loop_
 _atom_site_type_symbol
 _atom_site_label
 _atom_site_symmetry_multiplicity
 _atom_site_fract_x
 _atom_site_fract_y
 _atom_site_fract_z
 _atom_site_occupancy
  Dy  Dy0  1  0.405384  0.996806  0.250000  1
  Dy  Dy1  1  0.591423  0.594616  0.250000  1
  Dy  Dy2  1  0.003194  0.408577  0.250000  1
  Zr  Zr3  1  0.603600  0.606155  0.750000  1
  Zr  Zr4  1  0.002555  0.396400  0.750000  1
  Zr  Zr5  1  0.393845  0.997445  0.750000  1
  Sn  Sn6  1  0.266823  0.264000  0.506212  1
  Sn  Sn7  1  0.266823  0.264000  0.993788  1
  Sn  Sn8  1  0.736000  0.002823  0.993788  1
  Sn  Sn9  1  0.997177  0.733177  0.506212  1
  Sn  Sn10  1  0.736000  0.002823  0.506212  1
  Sn  Sn11  1  0.997177  0.733177  0.993788  1
  Ir  Ir12  1  0.333333  0.666667  0.967545  1
  Ir  Ir13  1  0.333333  0.666667  0.532455  1
  Rh  Rh14  1  0.666667  0.333333  0.533466  1
  Rh  Rh15  1  0.666667  0.333333  0.966534  1
  Rh  Rh16  1  0.000000  0.000000  0.750000  1
  Rh  Rh17  1  0.000000  0.000000  0.250000  1
