# generated using pymatgen
data_Sc8OsRu4Pt3
_symmetry_space_group_name_H-M   'P 1'
_cell_length_a   6.38559100
_cell_length_b   4.61292000
_cell_length_c   9.22090100
_cell_angle_alpha   90.00000000
_cell_angle_beta   89.99877816
_cell_angle_gamma   90.00000000
_symmetry_Int_Tables_number   1
_chemical_formula_structural   Sc8OsRu4Pt3
_chemical_formula_sum   'Sc8 Os1 Ru4 Pt3'
_cell_volume   271.61289244
_cell_formula_units_Z   1
loop_
 _symmetry_equiv_pos_site_id
 _symmetry_equiv_pos_as_xyz
  1  'x, y, z'
loop_
 _atom_site_type_symbol
 _atom_site_label
 _atom_site_symmetry_multiplicity
 _atom_site_fract_x
 _atom_site_fract_y
 _atom_site_fract_z
 _atom_site_occupancy
  Sc  Sc0  1  0.494326  0.750001  0.124992  1
  Sc  Sc1  1  0.005482  0.750001  0.125021  1
  Sc  Sc2  1  0.497174  0.250001  0.369924  1
  Sc  Sc3  1  0.002622  0.250001  0.369965  1
  Sc  Sc4  1  0.999853  0.750000  0.624983  1
  Sc  Sc5  1  0.500331  0.750000  0.625014  1
  Sc  Sc6  1  0.002822  0.250001  0.880051  1
  Sc  Sc7  1  0.497367  0.250001  0.880072  1
  Os  Os8  1  0.249928  0.250001  0.125020  1
  Ru  Ru9  1  0.749944  0.250001  0.124953  1
  Ru  Ru10  1  0.249955  0.750001  0.376843  1
  Ru  Ru11  1  0.750059  0.250001  0.624955  1
  Ru  Ru12  1  0.250067  0.750000  0.873175  1
  Pt  Pt13  1  0.749933  0.750001  0.375473  1
  Pt  Pt14  1  0.250064  0.250001  0.624996  1
  Pt  Pt15  1  0.750074  0.750000  0.874564  1
