# generated using pymatgen
data_Sr3LiUS6
_symmetry_space_group_name_H-M   'P 1'
_cell_length_a   8.18697303
_cell_length_b   8.18697395
_cell_length_c   8.18697400
_cell_angle_alpha   90.73903132
_cell_angle_beta   90.73903141
_cell_angle_gamma   90.73904597
_symmetry_Int_Tables_number   1
_chemical_formula_structural   Sr3LiUS6
_chemical_formula_sum   'Sr6 Li2 U2 S12'
_cell_volume   548.60636609
_cell_formula_units_Z   2
loop_
 _symmetry_equiv_pos_site_id
 _symmetry_equiv_pos_as_xyz
  1  'x, y, z'
loop_
 _atom_site_type_symbol
 _atom_site_label
 _atom_site_symmetry_multiplicity
 _atom_site_fract_x
 _atom_site_fract_y
 _atom_site_fract_z
 _atom_site_occupancy
  Sr  Sr0  1  0.874581  0.625419  0.250000  1
  Sr  Sr1  1  0.250000  0.874581  0.625419  1
  Sr  Sr2  1  0.625419  0.250000  0.874581  1
  Sr  Sr3  1  0.750000  0.125419  0.374581  1
  Sr  Sr4  1  0.374581  0.750000  0.125419  1
  Sr  Sr5  1  0.125419  0.374581  0.750000  1
  Li  Li6  1  0.250000  0.250000  0.250000  1
  Li  Li7  1  0.750000  0.750000  0.750000  1
  U  U8  1  0.500000  0.500000  0.500000  1
  U  U9  1  0.000000  0.000000  0.000000  1
  S  S10  1  0.197240  0.553404  0.418605  1
  S  S11  1  0.418605  0.197240  0.553404  1
  S  S12  1  0.553404  0.418605  0.197240  1
  S  S13  1  0.918605  0.053404  0.697240  1
  S  S14  1  0.697240  0.918605  0.053404  1
  S  S15  1  0.053404  0.697240  0.918605  1
  S  S16  1  0.802760  0.446596  0.581395  1
  S  S17  1  0.581395  0.802760  0.446596  1
  S  S18  1  0.446596  0.581395  0.802760  1
  S  S19  1  0.081395  0.946596  0.302760  1
  S  S20  1  0.302760  0.081395  0.946596  1
  S  S21  1  0.946596  0.302760  0.081395  1
