# generated using pymatgen
data_Nd16Cd4IrOs3
_symmetry_space_group_name_H-M   'P 1'
_cell_length_a   9.92280130
_cell_length_b   9.94649732
_cell_length_c   9.94649800
_cell_angle_alpha   59.99999772
_cell_angle_beta   59.92097061
_cell_angle_gamma   59.92097162
_symmetry_Int_Tables_number   1
_chemical_formula_structural   Nd16Cd4IrOs3
_chemical_formula_sum   'Nd16 Cd4 Ir1 Os3'
_cell_volume   693.32977434
_cell_formula_units_Z   1
loop_
 _symmetry_equiv_pos_site_id
 _symmetry_equiv_pos_as_xyz
  1  'x, y, z'
loop_
 _atom_site_type_symbol
 _atom_site_label
 _atom_site_symmetry_multiplicity
 _atom_site_fract_x
 _atom_site_fract_y
 _atom_site_fract_z
 _atom_site_occupancy
  Nd  Nd0  1  0.345954  0.347765  0.347765  1
  Nd  Nd1  1  0.345954  0.347765  0.958515  1
  Nd  Nd2  1  0.345954  0.958515  0.347765  1
  Nd  Nd3  1  0.958752  0.347083  0.347083  1
  Nd  Nd4  1  0.810798  0.190645  0.190645  1
  Nd  Nd5  1  0.190379  0.809684  0.809684  1
  Nd  Nd6  1  0.190379  0.809684  0.190252  1
  Nd  Nd7  1  0.810798  0.190645  0.807913  1
  Nd  Nd8  1  0.190379  0.190252  0.809684  1
  Nd  Nd9  1  0.810798  0.807913  0.190645  1
  Nd  Nd10  1  0.939634  0.560317  0.560317  1
  Nd  Nd11  1  0.559467  0.939118  0.939118  1
  Nd  Nd12  1  0.559467  0.939118  0.562298  1
  Nd  Nd13  1  0.939634  0.560317  0.939731  1
  Nd  Nd14  1  0.559467  0.562298  0.939118  1
  Nd  Nd15  1  0.939634  0.939731  0.560317  1
  Cd  Cd16  1  0.579439  0.579909  0.579909  1
  Cd  Cd17  1  0.579439  0.579909  0.260742  1
  Cd  Cd18  1  0.579439  0.260742  0.579909  1
  Cd  Cd19  1  0.260724  0.579758  0.579758  1
  Ir  Ir20  1  0.580773  0.139742  0.139742  1
  Os  Os21  1  0.140911  0.137913  0.137913  1
  Os  Os22  1  0.140911  0.137913  0.583263  1
  Os  Os23  1  0.140911  0.583263  0.137913  1
