# generated using pymatgen
data_TbPr4Pb3Br
_symmetry_space_group_name_H-M   'P 1'
_cell_length_a   9.57685000
_cell_length_b   9.57684953
_cell_length_c   6.86935100
_cell_angle_alpha   90.00000000
_cell_angle_beta   90.00000000
_cell_angle_gamma   119.99998781
_symmetry_Int_Tables_number   1
_chemical_formula_structural   TbPr4Pb3Br
_chemical_formula_sum   'Tb2 Pr8 Pb6 Br2'
_cell_volume   545.62183527
_cell_formula_units_Z   2
loop_
 _symmetry_equiv_pos_site_id
 _symmetry_equiv_pos_as_xyz
  1  'x, y, z'
loop_
 _atom_site_type_symbol
 _atom_site_label
 _atom_site_symmetry_multiplicity
 _atom_site_fract_x
 _atom_site_fract_y
 _atom_site_fract_z
 _atom_site_occupancy
  Tb  Tb0  1  0.666667  0.333333  0.500000  1
  Tb  Tb1  1  0.333333  0.666667  0.500000  1
  Pr  Pr2  1  0.266142  0.000000  0.251204  1
  Pr  Pr3  1  0.733858  0.000000  0.748796  1
  Pr  Pr4  1  0.000000  0.266142  0.251204  1
  Pr  Pr5  1  0.000000  0.733858  0.748796  1
  Pr  Pr6  1  0.733858  0.733858  0.251204  1
  Pr  Pr7  1  0.266142  0.266142  0.748796  1
  Pr  Pr8  1  0.333333  0.666667  0.000000  1
  Pr  Pr9  1  0.666667  0.333333  0.000000  1
  Pb  Pb10  1  0.611539  0.000000  0.253771  1
  Pb  Pb11  1  0.388461  0.000000  0.746229  1
  Pb  Pb12  1  0.000000  0.611539  0.253771  1
  Pb  Pb13  1  0.000000  0.388461  0.746229  1
  Pb  Pb14  1  0.388461  0.388461  0.253771  1
  Pb  Pb15  1  0.611539  0.611539  0.746229  1
  Br  Br16  1  0.000000  0.000000  0.000000  1
  Br  Br17  1  0.000000  0.000000  0.500000  1
