# generated using pymatgen
data_Nd3MnVC6
_symmetry_space_group_name_H-M   'P 1'
_cell_length_a   8.31418800
_cell_length_b   8.31418871
_cell_length_c   5.16128700
_cell_angle_alpha   90.00000000
_cell_angle_beta   90.00000000
_cell_angle_gamma   119.99998124
_symmetry_Int_Tables_number   1
_chemical_formula_structural   Nd3MnVC6
_chemical_formula_sum   'Nd6 Mn2 V2 C12'
_cell_volume   308.97862874
_cell_formula_units_Z   2
loop_
 _symmetry_equiv_pos_site_id
 _symmetry_equiv_pos_as_xyz
  1  'x, y, z'
loop_
 _atom_site_type_symbol
 _atom_site_label
 _atom_site_symmetry_multiplicity
 _atom_site_fract_x
 _atom_site_fract_y
 _atom_site_fract_z
 _atom_site_occupancy
  Nd  Nd0  1  0.614046  0.684262  0.750000  1
  Nd  Nd1  1  0.929784  0.614046  0.250000  1
  Nd  Nd2  1  0.684262  0.070216  0.250000  1
  Nd  Nd3  1  0.315738  0.929784  0.750000  1
  Nd  Nd4  1  0.070216  0.385954  0.750000  1
  Nd  Nd5  1  0.385954  0.315738  0.250000  1
  Mn  Mn6  1  0.666667  0.333333  0.750000  1
  Mn  Mn7  1  0.333333  0.666667  0.250000  1
  V  V8  1  0.000000  0.000000  0.500000  1
  V  V9  1  0.000000  0.000000  0.000000  1
  C  C10  1  0.953393  0.765384  0.750000  1
  C  C11  1  0.188009  0.953393  0.250000  1
  C  C12  1  0.765384  0.811991  0.250000  1
  C  C13  1  0.234616  0.188009  0.750000  1
  C  C14  1  0.811991  0.046607  0.750000  1
  C  C15  1  0.046607  0.234616  0.250000  1
  C  C16  1  0.856964  0.574610  0.750000  1
  C  C17  1  0.282353  0.856964  0.250000  1
  C  C18  1  0.574610  0.717647  0.250000  1
  C  C19  1  0.425390  0.282353  0.750000  1
  C  C20  1  0.143036  0.425390  0.250000  1
  C  C21  1  0.717647  0.143036  0.750000  1
