# generated using pymatgen
data_Ba3SrPt6O18F
_symmetry_space_group_name_H-M   'P 1'
_cell_length_a   8.19175219
_cell_length_b   8.19175209
_cell_length_c   8.21321300
_cell_angle_alpha   109.52430180
_cell_angle_beta   109.52430156
_cell_angle_gamma   109.41809227
_symmetry_Int_Tables_number   1
_chemical_formula_structural   Ba3SrPt6O18F
_chemical_formula_sum   'Ba3 Sr1 Pt6 O18 F1'
_cell_volume   423.99413948
_cell_formula_units_Z   1
loop_
 _symmetry_equiv_pos_site_id
 _symmetry_equiv_pos_as_xyz
  1  'x, y, z'
loop_
 _atom_site_type_symbol
 _atom_site_label
 _atom_site_symmetry_multiplicity
 _atom_site_fract_x
 _atom_site_fract_y
 _atom_site_fract_z
 _atom_site_occupancy
  Ba  Ba0  1  0.667649  0.667256  0.668112  1
  Ba  Ba1  1  0.999607  0.332351  0.000463  1
  Ba  Ba2  1  0.332744  0.000393  0.000856  1
  Sr  Sr3  1  0.000000  0.000000  0.340377  1
  Pt  Pt4  1  0.501777  0.659796  0.157838  1
  Pt  Pt5  1  0.340204  0.841981  0.498041  1
  Pt  Pt6  1  0.841353  0.500991  0.340468  1
  Pt  Pt7  1  0.499009  0.340362  0.839477  1
  Pt  Pt8  1  0.158019  0.498223  0.656061  1
  Pt  Pt9  1  0.659638  0.158647  0.499115  1
  O  O10  1  0.651190  0.957446  0.270959  1
  O  O11  1  0.372405  0.729201  0.682595  1
  O  O12  1  0.686447  0.313258  0.043445  1
  O  O13  1  0.686742  0.373189  0.730185  1
  O  O14  1  0.042554  0.693743  0.313513  1
  O  O15  1  0.270799  0.643204  0.953394  1
  O  O16  1  0.309147  0.043257  0.684031  1
  O  O17  1  0.956743  0.265889  0.640773  1
  O  O18  1  0.734111  0.690853  0.374883  1
  O  O19  1  0.356796  0.627595  0.310191  1
  O  O20  1  0.626811  0.313553  0.356998  1
  O  O21  1  0.306257  0.348810  0.619770  1
  O  O22  1  0.643652  0.642191  0.000328  1
  O  O23  1  0.641569  0.999615  0.640339  1
  O  O24  1  0.998540  0.356348  0.356676  1
  O  O25  1  0.357809  0.001460  0.358136  1
  O  O26  1  0.000385  0.641954  0.640726  1
  O  O27  1  0.358046  0.358431  0.998772  1
  F  F28  1  0.000000  0.000000  0.023479  1
