# generated using pymatgen
data_Sc8Mn(FeB8)3
_symmetry_space_group_name_H-M   'P 1'
_cell_length_a   3.34455600
_cell_length_b   8.81020052
_cell_length_c   11.12357529
_cell_angle_alpha   89.94792924
_cell_angle_beta   90.00000000
_cell_angle_gamma   90.00000000
_symmetry_Int_Tables_number   1
_chemical_formula_structural   Sc8Mn(FeB8)3
_chemical_formula_sum   'Sc8 Mn1 Fe3 B24'
_cell_volume   327.76945937
_cell_formula_units_Z   1
loop_
 _symmetry_equiv_pos_site_id
 _symmetry_equiv_pos_as_xyz
  1  'x, y, z'
loop_
 _atom_site_type_symbol
 _atom_site_label
 _atom_site_symmetry_multiplicity
 _atom_site_fract_x
 _atom_site_fract_y
 _atom_site_fract_z
 _atom_site_occupancy
  Sc  Sc0  1  0.000000  0.821653  0.084627  1
  Sc  Sc1  1  0.000000  0.180442  0.912513  1
  Sc  Sc2  1  0.000000  0.321633  0.416737  1
  Sc  Sc3  1  0.000000  0.676652  0.586143  1
  Sc  Sc4  1  0.000000  0.442895  0.130175  1
  Sc  Sc5  1  0.000000  0.556497  0.870153  1
  Sc  Sc6  1  0.000000  0.942361  0.369965  1
  Sc  Sc7  1  0.000000  0.057249  0.629553  1
  Mn  Mn8  1  0.000000  0.360830  0.680275  1
  Fe  Fe9  1  0.000000  0.139260  0.180413  1
  Fe  Fe10  1  0.000000  0.860746  0.819976  1
  Fe  Fe11  1  0.000000  0.639725  0.319115  1
  B  B12  1  0.500000  0.054074  0.065844  1
  B  B13  1  0.500000  0.946383  0.933768  1
  B  B14  1  0.500000  0.553595  0.433675  1
  B  B15  1  0.500000  0.446661  0.566190  1
  B  B16  1  0.500000  0.249721  0.080485  1
  B  B17  1  0.500000  0.750569  0.919605  1
  B  B18  1  0.500000  0.749131  0.419408  1
  B  B19  1  0.500000  0.250300  0.580604  1
  B  B20  1  0.500000  0.292188  0.235969  1
  B  B21  1  0.500000  0.707723  0.764650  1
  B  B22  1  0.500000  0.792409  0.264140  1
  B  B23  1  0.500000  0.207074  0.735763  1
  B  B24  1  0.500000  0.130432  0.316213  1
  B  B25  1  0.500000  0.869279  0.684106  1
  B  B26  1  0.500000  0.630637  0.183815  1
  B  B27  1  0.500000  0.369658  0.816012  1
  B  B28  1  0.500000  0.481903  0.288313  1
  B  B29  1  0.500000  0.518851  0.711829  1
  B  B30  1  0.500000  0.982137  0.211474  1
  B  B31  1  0.500000  0.018063  0.788224  1
  B  B32  1  0.500000  0.101464  0.471957  1
  B  B33  1  0.500000  0.897370  0.527704  1
  B  B34  1  0.500000  0.602181  0.028020  1
  B  B35  1  0.500000  0.398258  0.972586  1
