# generated using pymatgen
data_NiB2PtO6
_symmetry_space_group_name_H-M   'P 1'
_cell_length_a   5.61908958
_cell_length_b   5.61909223
_cell_length_c   5.61905932
_cell_angle_alpha   49.46831640
_cell_angle_beta   49.46879935
_cell_angle_gamma   49.46878172
_symmetry_Int_Tables_number   1
_chemical_formula_structural   NiB2PtO6
_chemical_formula_sum   'Ni1 B2 Pt1 O6'
_cell_volume   94.20424540
_cell_formula_units_Z   1
loop_
 _symmetry_equiv_pos_site_id
 _symmetry_equiv_pos_as_xyz
  1  'x, y, z'
loop_
 _atom_site_type_symbol
 _atom_site_label
 _atom_site_symmetry_multiplicity
 _atom_site_fract_x
 _atom_site_fract_y
 _atom_site_fract_z
 _atom_site_occupancy
  Ni  Ni0  1  0.000000  0.000000  0.000000  1
  B  B1  1  0.245719  0.245721  0.245722  1
  B  B2  1  0.754281  0.754279  0.754278  1
  Pt  Pt3  1  0.500000  0.500000  0.500000  1
  O  O4  1  0.459598  0.748503  0.048227  1
  O  O5  1  0.951764  0.540407  0.251497  1
  O  O6  1  0.748509  0.048233  0.459593  1
  O  O7  1  0.251491  0.951767  0.540407  1
  O  O8  1  0.048236  0.459593  0.748503  1
  O  O9  1  0.540402  0.251497  0.951772  1
