# generated using pymatgen
data_Sm(AlFe)6
_symmetry_space_group_name_H-M   'P 1'
_cell_length_a   5.00535337
_cell_length_b   6.58950032
_cell_length_c   6.58929541
_cell_angle_alpha   99.02744348
_cell_angle_beta   112.29970461
_cell_angle_gamma   67.69930444
_symmetry_Int_Tables_number   1
_chemical_formula_structural   Sm(AlFe)6
_chemical_formula_sum   'Sm1 Al6 Fe6'
_cell_volume   186.01838730
_cell_formula_units_Z   1
loop_
 _symmetry_equiv_pos_site_id
 _symmetry_equiv_pos_as_xyz
  1  'x, y, z'
loop_
 _atom_site_type_symbol
 _atom_site_label
 _atom_site_symmetry_multiplicity
 _atom_site_fract_x
 _atom_site_fract_y
 _atom_site_fract_z
 _atom_site_occupancy
  Sm  Sm0  1  0.000000  0.000000  0.000000  1
  Al  Al1  1  0.652573  0.347498  0.652504  1
  Al  Al2  1  0.347427  0.652502  0.347496  1
  Al  Al3  1  0.000012  0.338197  0.338200  1
  Al  Al4  1  0.999988  0.661803  0.661800  1
  Al  Al5  1  0.693850  0.806242  0.193755  1
  Al  Al6  1  0.306150  0.193758  0.806245  1
  Fe  Fe7  1  0.500000  0.000000  0.500000  1
  Fe  Fe8  1  0.000000  0.000000  0.500000  1
  Fe  Fe9  1  0.500000  0.500000  0.000000  1
  Fe  Fe10  1  0.000000  0.500000  0.000000  1
  Fe  Fe11  1  0.499998  0.758250  0.758251  1
  Fe  Fe12  1  0.500002  0.241750  0.241749  1
