# generated using pymatgen
data_Ti5In2Pt19Rh2
_symmetry_space_group_name_H-M   'P 1'
_cell_length_a   5.59375000
_cell_length_b   5.61481048
_cell_length_c   16.09610821
_cell_angle_alpha   90.11344531
_cell_angle_beta   90.00000000
_cell_angle_gamma   119.87599924
_symmetry_Int_Tables_number   1
_chemical_formula_structural   Ti5In2Pt19Rh2
_chemical_formula_sum   'Ti5 In2 Pt19 Rh2'
_cell_volume   438.35891093
_cell_formula_units_Z   1
loop_
 _symmetry_equiv_pos_site_id
 _symmetry_equiv_pos_as_xyz
  1  'x, y, z'
loop_
 _atom_site_type_symbol
 _atom_site_label
 _atom_site_symmetry_multiplicity
 _atom_site_fract_x
 _atom_site_fract_y
 _atom_site_fract_z
 _atom_site_occupancy
  Ti  Ti0  1  0.337786  0.675571  0.140283  1
  Ti  Ti1  1  0.999927  0.999855  0.281389  1
  Ti  Ti2  1  0.671529  0.343058  0.431933  1
  Ti  Ti3  1  0.999656  0.999314  0.000655  1
  Ti  Ti4  1  0.332344  0.664690  0.571810  1
  In  In5  1  0.998756  0.997512  0.717195  1
  In  In6  1  0.664134  0.328265  0.856821  1
  Pt  Pt7  1  0.336980  0.167915  0.564872  1
  Pt  Pt8  1  0.167899  0.335797  0.862465  1
  Pt  Pt9  1  0.167313  0.334624  0.426359  1
  Pt  Pt10  1  0.166064  0.833115  0.426407  1
  Pt  Pt11  1  0.496197  0.992394  0.707535  1
  Pt  Pt12  1  0.667051  0.833115  0.426407  1
  Pt  Pt13  1  0.168425  0.827565  0.862888  1
  Pt  Pt14  1  0.659140  0.827565  0.862888  1
  Pt  Pt15  1  0.833174  0.169718  0.145347  1
  Pt  Pt16  1  0.830935  0.167915  0.564872  1
  Pt  Pt17  1  0.498358  0.501029  0.707449  1
  Pt  Pt18  1  0.336544  0.169718  0.145347  1
  Pt  Pt19  1  0.835008  0.670017  0.145802  1
  Pt  Pt20  1  0.499020  0.501348  0.286328  1
  Pt  Pt21  1  0.500990  0.001982  0.286310  1
  Pt  Pt22  1  0.002328  0.501348  0.286328  1
  Pt  Pt23  1  0.002672  0.501029  0.707449  1
  Pt  Pt24  1  0.497594  0.501451  0.006828  1
  Pt  Pt25  1  0.003857  0.501451  0.006828  1
  Rh  Rh26  1  0.829421  0.658841  0.564049  1
  Rh  Rh27  1  0.496899  0.993798  0.007152  1
