# generated using pymatgen
data_LaCdP7Ru12
_symmetry_space_group_name_H-M   'P 1'
_cell_length_a   9.49051100
_cell_length_b   9.49051008
_cell_length_c   3.92427100
_cell_angle_alpha   90.00000000
_cell_angle_beta   90.00000000
_cell_angle_gamma   119.99999786
_symmetry_Int_Tables_number   1
_chemical_formula_structural   LaCdP7Ru12
_chemical_formula_sum   'La1 Cd1 P7 Ru12'
_cell_volume   306.10384416
_cell_formula_units_Z   1
loop_
 _symmetry_equiv_pos_site_id
 _symmetry_equiv_pos_as_xyz
  1  'x, y, z'
loop_
 _atom_site_type_symbol
 _atom_site_label
 _atom_site_symmetry_multiplicity
 _atom_site_fract_x
 _atom_site_fract_y
 _atom_site_fract_z
 _atom_site_occupancy
  La  La0  1  0.333333  0.666667  0.000000  1
  Cd  Cd1  1  0.666667  0.333333  0.500000  1
  P  P2  1  0.605258  0.709508  0.500000  1
  P  P3  1  0.000000  0.000000  0.000000  1
  P  P4  1  0.290492  0.895750  0.500000  1
  P  P5  1  0.104250  0.394742  0.500000  1
  P  P6  1  0.907356  0.599022  0.000000  1
  P  P7  1  0.400978  0.308333  0.000000  1
  P  P8  1  0.691667  0.092644  0.000000  1
  Ru  Ru9  1  0.560970  0.952088  0.500000  1
  Ru  Ru10  1  0.391118  0.439030  0.500000  1
  Ru  Ru11  1  0.908320  0.115764  0.500000  1
  Ru  Ru12  1  0.207443  0.091680  0.500000  1
  Ru  Ru13  1  0.884236  0.792557  0.500000  1
  Ru  Ru14  1  0.724127  0.869933  0.000000  1
  Ru  Ru15  1  0.130067  0.854193  0.000000  1
  Ru  Ru16  1  0.145807  0.275873  0.000000  1
  Ru  Ru17  1  0.445669  0.092663  0.000000  1
  Ru  Ru18  1  0.907337  0.353008  0.000000  1
  Ru  Ru19  1  0.646992  0.554331  0.000000  1
  Ru  Ru20  1  0.047912  0.608882  0.500000  1
