# generated using pymatgen
data_La5Ce4NdRu4
_symmetry_space_group_name_H-M   'P 1'
_cell_length_a   9.17580192
_cell_length_b   9.17580249
_cell_length_c   7.19313076
_cell_angle_alpha   86.12622532
_cell_angle_beta   86.12622636
_cell_angle_gamma   41.99012069
_symmetry_Int_Tables_number   1
_chemical_formula_structural   La5Ce4NdRu4
_chemical_formula_sum   'La5 Ce4 Nd1 Ru4'
_cell_volume   404.10451970
_cell_formula_units_Z   1
loop_
 _symmetry_equiv_pos_site_id
 _symmetry_equiv_pos_as_xyz
  1  'x, y, z'
loop_
 _atom_site_type_symbol
 _atom_site_label
 _atom_site_symmetry_multiplicity
 _atom_site_fract_x
 _atom_site_fract_y
 _atom_site_fract_z
 _atom_site_occupancy
  La  La0  1  0.353199  0.216163  0.825110  1
  La  La1  1  0.783837  0.646801  0.674890  1
  La  La2  1  0.646060  0.783629  0.175197  1
  La  La3  1  0.216371  0.353940  0.324803  1
  La  La4  1  0.579577  0.420423  0.750000  1
  Ce  Ce5  1  0.007183  0.812296  0.901650  1
  Ce  Ce6  1  0.187704  0.992817  0.598350  1
  Ce  Ce7  1  0.993124  0.187200  0.098759  1
  Ce  Ce8  1  0.812800  0.006876  0.401241  1
  Nd  Nd9  1  0.420168  0.579832  0.250000  1
  Ru  Ru10  1  0.142287  0.643562  0.598788  1
  Ru  Ru11  1  0.356438  0.857713  0.901212  1
  Ru  Ru12  1  0.858061  0.356808  0.400581  1
  Ru  Ru13  1  0.643192  0.141939  0.099419  1
