# generated using pymatgen
data_Sm2Ta3Nb(B2Ru5)2
_symmetry_space_group_name_H-M   'P 1'
_cell_length_a   9.62199423
_cell_length_b   9.62199294
_cell_length_c   3.08935200
_cell_angle_alpha   90.00000000
_cell_angle_beta   90.00000000
_cell_angle_gamma   91.01456977
_symmetry_Int_Tables_number   1
_chemical_formula_structural   Sm2Ta3Nb(B2Ru5)2
_chemical_formula_sum   'Sm2 Ta3 Nb1 B4 Ru10'
_cell_volume   285.97589546
_cell_formula_units_Z   1
loop_
 _symmetry_equiv_pos_site_id
 _symmetry_equiv_pos_as_xyz
  1  'x, y, z'
loop_
 _atom_site_type_symbol
 _atom_site_label
 _atom_site_symmetry_multiplicity
 _atom_site_fract_x
 _atom_site_fract_y
 _atom_site_fract_z
 _atom_site_occupancy
  Sm  Sm0  1  0.823358  0.676664  0.000000  1
  Sm  Sm1  1  0.176664  0.323358  0.000000  1
  Ta  Ta2  1  0.675040  0.175040  0.000000  1
  Ta  Ta3  1  0.499854  0.500053  0.000000  1
  Ta  Ta4  1  0.000053  0.999854  0.000000  1
  Nb  Nb5  1  0.325130  0.825130  0.000000  1
  B  B6  1  0.619125  0.880624  0.000000  1
  B  B7  1  0.380624  0.119125  0.000000  1
  B  B8  1  0.122217  0.622217  0.000000  1
  B  B9  1  0.877895  0.377895  0.000000  1
  Ru  Ru10  1  0.557766  0.724224  0.500000  1
  Ru  Ru11  1  0.443303  0.275754  0.500000  1
  Ru  Ru12  1  0.082875  0.785940  0.500000  1
  Ru  Ru13  1  0.915719  0.213720  0.500000  1
  Ru  Ru14  1  0.285940  0.582875  0.500000  1
  Ru  Ru15  1  0.713720  0.415719  0.500000  1
  Ru  Ru16  1  0.224224  0.057766  0.500000  1
  Ru  Ru17  1  0.775754  0.943303  0.500000  1
  Ru  Ru18  1  0.501008  0.001008  0.500000  1
  Ru  Ru19  1  0.999731  0.499731  0.500000  1
