# generated using pymatgen
data_EuInCu5
_symmetry_space_group_name_H-M   'P 1'
_cell_length_a   5.05824300
_cell_length_b   8.39241900
_cell_length_c   10.63083400
_cell_angle_alpha   90.00000000
_cell_angle_beta   90.00000000
_cell_angle_gamma   90.00000000
_symmetry_Int_Tables_number   1
_chemical_formula_structural   EuInCu5
_chemical_formula_sum   'Eu4 In4 Cu20'
_cell_volume   451.28841428
_cell_formula_units_Z   4
loop_
 _symmetry_equiv_pos_site_id
 _symmetry_equiv_pos_as_xyz
  1  'x, y, z'
loop_
 _atom_site_type_symbol
 _atom_site_label
 _atom_site_symmetry_multiplicity
 _atom_site_fract_x
 _atom_site_fract_y
 _atom_site_fract_z
 _atom_site_occupancy
  Eu  Eu0  1  0.750000  0.742704  0.439293  1
  Eu  Eu1  1  0.250000  0.257296  0.560707  1
  Eu  Eu2  1  0.250000  0.757296  0.939293  1
  Eu  Eu3  1  0.750000  0.242704  0.060707  1
  In  In4  1  0.750000  0.859681  0.138370  1
  In  In5  1  0.250000  0.140319  0.861630  1
  In  In6  1  0.250000  0.640319  0.638370  1
  In  In7  1  0.750000  0.359681  0.361630  1
  Cu  Cu8  1  0.499291  0.932657  0.687513  1
  Cu  Cu9  1  0.500709  0.067343  0.312487  1
  Cu  Cu10  1  0.500709  0.567343  0.187513  1
  Cu  Cu11  1  0.999291  0.067343  0.312487  1
  Cu  Cu12  1  0.499291  0.432657  0.812487  1
  Cu  Cu13  1  0.000709  0.932657  0.687513  1
  Cu  Cu14  1  0.000709  0.432657  0.812487  1
  Cu  Cu15  1  0.999291  0.567343  0.187513  1
  Cu  Cu16  1  0.750000  0.583764  0.983693  1
  Cu  Cu17  1  0.250000  0.416236  0.016307  1
  Cu  Cu18  1  0.250000  0.916236  0.483693  1
  Cu  Cu19  1  0.750000  0.083764  0.516307  1
  Cu  Cu20  1  0.750000  0.941695  0.893187  1
  Cu  Cu21  1  0.250000  0.058305  0.106813  1
  Cu  Cu22  1  0.250000  0.558305  0.393187  1
  Cu  Cu23  1  0.750000  0.441695  0.606813  1
  Cu  Cu24  1  0.750000  0.682236  0.756341  1
  Cu  Cu25  1  0.250000  0.317764  0.243659  1
  Cu  Cu26  1  0.250000  0.817764  0.256341  1
  Cu  Cu27  1  0.750000  0.182236  0.743659  1
