# generated using pymatgen
data_YHo12Th3(MgRh)4
_symmetry_space_group_name_H-M   'P 1'
_cell_length_a   9.74640110
_cell_length_b   9.75226724
_cell_length_c   9.76699700
_cell_angle_alpha   59.95001382
_cell_angle_beta   59.93006174
_cell_angle_gamma   59.84701748
_symmetry_Int_Tables_number   1
_chemical_formula_structural   YHo12Th3(MgRh)4
_chemical_formula_sum   'Y1 Ho12 Th3 Mg4 Rh4'
_cell_volume   655.08547817
_cell_formula_units_Z   1
loop_
 _symmetry_equiv_pos_site_id
 _symmetry_equiv_pos_as_xyz
  1  'x, y, z'
loop_
 _atom_site_type_symbol
 _atom_site_label
 _atom_site_symmetry_multiplicity
 _atom_site_fract_x
 _atom_site_fract_y
 _atom_site_fract_z
 _atom_site_occupancy
  Y  Y0  1  0.184960  0.184637  0.815202  1
  Ho  Ho1  1  0.202238  0.600172  0.598795  1
  Ho  Ho2  1  0.062416  0.437350  0.437445  1
  Ho  Ho3  1  0.436348  0.063291  0.064243  1
  Ho  Ho4  1  0.436348  0.063291  0.436116  1
  Ho  Ho5  1  0.062416  0.437350  0.062787  1
  Ho  Ho6  1  0.436835  0.436646  0.063259  1
  Ho  Ho7  1  0.063340  0.062856  0.436902  1
  Ho  Ho8  1  0.185155  0.815206  0.815561  1
  Ho  Ho9  1  0.816138  0.184032  0.183504  1
  Ho  Ho10  1  0.816138  0.184032  0.816327  1
  Ho  Ho11  1  0.185155  0.815206  0.184078  1
  Ho  Ho12  1  0.816977  0.816913  0.183055  1
  Th  Th13  1  0.596231  0.598889  0.598132  1
  Th  Th14  1  0.596231  0.598889  0.206749  1
  Th  Th15  1  0.597477  0.205283  0.598620  1
  Mg  Mg16  1  0.830435  0.829655  0.830222  1
  Mg  Mg17  1  0.830435  0.829655  0.509688  1
  Mg  Mg18  1  0.830028  0.509625  0.830173  1
  Mg  Mg19  1  0.508440  0.829924  0.830818  1
  Rh  Rh20  1  0.396099  0.391911  0.392422  1
  Rh  Rh21  1  0.396099  0.391911  0.819569  1
  Rh  Rh22  1  0.396082  0.819626  0.392147  1
  Rh  Rh23  1  0.817978  0.393651  0.394186  1
