# generated using pymatgen
data_TbMgReH6
_symmetry_space_group_name_H-M   'P 1'
_cell_length_a   4.92340026
_cell_length_b   4.92346202
_cell_length_c   4.92350400
_cell_angle_alpha   119.99970084
_cell_angle_beta   119.99957405
_cell_angle_gamma   90.00055237
_symmetry_Int_Tables_number   1
_chemical_formula_structural   TbMgReH6
_chemical_formula_sum   'Tb1 Mg1 Re1 H6'
_cell_volume   84.39130449
_cell_formula_units_Z   1
loop_
 _symmetry_equiv_pos_site_id
 _symmetry_equiv_pos_as_xyz
  1  'x, y, z'
loop_
 _atom_site_type_symbol
 _atom_site_label
 _atom_site_symmetry_multiplicity
 _atom_site_fract_x
 _atom_site_fract_y
 _atom_site_fract_z
 _atom_site_occupancy
  Tb  Tb0  1  0.749986  0.249996  0.499998  1
  Mg  Mg1  1  0.249999  0.750001  0.500003  1
  Re  Re2  1  0.000072  0.000012  0.000016  1
  H  H3  1  0.252759  0.252764  0.999997  1
  H  H4  1  0.747214  0.252780  0.999997  1
  H  H5  1  0.252765  0.747230  0.999998  1
  H  H6  1  0.747213  0.747216  0.999998  1
  H  H7  1  0.747220  0.747224  0.494445  1
  H  H8  1  0.252767  0.252771  0.505543  1
