# generated using pymatgen
data_Ag2RhF5
_symmetry_space_group_name_H-M   'P 1'
_cell_length_a   5.82831800
_cell_length_b   7.51059065
_cell_length_c   11.68478114
_cell_angle_alpha   72.51325077
_cell_angle_beta   90.00000000
_cell_angle_gamma   90.00000000
_symmetry_Int_Tables_number   1
_chemical_formula_structural   Ag2RhF5
_chemical_formula_sum   'Ag8 Rh4 F20'
_cell_volume   487.85310229
_cell_formula_units_Z   4
loop_
 _symmetry_equiv_pos_site_id
 _symmetry_equiv_pos_as_xyz
  1  'x, y, z'
loop_
 _atom_site_type_symbol
 _atom_site_label
 _atom_site_symmetry_multiplicity
 _atom_site_fract_x
 _atom_site_fract_y
 _atom_site_fract_z
 _atom_site_occupancy
  Ag  Ag0  1  0.943797  0.343311  0.318524  1
  Ag  Ag1  1  0.443797  0.656689  0.181476  1
  Ag  Ag2  1  0.056203  0.656689  0.681476  1
  Ag  Ag3  1  0.556203  0.343311  0.818524  1
  Ag  Ag4  1  0.497369  0.155539  0.133159  1
  Ag  Ag5  1  0.997369  0.844461  0.366841  1
  Ag  Ag6  1  0.502631  0.844461  0.866841  1
  Ag  Ag7  1  0.002631  0.155539  0.633159  1
  Rh  Rh8  1  0.500000  0.500000  0.500000  1
  Rh  Rh9  1  0.000000  0.500000  0.000000  1
  Rh  Rh10  1  0.500000  0.000000  0.500000  1
  Rh  Rh11  1  0.000000  0.000000  0.000000  1
  F  F12  1  0.744975  0.474053  0.625954  1
  F  F13  1  0.244975  0.525947  0.874046  1
  F  F14  1  0.255025  0.525947  0.374046  1
  F  F15  1  0.755025  0.474053  0.125954  1
  F  F16  1  0.717928  0.609631  0.363077  1
  F  F17  1  0.217928  0.390369  0.136923  1
  F  F18  1  0.282072  0.390369  0.636923  1
  F  F19  1  0.782072  0.609631  0.863077  1
  F  F20  1  0.630990  0.251053  0.497375  1
  F  F21  1  0.130990  0.748947  0.002625  1
  F  F22  1  0.369010  0.748947  0.502625  1
  F  F23  1  0.869010  0.251053  0.997375  1
  F  F24  1  0.849094  0.054978  0.837188  1
  F  F25  1  0.349094  0.945022  0.662812  1
  F  F26  1  0.150906  0.945022  0.162812  1
  F  F27  1  0.650906  0.054978  0.337188  1
  F  F28  1  0.694655  0.902741  0.073128  1
  F  F29  1  0.194655  0.097259  0.426872  1
  F  F30  1  0.305345  0.097259  0.926872  1
  F  F31  1  0.805345  0.902741  0.573128  1
