# generated using pymatgen
data_Ho3Hf2(Co2Si5)2
_symmetry_space_group_name_H-M   'P 1'
_cell_length_a   12.19750000
_cell_length_b   12.19750000
_cell_length_c   4.00759500
_cell_angle_alpha   90.00000000
_cell_angle_beta   90.00000000
_cell_angle_gamma   90.00000000
_symmetry_Int_Tables_number   1
_chemical_formula_structural   Ho3Hf2(Co2Si5)2
_chemical_formula_sum   'Ho6 Hf4 Co8 Si20'
_cell_volume   596.24600155
_cell_formula_units_Z   2
loop_
 _symmetry_equiv_pos_site_id
 _symmetry_equiv_pos_as_xyz
  1  'x, y, z'
loop_
 _atom_site_type_symbol
 _atom_site_label
 _atom_site_symmetry_multiplicity
 _atom_site_fract_x
 _atom_site_fract_y
 _atom_site_fract_z
 _atom_site_occupancy
  Ho  Ho0  1  0.000000  0.000000  0.000000  1
  Ho  Ho1  1  0.500000  0.500000  0.000000  1
  Ho  Ho2  1  0.887624  0.387624  0.500000  1
  Ho  Ho3  1  0.387624  0.112376  0.500000  1
  Ho  Ho4  1  0.612376  0.887624  0.500000  1
  Ho  Ho5  1  0.112376  0.612376  0.500000  1
  Hf  Hf6  1  0.676400  0.176400  0.500000  1
  Hf  Hf7  1  0.176400  0.323600  0.500000  1
  Hf  Hf8  1  0.823600  0.676400  0.500000  1
  Hf  Hf9  1  0.323600  0.823600  0.500000  1
  Co  Co10  1  0.526507  0.254984  0.000000  1
  Co  Co11  1  0.254984  0.473493  0.000000  1
  Co  Co12  1  0.745016  0.526507  0.000000  1
  Co  Co13  1  0.473493  0.745016  0.000000  1
  Co  Co14  1  0.973493  0.754984  0.000000  1
  Co  Co15  1  0.026507  0.245016  0.000000  1
  Co  Co16  1  0.754984  0.026507  0.000000  1
  Co  Co17  1  0.245016  0.973493  0.000000  1
  Si  Si18  1  0.569500  0.069500  0.000000  1
  Si  Si19  1  0.069500  0.430500  0.000000  1
  Si  Si20  1  0.930500  0.569500  0.000000  1
  Si  Si21  1  0.430500  0.930500  0.000000  1
  Si  Si22  1  0.198244  0.156688  0.000000  1
  Si  Si23  1  0.156688  0.801756  0.000000  1
  Si  Si24  1  0.843312  0.198244  0.000000  1
  Si  Si25  1  0.801756  0.843312  0.000000  1
  Si  Si26  1  0.301756  0.656688  0.000000  1
  Si  Si27  1  0.698244  0.343312  0.000000  1
  Si  Si28  1  0.656688  0.698244  0.000000  1
  Si  Si29  1  0.343312  0.301756  0.000000  1
  Si  Si30  1  0.004548  0.166981  0.500000  1
  Si  Si31  1  0.166981  0.995452  0.500000  1
  Si  Si32  1  0.833019  0.004548  0.500000  1
  Si  Si33  1  0.995452  0.833019  0.500000  1
  Si  Si34  1  0.495452  0.666981  0.500000  1
  Si  Si35  1  0.504548  0.333019  0.500000  1
  Si  Si36  1  0.666981  0.504548  0.500000  1
  Si  Si37  1  0.333019  0.495452  0.500000  1
