# generated using pymatgen
data_Ca2PaIr2
_symmetry_space_group_name_H-M   'P 1'
_cell_length_a   6.43028903
_cell_length_b   6.43028913
_cell_length_c   7.26771504
_cell_angle_alpha   82.09424538
_cell_angle_beta   82.09424725
_cell_angle_gamma   59.05225426
_symmetry_Int_Tables_number   1
_chemical_formula_structural   Ca2PaIr2
_chemical_formula_sum   'Ca4 Pa2 Ir4'
_cell_volume   254.48807021
_cell_formula_units_Z   2
loop_
 _symmetry_equiv_pos_site_id
 _symmetry_equiv_pos_as_xyz
  1  'x, y, z'
loop_
 _atom_site_type_symbol
 _atom_site_label
 _atom_site_symmetry_multiplicity
 _atom_site_fract_x
 _atom_site_fract_y
 _atom_site_fract_z
 _atom_site_occupancy
  Ca  Ca0  1  0.960058  0.734173  0.143779  1
  Ca  Ca1  1  0.265827  0.039942  0.356221  1
  Ca  Ca2  1  0.039942  0.265827  0.856221  1
  Ca  Ca3  1  0.734173  0.960058  0.643779  1
  Pa  Pa4  1  0.430746  0.569254  0.750000  1
  Pa  Pa5  1  0.569254  0.430746  0.250000  1
  Ir  Ir6  1  0.499968  0.796565  0.987848  1
  Ir  Ir7  1  0.203435  0.500032  0.512152  1
  Ir  Ir8  1  0.500032  0.203435  0.012152  1
  Ir  Ir9  1  0.796565  0.499968  0.487848  1
