# generated using pymatgen
data_Nd4PdPt3O14
_symmetry_space_group_name_H-M   'P 1'
_cell_length_a   7.43392397
_cell_length_b   7.43392356
_cell_length_c   7.42727649
_cell_angle_alpha   59.97039212
_cell_angle_beta   59.97039483
_cell_angle_gamma   59.99999811
_symmetry_Int_Tables_number   1
_chemical_formula_structural   Nd4PdPt3O14
_chemical_formula_sum   'Nd4 Pd1 Pt3 O14'
_cell_volume   290.10572601
_cell_formula_units_Z   1
loop_
 _symmetry_equiv_pos_site_id
 _symmetry_equiv_pos_as_xyz
  1  'x, y, z'
loop_
 _atom_site_type_symbol
 _atom_site_label
 _atom_site_symmetry_multiplicity
 _atom_site_fract_x
 _atom_site_fract_y
 _atom_site_fract_z
 _atom_site_occupancy
  Nd  Nd0  1  0.625000  0.625000  0.125000  1
  Nd  Nd1  1  0.625000  0.125000  0.625000  1
  Nd  Nd2  1  0.125000  0.625000  0.625000  1
  Nd  Nd3  1  0.625000  0.625000  0.625000  1
  Pd  Pd4  1  0.125000  0.125000  0.625000  1
  Pt  Pt5  1  0.125000  0.625000  0.125000  1
  Pt  Pt6  1  0.625000  0.125000  0.125000  1
  Pt  Pt7  1  0.125000  0.125000  0.125000  1
  O  O8  1  0.500041  0.500041  0.499876  1
  O  O9  1  0.749959  0.749959  0.750124  1
  O  O10  1  0.461483  0.039694  0.459130  1
  O  O11  1  0.210562  0.789516  0.210405  1
  O  O12  1  0.460484  0.460484  0.039595  1
  O  O13  1  0.039694  0.461483  0.459130  1
  O  O14  1  0.460484  0.039438  0.039595  1
  O  O15  1  0.039694  0.039694  0.459130  1
  O  O16  1  0.039438  0.460484  0.039595  1
  O  O17  1  0.789516  0.210562  0.210405  1
  O  O18  1  0.210306  0.788517  0.790870  1
  O  O19  1  0.788517  0.210306  0.790870  1
  O  O20  1  0.210306  0.210306  0.790870  1
  O  O21  1  0.789516  0.789516  0.210405  1
