# generated using pymatgen
data_Tm5CuRhO12
_symmetry_space_group_name_H-M   'P 1'
_cell_length_a   6.71762588
_cell_length_b   6.71762552
_cell_length_c   7.14020340
_cell_angle_alpha   74.40814645
_cell_angle_beta   74.40814708
_cell_angle_gamma   51.49535766
_symmetry_Int_Tables_number   1
_chemical_formula_structural   Tm5CuRhO12
_chemical_formula_sum   'Tm5 Cu1 Rh1 O12'
_cell_volume   240.66123730
_cell_formula_units_Z   1
loop_
 _symmetry_equiv_pos_site_id
 _symmetry_equiv_pos_as_xyz
  1  'x, y, z'
loop_
 _atom_site_type_symbol
 _atom_site_label
 _atom_site_symmetry_multiplicity
 _atom_site_fract_x
 _atom_site_fract_y
 _atom_site_fract_z
 _atom_site_occupancy
  Tm  Tm0  1  0.808331  0.796960  0.359080  1
  Tm  Tm1  1  0.203040  0.191669  0.640920  1
  Tm  Tm2  1  0.192981  0.188719  0.169194  1
  Tm  Tm3  1  0.811281  0.807019  0.830806  1
  Tm  Tm4  1  0.498610  0.501390  0.500000  1
  Cu  Cu5  1  0.249023  0.750977  0.000000  1
  Rh  Rh6  1  0.739872  0.260128  0.000000  1
  O  O7  1  0.401561  0.925675  0.916646  1
  O  O8  1  0.074325  0.598439  0.083354  1
  O  O9  1  0.597174  0.066805  0.084172  1
  O  O10  1  0.933195  0.402826  0.915828  1
  O  O11  1  0.598591  0.097930  0.574393  1
  O  O12  1  0.902070  0.401409  0.425607  1
  O  O13  1  0.403765  0.901313  0.426214  1
  O  O14  1  0.996227  0.004975  0.809257  1
  O  O15  1  0.995025  0.003773  0.190743  1
  O  O16  1  0.498014  0.501770  0.815136  1
  O  O17  1  0.498230  0.501986  0.184864  1
  O  O18  1  0.098687  0.596235  0.573786  1
