# generated using pymatgen
data_Pr16CdCo4Hg3
_symmetry_space_group_name_H-M   'P 1'
_cell_length_a   9.87629890
_cell_length_b   9.86101305
_cell_length_c   9.87629800
_cell_angle_alpha   59.94871187
_cell_angle_beta   60.00000301
_cell_angle_gamma   59.94871087
_symmetry_Int_Tables_number   1
_chemical_formula_structural   Pr16CdCo4Hg3
_chemical_formula_sum   'Pr16 Cd1 Co4 Hg3'
_cell_volume   679.60700029
_cell_formula_units_Z   1
loop_
 _symmetry_equiv_pos_site_id
 _symmetry_equiv_pos_as_xyz
  1  'x, y, z'
loop_
 _atom_site_type_symbol
 _atom_site_label
 _atom_site_symmetry_multiplicity
 _atom_site_fract_x
 _atom_site_fract_y
 _atom_site_fract_z
 _atom_site_occupancy
  Pr  Pr0  1  0.939301  0.939147  0.560776  1
  Pr  Pr1  1  0.810875  0.188520  0.189729  1
  Pr  Pr2  1  0.939655  0.559994  0.560698  1
  Pr  Pr3  1  0.939655  0.559994  0.939655  1
  Pr  Pr4  1  0.810308  0.809919  0.189887  1
  Pr  Pr5  1  0.346408  0.346701  0.346408  1
  Pr  Pr6  1  0.560776  0.939147  0.939301  1
  Pr  Pr7  1  0.560776  0.939147  0.560776  1
  Pr  Pr8  1  0.189887  0.809919  0.810308  1
  Pr  Pr9  1  0.189729  0.188520  0.810875  1
  Pr  Pr10  1  0.346408  0.346701  0.960483  1
  Pr  Pr11  1  0.347128  0.958615  0.347128  1
  Pr  Pr12  1  0.810875  0.188520  0.810875  1
  Pr  Pr13  1  0.560698  0.559994  0.939655  1
  Pr  Pr14  1  0.189887  0.809919  0.189887  1
  Pr  Pr15  1  0.960483  0.346701  0.346408  1
  Cd  Cd16  1  0.578365  0.264906  0.578365  1
  Co  Co17  1  0.577769  0.140618  0.140806  1
  Co  Co18  1  0.140806  0.140618  0.140806  1
  Co  Co19  1  0.140872  0.577386  0.140872  1
  Co  Co20  1  0.140806  0.140618  0.577769  1
  Hg  Hg21  1  0.583325  0.581466  0.251885  1
  Hg  Hg22  1  0.251885  0.581466  0.583325  1
  Hg  Hg23  1  0.583325  0.581466  0.583325  1
