# generated using pymatgen
data_Ho5Lu3Sc12Si15As
_symmetry_space_group_name_H-M   'P 1'
_cell_length_a   7.10822173
_cell_length_b   7.33756646
_cell_length_c   13.92285312
_cell_angle_alpha   89.99009508
_cell_angle_beta   88.71371995
_cell_angle_gamma   90.10087651
_symmetry_Int_Tables_number   1
_chemical_formula_structural   Ho5Lu3Sc12Si15As
_chemical_formula_sum   'Ho5 Lu3 Sc12 Si15 As1'
_cell_volume   725.99080942
_cell_formula_units_Z   1
loop_
 _symmetry_equiv_pos_site_id
 _symmetry_equiv_pos_as_xyz
  1  'x, y, z'
loop_
 _atom_site_type_symbol
 _atom_site_label
 _atom_site_symmetry_multiplicity
 _atom_site_fract_x
 _atom_site_fract_y
 _atom_site_fract_z
 _atom_site_occupancy
  Ho  Ho0  1  0.996095  0.821580  0.596041  1
  Ho  Ho1  1  0.509932  0.324831  0.095673  1
  Ho  Ho2  1  0.002131  0.178229  0.404046  1
  Ho  Ho3  1  0.501724  0.320767  0.401664  1
  Ho  Ho4  1  0.502748  0.678212  0.597976  1
  Lu  Lu5  1  0.010543  0.176850  0.096484  1
  Lu  Lu6  1  0.990505  0.823464  0.903042  1
  Lu  Lu7  1  0.490097  0.676852  0.902975  1
  Sc  Sc8  1  0.169065  0.501506  0.750998  1
  Sc  Sc9  1  0.830890  0.498870  0.252142  1
  Sc  Sc10  1  0.330546  0.002058  0.250754  1
  Sc  Sc11  1  0.669267  0.998202  0.749703  1
  Sc  Sc12  1  0.344293  0.169904  0.627134  1
  Sc  Sc13  1  0.656465  0.828452  0.373787  1
  Sc  Sc14  1  0.154071  0.671517  0.376773  1
  Sc  Sc15  1  0.665525  0.823213  0.124469  1
  Sc  Sc16  1  0.842928  0.329320  0.623443  1
  Sc  Sc17  1  0.333803  0.175925  0.874725  1
  Sc  Sc18  1  0.836017  0.321788  0.875116  1
  Sc  Sc19  1  0.163916  0.678819  0.124494  1
  Si  Si20  1  0.040268  0.114401  0.750317  1
  Si  Si21  1  0.959026  0.885770  0.248884  1
  Si  Si22  1  0.455865  0.616475  0.248524  1
  Si  Si23  1  0.542635  0.384949  0.751511  1
  Si  Si24  1  0.291927  0.868823  0.752019  1
  Si  Si25  1  0.709648  0.128810  0.247738  1
  Si  Si26  1  0.206366  0.372368  0.248430  1
  Si  Si27  1  0.794195  0.628812  0.752191  1
  Si  Si28  1  0.808705  0.540183  0.457644  1
  Si  Si29  1  0.326845  0.961493  0.460646  1
  Si  Si30  1  0.842080  0.535336  0.038767  1
  Si  Si31  1  0.673173  0.038693  0.540123  1
  Si  Si32  1  0.160120  0.466117  0.960552  1
  Si  Si33  1  0.659604  0.032297  0.959323  1
  Si  Si34  1  0.339994  0.965418  0.039225  1
  As  As35  1  0.188989  0.459691  0.542669  1
