# generated using pymatgen
data_AlTlP2O7
_symmetry_space_group_name_H-M   'P 1'
_cell_length_a   9.80714600
_cell_length_b   7.59925127
_cell_length_c   8.25149200
_cell_angle_alpha   74.92716851
_cell_angle_beta   90.00000000
_cell_angle_gamma   90.00000000
_symmetry_Int_Tables_number   1
_chemical_formula_structural   AlTlP2O7
_chemical_formula_sum   'Al4 Tl4 P8 O28'
_cell_volume   593.80166141
_cell_formula_units_Z   4
loop_
 _symmetry_equiv_pos_site_id
 _symmetry_equiv_pos_as_xyz
  1  'x, y, z'
loop_
 _atom_site_type_symbol
 _atom_site_label
 _atom_site_symmetry_multiplicity
 _atom_site_fract_x
 _atom_site_fract_y
 _atom_site_fract_z
 _atom_site_occupancy
  Al  Al0  1  0.400494  0.242819  0.742780  1
  Al  Al1  1  0.900494  0.757181  0.757220  1
  Al  Al2  1  0.599506  0.757181  0.257220  1
  Al  Al3  1  0.099506  0.242819  0.242780  1
  Tl  Tl4  1  0.197863  0.805168  0.039279  1
  Tl  Tl5  1  0.802137  0.194832  0.960721  1
  Tl  Tl6  1  0.302137  0.805168  0.539279  1
  Tl  Tl7  1  0.697863  0.194832  0.460721  1
  P  P8  1  0.598901  0.878237  0.832997  1
  P  P9  1  0.901099  0.878237  0.332997  1
  P  P10  1  0.125827  0.424177  0.818940  1
  P  P11  1  0.401099  0.121763  0.167003  1
  P  P12  1  0.374173  0.424177  0.318940  1
  P  P13  1  0.874173  0.575823  0.181060  1
  P  P14  1  0.625827  0.575823  0.681060  1
  P  P15  1  0.098901  0.121763  0.667003  1
  O  O16  1  0.937953  0.385982  0.236757  1
  O  O17  1  0.042828  0.305215  0.711514  1
  O  O18  1  0.724309  0.567415  0.237189  1
  O  O19  1  0.562047  0.385982  0.736757  1
  O  O20  1  0.101870  0.325390  0.001895  1
  O  O21  1  0.588813  0.843361  0.020839  1
  O  O22  1  0.898130  0.674610  0.998105  1
  O  O23  1  0.601870  0.674610  0.498105  1
  O  O24  1  0.009394  0.966055  0.767809  1
  O  O25  1  0.775691  0.567415  0.737189  1
  O  O26  1  0.745622  0.909810  0.764861  1
  O  O27  1  0.088813  0.156639  0.479161  1
  O  O28  1  0.254378  0.090190  0.235139  1
  O  O29  1  0.062047  0.614018  0.763243  1
  O  O30  1  0.398130  0.325390  0.501895  1
  O  O31  1  0.957172  0.694785  0.288486  1
  O  O32  1  0.457172  0.305215  0.211514  1
  O  O33  1  0.990606  0.033945  0.232191  1
  O  O34  1  0.509394  0.033945  0.732191  1
  O  O35  1  0.224309  0.432585  0.262811  1
  O  O36  1  0.542828  0.694785  0.788486  1
  O  O37  1  0.437953  0.614018  0.263243  1
  O  O38  1  0.245622  0.090190  0.735139  1
  O  O39  1  0.490606  0.966055  0.267809  1
  O  O40  1  0.411187  0.156639  0.979161  1
  O  O41  1  0.911187  0.843361  0.520839  1
  O  O42  1  0.754378  0.909810  0.264861  1
  O  O43  1  0.275691  0.432585  0.762811  1
