# generated using pymatgen
data_PrPa(Be11Cu2)2
_symmetry_space_group_name_H-M   'P 1'
_cell_length_a   7.40305368
_cell_length_b   7.41607900
_cell_length_c   7.37103089
_cell_angle_alpha   60.08408171
_cell_angle_beta   60.25975783
_cell_angle_gamma   59.65613719
_symmetry_Int_Tables_number   1
_chemical_formula_structural   PrPa(Be11Cu2)2
_chemical_formula_sum   'Pr1 Pa1 Be22 Cu4'
_cell_volume   286.13630043
_cell_formula_units_Z   1
loop_
 _symmetry_equiv_pos_site_id
 _symmetry_equiv_pos_as_xyz
  1  'x, y, z'
loop_
 _atom_site_type_symbol
 _atom_site_label
 _atom_site_symmetry_multiplicity
 _atom_site_fract_x
 _atom_site_fract_y
 _atom_site_fract_z
 _atom_site_occupancy
  Pr  Pr0  1  0.750000  0.750000  0.750000  1
  Pa  Pa1  1  0.250000  0.250000  0.250000  1
  Be  Be2  1  0.500000  0.500000  0.500000  1
  Be  Be3  1  0.000000  0.000000  0.000000  1
  Be  Be4  1  0.277092  0.934436  0.718963  1
  Be  Be5  1  0.718963  0.069510  0.277092  1
  Be  Be6  1  0.934436  0.277092  0.069510  1
  Be  Be7  1  0.069510  0.718963  0.934436  1
  Be  Be8  1  0.203087  0.800159  0.556862  1
  Be  Be9  1  0.800159  0.203087  0.439892  1
  Be  Be10  1  0.439892  0.556862  0.800159  1
  Be  Be11  1  0.556862  0.439892  0.203087  1
  Be  Be12  1  0.711618  0.283209  0.938297  1
  Be  Be13  1  0.283209  0.711618  0.066875  1
  Be  Be14  1  0.066875  0.938297  0.283209  1
  Be  Be15  1  0.938297  0.066875  0.711618  1
  Be  Be16  1  0.564806  0.209380  0.795172  1
  Be  Be17  1  0.430642  0.795172  0.209380  1
  Be  Be18  1  0.795172  0.430642  0.564806  1
  Be  Be19  1  0.209380  0.564806  0.430642  1
  Be  Be20  1  0.942917  0.709896  0.285017  1
  Be  Be21  1  0.062169  0.285017  0.709896  1
  Be  Be22  1  0.285017  0.062169  0.942917  1
  Be  Be23  1  0.709896  0.942917  0.062169  1
  Cu  Cu24  1  0.805542  0.555015  0.198254  1
  Cu  Cu25  1  0.198254  0.441188  0.805542  1
  Cu  Cu26  1  0.555015  0.805542  0.441188  1
  Cu  Cu27  1  0.441188  0.198254  0.555015  1
