# generated using pymatgen
data_Tm6Cr2Fe11Co5P12
_symmetry_space_group_name_H-M   'P 1'
_cell_length_a   3.69742700
_cell_length_b   10.48285000
_cell_length_c   12.12030195
_cell_angle_alpha   90.05249666
_cell_angle_beta   90.00000000
_cell_angle_gamma   90.00000000
_symmetry_Int_Tables_number   1
_chemical_formula_structural   Tm6Cr2Fe11Co5P12
_chemical_formula_sum   'Tm6 Cr2 Fe11 Co5 P12'
_cell_volume   469.77752617
_cell_formula_units_Z   1
loop_
 _symmetry_equiv_pos_site_id
 _symmetry_equiv_pos_as_xyz
  1  'x, y, z'
loop_
 _atom_site_type_symbol
 _atom_site_label
 _atom_site_symmetry_multiplicity
 _atom_site_fract_x
 _atom_site_fract_y
 _atom_site_fract_z
 _atom_site_occupancy
  Tm  Tm0  1  0.000000  0.499419  0.525021  1
  Tm  Tm1  1  0.500000  0.000786  0.474257  1
  Tm  Tm2  1  0.500000  0.821255  0.208035  1
  Tm  Tm3  1  0.500000  0.179641  0.205390  1
  Tm  Tm4  1  0.000000  0.678438  0.792579  1
  Tm  Tm5  1  0.000000  0.320687  0.794908  1
  Cr  Cr6  1  0.500000  0.500715  0.152355  1
  Cr  Cr7  1  0.000000  0.999356  0.848171  1
  Fe  Fe8  1  0.000000  0.502369  0.987850  1
  Fe  Fe9  1  0.500000  0.997405  0.012377  1
  Fe  Fe10  1  0.500000  0.330189  0.996663  1
  Fe  Fe11  1  0.500000  0.674664  0.996324  1
  Fe  Fe12  1  0.000000  0.170562  0.004032  1
  Fe  Fe13  1  0.000000  0.825837  0.003654  1
  Fe  Fe14  1  0.500000  0.297929  0.429767  1
  Fe  Fe15  1  0.500000  0.701697  0.429971  1
  Fe  Fe16  1  0.000000  0.201550  0.570487  1
  Fe  Fe17  1  0.000000  0.798031  0.569972  1
  Fe  Fe18  1  0.500000  0.881852  0.704793  1
  Co  Co19  1  0.500000  0.499611  0.700116  1
  Co  Co20  1  0.000000  0.999736  0.299800  1
  Co  Co21  1  0.500000  0.120514  0.710205  1
  Co  Co22  1  0.000000  0.619274  0.292857  1
  Co  Co23  1  0.000000  0.379748  0.290884  1
  P  P24  1  0.500000  0.500421  0.884283  1
  P  P25  1  0.000000  0.999645  0.115549  1
  P  P26  1  0.500000  0.499051  0.345649  1
  P  P27  1  0.000000  0.000058  0.654109  1
  P  P28  1  0.500000  0.307822  0.614903  1
  P  P29  1  0.500000  0.690686  0.614344  1
  P  P30  1  0.000000  0.191891  0.385460  1
  P  P31  1  0.000000  0.808047  0.385790  1
  P  P32  1  0.500000  0.848805  0.886225  1
  P  P33  1  0.500000  0.153060  0.892941  1
  P  P34  1  0.000000  0.651277  0.112301  1
  P  P35  1  0.000000  0.347970  0.107976  1
