# generated using pymatgen
data_La2Nd2CoBr5
_symmetry_space_group_name_H-M   'P 1'
_cell_length_a   9.45005640
_cell_length_b   9.45005655
_cell_length_c   8.95143300
_cell_angle_alpha   76.75087612
_cell_angle_beta   76.75087590
_cell_angle_gamma   25.42236024
_symmetry_Int_Tables_number   1
_chemical_formula_structural   La2Nd2CoBr5
_chemical_formula_sum   'La2 Nd2 Co1 Br5'
_cell_volume   333.56466793
_cell_formula_units_Z   1
loop_
 _symmetry_equiv_pos_site_id
 _symmetry_equiv_pos_as_xyz
  1  'x, y, z'
loop_
 _atom_site_type_symbol
 _atom_site_label
 _atom_site_symmetry_multiplicity
 _atom_site_fract_x
 _atom_site_fract_y
 _atom_site_fract_z
 _atom_site_occupancy
  La  La0  1  0.860954  0.860954  0.072801  1
  La  La1  1  0.139046  0.139046  0.927199  1
  Nd  Nd2  1  0.500606  0.500606  0.226826  1
  Nd  Nd3  1  0.499394  0.499394  0.773174  1
  Co  Co4  1  0.000000  0.000000  0.000000  1
  Br  Br5  1  0.671890  0.671890  0.167778  1
  Br  Br6  1  0.328110  0.328110  0.832222  1
  Br  Br7  1  0.665094  0.665094  0.664000  1
  Br  Br8  1  0.334906  0.334906  0.336000  1
  Br  Br9  1  0.000000  0.000000  0.500000  1
