# generated using pymatgen
data_Sm2Bi5SbO14
_symmetry_space_group_name_H-M   'P 1'
_cell_length_a   6.63387449
_cell_length_b   6.88335078
_cell_length_c   7.82590260
_cell_angle_alpha   105.80515520
_cell_angle_beta   89.94113242
_cell_angle_gamma   99.19167683
_symmetry_Int_Tables_number   1
_chemical_formula_structural   Sm2Bi5SbO14
_chemical_formula_sum   'Sm2 Bi5 Sb1 O14'
_cell_volume   339.09123235
_cell_formula_units_Z   1
loop_
 _symmetry_equiv_pos_site_id
 _symmetry_equiv_pos_as_xyz
  1  'x, y, z'
loop_
 _atom_site_type_symbol
 _atom_site_label
 _atom_site_symmetry_multiplicity
 _atom_site_fract_x
 _atom_site_fract_y
 _atom_site_fract_z
 _atom_site_occupancy
  Sm  Sm0  1  0.457401  0.001003  0.243477  1
  Sm  Sm1  1  0.542599  0.998997  0.756523  1
  Bi  Bi2  1  0.000000  0.000000  0.500000  1
  Bi  Bi3  1  0.256779  0.507073  0.878399  1
  Bi  Bi4  1  0.743221  0.492927  0.121601  1
  Bi  Bi5  1  0.724315  0.468398  0.607771  1
  Bi  Bi6  1  0.275685  0.531602  0.392229  1
  Sb  Sb7  1  0.000000  0.000000  0.000000  1
  O  O8  1  0.462258  0.649472  0.178469  1
  O  O9  1  0.537742  0.350528  0.821531  1
  O  O10  1  0.287166  0.949750  0.952420  1
  O  O11  1  0.712834  0.050250  0.047580  1
  O  O12  1  0.294577  0.913724  0.504365  1
  O  O13  1  0.705423  0.086276  0.495635  1
  O  O14  1  0.531443  0.352367  0.354353  1
  O  O15  1  0.468557  0.647633  0.645647  1
  O  O16  1  0.918128  0.696194  0.973806  1
  O  O17  1  0.081872  0.303806  0.026194  1
  O  O18  1  0.107646  0.321911  0.614789  1
  O  O19  1  0.892354  0.678089  0.385211  1
  O  O20  1  0.894784  0.935401  0.743227  1
  O  O21  1  0.105216  0.064599  0.256773  1
