# generated using pymatgen
data_CeThB10Ru
_symmetry_space_group_name_H-M   'P 1'
_cell_length_a   4.18806700
_cell_length_b   5.72704302
_cell_length_c   11.43330004
_cell_angle_alpha   90.00911731
_cell_angle_beta   90.00000000
_cell_angle_gamma   90.00000000
_symmetry_Int_Tables_number   1
_chemical_formula_structural   CeThB10Ru
_chemical_formula_sum   'Ce2 Th2 B20 Ru2'
_cell_volume   274.23044042
_cell_formula_units_Z   2
loop_
 _symmetry_equiv_pos_site_id
 _symmetry_equiv_pos_as_xyz
  1  'x, y, z'
loop_
 _atom_site_type_symbol
 _atom_site_label
 _atom_site_symmetry_multiplicity
 _atom_site_fract_x
 _atom_site_fract_y
 _atom_site_fract_z
 _atom_site_occupancy
  Ce  Ce0  1  0.500000  0.284515  0.868648  1
  Ce  Ce1  1  0.500000  0.715485  0.131352  1
  Th  Th2  1  0.500000  0.784080  0.633411  1
  Th  Th3  1  0.500000  0.215920  0.366589  1
  B  B4  1  0.000000  0.118703  0.542547  1
  B  B5  1  0.000000  0.881297  0.457453  1
  B  B6  1  0.000000  0.618117  0.957401  1
  B  B7  1  0.000000  0.381883  0.042599  1
  B  B8  1  0.000000  0.132533  0.697521  1
  B  B9  1  0.000000  0.867467  0.302479  1
  B  B10  1  0.301125  0.221186  0.118533  1
  B  B11  1  0.301125  0.778814  0.881467  1
  B  B12  1  0.699204  0.721621  0.380947  1
  B  B13  1  0.699204  0.278379  0.619053  1
  B  B14  1  0.698875  0.778814  0.881467  1
  B  B15  1  0.698875  0.221186  0.118533  1
  B  B16  1  0.300796  0.278379  0.619053  1
  B  B17  1  0.300796  0.721621  0.380947  1
  B  B18  1  0.000000  0.058542  0.192664  1
  B  B19  1  0.000000  0.941458  0.807336  1
  B  B20  1  0.000000  0.559130  0.306892  1
  B  B21  1  0.000000  0.440870  0.693108  1
  B  B22  1  0.000000  0.368164  0.196755  1
  B  B23  1  0.000000  0.631836  0.803245  1
  Ru  Ru24  1  0.000000  0.500000  0.500000  1
  Ru  Ru25  1  0.000000  0.000000  0.000000  1
