# generated using pymatgen
data_Cs3K13(TiSe4)4
_symmetry_space_group_name_H-M   'P 1'
_cell_length_a   8.42790707
_cell_length_b   10.13021591
_cell_length_c   15.59851601
_cell_angle_alpha   90.62864837
_cell_angle_beta   90.74131425
_cell_angle_gamma   90.56812879
_symmetry_Int_Tables_number   1
_chemical_formula_structural   Cs3K13(TiSe4)4
_chemical_formula_sum   'Cs3 K13 Ti4 Se16'
_cell_volume   1331.48800082
_cell_formula_units_Z   1
loop_
 _symmetry_equiv_pos_site_id
 _symmetry_equiv_pos_as_xyz
  1  'x, y, z'
loop_
 _atom_site_type_symbol
 _atom_site_label
 _atom_site_symmetry_multiplicity
 _atom_site_fract_x
 _atom_site_fract_y
 _atom_site_fract_z
 _atom_site_occupancy
  Cs  Cs0  1  0.000000  0.000000  0.000000  1
  Cs  Cs1  1  0.500000  0.000000  0.500000  1
  Cs  Cs2  1  0.000000  0.500000  0.000000  1
  K  K3  1  0.500000  0.500000  0.500000  1
  K  K4  1  0.973182  0.751422  0.430636  1
  K  K5  1  0.469739  0.250729  0.070580  1
  K  K6  1  0.026818  0.248578  0.569364  1
  K  K7  1  0.530261  0.749271  0.929420  1
  K  K8  1  0.829663  0.057151  0.270624  1
  K  K9  1  0.328788  0.948988  0.233017  1
  K  K10  1  0.166522  0.549479  0.725208  1
  K  K11  1  0.670340  0.443892  0.767681  1
  K  K12  1  0.170337  0.942849  0.729376  1
  K  K13  1  0.671212  0.051012  0.766983  1
  K  K14  1  0.833478  0.450521  0.274792  1
  K  K15  1  0.329660  0.556108  0.232319  1
  Ti  Ti16  1  0.769788  0.743942  0.668846  1
  Ti  Ti17  1  0.230212  0.256058  0.331154  1
  Ti  Ti18  1  0.721598  0.750191  0.175243  1
  Ti  Ti19  1  0.278402  0.249809  0.824757  1
  Se  Se20  1  0.991605  0.247710  0.815568  1
  Se  Se21  1  0.516159  0.252980  0.323871  1
  Se  Se22  1  0.483841  0.747020  0.676129  1
  Se  Se23  1  0.008395  0.752290  0.184432  1
  Se  Se24  1  0.630762  0.554245  0.101259  1
  Se  Se25  1  0.147938  0.451310  0.407050  1
  Se  Se26  1  0.371670  0.057669  0.898962  1
  Se  Se27  1  0.868623  0.937442  0.598620  1
  Se  Se28  1  0.369238  0.445755  0.898741  1
  Se  Se29  1  0.852062  0.548690  0.592950  1
  Se  Se30  1  0.628330  0.942331  0.101038  1
  Se  Se31  1  0.131377  0.062558  0.401380  1
  Se  Se32  1  0.618273  0.751046  0.320164  1
  Se  Se33  1  0.121652  0.255980  0.185328  1
  Se  Se34  1  0.381727  0.248954  0.679836  1
  Se  Se35  1  0.878348  0.744020  0.814672  1
