# generated using pymatgen
data_LaPr9Al2(ZnRu3)2
_symmetry_space_group_name_H-M   'P 1'
_cell_length_a   8.63620069
_cell_length_b   8.58254172
_cell_length_c   8.50804645
_cell_angle_alpha   109.07625714
_cell_angle_beta   109.69761276
_cell_angle_gamma   109.66942920
_symmetry_Int_Tables_number   1
_chemical_formula_structural   LaPr9Al2(ZnRu3)2
_chemical_formula_sum   'La1 Pr9 Al2 Zn2 Ru6'
_cell_volume   485.26108556
_cell_formula_units_Z   1
loop_
 _symmetry_equiv_pos_site_id
 _symmetry_equiv_pos_as_xyz
  1  'x, y, z'
loop_
 _atom_site_type_symbol
 _atom_site_label
 _atom_site_symmetry_multiplicity
 _atom_site_fract_x
 _atom_site_fract_y
 _atom_site_fract_z
 _atom_site_occupancy
  La  La0  1  0.252589  0.689371  0.444200  1
  Pr  Pr1  1  0.746420  0.813942  0.061311  1
  Pr  Pr2  1  0.436067  0.252390  0.687267  1
  Pr  Pr3  1  0.683971  0.434898  0.249743  1
  Pr  Pr4  1  0.064209  0.749502  0.814636  1
  Pr  Pr5  1  0.814925  0.064695  0.751021  1
  Pr  Pr6  1  0.219204  0.219367  0.219812  1
  Pr  Pr7  1  0.502346  0.000785  0.281505  1
  Pr  Pr8  1  0.281936  0.500926  0.999455  1
  Pr  Pr9  1  0.999189  0.281572  0.498937  1
  Al  Al10  1  0.909471  0.500203  0.001759  1
  Al  Al11  1  0.998286  0.908504  0.498036  1
  Zn  Zn12  1  0.591411  0.588007  0.588393  1
  Zn  Zn13  1  0.500376  0.003235  0.913819  1
  Ru  Ru14  1  0.241809  0.119977  0.866211  1
  Ru  Ru15  1  0.753235  0.375121  0.633132  1
  Ru  Ru16  1  0.876862  0.255202  0.122283  1
  Ru  Ru17  1  0.122010  0.862782  0.253688  1
  Ru  Ru18  1  0.637137  0.756674  0.375232  1
  Ru  Ru19  1  0.368544  0.622848  0.739560  1
