# generated using pymatgen
data_TbHo7(CdRh)2
_symmetry_space_group_name_H-M   'P 1'
_cell_length_a   9.60360587
_cell_length_b   9.60360589
_cell_length_c   9.59611500
_cell_angle_alpha   60.02580256
_cell_angle_beta   60.02580249
_cell_angle_gamma   59.94839904
_symmetry_Int_Tables_number   1
_chemical_formula_structural   TbHo7(CdRh)2
_chemical_formula_sum   'Tb2 Ho14 Cd4 Rh4'
_cell_volume   625.81877675
_cell_formula_units_Z   2
loop_
 _symmetry_equiv_pos_site_id
 _symmetry_equiv_pos_as_xyz
  1  'x, y, z'
loop_
 _atom_site_type_symbol
 _atom_site_label
 _atom_site_symmetry_multiplicity
 _atom_site_fract_x
 _atom_site_fract_y
 _atom_site_fract_z
 _atom_site_occupancy
  Tb  Tb0  1  0.936064  0.936064  0.563936  1
  Tb  Tb1  1  0.563936  0.563936  0.936064  1
  Ho  Ho2  1  0.688768  0.688768  0.311232  1
  Ho  Ho3  1  0.150603  0.547785  0.150806  1
  Ho  Ho4  1  0.688596  0.311404  0.688596  1
  Ho  Ho5  1  0.150806  0.150806  0.150603  1
  Ho  Ho6  1  0.547785  0.150603  0.150806  1
  Ho  Ho7  1  0.688596  0.311404  0.311404  1
  Ho  Ho8  1  0.150806  0.150806  0.547785  1
  Ho  Ho9  1  0.311404  0.688596  0.311404  1
  Ho  Ho10  1  0.311404  0.688596  0.688596  1
  Ho  Ho11  1  0.936812  0.563188  0.563188  1
  Ho  Ho12  1  0.936812  0.563188  0.936812  1
  Ho  Ho13  1  0.563188  0.936812  0.563188  1
  Ho  Ho14  1  0.563188  0.936812  0.936812  1
  Ho  Ho15  1  0.311232  0.311232  0.688768  1
  Cd  Cd16  1  0.919009  0.919009  0.242854  1
  Cd  Cd17  1  0.242854  0.919128  0.919009  1
  Cd  Cd18  1  0.919009  0.919009  0.919128  1
  Cd  Cd19  1  0.919128  0.242854  0.919009  1
  Rh  Rh20  1  0.357230  0.357230  0.927678  1
  Rh  Rh21  1  0.357860  0.927678  0.357230  1
  Rh  Rh22  1  0.927678  0.357860  0.357230  1
  Rh  Rh23  1  0.357230  0.357230  0.357860  1
