# generated using pymatgen
data_Nd4Mn3Al5O20
_symmetry_space_group_name_H-M   'P 1'
_cell_length_a   5.71057300
_cell_length_b   7.46905644
_cell_length_c   8.58541957
_cell_angle_alpha   89.84869608
_cell_angle_beta   90.00000000
_cell_angle_gamma   90.00000000
_symmetry_Int_Tables_number   1
_chemical_formula_structural   Nd4Mn3Al5O20
_chemical_formula_sum   'Nd4 Mn3 Al5 O20'
_cell_volume   366.18912141
_cell_formula_units_Z   1
loop_
 _symmetry_equiv_pos_site_id
 _symmetry_equiv_pos_as_xyz
  1  'x, y, z'
loop_
 _atom_site_type_symbol
 _atom_site_label
 _atom_site_symmetry_multiplicity
 _atom_site_fract_x
 _atom_site_fract_y
 _atom_site_fract_z
 _atom_site_occupancy
  Nd  Nd0  1  0.000076  0.363816  0.672441  1
  Nd  Nd1  1  0.000076  0.636184  0.327559  1
  Nd  Nd2  1  0.001458  0.861243  0.831516  1
  Nd  Nd3  1  0.001458  0.138757  0.168484  1
  Mn  Mn4  1  0.744253  0.000000  0.500000  1
  Mn  Mn5  1  0.743533  0.500000  0.000000  1
  Mn  Mn6  1  0.256068  0.000000  0.500000  1
  Al  Al7  1  0.501418  0.109408  0.860400  1
  Al  Al8  1  0.501418  0.890592  0.139600  1
  Al  Al9  1  0.497748  0.607660  0.639327  1
  Al  Al10  1  0.497748  0.392340  0.360673  1
  Al  Al11  1  0.254912  0.500000  0.000000  1
  O  O12  1  0.258780  0.902629  0.289633  1
  O  O13  1  0.258780  0.097371  0.710367  1
  O  O14  1  0.742750  0.401580  0.210793  1
  O  O15  1  0.742750  0.598420  0.789207  1
  O  O16  1  0.742693  0.097314  0.709998  1
  O  O17  1  0.742693  0.902686  0.290002  1
  O  O18  1  0.264333  0.598181  0.790568  1
  O  O19  1  0.264333  0.401819  0.209432  1
  O  O20  1  0.494056  0.340174  0.933558  1
  O  O21  1  0.494056  0.659826  0.066442  1
  O  O22  1  0.500319  0.839667  0.565933  1
  O  O23  1  0.500319  0.160333  0.434067  1
  O  O24  1  0.286312  0.000000  0.000000  1
  O  O25  1  0.713367  0.500000  0.500000  1
  O  O26  1  0.714487  0.000000  0.000000  1
  O  O27  1  0.282988  0.500000  0.500000  1
  O  O28  1  0.000254  0.157619  0.448037  1
  O  O29  1  0.000254  0.842381  0.551963  1
  O  O30  1  0.998155  0.655933  0.051300  1
  O  O31  1  0.998155  0.344067  0.948700  1
