# generated using pymatgen
data_Tb2Pr3Pa(Al3Os)8
_symmetry_space_group_name_H-M   'P 1'
_cell_length_a   8.86120000
_cell_length_b   8.90912554
_cell_length_c   9.64587300
_cell_angle_alpha   90.00000000
_cell_angle_beta   90.00000000
_cell_angle_gamma   119.82220322
_symmetry_Int_Tables_number   1
_chemical_formula_structural   Tb2Pr3Pa(Al3Os)8
_chemical_formula_sum   'Tb2 Pr3 Pa1 Al24 Os8'
_cell_volume   660.65554627
_cell_formula_units_Z   1
loop_
 _symmetry_equiv_pos_site_id
 _symmetry_equiv_pos_as_xyz
  1  'x, y, z'
loop_
 _atom_site_type_symbol
 _atom_site_label
 _atom_site_symmetry_multiplicity
 _atom_site_fract_x
 _atom_site_fract_y
 _atom_site_fract_z
 _atom_site_occupancy
  Tb  Tb0  1  0.611681  0.803141  0.250000  1
  Tb  Tb1  1  0.191460  0.803141  0.250000  1
  Pr  Pr2  1  0.809175  0.618350  0.750000  1
  Pr  Pr3  1  0.384331  0.190042  0.750000  1
  Pr  Pr4  1  0.805711  0.190042  0.750000  1
  Pa  Pa5  1  0.198014  0.396027  0.250000  1
  Al  Al6  1  0.336500  0.673000  0.020235  1
  Al  Al7  1  0.667412  0.334823  0.990391  1
  Al  Al8  1  0.667412  0.334823  0.509609  1
  Al  Al9  1  0.336500  0.673000  0.479765  1
  Al  Al10  1  0.163790  0.327579  0.572054  1
  Al  Al11  1  0.837230  0.674460  0.422185  1
  Al  Al12  1  0.671070  0.834926  0.570434  1
  Al  Al13  1  0.837230  0.674460  0.077815  1
  Al  Al14  1  0.324877  0.161552  0.421000  1
  Al  Al15  1  0.163790  0.327579  0.927946  1
  Al  Al16  1  0.163855  0.834926  0.570434  1
  Al  Al17  1  0.324877  0.161552  0.079000  1
  Al  Al18  1  0.836674  0.161552  0.421000  1
  Al  Al19  1  0.671070  0.834926  0.929566  1
  Al  Al20  1  0.836674  0.161552  0.079000  1
  Al  Al21  1  0.163855  0.834926  0.929566  1
  Al  Al22  1  0.558901  0.117801  0.250000  1
  Al  Al23  1  0.435797  0.871595  0.750000  1
  Al  Al24  1  0.874256  0.438138  0.250000  1
  Al  Al25  1  0.124278  0.561312  0.750000  1
  Al  Al26  1  0.563882  0.438138  0.250000  1
  Al  Al27  1  0.437035  0.561312  0.750000  1
  Al  Al28  1  0.002822  0.005644  0.250000  1
  Al  Al29  1  0.000097  0.000196  0.750000  1
  Os  Os30  1  0.500620  0.001239  0.000731  1
  Os  Os31  1  0.005448  0.500080  0.007943  1
  Os  Os32  1  0.500620  0.001239  0.499269  1
  Os  Os33  1  0.494632  0.500080  0.007943  1
  Os  Os34  1  0.005448  0.500080  0.492057  1
  Os  Os35  1  0.494632  0.500080  0.492057  1
  Os  Os36  1  0.999172  0.998345  0.000343  1
  Os  Os37  1  0.999172  0.998345  0.499657  1
