# generated using pymatgen
data_Dy10AlSn3Bi2
_symmetry_space_group_name_H-M   'P 1'
_cell_length_a   9.01323568
_cell_length_b   8.99155041
_cell_length_c   6.51011300
_cell_angle_alpha   90.00000000
_cell_angle_beta   90.00000000
_cell_angle_gamma   119.92058610
_symmetry_Int_Tables_number   1
_chemical_formula_structural   Dy10AlSn3Bi2
_chemical_formula_sum   'Dy10 Al1 Sn3 Bi2'
_cell_volume   457.27920034
_cell_formula_units_Z   1
loop_
 _symmetry_equiv_pos_site_id
 _symmetry_equiv_pos_as_xyz
  1  'x, y, z'
loop_
 _atom_site_type_symbol
 _atom_site_label
 _atom_site_symmetry_multiplicity
 _atom_site_fract_x
 _atom_site_fract_y
 _atom_site_fract_z
 _atom_site_occupancy
  Dy  Dy0  1  0.994672  0.757088  0.750000  1
  Dy  Dy1  1  0.994280  0.240087  0.250000  1
  Dy  Dy2  1  0.768805  0.761008  0.250000  1
  Dy  Dy3  1  0.764108  0.000817  0.750000  1
  Dy  Dy4  1  0.236754  0.243096  0.750000  1
  Dy  Dy5  1  0.231462  0.986097  0.250000  1
  Dy  Dy6  1  0.327203  0.665649  0.498588  1
  Dy  Dy7  1  0.678966  0.341631  0.001402  1
  Dy  Dy8  1  0.678966  0.341631  0.498598  1
  Dy  Dy9  1  0.327203  0.665649  0.001412  1
  Al  Al10  1  0.001230  0.602125  0.250000  1
  Sn  Sn11  1  0.001588  0.397213  0.750000  1
  Sn  Sn12  1  0.603008  0.606084  0.750000  1
  Sn  Sn13  1  0.604836  0.998227  0.250000  1
  Bi  Bi14  1  0.394663  0.004165  0.750000  1
  Bi  Bi15  1  0.392259  0.389431  0.250000  1
