# generated using pymatgen
data_Tb4YbSm3(B6Ru)4
_symmetry_space_group_name_H-M   'P 1'
_cell_length_a   3.70399500
_cell_length_b   9.19769908
_cell_length_c   11.58579802
_cell_angle_alpha   90.03138920
_cell_angle_beta   90.00000000
_cell_angle_gamma   90.00000000
_symmetry_Int_Tables_number   1
_chemical_formula_structural   Tb4YbSm3(B6Ru)4
_chemical_formula_sum   'Tb4 Yb1 Sm3 B24 Ru4'
_cell_volume   394.70758881
_cell_formula_units_Z   1
loop_
 _symmetry_equiv_pos_site_id
 _symmetry_equiv_pos_as_xyz
  1  'x, y, z'
loop_
 _atom_site_type_symbol
 _atom_site_label
 _atom_site_symmetry_multiplicity
 _atom_site_fract_x
 _atom_site_fract_y
 _atom_site_fract_z
 _atom_site_occupancy
  Tb  Tb0  1  0.000000  0.177490  0.912962  1
  Tb  Tb1  1  0.000000  0.943270  0.371390  1
  Tb  Tb2  1  0.000000  0.056668  0.629233  1
  Tb  Tb3  1  0.000000  0.443730  0.126350  1
  Yb  Yb4  1  0.000000  0.556612  0.870971  1
  Sm  Sm5  1  0.000000  0.323769  0.415054  1
  Sm  Sm6  1  0.000000  0.675787  0.588573  1
  Sm  Sm7  1  0.000000  0.822826  0.083932  1
  B  B8  1  0.500000  0.554624  0.431636  1
  B  B9  1  0.500000  0.445239  0.569672  1
  B  B10  1  0.500000  0.055373  0.067180  1
  B  B11  1  0.500000  0.945518  0.931409  1
  B  B12  1  0.500000  0.747907  0.418829  1
  B  B13  1  0.500000  0.252217  0.582143  1
  B  B14  1  0.500000  0.248428  0.079515  1
  B  B15  1  0.500000  0.750896  0.918176  1
  B  B16  1  0.500000  0.789576  0.266782  1
  B  B17  1  0.500000  0.210609  0.734030  1
  B  B18  1  0.500000  0.290244  0.231955  1
  B  B19  1  0.500000  0.709048  0.768114  1
  B  B20  1  0.500000  0.631333  0.184929  1
  B  B21  1  0.500000  0.369455  0.815165  1
  B  B22  1  0.500000  0.131744  0.313761  1
  B  B23  1  0.500000  0.868352  0.687165  1
  B  B24  1  0.500000  0.985452  0.212459  1
  B  B25  1  0.500000  0.015835  0.787963  1
  B  B26  1  0.500000  0.484977  0.286403  1
  B  B27  1  0.500000  0.514980  0.714480  1
  B  B28  1  0.500000  0.605925  0.028700  1
  B  B29  1  0.500000  0.392982  0.969748  1
  B  B30  1  0.500000  0.107728  0.470373  1
  B  B31  1  0.500000  0.892079  0.529980  1
  Ru  Ru32  1  0.000000  0.637949  0.320924  1
  Ru  Ru33  1  0.000000  0.361220  0.680261  1
  Ru  Ru34  1  0.000000  0.138500  0.178872  1
  Ru  Ru35  1  0.000000  0.861661  0.820907  1
