# generated using pymatgen
data_Ho10TlIn7NiRh3
_symmetry_space_group_name_H-M   'P 1'
_cell_length_a   8.05159231
_cell_length_b   18.20058541
_cell_length_c   3.58682300
_cell_angle_alpha   90.00000000
_cell_angle_beta   90.00000000
_cell_angle_gamma   89.93230124
_symmetry_Int_Tables_number   1
_chemical_formula_structural   Ho10TlIn7NiRh3
_chemical_formula_sum   'Ho10 Tl1 In7 Ni1 Rh3'
_cell_volume   525.62592368
_cell_formula_units_Z   1
loop_
 _symmetry_equiv_pos_site_id
 _symmetry_equiv_pos_as_xyz
  1  'x, y, z'
loop_
 _atom_site_type_symbol
 _atom_site_label
 _atom_site_symmetry_multiplicity
 _atom_site_fract_x
 _atom_site_fract_y
 _atom_site_fract_z
 _atom_site_occupancy
  Ho  Ho0  1  0.500504  0.499398  0.000000  1
  Ho  Ho1  1  0.002501  0.001280  0.000000  1
  Ho  Ho2  1  0.745715  0.279657  0.000000  1
  Ho  Ho3  1  0.251981  0.720176  0.000000  1
  Ho  Ho4  1  0.751011  0.778028  0.000000  1
  Ho  Ho5  1  0.250929  0.222465  0.000000  1
  Ho  Ho6  1  0.618343  0.090030  0.000000  1
  Ho  Ho7  1  0.382464  0.910886  0.000000  1
  Ho  Ho8  1  0.881376  0.588078  0.000000  1
  Ho  Ho9  1  0.116934  0.409388  0.000000  1
  Tl  Tl10  1  0.707114  0.934184  0.500000  1
  In  In11  1  0.295053  0.069376  0.500000  1
  In  In12  1  0.796199  0.431295  0.500000  1
  In  In13  1  0.204449  0.565865  0.500000  1
  In  In14  1  0.568689  0.648770  0.500000  1
  In  In15  1  0.429324  0.350330  0.500000  1
  In  In16  1  0.929993  0.153160  0.500000  1
  In  In17  1  0.071940  0.849404  0.500000  1
  Ni  Ni18  1  0.022652  0.304071  0.500000  1
  Rh  Rh19  1  0.524584  0.196665  0.500000  1
  Rh  Rh20  1  0.472310  0.802797  0.500000  1
  Rh  Rh21  1  0.975934  0.694697  0.500000  1
