# generated using pymatgen
data_Pr4Th(BN3)2
_symmetry_space_group_name_H-M   'P 1'
_cell_length_a   6.48939562
_cell_length_b   6.48939515
_cell_length_c   8.92847127
_cell_angle_alpha   74.48893652
_cell_angle_beta   74.48893941
_cell_angle_gamma   32.59863978
_symmetry_Int_Tables_number   1
_chemical_formula_structural   Pr4Th(BN3)2
_chemical_formula_sum   'Pr4 Th1 B2 N6'
_cell_volume   194.54762848
_cell_formula_units_Z   1
loop_
 _symmetry_equiv_pos_site_id
 _symmetry_equiv_pos_as_xyz
  1  'x, y, z'
loop_
 _atom_site_type_symbol
 _atom_site_label
 _atom_site_symmetry_multiplicity
 _atom_site_fract_x
 _atom_site_fract_y
 _atom_site_fract_z
 _atom_site_occupancy
  Pr  Pr0  1  0.623792  0.623792  0.620831  1
  Pr  Pr1  1  0.309084  0.309084  0.813993  1
  Pr  Pr2  1  0.690916  0.690916  0.186007  1
  Pr  Pr3  1  0.376208  0.376208  0.379169  1
  Th  Th4  1  0.000000  0.000000  0.000000  1
  B  B5  1  0.053904  0.053904  0.410872  1
  B  B6  1  0.946096  0.946096  0.589128  1
  N  N7  1  0.026369  0.026369  0.257541  1
  N  N8  1  0.354871  0.354871  0.075665  1
  N  N9  1  0.826636  0.826636  0.589580  1
  N  N10  1  0.973631  0.973631  0.742459  1
  N  N11  1  0.645129  0.645129  0.924335  1
  N  N12  1  0.173364  0.173364  0.410420  1
