# generated using pymatgen
data_Tm2Lu10Tc3Ru
_symmetry_space_group_name_H-M   'P 1'
_cell_length_a   6.14067302
_cell_length_b   7.32801800
_cell_length_c   8.88032000
_cell_angle_alpha   90.00000000
_cell_angle_beta   90.00000000
_cell_angle_gamma   89.99443397
_symmetry_Int_Tables_number   1
_chemical_formula_structural   Tm2Lu10Tc3Ru
_chemical_formula_sum   'Tm2 Lu10 Tc3 Ru1'
_cell_volume   399.60518395
_cell_formula_units_Z   1
loop_
 _symmetry_equiv_pos_site_id
 _symmetry_equiv_pos_as_xyz
  1  'x, y, z'
loop_
 _atom_site_type_symbol
 _atom_site_label
 _atom_site_symmetry_multiplicity
 _atom_site_fract_x
 _atom_site_fract_y
 _atom_site_fract_z
 _atom_site_occupancy
  Tm  Tm0  1  0.874116  0.540660  0.250000  1
  Tm  Tm1  1  0.625446  0.039415  0.250000  1
  Lu  Lu2  1  0.339428  0.675717  0.062115  1
  Lu  Lu3  1  0.157894  0.175277  0.438304  1
  Lu  Lu4  1  0.658958  0.325450  0.562806  1
  Lu  Lu5  1  0.841122  0.824756  0.937570  1
  Lu  Lu6  1  0.658958  0.325450  0.937194  1
  Lu  Lu7  1  0.841122  0.824756  0.562430  1
  Lu  Lu8  1  0.339428  0.675717  0.437885  1
  Lu  Lu9  1  0.157894  0.175277  0.061696  1
  Lu  Lu10  1  0.130171  0.457857  0.750000  1
  Lu  Lu11  1  0.374968  0.958150  0.750000  1
  Tc  Tc12  1  0.041643  0.883160  0.250000  1
  Tc  Tc13  1  0.459493  0.384502  0.250000  1
  Tc  Tc14  1  0.959834  0.116663  0.750000  1
  Ru  Ru15  1  0.539524  0.617192  0.750000  1
