# generated using pymatgen
data_Ho6S5
_symmetry_space_group_name_H-M   'P 1'
_cell_length_a   6.69330897
_cell_length_b   6.69292242
_cell_length_c   6.67980300
_cell_angle_alpha   99.73683133
_cell_angle_beta   80.41324589
_cell_angle_gamma   60.08641653
_symmetry_Int_Tables_number   1
_chemical_formula_structural   Ho6S5
_chemical_formula_sum   'Ho6 S5'
_cell_volume   244.36687151
_cell_formula_units_Z   1
loop_
 _symmetry_equiv_pos_site_id
 _symmetry_equiv_pos_as_xyz
  1  'x, y, z'
loop_
 _atom_site_type_symbol
 _atom_site_label
 _atom_site_symmetry_multiplicity
 _atom_site_fract_x
 _atom_site_fract_y
 _atom_site_fract_z
 _atom_site_occupancy
  Ho  Ho0  1  0.732084  0.131722  0.238039  1
  Ho  Ho1  1  0.068154  0.467882  0.237681  1
  Ho  Ho2  1  0.231196  0.632598  0.737509  1
  Ho  Ho3  1  0.398406  0.801656  0.234593  1
  Ho  Ho4  1  0.567375  0.968821  0.737122  1
  Ho  Ho5  1  0.900694  0.299133  0.740290  1
  S  S6  1  0.149581  0.050388  0.987359  1
  S  S7  1  0.480460  0.381116  0.987911  1
  S  S8  1  0.315194  0.216054  0.487537  1
  S  S9  1  0.818831  0.719512  0.987411  1
  S  S10  1  0.984273  0.884381  0.487583  1
