# generated using pymatgen
data_HoLu3(ScPt)4
_symmetry_space_group_name_H-M   'P 1'
_cell_length_a   4.60402700
_cell_length_b   6.90420251
_cell_length_c   8.33663546
_cell_angle_alpha   90.09237593
_cell_angle_beta   90.00000000
_cell_angle_gamma   90.00000000
_symmetry_Int_Tables_number   1
_chemical_formula_structural   HoLu3(ScPt)4
_chemical_formula_sum   'Ho1 Lu3 Sc4 Pt4'
_cell_volume   264.99741023
_cell_formula_units_Z   1
loop_
 _symmetry_equiv_pos_site_id
 _symmetry_equiv_pos_as_xyz
  1  'x, y, z'
loop_
 _atom_site_type_symbol
 _atom_site_label
 _atom_site_symmetry_multiplicity
 _atom_site_fract_x
 _atom_site_fract_y
 _atom_site_fract_z
 _atom_site_occupancy
  Ho  Ho0  1  0.750000  0.517029  0.824158  1
  Lu  Lu1  1  0.250000  0.981687  0.324607  1
  Lu  Lu2  1  0.750000  0.017056  0.674164  1
  Lu  Lu3  1  0.250000  0.483035  0.176154  1
  Sc  Sc4  1  0.750000  0.642283  0.425956  1
  Sc  Sc5  1  0.250000  0.356263  0.571209  1
  Sc  Sc6  1  0.750000  0.143008  0.074066  1
  Sc  Sc7  1  0.250000  0.858960  0.926809  1
  Pt  Pt8  1  0.250000  0.247342  0.902286  1
  Pt  Pt9  1  0.750000  0.753509  0.101578  1
  Pt  Pt10  1  0.250000  0.748690  0.598201  1
  Pt  Pt11  1  0.750000  0.251139  0.400811  1
