# generated using pymatgen
data_Hf9Re3MoAs
_symmetry_space_group_name_H-M   'P 1'
_cell_length_a   8.61847400
_cell_length_b   8.62376756
_cell_length_c   8.68073100
_cell_angle_alpha   90.00000000
_cell_angle_beta   90.00000000
_cell_angle_gamma   120.02031957
_symmetry_Int_Tables_number   1
_chemical_formula_structural   Hf9Re3MoAs
_chemical_formula_sum   'Hf18 Re6 Mo2 As2'
_cell_volume   558.63145869
_cell_formula_units_Z   2
loop_
 _symmetry_equiv_pos_site_id
 _symmetry_equiv_pos_as_xyz
  1  'x, y, z'
loop_
 _atom_site_type_symbol
 _atom_site_label
 _atom_site_symmetry_multiplicity
 _atom_site_fract_x
 _atom_site_fract_y
 _atom_site_fract_z
 _atom_site_occupancy
  Hf  Hf0  1  0.194544  0.806201  0.455547  1
  Hf  Hf1  1  0.194544  0.388342  0.455547  1
  Hf  Hf2  1  0.610935  0.805468  0.456469  1
  Hf  Hf3  1  0.806551  0.193226  0.548249  1
  Hf  Hf4  1  0.806551  0.613327  0.548249  1
  Hf  Hf5  1  0.386074  0.193037  0.547352  1
  Hf  Hf6  1  0.806551  0.193226  0.951751  1
  Hf  Hf7  1  0.806551  0.613327  0.951751  1
  Hf  Hf8  1  0.386074  0.193037  0.952648  1
  Hf  Hf9  1  0.194544  0.806201  0.044453  1
  Hf  Hf10  1  0.194544  0.388342  0.044453  1
  Hf  Hf11  1  0.610935  0.805468  0.043531  1
  Hf  Hf12  1  0.539495  0.458971  0.250000  1
  Hf  Hf13  1  0.539495  0.080524  0.250000  1
  Hf  Hf14  1  0.920256  0.460128  0.250000  1
  Hf  Hf15  1  0.457962  0.541260  0.750000  1
  Hf  Hf16  1  0.457962  0.916703  0.750000  1
  Hf  Hf17  1  0.083089  0.541545  0.750000  1
  Re  Re18  1  0.220005  0.110002  0.250000  1
  Re  Re19  1  0.109700  0.890767  0.750000  1
  Re  Re20  1  0.109700  0.218935  0.750000  1
  Re  Re21  1  0.781226  0.890614  0.750000  1
  Re  Re22  1  0.000345  0.000172  0.501230  1
  Re  Re23  1  0.000345  0.000172  0.998770  1
  Mo  Mo24  1  0.891625  0.108329  0.250000  1
  Mo  Mo25  1  0.891625  0.783295  0.250000  1
  As  As26  1  0.332615  0.666307  0.250000  1
  As  As27  1  0.666159  0.333079  0.750000  1
