# generated using pymatgen
data_YbPa(Al3Ir)3
_symmetry_space_group_name_H-M   'P 1'
_cell_length_a   7.59736128
_cell_length_b   7.61398473
_cell_length_c   9.39053700
_cell_angle_alpha   90.00000000
_cell_angle_beta   90.00000000
_cell_angle_gamma   119.55924654
_symmetry_Int_Tables_number   1
_chemical_formula_structural   YbPa(Al3Ir)3
_chemical_formula_sum   'Yb2 Pa2 Al18 Ir6'
_cell_volume   472.50629656
_cell_formula_units_Z   2
loop_
 _symmetry_equiv_pos_site_id
 _symmetry_equiv_pos_as_xyz
  1  'x, y, z'
loop_
 _atom_site_type_symbol
 _atom_site_label
 _atom_site_symmetry_multiplicity
 _atom_site_fract_x
 _atom_site_fract_y
 _atom_site_fract_z
 _atom_site_occupancy
  Yb  Yb0  1  0.670431  0.993974  0.250000  1
  Yb  Yb1  1  0.329569  0.006026  0.750000  1
  Pa  Pa2  1  0.999669  0.672692  0.250000  1
  Pa  Pa3  1  0.000331  0.327308  0.750000  1
  Al  Al4  1  0.132161  0.126483  0.250000  1
  Al  Al5  1  0.867839  0.873517  0.750000  1
  Al  Al6  1  0.000332  0.330811  0.079749  1
  Al  Al7  1  0.999668  0.669189  0.920251  1
  Al  Al8  1  0.999668  0.669189  0.579749  1
  Al  Al9  1  0.340159  0.004236  0.425962  1
  Al  Al10  1  0.000332  0.330811  0.420251  1
  Al  Al11  1  0.659841  0.995764  0.574038  1
  Al  Al12  1  0.659841  0.995764  0.925962  1
  Al  Al13  1  0.340159  0.004236  0.074038  1
  Al  Al14  1  0.335036  0.333057  0.552964  1
  Al  Al15  1  0.664964  0.666943  0.447036  1
  Al  Al16  1  0.664964  0.666943  0.052964  1
  Al  Al17  1  0.335036  0.333057  0.947036  1
  Al  Al18  1  0.339779  0.546770  0.250000  1
  Al  Al19  1  0.660221  0.453230  0.750000  1
  Al  Al20  1  0.550363  0.343125  0.250000  1
  Al  Al21  1  0.449637  0.656875  0.750000  1
  Ir  Ir22  1  0.677332  0.332036  0.999126  1
  Ir  Ir23  1  0.322668  0.667964  0.000874  1
  Ir  Ir24  1  0.322668  0.667964  0.499126  1
  Ir  Ir25  1  0.677332  0.332036  0.500874  1
  Ir  Ir26  1  0.000000  0.000000  0.000000  1
  Ir  Ir27  1  0.000000  0.000000  0.500000  1
