# generated using pymatgen
data_Nd3In3SnHgRh
_symmetry_space_group_name_H-M   'P 1'
_cell_length_a   7.70958100
_cell_length_b   7.70958125
_cell_length_c   4.51083400
_cell_angle_alpha   90.00000000
_cell_angle_beta   90.00000000
_cell_angle_gamma   120.00000321
_symmetry_Int_Tables_number   1
_chemical_formula_structural   Nd3In3SnHgRh
_chemical_formula_sum   'Nd3 In3 Sn1 Hg1 Rh1'
_cell_volume   232.19294952
_cell_formula_units_Z   1
loop_
 _symmetry_equiv_pos_site_id
 _symmetry_equiv_pos_as_xyz
  1  'x, y, z'
loop_
 _atom_site_type_symbol
 _atom_site_label
 _atom_site_symmetry_multiplicity
 _atom_site_fract_x
 _atom_site_fract_y
 _atom_site_fract_z
 _atom_site_occupancy
  Nd  Nd0  1  0.608332  0.000978  0.500000  1
  Nd  Nd1  1  0.392645  0.391668  0.500000  1
  Nd  Nd2  1  0.999022  0.607355  0.500000  1
  In  In3  1  0.238481  0.007750  0.000000  1
  In  In4  1  0.769269  0.761519  0.000000  1
  In  In5  1  0.992250  0.230731  0.000000  1
  Sn  Sn6  1  0.333333  0.666667  0.000000  1
  Hg  Hg7  1  0.666667  0.333333  0.000000  1
  Rh  Rh8  1  0.000000  0.000000  0.500000  1
