# generated using pymatgen
data_Li4CePr3As8
_symmetry_space_group_name_H-M   'P 1'
_cell_length_a   3.97555200
_cell_length_b   4.01437501
_cell_length_c   21.40746400
_cell_angle_alpha   89.95938003
_cell_angle_beta   90.00000000
_cell_angle_gamma   90.00000000
_symmetry_Int_Tables_number   1
_chemical_formula_structural   Li4CePr3As8
_chemical_formula_sum   'Li4 Ce1 Pr3 As8'
_cell_volume   341.64926591
_cell_formula_units_Z   1
loop_
 _symmetry_equiv_pos_site_id
 _symmetry_equiv_pos_as_xyz
  1  'x, y, z'
loop_
 _atom_site_type_symbol
 _atom_site_label
 _atom_site_symmetry_multiplicity
 _atom_site_fract_x
 _atom_site_fract_y
 _atom_site_fract_z
 _atom_site_occupancy
  Li  Li0  1  0.750000  0.727362  0.248720  1
  Li  Li1  1  0.250000  0.227492  0.249050  1
  Li  Li2  1  0.750000  0.771742  0.751135  1
  Li  Li3  1  0.250000  0.271626  0.751447  1
  Ce  Ce4  1  0.750000  0.268022  0.885361  1
  Pr  Pr5  1  0.250000  0.732567  0.113724  1
  Pr  Pr6  1  0.750000  0.230122  0.383530  1
  Pr  Pr7  1  0.250000  0.769262  0.616607  1
  As  As8  1  0.750000  0.228963  0.169631  1
  As  As9  1  0.250000  0.727634  0.328002  1
  As  As10  1  0.750000  0.271779  0.674511  1
  As  As11  1  0.250000  0.770001  0.833284  1
  As  As12  1  0.250000  0.231338  0.997135  1
  As  As13  1  0.750000  0.714944  0.499730  1
  As  As14  1  0.250000  0.283880  0.501923  1
  As  As15  1  0.750000  0.773264  0.996208  1
