# generated using pymatgen
data_LaTb15CdNi4Hg3
_symmetry_space_group_name_H-M   'P 1'
_cell_length_a   9.57510340
_cell_length_b   9.58380783
_cell_length_c   9.58380715
_cell_angle_alpha   60.18572763
_cell_angle_beta   60.12554127
_cell_angle_gamma   60.12553912
_symmetry_Int_Tables_number   1
_chemical_formula_structural   LaTb15CdNi4Hg3
_chemical_formula_sum   'La1 Tb15 Cd1 Ni4 Hg3'
_cell_volume   623.92778141
_cell_formula_units_Z   1
loop_
 _symmetry_equiv_pos_site_id
 _symmetry_equiv_pos_as_xyz
  1  'x, y, z'
loop_
 _atom_site_type_symbol
 _atom_site_label
 _atom_site_symmetry_multiplicity
 _atom_site_fract_x
 _atom_site_fract_y
 _atom_site_fract_z
 _atom_site_occupancy
  La  La0  1  0.344987  0.345397  0.345397  1
  Tb  Tb1  1  0.350913  0.349899  0.946601  1
  Tb  Tb2  1  0.350913  0.946601  0.349899  1
  Tb  Tb3  1  0.943943  0.351273  0.351273  1
  Tb  Tb4  1  0.813090  0.190054  0.190054  1
  Tb  Tb5  1  0.189846  0.812000  0.812000  1
  Tb  Tb6  1  0.188128  0.814488  0.189415  1
  Tb  Tb7  1  0.811048  0.191255  0.811612  1
  Tb  Tb8  1  0.188128  0.189415  0.814488  1
  Tb  Tb9  1  0.811048  0.811612  0.191255  1
  Tb  Tb10  1  0.936653  0.564878  0.564878  1
  Tb  Tb11  1  0.562676  0.937176  0.937176  1
  Tb  Tb12  1  0.563736  0.937841  0.564712  1
  Tb  Tb13  1  0.936706  0.563500  0.936966  1
  Tb  Tb14  1  0.563736  0.564712  0.937841  1
  Tb  Tb15  1  0.936706  0.936966  0.563500  1
  Cd  Cd16  1  0.259687  0.581052  0.581052  1
  Ni  Ni17  1  0.143274  0.143773  0.143773  1
  Ni  Ni18  1  0.137893  0.138108  0.574655  1
  Ni  Ni19  1  0.137893  0.574655  0.138108  1
  Ni  Ni20  1  0.573888  0.139124  0.139124  1
  Hg  Hg21  1  0.583736  0.585011  0.585011  1
  Hg  Hg22  1  0.585684  0.587127  0.244083  1
  Hg  Hg23  1  0.585684  0.244083  0.587127  1
