# generated using pymatgen
data_Er7TmSc11Si16Rh
_symmetry_space_group_name_H-M   'P 1'
_cell_length_a   6.95770001
_cell_length_b   7.37868726
_cell_length_c   13.85350202
_cell_angle_alpha   89.99431494
_cell_angle_beta   90.00301648
_cell_angle_gamma   89.90762496
_symmetry_Int_Tables_number   1
_chemical_formula_structural   Er7TmSc11Si16Rh
_chemical_formula_sum   'Er7 Tm1 Sc11 Si16 Rh1'
_cell_volume   711.21974948
_cell_formula_units_Z   1
loop_
 _symmetry_equiv_pos_site_id
 _symmetry_equiv_pos_as_xyz
  1  'x, y, z'
loop_
 _atom_site_type_symbol
 _atom_site_label
 _atom_site_symmetry_multiplicity
 _atom_site_fract_x
 _atom_site_fract_y
 _atom_site_fract_z
 _atom_site_occupancy
  Er  Er0  1  0.012211  0.179230  0.093310  1
  Er  Er1  1  0.990748  0.814330  0.902308  1
  Er  Er2  1  0.489318  0.674701  0.903107  1
  Er  Er3  1  0.990733  0.814300  0.597669  1
  Er  Er4  1  0.509974  0.322058  0.093948  1
  Er  Er5  1  0.012207  0.179221  0.406696  1
  Er  Er6  1  0.509973  0.322064  0.406072  1
  Tm  Tm7  1  0.489294  0.674725  0.596948  1
  Sc  Sc8  1  0.840729  0.496312  0.250003  1
  Sc  Sc9  1  0.342176  0.005150  0.250004  1
  Sc  Sc10  1  0.653550  0.996785  0.749983  1
  Sc  Sc11  1  0.321734  0.176693  0.628198  1
  Sc  Sc12  1  0.672297  0.825162  0.374265  1
  Sc  Sc13  1  0.173148  0.673675  0.376011  1
  Sc  Sc14  1  0.672300  0.825182  0.125752  1
  Sc  Sc15  1  0.831026  0.328690  0.629548  1
  Sc  Sc16  1  0.321720  0.176676  0.871802  1
  Sc  Sc17  1  0.831065  0.328659  0.870433  1
  Sc  Sc18  1  0.173148  0.673668  0.124004  1
  Si  Si19  1  0.023969  0.094322  0.749994  1
  Si  Si20  1  0.973317  0.889490  0.250002  1
  Si  Si21  1  0.469750  0.612574  0.250008  1
  Si  Si22  1  0.517121  0.396449  0.749963  1
  Si  Si23  1  0.282814  0.861509  0.749953  1
  Si  Si24  1  0.716269  0.132258  0.250002  1
  Si  Si25  1  0.215085  0.369595  0.249999  1
  Si  Si26  1  0.791876  0.629963  0.749960  1
  Si  Si27  1  0.161329  0.464225  0.542483  1
  Si  Si28  1  0.841833  0.534821  0.463655  1
  Si  Si29  1  0.343613  0.964786  0.463211  1
  Si  Si30  1  0.841870  0.534803  0.036358  1
  Si  Si31  1  0.659557  0.034509  0.540109  1
  Si  Si32  1  0.161193  0.464149  0.957542  1
  Si  Si33  1  0.659595  0.034602  0.959906  1
  Si  Si34  1  0.343585  0.964863  0.036815  1
  Rh  Rh35  1  0.159876  0.529802  0.749980  1
