# generated using pymatgen
data_PrNb6SnSe12
_symmetry_space_group_name_H-M   'P 1'
_cell_length_a   6.11784500
_cell_length_b   6.11784422
_cell_length_c   15.08466800
_cell_angle_alpha   90.00000000
_cell_angle_beta   90.00000000
_cell_angle_gamma   120.00000961
_symmetry_Int_Tables_number   1
_chemical_formula_structural   PrNb6SnSe12
_chemical_formula_sum   'Pr1 Nb6 Sn1 Se12'
_cell_volume   488.94862581
_cell_formula_units_Z   1
loop_
 _symmetry_equiv_pos_site_id
 _symmetry_equiv_pos_as_xyz
  1  'x, y, z'
loop_
 _atom_site_type_symbol
 _atom_site_label
 _atom_site_symmetry_multiplicity
 _atom_site_fract_x
 _atom_site_fract_y
 _atom_site_fract_z
 _atom_site_occupancy
  Pr  Pr0  1  0.000000  0.000000  0.500000  1
  Nb  Nb1  1  0.333333  0.666667  0.249552  1
  Nb  Nb2  1  0.666667  0.333333  0.750448  1
  Nb  Nb3  1  0.666667  0.333333  0.249552  1
  Nb  Nb4  1  0.333333  0.666667  0.750448  1
  Nb  Nb5  1  0.000000  0.000000  0.251603  1
  Nb  Nb6  1  0.000000  0.000000  0.748397  1
  Sn  Sn7  1  0.000000  0.000000  0.000000  1
  Se  Se8  1  0.335570  0.000000  0.140446  1
  Se  Se9  1  0.000000  0.335570  0.140446  1
  Se  Se10  1  0.664430  0.664430  0.140446  1
  Se  Se11  1  0.341050  0.341050  0.639390  1
  Se  Se12  1  0.658950  0.658950  0.360610  1
  Se  Se13  1  0.658950  0.000000  0.639390  1
  Se  Se14  1  0.000000  0.658950  0.639390  1
  Se  Se15  1  0.000000  0.664430  0.859554  1
  Se  Se16  1  0.335570  0.335570  0.859554  1
  Se  Se17  1  0.000000  0.341050  0.360610  1
  Se  Se18  1  0.341050  0.000000  0.360610  1
  Se  Se19  1  0.664430  0.000000  0.859554  1
