# generated using pymatgen
data_V12Sn4N
_symmetry_space_group_name_H-M   'P 1'
_cell_length_a   5.96871100
_cell_length_b   4.46622195
_cell_length_c   9.45586160
_cell_angle_alpha   88.19402706
_cell_angle_beta   90.00000000
_cell_angle_gamma   90.00000000
_symmetry_Int_Tables_number   1
_chemical_formula_structural   V12Sn4N
_chemical_formula_sum   'V12 Sn4 N1'
_cell_volume   251.94525520
_cell_formula_units_Z   1
loop_
 _symmetry_equiv_pos_site_id
 _symmetry_equiv_pos_as_xyz
  1  'x, y, z'
loop_
 _atom_site_type_symbol
 _atom_site_label
 _atom_site_symmetry_multiplicity
 _atom_site_fract_x
 _atom_site_fract_y
 _atom_site_fract_z
 _atom_site_occupancy
  V  V0  1  0.000000  0.780142  0.156059  1
  V  V1  1  0.500000  0.752693  0.626985  1
  V  V2  1  0.731771  0.758194  0.408750  1
  V  V3  1  0.231860  0.759278  0.908698  1
  V  V4  1  0.268229  0.758194  0.408750  1
  V  V5  1  0.768140  0.759278  0.908698  1
  V  V6  1  0.500000  0.247307  0.373015  1
  V  V7  1  0.000000  0.219858  0.843941  1
  V  V8  1  0.768140  0.240722  0.091302  1
  V  V9  1  0.268229  0.241806  0.591250  1
  V  V10  1  0.231860  0.240722  0.091302  1
  V  V11  1  0.731771  0.241806  0.591250  1
  Sn  Sn12  1  0.500000  0.739775  0.158228  1
  Sn  Sn13  1  0.000000  0.737616  0.652661  1
  Sn  Sn14  1  0.000000  0.262384  0.347339  1
  Sn  Sn15  1  0.500000  0.260225  0.841771  1
  N  N16  1  0.000000  0.500000  0.000000  1
