# generated using pymatgen
data_Tb3HoGaCo4
_symmetry_space_group_name_H-M   'P 1'
_cell_length_a   5.47074478
_cell_length_b   5.47074510
_cell_length_c   8.89724257
_cell_angle_alpha   109.08680930
_cell_angle_beta   109.08681029
_cell_angle_gamma   43.41406119
_symmetry_Int_Tables_number   1
_chemical_formula_structural   Tb3HoGaCo4
_chemical_formula_sum   'Tb3 Ho1 Ga1 Co4'
_cell_volume   171.29952111
_cell_formula_units_Z   1
loop_
 _symmetry_equiv_pos_site_id
 _symmetry_equiv_pos_as_xyz
  1  'x, y, z'
loop_
 _atom_site_type_symbol
 _atom_site_label
 _atom_site_symmetry_multiplicity
 _atom_site_fract_x
 _atom_site_fract_y
 _atom_site_fract_z
 _atom_site_occupancy
  Tb  Tb0  1  0.746047  0.746047  0.338096  1
  Tb  Tb1  1  0.254105  0.254105  0.661356  1
  Tb  Tb2  1  0.609299  0.609299  0.885443  1
  Ho  Ho3  1  0.391994  0.391994  0.115627  1
  Ga  Ga4  1  0.499881  0.499881  0.499562  1
  Co  Co5  1  0.092212  0.092212  0.120352  1
  Co  Co6  1  0.036135  0.036135  0.353948  1
  Co  Co7  1  0.963026  0.963026  0.645236  1
  Co  Co8  1  0.907301  0.907301  0.880378  1
