# generated using pymatgen
data_ErIn(SbO4)2
_symmetry_space_group_name_H-M   'P 1'
_cell_length_a   5.33980340
_cell_length_b   7.53122509
_cell_length_c   7.60651359
_cell_angle_alpha   80.51000396
_cell_angle_beta   92.48769768
_cell_angle_gamma   88.43658191
_symmetry_Int_Tables_number   1
_chemical_formula_structural   ErIn(SbO4)2
_chemical_formula_sum   'Er2 In2 Sb4 O16'
_cell_volume   301.24303342
_cell_formula_units_Z   2
loop_
 _symmetry_equiv_pos_site_id
 _symmetry_equiv_pos_as_xyz
  1  'x, y, z'
loop_
 _atom_site_type_symbol
 _atom_site_label
 _atom_site_symmetry_multiplicity
 _atom_site_fract_x
 _atom_site_fract_y
 _atom_site_fract_z
 _atom_site_occupancy
  Er  Er0  1  0.255154  0.620145  0.128151  1
  Er  Er1  1  0.744846  0.379855  0.871849  1
  In  In2  1  0.777143  0.870529  0.831188  1
  In  In3  1  0.222857  0.129471  0.168812  1
  Sb  Sb4  1  0.747852  0.811127  0.325720  1
  Sb  Sb5  1  0.252148  0.188873  0.674280  1
  Sb  Sb6  1  0.272877  0.688800  0.659470  1
  Sb  Sb7  1  0.727123  0.311200  0.340530  1
  O  O8  1  0.430535  0.886415  0.187623  1
  O  O9  1  0.569465  0.113585  0.812377  1
  O  O10  1  0.005427  0.612768  0.826778  1
  O  O11  1  0.994573  0.387232  0.173222  1
  O  O12  1  0.925357  0.811653  0.101008  1
  O  O13  1  0.074643  0.188347  0.898992  1
  O  O14  1  0.489947  0.672678  0.887389  1
  O  O15  1  0.510053  0.327322  0.112611  1
  O  O16  1  0.596413  0.565377  0.325814  1
  O  O17  1  0.403587  0.434623  0.674186  1
  O  O18  1  0.122448  0.938418  0.679061  1
  O  O19  1  0.877552  0.061582  0.320939  1
  O  O20  1  0.591982  0.807297  0.563205  1
  O  O21  1  0.408018  0.192703  0.436795  1
  O  O22  1  0.080196  0.689286  0.429090  1
  O  O23  1  0.919804  0.310714  0.570910  1
