# generated using pymatgen
data_Mg2ZnIn9Co4
_symmetry_space_group_name_H-M   'P 1'
_cell_length_a   6.96482550
_cell_length_b   6.74690135
_cell_length_c   6.90834900
_cell_angle_alpha   90.00000000
_cell_angle_beta   90.00000000
_cell_angle_gamma   90.39599707
_symmetry_Int_Tables_number   1
_chemical_formula_structural   Mg2ZnIn9Co4
_chemical_formula_sum   'Mg2 Zn1 In9 Co4'
_cell_volume   324.62240952
_cell_formula_units_Z   1
loop_
 _symmetry_equiv_pos_site_id
 _symmetry_equiv_pos_as_xyz
  1  'x, y, z'
loop_
 _atom_site_type_symbol
 _atom_site_label
 _atom_site_symmetry_multiplicity
 _atom_site_fract_x
 _atom_site_fract_y
 _atom_site_fract_z
 _atom_site_occupancy
  Mg  Mg0  1  0.000000  0.500000  0.000000  1
  Mg  Mg1  1  0.500000  0.000000  0.500000  1
  Zn  Zn2  1  0.000000  0.500000  0.500000  1
  In  In3  1  0.500000  0.000000  0.000000  1
  In  In4  1  0.157736  0.166855  0.264578  1
  In  In5  1  0.333311  0.651586  0.754048  1
  In  In6  1  0.666689  0.348414  0.754048  1
  In  In7  1  0.666689  0.348414  0.245952  1
  In  In8  1  0.333311  0.651586  0.245952  1
  In  In9  1  0.842264  0.833145  0.264578  1
  In  In10  1  0.157736  0.166855  0.735422  1
  In  In11  1  0.842264  0.833145  0.735422  1
  Co  Co12  1  0.355929  0.351306  0.000000  1
  Co  Co13  1  0.142921  0.849241  0.500000  1
  Co  Co14  1  0.857079  0.150759  0.500000  1
  Co  Co15  1  0.644071  0.648694  0.000000  1
