# generated using pymatgen
data_La3Tb4ThTe12
_symmetry_space_group_name_H-M   'P 1'
_cell_length_a   4.43130600
_cell_length_b   11.90015201
_cell_length_c   12.21424406
_cell_angle_alpha   89.95254458
_cell_angle_beta   90.00000000
_cell_angle_gamma   90.00000000
_symmetry_Int_Tables_number   1
_chemical_formula_structural   La3Tb4ThTe12
_chemical_formula_sum   'La3 Tb4 Th1 Te12'
_cell_volume   644.09613709
_cell_formula_units_Z   1
loop_
 _symmetry_equiv_pos_site_id
 _symmetry_equiv_pos_as_xyz
  1  'x, y, z'
loop_
 _atom_site_type_symbol
 _atom_site_label
 _atom_site_symmetry_multiplicity
 _atom_site_fract_x
 _atom_site_fract_y
 _atom_site_fract_z
 _atom_site_occupancy
  La  La0  1  0.750000  0.996676  0.197740  1
  La  La1  1  0.250000  0.493750  0.300138  1
  La  La2  1  0.250000  0.999482  0.803325  1
  Tb  Tb3  1  0.250000  0.187454  0.485369  1
  Tb  Tb4  1  0.250000  0.309570  0.985372  1
  Tb  Tb5  1  0.750000  0.812263  0.513640  1
  Tb  Tb6  1  0.750000  0.689943  0.016784  1
  Th  Th7  1  0.750000  0.510099  0.697438  1
  Te  Te8  1  0.250000  0.626983  0.542760  1
  Te  Te9  1  0.250000  0.869700  0.042560  1
  Te  Te10  1  0.750000  0.372567  0.463551  1
  Te  Te11  1  0.750000  0.129514  0.955516  1
  Te  Te12  1  0.250000  0.308062  0.723947  1
  Te  Te13  1  0.250000  0.204353  0.229899  1
  Te  Te14  1  0.750000  0.700453  0.273658  1
  Te  Te15  1  0.750000  0.790452  0.769569  1
  Te  Te16  1  0.750000  0.055830  0.614810  1
  Te  Te17  1  0.750000  0.445036  0.110143  1
  Te  Te18  1  0.250000  0.944228  0.387311  1
  Te  Te19  1  0.250000  0.553585  0.886467  1
