# generated using pymatgen
data_ThFeI
_symmetry_space_group_name_H-M   'P 1'
_cell_length_a   4.04786100
_cell_length_b   4.04786259
_cell_length_c   12.39386600
_cell_angle_alpha   90.00000000
_cell_angle_beta   90.00000000
_cell_angle_gamma   119.99999521
_symmetry_Int_Tables_number   1
_chemical_formula_structural   ThFeI
_chemical_formula_sum   'Th2 Fe2 I2'
_cell_volume   175.86880020
_cell_formula_units_Z   2
loop_
 _symmetry_equiv_pos_site_id
 _symmetry_equiv_pos_as_xyz
  1  'x, y, z'
loop_
 _atom_site_type_symbol
 _atom_site_label
 _atom_site_symmetry_multiplicity
 _atom_site_fract_x
 _atom_site_fract_y
 _atom_site_fract_z
 _atom_site_occupancy
  Th  Th0  1  0.000000  0.000000  0.847214  1
  Th  Th1  1  0.000000  0.000000  0.152786  1
  Fe  Fe2  1  0.333333  0.666667  0.998352  1
  Fe  Fe3  1  0.666667  0.333333  0.001648  1
  I  I4  1  0.333333  0.666667  0.343505  1
  I  I5  1  0.666667  0.333333  0.656495  1
