# generated using pymatgen
data_Cs5CrFe2S7
_symmetry_space_group_name_H-M   'P 1'
_cell_length_a   10.70174852
_cell_length_b   10.70174880
_cell_length_c   9.12196300
_cell_angle_alpha   78.52352810
_cell_angle_beta   78.52352779
_cell_angle_gamma   73.10968848
_symmetry_Int_Tables_number   1
_chemical_formula_structural   Cs5CrFe2S7
_chemical_formula_sum   'Cs10 Cr2 Fe4 S14'
_cell_volume   968.49926922
_cell_formula_units_Z   2
loop_
 _symmetry_equiv_pos_site_id
 _symmetry_equiv_pos_as_xyz
  1  'x, y, z'
loop_
 _atom_site_type_symbol
 _atom_site_label
 _atom_site_symmetry_multiplicity
 _atom_site_fract_x
 _atom_site_fract_y
 _atom_site_fract_z
 _atom_site_occupancy
  Cs  Cs0  1  0.038264  0.421656  0.725697  1
  Cs  Cs1  1  0.421656  0.038264  0.725697  1
  Cs  Cs2  1  0.961736  0.578344  0.274303  1
  Cs  Cs3  1  0.578344  0.961736  0.274303  1
  Cs  Cs4  1  0.287984  0.712016  0.000000  1
  Cs  Cs5  1  0.712016  0.287984  0.000000  1
  Cs  Cs6  1  0.845846  0.154154  0.500000  1
  Cs  Cs7  1  0.154154  0.845846  0.500000  1
  Cs  Cs8  1  0.429878  0.429878  0.692377  1
  Cs  Cs9  1  0.570122  0.570122  0.307623  1
  Cr  Cr10  1  0.205059  0.205059  0.187940  1
  Cr  Cr11  1  0.794941  0.794941  0.812060  1
  Fe  Fe12  1  0.072049  0.072049  0.062190  1
  Fe  Fe13  1  0.927951  0.927951  0.937810  1
  Fe  Fe14  1  0.335302  0.335302  0.327426  1
  Fe  Fe15  1  0.664698  0.664698  0.672574  1
  S  S16  1  0.006085  0.276622  0.124881  1
  S  S17  1  0.276622  0.006085  0.124881  1
  S  S18  1  0.993915  0.723378  0.875119  1
  S  S19  1  0.723378  0.993915  0.875119  1
  S  S20  1  0.199823  0.199823  0.429382  1
  S  S21  1  0.800177  0.800177  0.570618  1
  S  S22  1  0.058778  0.058778  0.825335  1
  S  S23  1  0.941222  0.941222  0.174665  1
  S  S24  1  0.334110  0.334110  0.077512  1
  S  S25  1  0.665890  0.665890  0.922488  1
  S  S26  1  0.251300  0.538737  0.391480  1
  S  S27  1  0.538737  0.251300  0.391480  1
  S  S28  1  0.748700  0.461263  0.608520  1
  S  S29  1  0.461263  0.748700  0.608520  1
