# generated using pymatgen
data_Cs2RbHg3F12
_symmetry_space_group_name_H-M   'P 1'
_cell_length_a   8.43328867
_cell_length_b   8.43328750
_cell_length_c   13.48899557
_cell_angle_alpha   73.05187223
_cell_angle_beta   73.05187413
_cell_angle_gamma   59.42872743
_symmetry_Int_Tables_number   1
_chemical_formula_structural   Cs2RbHg3F12
_chemical_formula_sum   'Cs4 Rb2 Hg6 F24'
_cell_volume   778.07532515
_cell_formula_units_Z   2
loop_
 _symmetry_equiv_pos_site_id
 _symmetry_equiv_pos_as_xyz
  1  'x, y, z'
loop_
 _atom_site_type_symbol
 _atom_site_label
 _atom_site_symmetry_multiplicity
 _atom_site_fract_x
 _atom_site_fract_y
 _atom_site_fract_z
 _atom_site_occupancy
  Cs  Cs0  1  0.896487  0.487545  0.687280  1
  Cs  Cs1  1  0.103513  0.512455  0.312720  1
  Cs  Cs2  1  0.512455  0.103513  0.812720  1
  Cs  Cs3  1  0.487545  0.896487  0.187280  1
  Rb  Rb4  1  0.229130  0.770870  0.750000  1
  Rb  Rb5  1  0.770870  0.229130  0.250000  1
  Hg  Hg6  1  0.500000  0.000000  0.500000  1
  Hg  Hg7  1  0.000000  0.500000  0.000000  1
  Hg  Hg8  1  0.000000  0.000000  0.500000  1
  Hg  Hg9  1  0.000000  0.000000  0.000000  1
  Hg  Hg10  1  0.500000  0.500000  0.500000  1
  Hg  Hg11  1  0.500000  0.500000  0.000000  1
  F  F12  1  0.869933  0.952303  0.655178  1
  F  F13  1  0.532773  0.868149  0.656083  1
  F  F14  1  0.260499  0.382373  0.047272  1
  F  F15  1  0.660766  0.212270  0.059742  1
  F  F16  1  0.868149  0.532773  0.156083  1
  F  F17  1  0.131851  0.467227  0.843917  1
  F  F18  1  0.467227  0.131851  0.343917  1
  F  F19  1  0.787730  0.339234  0.440258  1
  F  F20  1  0.130067  0.047697  0.344822  1
  F  F21  1  0.617627  0.739501  0.452728  1
  F  F22  1  0.435369  0.553931  0.151080  1
  F  F23  1  0.382373  0.260499  0.547272  1
  F  F24  1  0.553931  0.435369  0.651080  1
  F  F25  1  0.841278  0.930321  0.439930  1
  F  F26  1  0.158722  0.069679  0.560070  1
  F  F27  1  0.564631  0.446069  0.848920  1
  F  F28  1  0.930321  0.841278  0.939930  1
  F  F29  1  0.446069  0.564631  0.348920  1
  F  F30  1  0.739501  0.617627  0.952728  1
  F  F31  1  0.952303  0.869933  0.155178  1
  F  F32  1  0.069679  0.158722  0.060070  1
  F  F33  1  0.339234  0.787730  0.940258  1
  F  F34  1  0.047697  0.130067  0.844822  1
  F  F35  1  0.212270  0.660766  0.559742  1
