# generated using pymatgen
data_Dy2YHo3(GaCo3)2
_symmetry_space_group_name_H-M   'P 1'
_cell_length_a   5.36635748
_cell_length_b   5.36635734
_cell_length_c   12.85645903
_cell_angle_alpha   89.99280976
_cell_angle_beta   90.00719038
_cell_angle_gamma   134.59161871
_symmetry_Int_Tables_number   1
_chemical_formula_structural   Dy2YHo3(GaCo3)2
_chemical_formula_sum   'Dy2 Y1 Ho3 Ga2 Co6'
_cell_volume   263.65685912
_cell_formula_units_Z   1
loop_
 _symmetry_equiv_pos_site_id
 _symmetry_equiv_pos_as_xyz
  1  'x, y, z'
loop_
 _atom_site_type_symbol
 _atom_site_label
 _atom_site_symmetry_multiplicity
 _atom_site_fract_x
 _atom_site_fract_y
 _atom_site_fract_z
 _atom_site_occupancy
  Dy  Dy0  1  0.001065  0.998935  0.250136  1
  Dy  Dy1  1  0.998745  0.001255  0.749533  1
  Y  Y2  1  0.707633  0.292367  0.897404  1
  Ho  Ho3  1  0.707892  0.292108  0.602353  1
  Ho  Ho4  1  0.292217  0.707783  0.397511  1
  Ho  Ho5  1  0.292170  0.707830  0.103084  1
  Ga  Ga6  1  0.999807  0.000193  0.000216  1
  Ga  Ga7  1  0.000060  0.999940  0.499992  1
  Co  Co8  1  0.697630  0.302370  0.249970  1
  Co  Co9  1  0.302746  0.697254  0.749618  1
  Co  Co10  1  0.417821  0.582179  0.594401  1
  Co  Co11  1  0.582725  0.417275  0.404905  1
  Co  Co12  1  0.581897  0.418103  0.095659  1
  Co  Co13  1  0.417593  0.582407  0.905217  1
