# generated using pymatgen
data_Dy3Tm13(HgRh)4
_symmetry_space_group_name_H-M   'P 1'
_cell_length_a   9.50921595
_cell_length_b   9.49160462
_cell_length_c   9.50613204
_cell_angle_alpha   59.85751997
_cell_angle_beta   59.80906392
_cell_angle_gamma   59.79091053
_symmetry_Int_Tables_number   1
_chemical_formula_structural   Dy3Tm13(HgRh)4
_chemical_formula_sum   'Dy3 Tm13 Hg4 Rh4'
_cell_volume   604.20817003
_cell_formula_units_Z   1
loop_
 _symmetry_equiv_pos_site_id
 _symmetry_equiv_pos_as_xyz
  1  'x, y, z'
loop_
 _atom_site_type_symbol
 _atom_site_label
 _atom_site_symmetry_multiplicity
 _atom_site_fract_x
 _atom_site_fract_y
 _atom_site_fract_z
 _atom_site_occupancy
  Dy  Dy0  1  0.062611  0.062561  0.437980  1
  Dy  Dy1  1  0.437197  0.062033  0.436298  1
  Dy  Dy2  1  0.063391  0.437987  0.062411  1
  Tm  Tm3  1  0.055055  0.646881  0.647312  1
  Tm  Tm4  1  0.437539  0.437703  0.060961  1
  Tm  Tm5  1  0.646975  0.054489  0.647782  1
  Tm  Tm6  1  0.188661  0.812543  0.188109  1
  Tm  Tm7  1  0.188368  0.188307  0.812819  1
  Tm  Tm8  1  0.811691  0.811737  0.189875  1
  Tm  Tm9  1  0.438633  0.062686  0.061754  1
  Tm  Tm10  1  0.812452  0.188348  0.187925  1
  Tm  Tm11  1  0.061226  0.438482  0.437577  1
  Tm  Tm12  1  0.811190  0.189966  0.812016  1
  Tm  Tm13  1  0.190039  0.811461  0.812265  1
  Tm  Tm14  1  0.646822  0.647142  0.054940  1
  Tm  Tm15  1  0.649075  0.649106  0.649286  1
  Hg  Hg16  1  0.415100  0.417123  0.415437  1
  Hg  Hg17  1  0.754343  0.415868  0.416083  1
  Hg  Hg18  1  0.416047  0.754318  0.414627  1
  Hg  Hg19  1  0.415978  0.414361  0.755891  1
  Rh  Rh20  1  0.856250  0.855059  0.429786  1
  Rh  Rh21  1  0.855880  0.856896  0.856693  1
  Rh  Rh22  1  0.430036  0.855057  0.856488  1
  Rh  Rh23  1  0.855444  0.429885  0.855683  1
