# generated using pymatgen
data_Y2Ho5Lu3Pb8
_symmetry_space_group_name_H-M   'P 1'
_cell_length_a   8.15770900
_cell_length_b   8.23738201
_cell_length_c   15.57116200
_cell_angle_alpha   90.00235099
_cell_angle_beta   90.00000000
_cell_angle_gamma   90.00000000
_symmetry_Int_Tables_number   1
_chemical_formula_structural   Y2Ho5Lu3Pb8
_chemical_formula_sum   'Y4 Ho10 Lu6 Pb16'
_cell_volume   1046.35351764
_cell_formula_units_Z   2
loop_
 _symmetry_equiv_pos_site_id
 _symmetry_equiv_pos_as_xyz
  1  'x, y, z'
loop_
 _atom_site_type_symbol
 _atom_site_label
 _atom_site_symmetry_multiplicity
 _atom_site_fract_x
 _atom_site_fract_y
 _atom_site_fract_z
 _atom_site_occupancy
  Y  Y0  1  0.468545  0.678684  0.096667  1
  Y  Y1  1  0.968545  0.821316  0.403333  1
  Y  Y2  1  0.532999  0.325003  0.599461  1
  Y  Y3  1  0.032999  0.174997  0.900539  1
  Ho  Ho4  1  0.627003  0.156961  0.379747  1
  Ho  Ho5  1  0.127003  0.343039  0.120253  1
  Ho  Ho6  1  0.625128  0.158520  0.121641  1
  Ho  Ho7  1  0.125128  0.341480  0.378359  1
  Ho  Ho8  1  0.375020  0.842709  0.621557  1
  Ho  Ho9  1  0.875020  0.657291  0.878443  1
  Ho  Ho10  1  0.534165  0.323504  0.901101  1
  Ho  Ho11  1  0.034165  0.176496  0.598899  1
  Ho  Ho12  1  0.465559  0.676761  0.401689  1
  Ho  Ho13  1  0.965559  0.823239  0.098311  1
  Lu  Lu14  1  0.372411  0.844062  0.876324  1
  Lu  Lu15  1  0.872411  0.655938  0.623676  1
  Lu  Lu16  1  0.206033  0.505590  0.749945  1
  Lu  Lu17  1  0.706033  0.994410  0.750055  1
  Lu  Lu18  1  0.793973  0.495000  0.250662  1
  Lu  Lu19  1  0.293973  0.005000  0.249338  1
  Pb  Pb20  1  0.283727  0.033590  0.042029  1
  Pb  Pb21  1  0.783727  0.466410  0.457971  1
  Pb  Pb22  1  0.718684  0.962564  0.544469  1
  Pb  Pb23  1  0.218684  0.537436  0.955531  1
  Pb  Pb24  1  0.712339  0.963683  0.956299  1
  Pb  Pb25  1  0.212339  0.536317  0.543701  1
  Pb  Pb26  1  0.284683  0.034967  0.456430  1
  Pb  Pb27  1  0.784683  0.465033  0.043570  1
  Pb  Pb28  1  0.567910  0.626633  0.750541  1
  Pb  Pb29  1  0.067910  0.873367  0.749459  1
  Pb  Pb30  1  0.431474  0.374732  0.250628  1
  Pb  Pb31  1  0.931474  0.125268  0.249372  1
  Pb  Pb32  1  0.346756  0.156709  0.750299  1
  Pb  Pb33  1  0.846756  0.343291  0.749701  1
  Pb  Pb34  1  0.653590  0.843843  0.250424  1
  Pb  Pb35  1  0.153590  0.656157  0.249576  1
