# generated using pymatgen
data_HfSc6Ta5Os12
_symmetry_space_group_name_H-M   'P 1'
_cell_length_a   4.53069500
_cell_length_b   6.39121100
_cell_length_c   13.64374600
_cell_angle_alpha   90.00000000
_cell_angle_beta   89.99986963
_cell_angle_gamma   90.00000000
_symmetry_Int_Tables_number   1
_chemical_formula_structural   HfSc6Ta5Os12
_chemical_formula_sum   'Hf1 Sc6 Ta5 Os12'
_cell_volume   395.07687365
_cell_formula_units_Z   1
loop_
 _symmetry_equiv_pos_site_id
 _symmetry_equiv_pos_as_xyz
  1  'x, y, z'
loop_
 _atom_site_type_symbol
 _atom_site_label
 _atom_site_symmetry_multiplicity
 _atom_site_fract_x
 _atom_site_fract_y
 _atom_site_fract_z
 _atom_site_occupancy
  Hf  Hf0  1  0.000000  0.000000  0.000000  1
  Sc  Sc1  1  0.000000  0.500000  0.000000  1
  Sc  Sc2  1  0.499968  0.000000  0.166412  1
  Sc  Sc3  1  0.999975  0.500000  0.333465  1
  Sc  Sc4  1  0.499999  0.000000  0.500000  1
  Sc  Sc5  1  0.000025  0.500000  0.666535  1
  Sc  Sc6  1  0.500032  0.000000  0.833588  1
  Ta  Ta7  1  0.499977  0.500000  0.166566  1
  Ta  Ta8  1  0.999979  0.000000  0.333330  1
  Ta  Ta9  1  0.499999  0.500000  0.500000  1
  Ta  Ta10  1  0.000021  0.000000  0.666670  1
  Ta  Ta11  1  0.500023  0.500000  0.833434  1
  Os  Os12  1  0.500001  0.255513  0.000000  1
  Os  Os13  1  0.500001  0.744486  0.000000  1
  Os  Os14  1  0.999976  0.252512  0.169395  1
  Os  Os15  1  0.999976  0.747487  0.169395  1
  Os  Os16  1  0.499977  0.249701  0.333842  1
  Os  Os17  1  0.499977  0.750298  0.333842  1
  Os  Os18  1  0.000000  0.250075  0.500000  1
  Os  Os19  1  0.000000  0.749924  0.500000  1
  Os  Os20  1  0.500023  0.249701  0.666158  1
  Os  Os21  1  0.500023  0.750298  0.666158  1
  Os  Os22  1  0.000024  0.252512  0.830604  1
  Os  Os23  1  0.000024  0.747487  0.830604  1
