# generated using pymatgen
data_Gd17Tm3Ru7Au5
_symmetry_space_group_name_H-M   'P 1'
_cell_length_a   11.19890725
_cell_length_b   11.19876988
_cell_length_c   6.32972900
_cell_angle_alpha   89.96934339
_cell_angle_beta   89.98778253
_cell_angle_gamma   89.68403233
_symmetry_Int_Tables_number   1
_chemical_formula_structural   Gd17Tm3Ru7Au5
_chemical_formula_sum   'Gd17 Tm3 Ru7 Au5'
_cell_volume   793.82433751
_cell_formula_units_Z   1
loop_
 _symmetry_equiv_pos_site_id
 _symmetry_equiv_pos_as_xyz
  1  'x, y, z'
loop_
 _atom_site_type_symbol
 _atom_site_label
 _atom_site_symmetry_multiplicity
 _atom_site_fract_x
 _atom_site_fract_y
 _atom_site_fract_z
 _atom_site_occupancy
  Gd  Gd0  1  0.299035  0.089649  0.361317  1
  Gd  Gd1  1  0.301185  0.908383  0.860324  1
  Gd  Gd2  1  0.696006  0.080034  0.857142  1
  Gd  Gd3  1  0.698186  0.907151  0.356693  1
  Gd  Gd4  1  0.580220  0.782931  0.873236  1
  Gd  Gd5  1  0.574974  0.207750  0.360253  1
  Gd  Gd6  1  0.417450  0.788236  0.374617  1
  Gd  Gd7  1  0.410570  0.209598  0.876329  1
  Gd  Gd8  1  0.218198  0.418591  0.626650  1
  Gd  Gd9  1  0.212429  0.581414  0.126212  1
  Gd  Gd10  1  0.792964  0.425552  0.138741  1
  Gd  Gd11  1  0.790673  0.589759  0.623352  1
  Gd  Gd12  1  0.910689  0.700114  0.138758  1
  Gd  Gd13  1  0.920086  0.303559  0.643255  1
  Gd  Gd14  1  0.092778  0.698663  0.640947  1
  Gd  Gd15  1  0.093021  0.300967  0.143159  1
  Gd  Gd16  1  0.998675  0.000015  0.499104  1
  Tm  Tm17  1  0.999680  0.001381  0.000989  1
  Tm  Tm18  1  0.495827  0.502029  0.001897  1
  Tm  Tm19  1  0.498056  0.504644  0.496945  1
  Ru  Ru20  1  0.652565  0.649531  0.251076  1
  Ru  Ru21  1  0.351450  0.346931  0.250166  1
  Ru  Ru22  1  0.347879  0.651921  0.750068  1
  Ru  Ru23  1  0.499688  0.999676  0.112608  1
  Ru  Ru24  1  0.499258  0.000090  0.615664  1
  Ru  Ru25  1  0.000762  0.500122  0.884469  1
  Ru  Ru26  1  0.000546  0.499791  0.387680  1
  Au  Au27  1  0.842814  0.157018  0.245670  1
  Au  Au28  1  0.844279  0.847595  0.755071  1
  Au  Au29  1  0.153276  0.154850  0.752936  1
  Au  Au30  1  0.154106  0.844959  0.244989  1
  Au  Au31  1  0.652678  0.347093  0.749683  1
