# generated using pymatgen
data_Ho4V3TcB16
_symmetry_space_group_name_H-M   'P 1'
_cell_length_a   3.49523700
_cell_length_b   5.97837604
_cell_length_c   11.57128808
_cell_angle_alpha   90.01341803
_cell_angle_beta   90.00000000
_cell_angle_gamma   90.00000000
_symmetry_Int_Tables_number   1
_chemical_formula_structural   Ho4V3TcB16
_chemical_formula_sum   'Ho4 V3 Tc1 B16'
_cell_volume   241.79179084
_cell_formula_units_Z   1
loop_
 _symmetry_equiv_pos_site_id
 _symmetry_equiv_pos_as_xyz
  1  'x, y, z'
loop_
 _atom_site_type_symbol
 _atom_site_label
 _atom_site_symmetry_multiplicity
 _atom_site_fract_x
 _atom_site_fract_y
 _atom_site_fract_z
 _atom_site_occupancy
  Ho  Ho0  1  0.500000  0.123792  0.650183  1
  Ho  Ho1  1  0.500000  0.875562  0.348961  1
  Ho  Ho2  1  0.500000  0.626526  0.848244  1
  Ho  Ho3  1  0.500000  0.374686  0.151120  1
  V  V4  1  0.500000  0.872176  0.081826  1
  V  V5  1  0.500000  0.626884  0.583887  1
  V  V6  1  0.500000  0.373456  0.417638  1
  Tc  Tc7  1  0.500000  0.127750  0.917181  1
  B  B8  1  0.000000  0.476369  0.692703  1
  B  B9  1  0.000000  0.523434  0.307319  1
  B  B10  1  0.000000  0.976751  0.807560  1
  B  B11  1  0.000000  0.022809  0.192462  1
  B  B12  1  0.000000  0.284967  0.815029  1
  B  B13  1  0.000000  0.714828  0.185288  1
  B  B14  1  0.000000  0.786162  0.685809  1
  B  B15  1  0.000000  0.213591  0.314262  1
  B  B16  1  0.000000  0.364962  0.968103  1
  B  B17  1  0.000000  0.634848  0.032293  1
  B  B18  1  0.000000  0.864641  0.532537  1
  B  B19  1  0.000000  0.135246  0.467348  1
  B  B20  1  0.000000  0.385486  0.547513  1
  B  B21  1  0.000000  0.615060  0.452420  1
  B  B22  1  0.000000  0.885804  0.952737  1
  B  B23  1  0.000000  0.114210  0.047578  1
