# generated using pymatgen
data_Y(BeP)3
_symmetry_space_group_name_H-M   'P 1'
_cell_length_a   3.64968900
_cell_length_b   10.35132700
_cell_length_c   11.32025800
_cell_angle_alpha   90.00000000
_cell_angle_beta   90.00000000
_cell_angle_gamma   90.00000000
_symmetry_Int_Tables_number   1
_chemical_formula_structural   Y(BeP)3
_chemical_formula_sum   'Y4 Be12 P12'
_cell_volume   427.66943395
_cell_formula_units_Z   4
loop_
 _symmetry_equiv_pos_site_id
 _symmetry_equiv_pos_as_xyz
  1  'x, y, z'
loop_
 _atom_site_type_symbol
 _atom_site_label
 _atom_site_symmetry_multiplicity
 _atom_site_fract_x
 _atom_site_fract_y
 _atom_site_fract_z
 _atom_site_occupancy
  Y  Y0  1  0.750000  0.942636  0.340002  1
  Y  Y1  1  0.250000  0.442636  0.159998  1
  Y  Y2  1  0.750000  0.557364  0.840002  1
  Y  Y3  1  0.250000  0.057364  0.659998  1
  Be  Be4  1  0.750000  0.241160  0.453102  1
  Be  Be5  1  0.250000  0.741160  0.046898  1
  Be  Be6  1  0.750000  0.258840  0.953102  1
  Be  Be7  1  0.250000  0.758840  0.546898  1
  Be  Be8  1  0.750000  0.646295  0.287234  1
  Be  Be9  1  0.250000  0.146295  0.212766  1
  Be  Be10  1  0.750000  0.853705  0.787234  1
  Be  Be11  1  0.250000  0.353705  0.712766  1
  Be  Be12  1  0.750000  0.040336  0.065225  1
  Be  Be13  1  0.250000  0.540336  0.434775  1
  Be  Be14  1  0.750000  0.459664  0.565225  1
  Be  Be15  1  0.250000  0.959664  0.934775  1
  P  P16  1  0.750000  0.440116  0.369820  1
  P  P17  1  0.250000  0.940116  0.130180  1
  P  P18  1  0.750000  0.059884  0.869820  1
  P  P19  1  0.250000  0.559884  0.630180  1
  P  P20  1  0.750000  0.232158  0.144291  1
  P  P21  1  0.250000  0.732158  0.355709  1
  P  P22  1  0.750000  0.267842  0.644291  1
  P  P23  1  0.250000  0.767842  0.855709  1
  P  P24  1  0.750000  0.636669  0.093145  1
  P  P25  1  0.250000  0.136669  0.406855  1
  P  P26  1  0.750000  0.863331  0.593145  1
  P  P27  1  0.250000  0.363331  0.906855  1
