# generated using pymatgen
data_Nd4TlInCu3Rh
_symmetry_space_group_name_H-M   'P 1'
_cell_length_a   7.84979947
_cell_length_b   7.86752738
_cell_length_c   3.83504800
_cell_angle_alpha   90.00000000
_cell_angle_beta   90.00000000
_cell_angle_gamma   89.72610327
_symmetry_Int_Tables_number   1
_chemical_formula_structural   Nd4TlInCu3Rh
_chemical_formula_sum   'Nd4 Tl1 In1 Cu3 Rh1'
_cell_volume   236.84415269
_cell_formula_units_Z   1
loop_
 _symmetry_equiv_pos_site_id
 _symmetry_equiv_pos_as_xyz
  1  'x, y, z'
loop_
 _atom_site_type_symbol
 _atom_site_label
 _atom_site_symmetry_multiplicity
 _atom_site_fract_x
 _atom_site_fract_y
 _atom_site_fract_z
 _atom_site_occupancy
  Nd  Nd0  1  0.681478  0.164274  0.500000  1
  Nd  Nd1  1  0.334395  0.820185  0.500000  1
  Nd  Nd2  1  0.815957  0.685667  0.500000  1
  Nd  Nd3  1  0.173569  0.324561  0.500000  1
  Tl  Tl4  1  0.499135  0.495079  0.000000  1
  In  In5  1  0.003876  0.000218  0.000000  1
  Cu  Cu6  1  0.375661  0.120187  0.000000  1
  Cu  Cu7  1  0.112839  0.620050  0.000000  1
  Cu  Cu8  1  0.883368  0.384078  0.000000  1
  Rh  Rh9  1  0.619722  0.885703  0.000000  1
