# generated using pymatgen
data_LiZr2(Co3As2)3
_symmetry_space_group_name_H-M   'P 1'
_cell_length_a   3.73502400
_cell_length_b   10.59363600
_cell_length_c   12.17052300
_cell_angle_alpha   90.00000000
_cell_angle_beta   90.00000000
_cell_angle_gamma   90.00000000
_symmetry_Int_Tables_number   1
_chemical_formula_structural   LiZr2(Co3As2)3
_chemical_formula_sum   'Li2 Zr4 Co18 As12'
_cell_volume   481.55698268
_cell_formula_units_Z   2
loop_
 _symmetry_equiv_pos_site_id
 _symmetry_equiv_pos_as_xyz
  1  'x, y, z'
loop_
 _atom_site_type_symbol
 _atom_site_label
 _atom_site_symmetry_multiplicity
 _atom_site_fract_x
 _atom_site_fract_y
 _atom_site_fract_z
 _atom_site_occupancy
  Li  Li0  1  0.250000  0.700504  0.991273  1
  Li  Li1  1  0.250000  0.799496  0.491273  1
  Zr  Zr2  1  0.250000  0.575756  0.702990  1
  Zr  Zr3  1  0.250000  0.924244  0.202990  1
  Zr  Zr4  1  0.750000  0.427231  0.298675  1
  Zr  Zr5  1  0.750000  0.072769  0.798675  1
  Co  Co6  1  0.750000  0.290534  0.006445  1
  Co  Co7  1  0.750000  0.209466  0.506445  1
  Co  Co8  1  0.250000  0.407170  0.486756  1
  Co  Co9  1  0.250000  0.092830  0.986756  1
  Co  Co10  1  0.750000  0.587562  0.516755  1
  Co  Co11  1  0.750000  0.912438  0.016755  1
  Co  Co12  1  0.250000  0.220670  0.177635  1
  Co  Co13  1  0.250000  0.279331  0.677635  1
  Co  Co14  1  0.750000  0.784777  0.821887  1
  Co  Co15  1  0.750000  0.715223  0.321887  1
  Co  Co16  1  0.250000  0.882529  0.699629  1
  Co  Co17  1  0.250000  0.617471  0.199629  1
  Co  Co18  1  0.750000  0.119138  0.300722  1
  Co  Co19  1  0.750000  0.380862  0.800722  1
  Co  Co20  1  0.250000  0.463544  0.929531  1
  Co  Co21  1  0.250000  0.036456  0.429531  1
  Co  Co22  1  0.750000  0.531900  0.066978  1
  Co  Co23  1  0.750000  0.968100  0.566978  1
  As  As24  1  0.250000  0.419504  0.116134  1
  As  As25  1  0.250000  0.080496  0.616134  1
  As  As26  1  0.750000  0.581916  0.880739  1
  As  As27  1  0.750000  0.918084  0.380739  1
  As  As28  1  0.250000  0.261663  0.867160  1
  As  As29  1  0.250000  0.238337  0.367160  1
  As  As30  1  0.750000  0.735617  0.134095  1
  As  As31  1  0.750000  0.764383  0.634095  1
  As  As32  1  0.250000  0.601933  0.392683  1
  As  As33  1  0.250000  0.898067  0.892683  1
  As  As34  1  0.750000  0.396712  0.609914  1
  As  As35  1  0.750000  0.103288  0.109914  1
