# generated using pymatgen
data_NdGdSb5
_symmetry_space_group_name_H-M   'P 1'
_cell_length_a   4.29248300
_cell_length_b   13.46313450
_cell_length_c   15.04333030
_cell_angle_alpha   77.67928825
_cell_angle_beta   90.00000000
_cell_angle_gamma   90.00000000
_symmetry_Int_Tables_number   1
_chemical_formula_structural   NdGdSb5
_chemical_formula_sum   'Nd4 Gd4 Sb20'
_cell_volume   849.33558834
_cell_formula_units_Z   4
loop_
 _symmetry_equiv_pos_site_id
 _symmetry_equiv_pos_as_xyz
  1  'x, y, z'
loop_
 _atom_site_type_symbol
 _atom_site_label
 _atom_site_symmetry_multiplicity
 _atom_site_fract_x
 _atom_site_fract_y
 _atom_site_fract_z
 _atom_site_occupancy
  Nd  Nd0  1  0.250000  0.669879  0.576826  1
  Nd  Nd1  1  0.750000  0.330121  0.423174  1
  Nd  Nd2  1  0.250000  0.949100  0.359853  1
  Nd  Nd3  1  0.750000  0.050900  0.640147  1
  Gd  Gd4  1  0.250000  0.399276  0.773760  1
  Gd  Gd5  1  0.750000  0.600724  0.226240  1
  Gd  Gd6  1  0.250000  0.664479  0.857141  1
  Gd  Gd7  1  0.750000  0.335521  0.142859  1
  Sb  Sb8  1  0.250000  0.147361  0.782509  1
  Sb  Sb9  1  0.750000  0.852639  0.217491  1
  Sb  Sb10  1  0.250000  0.141650  0.477234  1
  Sb  Sb11  1  0.750000  0.858350  0.522766  1
  Sb  Sb12  1  0.250000  0.151271  0.175250  1
  Sb  Sb13  1  0.750000  0.848729  0.824750  1
  Sb  Sb14  1  0.250000  0.420602  0.976347  1
  Sb  Sb15  1  0.750000  0.579398  0.023653  1
  Sb  Sb16  1  0.750000  0.033601  0.892690  1
  Sb  Sb17  1  0.250000  0.966399  0.107310  1
  Sb  Sb18  1  0.750000  0.138469  0.320449  1
  Sb  Sb19  1  0.250000  0.861531  0.679551  1
  Sb  Sb20  1  0.750000  0.285435  0.938327  1
  Sb  Sb21  1  0.250000  0.714565  0.061673  1
  Sb  Sb22  1  0.750000  0.295580  0.650040  1
  Sb  Sb23  1  0.250000  0.704420  0.349960  1
  Sb  Sb24  1  0.750000  0.577575  0.738552  1
  Sb  Sb25  1  0.250000  0.422425  0.261448  1
  Sb  Sb26  1  0.750000  0.575168  0.442342  1
  Sb  Sb27  1  0.250000  0.424832  0.557658  1
