# generated using pymatgen
data_Tm3(ReSi2)2
_symmetry_space_group_name_H-M   'P 1'
_cell_length_a   10.50019159
_cell_length_b   10.50019263
_cell_length_c   14.21047572
_cell_angle_alpha   55.17541206
_cell_angle_beta   55.17540920
_cell_angle_gamma   30.56220029
_symmetry_Int_Tables_number   1
_chemical_formula_structural   Tm3(ReSi2)2
_chemical_formula_sum   'Tm12 Re8 Si16'
_cell_volume   642.05829757
_cell_formula_units_Z   4
loop_
 _symmetry_equiv_pos_site_id
 _symmetry_equiv_pos_as_xyz
  1  'x, y, z'
loop_
 _atom_site_type_symbol
 _atom_site_label
 _atom_site_symmetry_multiplicity
 _atom_site_fract_x
 _atom_site_fract_y
 _atom_site_fract_z
 _atom_site_occupancy
  Tm  Tm0  1  0.753064  0.484036  0.048618  1
  Tm  Tm1  1  0.537072  0.306272  0.154144  1
  Tm  Tm2  1  0.515964  0.246936  0.451382  1
  Tm  Tm3  1  0.462928  0.693728  0.845856  1
  Tm  Tm4  1  0.292877  0.039817  0.138353  1
  Tm  Tm5  1  0.960183  0.707123  0.361647  1
  Tm  Tm6  1  0.707123  0.960183  0.861647  1
  Tm  Tm7  1  0.039817  0.292877  0.638353  1
  Tm  Tm8  1  0.246936  0.515964  0.951382  1
  Tm  Tm9  1  0.484036  0.753064  0.548618  1
  Tm  Tm10  1  0.306272  0.537072  0.654144  1
  Tm  Tm11  1  0.693728  0.462928  0.345856  1
  Re  Re12  1  0.642196  0.829714  0.281395  1
  Re  Re13  1  0.829714  0.642196  0.781395  1
  Re  Re14  1  0.357804  0.170286  0.718605  1
  Re  Re15  1  0.170286  0.357804  0.218605  1
  Re  Re16  1  0.137913  0.911647  0.077688  1
  Re  Re17  1  0.088353  0.862087  0.422312  1
  Re  Re18  1  0.862087  0.088353  0.922312  1
  Re  Re19  1  0.911647  0.137913  0.577688  1
  Si  Si20  1  0.902193  0.097807  0.250000  1
  Si  Si21  1  0.097807  0.902193  0.750000  1
  Si  Si22  1  0.345348  0.654652  0.250000  1
  Si  Si23  1  0.654652  0.345348  0.750000  1
  Si  Si24  1  0.999993  0.229151  0.877356  1
  Si  Si25  1  0.770849  0.000007  0.622644  1
  Si  Si26  1  0.000007  0.770849  0.122644  1
  Si  Si27  1  0.229151  0.999993  0.377356  1
  Si  Si28  1  0.606433  0.047042  0.074934  1
  Si  Si29  1  0.952958  0.393567  0.425066  1
  Si  Si30  1  0.393567  0.952958  0.925066  1
  Si  Si31  1  0.047042  0.606433  0.574934  1
  Si  Si32  1  0.383927  0.160555  0.380901  1
  Si  Si33  1  0.839445  0.616073  0.119099  1
  Si  Si34  1  0.616073  0.839445  0.619099  1
  Si  Si35  1  0.160555  0.383927  0.880901  1
