# generated using pymatgen
data_Y4Hf2Pb5
_symmetry_space_group_name_H-M   'P 1'
_cell_length_a   6.28924561
_cell_length_b   9.43515190
_cell_length_c   11.55564127
_cell_angle_alpha   114.09487134
_cell_angle_beta   105.79098785
_cell_angle_gamma   90.00000138
_symmetry_Int_Tables_number   1
_chemical_formula_structural   Y4Hf2Pb5
_chemical_formula_sum   'Y8 Hf4 Pb10'
_cell_volume   597.50582696
_cell_formula_units_Z   2
loop_
 _symmetry_equiv_pos_site_id
 _symmetry_equiv_pos_as_xyz
  1  'x, y, z'
loop_
 _atom_site_type_symbol
 _atom_site_label
 _atom_site_symmetry_multiplicity
 _atom_site_fract_x
 _atom_site_fract_y
 _atom_site_fract_z
 _atom_site_occupancy
  Y  Y0  1  0.440274  0.669873  0.880548  1
  Y  Y1  1  0.559726  0.330127  0.119452  1
  Y  Y2  1  0.940274  0.210676  0.880548  1
  Y  Y3  1  0.059726  0.789324  0.119452  1
  Y  Y4  1  0.146556  0.257129  0.293112  1
  Y  Y5  1  0.853444  0.742871  0.706888  1
  Y  Y6  1  0.646556  0.035981  0.293112  1
  Y  Y7  1  0.353444  0.964019  0.706888  1
  Hf  Hf8  1  0.554265  0.304265  0.608530  1
  Hf  Hf9  1  0.445735  0.695735  0.391470  1
  Hf  Hf10  1  0.945735  0.695735  0.391470  1
  Hf  Hf11  1  0.054265  0.304265  0.608530  1
  Pb  Pb12  1  0.290551  0.589797  0.581101  1
  Pb  Pb13  1  0.709449  0.410203  0.418899  1
  Pb  Pb14  1  0.790551  0.991304  0.581101  1
  Pb  Pb15  1  0.209449  0.008696  0.418899  1
  Pb  Pb16  1  0.250000  0.000000  0.000000  1
  Pb  Pb17  1  0.750000  0.000000  0.000000  1
  Pb  Pb18  1  0.079055  0.477022  0.158111  1
  Pb  Pb19  1  0.920945  0.522978  0.841889  1
  Pb  Pb20  1  0.579055  0.681091  0.158111  1
  Pb  Pb21  1  0.420945  0.318909  0.841889  1
