# generated using pymatgen
data_Pr8In3Ir
_symmetry_space_group_name_H-M   'P 1'
_cell_length_a   10.91290800
_cell_length_b   10.91290702
_cell_length_c   7.35151200
_cell_angle_alpha   90.00000000
_cell_angle_beta   90.00000000
_cell_angle_gamma   119.99999692
_symmetry_Int_Tables_number   1
_chemical_formula_structural   Pr8In3Ir
_chemical_formula_sum   'Pr16 In6 Ir2'
_cell_volume   758.20782895
_cell_formula_units_Z   2
loop_
 _symmetry_equiv_pos_site_id
 _symmetry_equiv_pos_as_xyz
  1  'x, y, z'
loop_
 _atom_site_type_symbol
 _atom_site_label
 _atom_site_symmetry_multiplicity
 _atom_site_fract_x
 _atom_site_fract_y
 _atom_site_fract_z
 _atom_site_occupancy
  Pr  Pr0  1  0.534267  0.068535  0.504500  1
  Pr  Pr1  1  0.931465  0.465733  0.504500  1
  Pr  Pr2  1  0.534267  0.465733  0.504500  1
  Pr  Pr3  1  0.465733  0.931465  0.004500  1
  Pr  Pr4  1  0.068535  0.534267  0.004500  1
  Pr  Pr5  1  0.465733  0.534267  0.004500  1
  Pr  Pr6  1  0.176132  0.352261  0.713902  1
  Pr  Pr7  1  0.647739  0.823868  0.713902  1
  Pr  Pr8  1  0.176132  0.823868  0.713902  1
  Pr  Pr9  1  0.823868  0.647739  0.213902  1
  Pr  Pr10  1  0.352261  0.176132  0.213902  1
  Pr  Pr11  1  0.823868  0.176132  0.213902  1
  Pr  Pr12  1  0.666667  0.333333  0.886619  1
  Pr  Pr13  1  0.333333  0.666667  0.386619  1
  Pr  Pr14  1  0.000000  0.000000  0.495615  1
  Pr  Pr15  1  0.000000  0.000000  0.995615  1
  In  In16  1  0.837114  0.674228  0.753081  1
  In  In17  1  0.325772  0.162886  0.753081  1
  In  In18  1  0.837114  0.162886  0.753081  1
  In  In19  1  0.162886  0.325772  0.253081  1
  In  In20  1  0.674228  0.837114  0.253081  1
  In  In21  1  0.162886  0.837114  0.253081  1
  Ir  Ir22  1  0.666667  0.333333  0.282341  1
  Ir  Ir23  1  0.333333  0.666667  0.782341  1
