# generated using pymatgen
data_YbHoU(SnIr)3
_symmetry_space_group_name_H-M   'P 1'
_cell_length_a   7.47322126
_cell_length_b   7.63148875
_cell_length_c   3.89105700
_cell_angle_alpha   90.00000000
_cell_angle_beta   90.00000000
_cell_angle_gamma   120.35738230
_symmetry_Int_Tables_number   1
_chemical_formula_structural   YbHoU(SnIr)3
_chemical_formula_sum   'Yb1 Ho1 U1 Sn3 Ir3'
_cell_volume   191.48733331
_cell_formula_units_Z   1
loop_
 _symmetry_equiv_pos_site_id
 _symmetry_equiv_pos_as_xyz
  1  'x, y, z'
loop_
 _atom_site_type_symbol
 _atom_site_label
 _atom_site_symmetry_multiplicity
 _atom_site_fract_x
 _atom_site_fract_y
 _atom_site_fract_z
 _atom_site_occupancy
  Yb  Yb0  1  0.403673  0.998097  0.500000  1
  Ho  Ho1  1  0.596921  0.594434  0.500000  1
  U  U2  1  0.001038  0.413671  0.500000  1
  Sn  Sn3  1  0.004511  0.760608  0.000000  1
  Sn  Sn4  1  0.274508  0.255020  0.000000  1
  Sn  Sn5  1  0.720309  0.985251  0.000000  1
  Ir  Ir6  1  0.295610  0.628150  0.000000  1
  Ir  Ir7  1  0.709579  0.345378  0.000000  1
  Ir  Ir8  1  0.993852  0.019391  0.500000  1
