# generated using pymatgen
data_Gd3AlSe6
_symmetry_space_group_name_H-M   'P 1'
_cell_length_a   8.98541000
_cell_length_b   8.98541007
_cell_length_c   6.78813600
_cell_angle_alpha   90.00000000
_cell_angle_beta   90.00000000
_cell_angle_gamma   102.18268652
_symmetry_Int_Tables_number   1
_chemical_formula_structural   Gd3AlSe6
_chemical_formula_sum   'Gd6 Al2 Se12'
_cell_volume   535.71534337
_cell_formula_units_Z   2
loop_
 _symmetry_equiv_pos_site_id
 _symmetry_equiv_pos_as_xyz
  1  'x, y, z'
loop_
 _atom_site_type_symbol
 _atom_site_label
 _atom_site_symmetry_multiplicity
 _atom_site_fract_x
 _atom_site_fract_y
 _atom_site_fract_z
 _atom_site_occupancy
  Gd  Gd0  1  0.400657  0.599343  0.662738  1
  Gd  Gd1  1  0.599343  0.400657  0.162738  1
  Gd  Gd2  1  0.282110  0.083864  0.752675  1
  Gd  Gd3  1  0.717890  0.916136  0.252675  1
  Gd  Gd4  1  0.916135  0.717890  0.752675  1
  Gd  Gd5  1  0.083864  0.282110  0.252675  1
  Al  Al6  1  0.201437  0.798563  0.293857  1
  Al  Al7  1  0.798563  0.201437  0.793857  1
  Se  Se8  1  0.959366  0.040634  0.932156  1
  Se  Se9  1  0.040634  0.959366  0.432156  1
  Se  Se10  1  0.218572  0.781428  0.942587  1
  Se  Se11  1  0.781428  0.218572  0.442587  1
  Se  Se12  1  0.632035  0.692743  0.957730  1
  Se  Se13  1  0.367965  0.307257  0.457730  1
  Se  Se14  1  0.307257  0.367965  0.957730  1
  Se  Se15  1  0.692743  0.632035  0.457730  1
  Se  Se16  1  0.099409  0.567032  0.467625  1
  Se  Se17  1  0.900591  0.432968  0.967625  1
  Se  Se18  1  0.432968  0.900591  0.467625  1
  Se  Se19  1  0.567032  0.099409  0.967625  1
