# generated using pymatgen
data_Li6OsO6
_symmetry_space_group_name_H-M   'P 1'
_cell_length_a   5.11771830
_cell_length_b   5.11771934
_cell_length_c   5.11771954
_cell_angle_alpha   100.71795517
_cell_angle_beta   100.71794469
_cell_angle_gamma   100.71794698
_symmetry_Int_Tables_number   1
_chemical_formula_structural   Li6OsO6
_chemical_formula_sum   'Li6 Os1 O6'
_cell_volume   125.98015965
_cell_formula_units_Z   1
loop_
 _symmetry_equiv_pos_site_id
 _symmetry_equiv_pos_as_xyz
  1  'x, y, z'
loop_
 _atom_site_type_symbol
 _atom_site_label
 _atom_site_symmetry_multiplicity
 _atom_site_fract_x
 _atom_site_fract_y
 _atom_site_fract_z
 _atom_site_occupancy
  Li  Li0  1  0.910671  0.705407  0.405269  1
  Li  Li1  1  0.294593  0.594731  0.089329  1
  Li  Li2  1  0.594731  0.089329  0.294593  1
  Li  Li3  1  0.089329  0.294593  0.594731  1
  Li  Li4  1  0.705407  0.405269  0.910671  1
  Li  Li5  1  0.405269  0.910671  0.705407  1
  Os  Os6  1  0.000000  0.000000  0.000000  1
  O  O7  1  0.673873  0.777952  0.065833  1
  O  O8  1  0.222048  0.934167  0.326127  1
  O  O9  1  0.934167  0.326127  0.222048  1
  O  O10  1  0.326127  0.222048  0.934167  1
  O  O11  1  0.777952  0.065833  0.673873  1
  O  O12  1  0.065833  0.673873  0.777952  1
