# generated using pymatgen
data_Ba4Re(HgN2)2
_symmetry_space_group_name_H-M   'P 1'
_cell_length_a   6.28725600
_cell_length_b   8.63401900
_cell_length_c   11.22305200
_cell_angle_alpha   80.87445904
_cell_angle_beta   90.00000000
_cell_angle_gamma   90.00000000
_symmetry_Int_Tables_number   1
_chemical_formula_structural   Ba4Re(HgN2)2
_chemical_formula_sum   'Ba8 Re2 Hg4 N8'
_cell_volume   601.52441757
_cell_formula_units_Z   2
loop_
 _symmetry_equiv_pos_site_id
 _symmetry_equiv_pos_as_xyz
  1  'x, y, z'
loop_
 _atom_site_type_symbol
 _atom_site_label
 _atom_site_symmetry_multiplicity
 _atom_site_fract_x
 _atom_site_fract_y
 _atom_site_fract_z
 _atom_site_occupancy
  Ba  Ba0  1  0.750000  0.298342  0.283348  1
  Ba  Ba1  1  0.750000  0.996097  0.631650  1
  Ba  Ba2  1  0.750000  0.435783  0.612551  1
  Ba  Ba3  1  0.750000  0.833081  0.104776  1
  Ba  Ba4  1  0.250000  0.003903  0.368350  1
  Ba  Ba5  1  0.250000  0.564217  0.387449  1
  Ba  Ba6  1  0.250000  0.166919  0.895224  1
  Ba  Ba7  1  0.250000  0.701658  0.716652  1
  Re  Re8  1  0.750000  0.776546  0.409862  1
  Re  Re9  1  0.250000  0.223454  0.590138  1
  Hg  Hg10  1  0.250000  0.382686  0.126120  1
  Hg  Hg11  1  0.750000  0.617314  0.873880  1
  Hg  Hg12  1  0.250000  0.715702  0.032269  1
  Hg  Hg13  1  0.750000  0.284298  0.967731  1
  N  N14  1  0.250000  0.036126  0.692740  1
  N  N15  1  0.008554  0.237995  0.494230  1
  N  N16  1  0.508554  0.762005  0.505770  1
  N  N17  1  0.991446  0.762005  0.505770  1
  N  N18  1  0.750000  0.616317  0.320491  1
  N  N19  1  0.750000  0.963874  0.307260  1
  N  N20  1  0.491446  0.237995  0.494230  1
  N  N21  1  0.250000  0.383683  0.679509  1
