# generated using pymatgen
data_Nd2Lu(Ga2Ni3)3
_symmetry_space_group_name_H-M   'P 1'
_cell_length_a   8.81070200
_cell_length_b   8.81070258
_cell_length_c   4.12955100
_cell_angle_alpha   90.00000000
_cell_angle_beta   90.00000000
_cell_angle_gamma   119.99999033
_symmetry_Int_Tables_number   1
_chemical_formula_structural   Nd2Lu(Ga2Ni3)3
_chemical_formula_sum   'Nd2 Lu1 Ga6 Ni9'
_cell_volume   277.62243662
_cell_formula_units_Z   1
loop_
 _symmetry_equiv_pos_site_id
 _symmetry_equiv_pos_as_xyz
  1  'x, y, z'
loop_
 _atom_site_type_symbol
 _atom_site_label
 _atom_site_symmetry_multiplicity
 _atom_site_fract_x
 _atom_site_fract_y
 _atom_site_fract_z
 _atom_site_occupancy
  Nd  Nd0  1  0.666667  0.333333  0.500000  1
  Nd  Nd1  1  0.333333  0.666667  0.500000  1
  Lu  Lu2  1  0.000000  0.000000  0.000000  1
  Ga  Ga3  1  0.482252  0.482252  0.000000  1
  Ga  Ga4  1  0.517748  0.000000  0.000000  1
  Ga  Ga5  1  0.000000  0.517748  0.000000  1
  Ga  Ga6  1  0.733241  0.733241  0.500000  1
  Ga  Ga7  1  0.266759  0.000000  0.500000  1
  Ga  Ga8  1  0.000000  0.266759  0.500000  1
  Ni  Ni9  1  0.828228  0.193016  0.000000  1
  Ni  Ni10  1  0.806984  0.635212  0.000000  1
  Ni  Ni11  1  0.364788  0.171772  0.000000  1
  Ni  Ni12  1  0.193016  0.828228  0.000000  1
  Ni  Ni13  1  0.635212  0.806984  0.000000  1
  Ni  Ni14  1  0.171772  0.364788  0.000000  1
  Ni  Ni15  1  0.290360  0.290360  0.500000  1
  Ni  Ni16  1  0.709640  0.000000  0.500000  1
  Ni  Ni17  1  0.000000  0.709640  0.500000  1
