# generated using pymatgen
data_La4Zr3PdF28
_symmetry_space_group_name_H-M   'P 1'
_cell_length_a   5.88519986
_cell_length_b   9.42057440
_cell_length_c   12.64485813
_cell_angle_alpha   62.15552521
_cell_angle_beta   89.99180351
_cell_angle_gamma   89.94176304
_symmetry_Int_Tables_number   1
_chemical_formula_structural   La4Zr3PdF28
_chemical_formula_sum   'La4 Zr3 Pd1 F28'
_cell_volume   619.88623681
_cell_formula_units_Z   1
loop_
 _symmetry_equiv_pos_site_id
 _symmetry_equiv_pos_as_xyz
  1  'x, y, z'
loop_
 _atom_site_type_symbol
 _atom_site_label
 _atom_site_symmetry_multiplicity
 _atom_site_fract_x
 _atom_site_fract_y
 _atom_site_fract_z
 _atom_site_occupancy
  La  La0  1  0.758999  0.812697  0.260227  1
  La  La1  1  0.257952  0.190941  0.233771  1
  La  La2  1  0.242702  0.184893  0.736062  1
  La  La3  1  0.741802  0.811948  0.768134  1
  Zr  Zr4  1  0.244973  0.725639  0.542709  1
  Zr  Zr5  1  0.745938  0.275208  0.956728  1
  Zr  Zr6  1  0.754885  0.274895  0.456923  1
  Pd  Pd7  1  0.257546  0.725669  0.043835  1
  F  F8  1  0.958105  0.717554  0.453168  1
  F  F9  1  0.457107  0.284424  0.043848  1
  F  F10  1  0.043128  0.283753  0.544992  1
  F  F11  1  0.530893  0.715134  0.959672  1
  F  F12  1  0.064451  0.707967  0.925023  1
  F  F13  1  0.549987  0.289540  0.581149  1
  F  F14  1  0.949206  0.288815  0.081435  1
  F  F15  1  0.450879  0.711864  0.418250  1
  F  F16  1  0.734731  0.519146  0.860391  1
  F  F17  1  0.231882  0.481595  0.640704  1
  F  F18  1  0.264242  0.491806  0.138113  1
  F  F19  1  0.767975  0.518689  0.358235  1
  F  F20  1  0.739138  0.031679  0.053220  1
  F  F21  1  0.239149  0.969503  0.445139  1
  F  F22  1  0.257947  0.959350  0.952775  1
  F  F23  1  0.761341  0.031292  0.555627  1
  F  F24  1  0.045243  0.744747  0.669343  1
  F  F25  1  0.546712  0.254836  0.831349  1
  F  F26  1  0.952044  0.255715  0.330607  1
  F  F27  1  0.447107  0.740932  0.165359  1
  F  F28  1  0.023181  0.266729  0.862880  1
  F  F29  1  0.520009  0.732038  0.639174  1
  F  F30  1  0.988549  0.730511  0.132211  1
  F  F31  1  0.478429  0.269192  0.361598  1
  F  F32  1  0.083816  0.969709  0.233113  1
  F  F33  1  0.584846  0.030536  0.266042  1
  F  F34  1  0.910794  0.033420  0.767384  1
  F  F35  1  0.414311  0.967635  0.730808  1
