# generated using pymatgen
data_Y13Lu4(ThIr4)3
_symmetry_space_group_name_H-M   'P 1'
_cell_length_a   11.01445259
_cell_length_b   10.97910821
_cell_length_c   6.35320439
_cell_angle_alpha   90.03787795
_cell_angle_beta   89.78681719
_cell_angle_gamma   89.86525688
_symmetry_Int_Tables_number   1
_chemical_formula_structural   Y13Lu4(ThIr4)3
_chemical_formula_sum   'Y13 Lu4 Th3 Ir12'
_cell_volume   768.27819321
_cell_formula_units_Z   1
loop_
 _symmetry_equiv_pos_site_id
 _symmetry_equiv_pos_as_xyz
  1  'x, y, z'
loop_
 _atom_site_type_symbol
 _atom_site_label
 _atom_site_symmetry_multiplicity
 _atom_site_fract_x
 _atom_site_fract_y
 _atom_site_fract_z
 _atom_site_occupancy
  Y  Y0  1  0.708614  0.909643  0.377579  1
  Y  Y1  1  0.590127  0.784853  0.879230  1
  Y  Y2  1  0.589421  0.212929  0.379160  1
  Y  Y3  1  0.416303  0.784985  0.378665  1
  Y  Y4  1  0.411872  0.216323  0.878869  1
  Y  Y5  1  0.209409  0.414082  0.621586  1
  Y  Y6  1  0.208982  0.587131  0.121349  1
  Y  Y7  1  0.790440  0.413483  0.120843  1
  Y  Y8  1  0.791034  0.587270  0.620865  1
  Y  Y9  1  0.912244  0.709191  0.120538  1
  Y  Y10  1  0.914191  0.291079  0.619045  1
  Y  Y11  1  0.085103  0.708291  0.619460  1
  Y  Y12  1  0.085583  0.292025  0.117567  1
  Lu  Lu13  1  0.996207  0.998691  0.501029  1
  Lu  Lu14  1  0.999837  0.999972  0.001872  1
  Lu  Lu15  1  0.500008  0.499843  0.003859  1
  Lu  Lu16  1  0.501441  0.499377  0.504190  1
  Th  Th17  1  0.291337  0.091655  0.380177  1
  Th  Th18  1  0.290164  0.908233  0.879804  1
  Th  Th19  1  0.708837  0.088915  0.881378  1
  Ir  Ir20  1  0.849116  0.150805  0.242940  1
  Ir  Ir21  1  0.847508  0.852092  0.752052  1
  Ir  Ir22  1  0.152948  0.147858  0.744978  1
  Ir  Ir23  1  0.153024  0.851988  0.246633  1
  Ir  Ir24  1  0.651516  0.348052  0.753112  1
  Ir  Ir25  1  0.651010  0.648511  0.252119  1
  Ir  Ir26  1  0.348441  0.349038  0.254919  1
  Ir  Ir27  1  0.349254  0.652274  0.753860  1
  Ir  Ir28  1  0.497723  0.000908  0.118953  1
  Ir  Ir29  1  0.498930  0.999804  0.624784  1
  Ir  Ir30  1  0.999709  0.500283  0.874247  1
  Ir  Ir31  1  0.999664  0.500414  0.374339  1
