# generated using pymatgen
data_Er3Tm9Co5Sn
_symmetry_space_group_name_H-M   'P 1'
_cell_length_a   8.14305114
_cell_length_b   8.14305088
_cell_length_c   8.14560470
_cell_angle_alpha   110.97425915
_cell_angle_beta   110.79433493
_cell_angle_gamma   106.66726763
_symmetry_Int_Tables_number   1
_chemical_formula_structural   Er3Tm9Co5Sn
_chemical_formula_sum   'Er3 Tm9 Co5 Sn1'
_cell_volume   415.12046610
_cell_formula_units_Z   1
loop_
 _symmetry_equiv_pos_site_id
 _symmetry_equiv_pos_as_xyz
  1  'x, y, z'
loop_
 _atom_site_type_symbol
 _atom_site_label
 _atom_site_symmetry_multiplicity
 _atom_site_fract_x
 _atom_site_fract_y
 _atom_site_fract_z
 _atom_site_occupancy
  Er  Er0  1  0.289069  0.186436  0.475505  1
  Er  Er1  1  0.711362  0.813500  0.524862  1
  Er  Er2  1  0.289030  0.813693  0.102722  1
  Tm  Tm3  1  0.711702  0.186077  0.897780  1
  Tm  Tm4  1  0.619256  0.313327  0.304958  1
  Tm  Tm5  1  0.380743  0.686585  0.694586  1
  Tm  Tm6  1  0.008001  0.313843  0.694586  1
  Tm  Tm7  1  0.991631  0.685702  0.304958  1
  Tm  Tm8  1  0.211148  0.404402  0.193205  1
  Tm  Tm9  1  0.788352  0.594876  0.806441  1
  Tm  Tm10  1  0.211566  0.018089  0.806441  1
  Tm  Tm11  1  0.788802  0.982057  0.193205  1
  Co  Co12  1  0.999582  0.374895  0.374476  1
  Co  Co13  1  0.999750  0.625209  0.624958  1
  Co  Co14  1  0.387047  0.887245  0.500789  1
  Co  Co15  1  0.613544  0.113742  0.500789  1
  Co  Co16  1  0.999430  0.999861  0.999291  1
  Sn  Sn17  1  0.499985  0.500459  0.000444  1
