# generated using pymatgen
data_Nd3SmB4I5
_symmetry_space_group_name_H-M   'P 1'
_cell_length_a   9.89898655
_cell_length_b   9.89898638
_cell_length_c   10.10959115
_cell_angle_alpha   74.99915351
_cell_angle_beta   74.99915326
_cell_angle_gamma   25.26060467
_symmetry_Int_Tables_number   1
_chemical_formula_structural   Nd3SmB4I5
_chemical_formula_sum   'Nd3 Sm1 B4 I5'
_cell_volume   407.59813179
_cell_formula_units_Z   1
loop_
 _symmetry_equiv_pos_site_id
 _symmetry_equiv_pos_as_xyz
  1  'x, y, z'
loop_
 _atom_site_type_symbol
 _atom_site_label
 _atom_site_symmetry_multiplicity
 _atom_site_fract_x
 _atom_site_fract_y
 _atom_site_fract_z
 _atom_site_occupancy
  Nd  Nd0  1  0.497765  0.497765  0.247140  1
  Nd  Nd1  1  0.132427  0.132427  0.933259  1
  Nd  Nd2  1  0.868900  0.868900  0.064469  1
  Sm  Sm3  1  0.503937  0.503937  0.754917  1
  B  B4  1  0.315901  0.685418  0.999019  1
  B  B5  1  0.685418  0.315901  0.999019  1
  B  B6  1  0.000156  0.000156  0.092893  1
  B  B7  1  0.001217  0.001217  0.904902  1
  I  I8  1  0.673848  0.673848  0.683063  1
  I  I9  1  0.326162  0.326162  0.315323  1
  I  I10  1  0.330430  0.330430  0.848382  1
  I  I11  1  0.673373  0.673373  0.146110  1
  I  I12  1  0.004765  0.004765  0.501703  1
