# generated using pymatgen
data_Dy4Hf5NbGe8
_symmetry_space_group_name_H-M   'P 1'
_cell_length_a   7.35526587
_cell_length_b   7.35526567
_cell_length_c   13.47926200
_cell_angle_alpha   90.00000000
_cell_angle_beta   90.00000000
_cell_angle_gamma   90.18927584
_symmetry_Int_Tables_number   1
_chemical_formula_structural   Dy4Hf5NbGe8
_chemical_formula_sum   'Dy8 Hf10 Nb2 Ge16'
_cell_volume   729.22321291
_cell_formula_units_Z   2
loop_
 _symmetry_equiv_pos_site_id
 _symmetry_equiv_pos_as_xyz
  1  'x, y, z'
loop_
 _atom_site_type_symbol
 _atom_site_label
 _atom_site_symmetry_multiplicity
 _atom_site_fract_x
 _atom_site_fract_y
 _atom_site_fract_z
 _atom_site_occupancy
  Dy  Dy0  1  0.998011  0.341674  0.216794  1
  Dy  Dy1  1  0.001989  0.658326  0.716794  1
  Dy  Dy2  1  0.156926  0.499012  0.468137  1
  Dy  Dy3  1  0.500988  0.843074  0.031863  1
  Dy  Dy4  1  0.843074  0.500988  0.968137  1
  Dy  Dy5  1  0.499012  0.156926  0.531863  1
  Dy  Dy6  1  0.341674  0.998011  0.783206  1
  Dy  Dy7  1  0.658326  0.001989  0.283206  1
  Hf  Hf8  1  0.325869  0.674131  0.250000  1
  Hf  Hf9  1  0.674131  0.325869  0.750000  1
  Hf  Hf10  1  0.151501  0.995837  0.376732  1
  Hf  Hf11  1  0.848499  0.004163  0.876732  1
  Hf  Hf12  1  0.506185  0.655409  0.623976  1
  Hf  Hf13  1  0.344591  0.493815  0.876024  1
  Hf  Hf14  1  0.493815  0.344591  0.123976  1
  Hf  Hf15  1  0.655409  0.506185  0.376024  1
  Hf  Hf16  1  0.995837  0.151501  0.623268  1
  Hf  Hf17  1  0.004163  0.848499  0.123268  1
  Nb  Nb18  1  0.173320  0.173320  0.000000  1
  Nb  Nb19  1  0.826680  0.826680  0.500000  1
  Ge  Ge20  1  0.365049  0.301247  0.322046  1
  Ge  Ge21  1  0.634951  0.698753  0.822046  1
  Ge  Ge22  1  0.198876  0.864192  0.571744  1
  Ge  Ge23  1  0.135808  0.801124  0.928256  1
  Ge  Ge24  1  0.801124  0.135808  0.071744  1
  Ge  Ge25  1  0.864192  0.198876  0.428256  1
  Ge  Ge26  1  0.301247  0.365049  0.677954  1
  Ge  Ge27  1  0.698753  0.634951  0.177954  1
  Ge  Ge28  1  0.296783  0.040275  0.181332  1
  Ge  Ge29  1  0.703217  0.959725  0.681332  1
  Ge  Ge30  1  0.460876  0.798171  0.432043  1
  Ge  Ge31  1  0.201829  0.539124  0.067957  1
  Ge  Ge32  1  0.539124  0.201829  0.932043  1
  Ge  Ge33  1  0.798171  0.460876  0.567957  1
  Ge  Ge34  1  0.040275  0.296783  0.818668  1
  Ge  Ge35  1  0.959725  0.703217  0.318668  1
