# generated using pymatgen
data_Zr3Sc(Tc3Os)2
_symmetry_space_group_name_H-M   'P 1'
_cell_length_a   5.19744400
_cell_length_b   5.19744267
_cell_length_c   8.78927300
_cell_angle_alpha   90.00000000
_cell_angle_beta   90.00000000
_cell_angle_gamma   120.00000848
_symmetry_Int_Tables_number   1
_chemical_formula_structural   Zr3Sc(Tc3Os)2
_chemical_formula_sum   'Zr3 Sc1 Tc6 Os2'
_cell_volume   205.61892050
_cell_formula_units_Z   1
loop_
 _symmetry_equiv_pos_site_id
 _symmetry_equiv_pos_as_xyz
  1  'x, y, z'
loop_
 _atom_site_type_symbol
 _atom_site_label
 _atom_site_symmetry_multiplicity
 _atom_site_fract_x
 _atom_site_fract_y
 _atom_site_fract_z
 _atom_site_occupancy
  Zr  Zr0  1  0.333333  0.666667  0.432048  1
  Zr  Zr1  1  0.666667  0.333333  0.564208  1
  Zr  Zr2  1  0.666667  0.333333  0.938024  1
  Sc  Sc3  1  0.333333  0.666667  0.064391  1
  Tc  Tc4  1  0.171606  0.343211  0.750351  1
  Tc  Tc5  1  0.171606  0.828394  0.750351  1
  Tc  Tc6  1  0.343333  0.171668  0.249792  1
  Tc  Tc7  1  0.828332  0.656667  0.249792  1
  Tc  Tc8  1  0.656789  0.828394  0.750351  1
  Tc  Tc9  1  0.828332  0.171668  0.249792  1
  Os  Os10  1  0.000000  0.000000  0.000736  1
  Os  Os11  1  0.000000  0.000000  0.500164  1
