# generated using pymatgen
data_Er4InRu
_symmetry_space_group_name_H-M   'P 1'
_cell_length_a   9.55606334
_cell_length_b   9.55606301
_cell_length_c   9.55606400
_cell_angle_alpha   60.00000348
_cell_angle_beta   60.00000464
_cell_angle_gamma   60.00000194
_symmetry_Int_Tables_number   1
_chemical_formula_structural   Er4InRu
_chemical_formula_sum   'Er16 In4 Ru4'
_cell_volume   617.05248995
_cell_formula_units_Z   4
loop_
 _symmetry_equiv_pos_site_id
 _symmetry_equiv_pos_as_xyz
  1  'x, y, z'
loop_
 _atom_site_type_symbol
 _atom_site_label
 _atom_site_symmetry_multiplicity
 _atom_site_fract_x
 _atom_site_fract_y
 _atom_site_fract_z
 _atom_site_occupancy
  Er  Er0  1  0.098438  0.704685  0.098438  1
  Er  Er1  1  0.941004  0.941004  0.558996  1
  Er  Er2  1  0.941004  0.558996  0.941004  1
  Er  Er3  1  0.308676  0.691324  0.308676  1
  Er  Er4  1  0.941004  0.558996  0.558996  1
  Er  Er5  1  0.308676  0.308676  0.691324  1
  Er  Er6  1  0.098438  0.098438  0.098438  1
  Er  Er7  1  0.558996  0.558996  0.941004  1
  Er  Er8  1  0.098438  0.098438  0.704685  1
  Er  Er9  1  0.691324  0.308676  0.691324  1
  Er  Er10  1  0.691324  0.691324  0.308676  1
  Er  Er11  1  0.691324  0.308676  0.308676  1
  Er  Er12  1  0.308676  0.691324  0.691324  1
  Er  Er13  1  0.558996  0.941004  0.558996  1
  Er  Er14  1  0.704685  0.098438  0.098438  1
  Er  Er15  1  0.558996  0.941004  0.941004  1
  In  In16  1  0.332556  0.332556  0.332556  1
  In  In17  1  0.002330  0.332556  0.332556  1
  In  In18  1  0.332556  0.002330  0.332556  1
  In  In19  1  0.332556  0.332556  0.002330  1
  Ru  Ru20  1  0.889962  0.889962  0.889962  1
  Ru  Ru21  1  0.889962  0.889962  0.330115  1
  Ru  Ru22  1  0.330115  0.889962  0.889962  1
  Ru  Ru23  1  0.889962  0.330115  0.889962  1
