# generated using pymatgen
data_Dy20Cd6CoTc
_symmetry_space_group_name_H-M   'P 1'
_cell_length_a   9.56394000
_cell_length_b   9.56394087
_cell_length_c   9.87107900
_cell_angle_alpha   90.00000000
_cell_angle_beta   90.00000000
_cell_angle_gamma   119.99999701
_symmetry_Int_Tables_number   1
_chemical_formula_structural   Dy20Cd6CoTc
_chemical_formula_sum   'Dy20 Cd6 Co1 Tc1'
_cell_volume   781.93201953
_cell_formula_units_Z   1
loop_
 _symmetry_equiv_pos_site_id
 _symmetry_equiv_pos_as_xyz
  1  'x, y, z'
loop_
 _atom_site_type_symbol
 _atom_site_label
 _atom_site_symmetry_multiplicity
 _atom_site_fract_x
 _atom_site_fract_y
 _atom_site_fract_z
 _atom_site_occupancy
  Dy  Dy0  1  0.000000  0.000000  0.499512  1
  Dy  Dy1  1  0.000000  0.000000  0.000488  1
  Dy  Dy2  1  0.540705  0.459295  0.250000  1
  Dy  Dy3  1  0.540705  0.081410  0.250000  1
  Dy  Dy4  1  0.918590  0.459295  0.250000  1
  Dy  Dy5  1  0.458132  0.541868  0.750000  1
  Dy  Dy6  1  0.458132  0.916264  0.750000  1
  Dy  Dy7  1  0.083736  0.541868  0.750000  1
  Dy  Dy8  1  0.209388  0.790612  0.440258  1
  Dy  Dy9  1  0.209388  0.418777  0.440258  1
  Dy  Dy10  1  0.581223  0.790612  0.440258  1
  Dy  Dy11  1  0.787552  0.212448  0.563755  1
  Dy  Dy12  1  0.787552  0.575102  0.563755  1
  Dy  Dy13  1  0.424898  0.212448  0.563755  1
  Dy  Dy14  1  0.787552  0.212448  0.936245  1
  Dy  Dy15  1  0.787552  0.575102  0.936245  1
  Dy  Dy16  1  0.424898  0.212448  0.936245  1
  Dy  Dy17  1  0.209388  0.790612  0.059742  1
  Dy  Dy18  1  0.209388  0.418777  0.059742  1
  Dy  Dy19  1  0.581223  0.790612  0.059742  1
  Cd  Cd20  1  0.885592  0.114408  0.250000  1
  Cd  Cd21  1  0.885592  0.771183  0.250000  1
  Cd  Cd22  1  0.228817  0.114408  0.250000  1
  Cd  Cd23  1  0.113775  0.886225  0.750000  1
  Cd  Cd24  1  0.113775  0.227550  0.750000  1
  Cd  Cd25  1  0.772450  0.886225  0.750000  1
  Co  Co26  1  0.666667  0.333333  0.750000  1
  Tc  Tc27  1  0.333333  0.666667  0.250000  1
