# generated using pymatgen
data_Tb6Al24CuOs7
_symmetry_space_group_name_H-M   'P 1'
_cell_length_a   8.82932340
_cell_length_b   8.83869390
_cell_length_c   9.55153817
_cell_angle_alpha   89.99999872
_cell_angle_beta   89.84021904
_cell_angle_gamma   120.03510598
_symmetry_Int_Tables_number   1
_chemical_formula_structural   Tb6Al24CuOs7
_chemical_formula_sum   'Tb6 Al24 Cu1 Os7'
_cell_volume   645.30268335
_cell_formula_units_Z   1
loop_
 _symmetry_equiv_pos_site_id
 _symmetry_equiv_pos_as_xyz
  1  'x, y, z'
loop_
 _atom_site_type_symbol
 _atom_site_label
 _atom_site_symmetry_multiplicity
 _atom_site_fract_x
 _atom_site_fract_y
 _atom_site_fract_z
 _atom_site_occupancy
  Tb  Tb0  1  0.192961  0.383870  0.249886  1
  Tb  Tb1  1  0.807039  0.616130  0.750114  1
  Tb  Tb2  1  0.610324  0.805162  0.252703  1
  Tb  Tb3  1  0.389676  0.194838  0.747297  1
  Tb  Tb4  1  0.192961  0.809091  0.249886  1
  Tb  Tb5  1  0.807039  0.190909  0.750114  1
  Al  Al6  1  0.335365  0.667683  0.019209  1
  Al  Al7  1  0.664635  0.332317  0.980791  1
  Al  Al8  1  0.667850  0.333925  0.519189  1
  Al  Al9  1  0.332150  0.666075  0.480811  1
  Al  Al10  1  0.162799  0.327686  0.574433  1
  Al  Al11  1  0.837201  0.672314  0.425567  1
  Al  Al12  1  0.672083  0.836041  0.576457  1
  Al  Al13  1  0.831704  0.674680  0.078443  1
  Al  Al14  1  0.327917  0.163959  0.423543  1
  Al  Al15  1  0.168296  0.325320  0.921557  1
  Al  Al16  1  0.162799  0.835112  0.574433  1
  Al  Al17  1  0.327627  0.163814  0.076787  1
  Al  Al18  1  0.837201  0.164888  0.425567  1
  Al  Al19  1  0.672373  0.836186  0.923213  1
  Al  Al20  1  0.831704  0.157026  0.078443  1
  Al  Al21  1  0.168296  0.842974  0.921557  1
  Al  Al22  1  0.560465  0.123348  0.249387  1
  Al  Al23  1  0.439535  0.876652  0.750613  1
  Al  Al24  1  0.877595  0.438797  0.250044  1
  Al  Al25  1  0.122405  0.561203  0.749956  1
  Al  Al26  1  0.560465  0.437116  0.249387  1
  Al  Al27  1  0.439535  0.562884  0.750613  1
  Al  Al28  1  0.001274  0.000637  0.250300  1
  Al  Al29  1  0.998726  0.999363  0.749700  1
  Cu  Cu30  1  0.000000  0.500000  0.000000  1
  Os  Os31  1  0.500000  0.000000  0.000000  1
  Os  Os32  1  0.500000  0.000000  0.500000  1
  Os  Os33  1  0.500000  0.500000  0.000000  1
  Os  Os34  1  0.000000  0.500000  0.500000  1
  Os  Os35  1  0.500000  0.500000  0.500000  1
  Os  Os36  1  0.000000  0.000000  0.000000  1
  Os  Os37  1  0.000000  0.000000  0.500000  1
