# generated using pymatgen
data_Dy2Er9TmNi4
_symmetry_space_group_name_H-M   'P 1'
_cell_length_a   6.30244550
_cell_length_b   6.77449837
_cell_length_c   9.47519274
_cell_angle_alpha   90.00740395
_cell_angle_beta   90.04482812
_cell_angle_gamma   90.02294204
_symmetry_Int_Tables_number   1
_chemical_formula_structural   Dy2Er9TmNi4
_chemical_formula_sum   'Dy2 Er9 Tm1 Ni4'
_cell_volume   404.55178627
_cell_formula_units_Z   1
loop_
 _symmetry_equiv_pos_site_id
 _symmetry_equiv_pos_as_xyz
  1  'x, y, z'
loop_
 _atom_site_type_symbol
 _atom_site_label
 _atom_site_symmetry_multiplicity
 _atom_site_fract_x
 _atom_site_fract_y
 _atom_site_fract_z
 _atom_site_occupancy
  Dy  Dy0  1  0.637037  0.030491  0.250136  1
  Dy  Dy1  1  0.363327  0.969697  0.749899  1
  Er  Er2  1  0.136641  0.467449  0.749746  1
  Er  Er3  1  0.863121  0.532166  0.250186  1
  Er  Er4  1  0.179155  0.178970  0.066024  1
  Er  Er5  1  0.820860  0.821144  0.933961  1
  Er  Er6  1  0.680372  0.322348  0.934471  1
  Er  Er7  1  0.820664  0.821098  0.566050  1
  Er  Er8  1  0.319599  0.677627  0.065286  1
  Er  Er9  1  0.179300  0.179124  0.434196  1
  Er  Er10  1  0.319775  0.677585  0.434782  1
  Tm  Tm11  1  0.680318  0.322424  0.565611  1
  Ni  Ni12  1  0.449413  0.393136  0.250165  1
  Ni  Ni13  1  0.550863  0.606450  0.749754  1
  Ni  Ni14  1  0.945656  0.108756  0.749737  1
  Ni  Ni15  1  0.053899  0.891535  0.249993  1
