# generated using pymatgen
data_LiAc2Lu4Rh17
_symmetry_space_group_name_H-M   'P 1'
_cell_length_a   5.26834800
_cell_length_b   5.26824484
_cell_length_c   17.33651500
_cell_angle_alpha   90.00000000
_cell_angle_beta   90.00000000
_cell_angle_gamma   120.00204170
_symmetry_Int_Tables_number   1
_chemical_formula_structural   LiAc2Lu4Rh17
_chemical_formula_sum   'Li1 Ac2 Lu4 Rh17'
_cell_volume   416.70038464
_cell_formula_units_Z   1
loop_
 _symmetry_equiv_pos_site_id
 _symmetry_equiv_pos_as_xyz
  1  'x, y, z'
loop_
 _atom_site_type_symbol
 _atom_site_label
 _atom_site_symmetry_multiplicity
 _atom_site_fract_x
 _atom_site_fract_y
 _atom_site_fract_z
 _atom_site_occupancy
  Li  Li0  1  0.333330  0.666643  0.250000  1
  Ac  Ac1  1  0.333341  0.666672  0.750000  1
  Ac  Ac2  1  0.666673  0.333341  0.250000  1
  Lu  Lu3  1  0.333326  0.666665  0.959178  1
  Lu  Lu4  1  0.666657  0.333353  0.039043  1
  Lu  Lu5  1  0.666657  0.333353  0.460957  1
  Lu  Lu6  1  0.333326  0.666665  0.540822  1
  Rh  Rh7  1  0.169513  0.830475  0.376542  1
  Rh  Rh8  1  0.169521  0.339059  0.376549  1
  Rh  Rh9  1  0.660950  0.830480  0.376547  1
  Rh  Rh10  1  0.832383  0.167589  0.621255  1
  Rh  Rh11  1  0.832401  0.664779  0.621245  1
  Rh  Rh12  1  0.335225  0.167590  0.621251  1
  Rh  Rh13  1  0.832383  0.167589  0.878745  1
  Rh  Rh14  1  0.832401  0.664779  0.878755  1
  Rh  Rh15  1  0.335225  0.167590  0.878749  1
  Rh  Rh16  1  0.169513  0.830475  0.123458  1
  Rh  Rh17  1  0.169521  0.339059  0.123451  1
  Rh  Rh18  1  0.660950  0.830480  0.123453  1
  Rh  Rh19  1  0.666682  0.333368  0.750000  1
  Rh  Rh20  1  0.000005  0.999999  0.250000  1
  Rh  Rh21  1  0.000014  0.000018  0.750000  1
  Rh  Rh22  1  0.000002  0.999990  0.497745  1
  Rh  Rh23  1  0.000002  0.999990  0.002255  1
