# generated using pymatgen
data_CaTm(CuSb2)2
_symmetry_space_group_name_H-M   'P 1'
_cell_length_a   4.33425800
_cell_length_b   4.33425800
_cell_length_c   9.98262200
_cell_angle_alpha   90.00000000
_cell_angle_beta   90.00000000
_cell_angle_gamma   90.00000000
_symmetry_Int_Tables_number   1
_chemical_formula_structural   CaTm(CuSb2)2
_chemical_formula_sum   'Ca1 Tm1 Cu2 Sb4'
_cell_volume   187.53146461
_cell_formula_units_Z   1
loop_
 _symmetry_equiv_pos_site_id
 _symmetry_equiv_pos_as_xyz
  1  'x, y, z'
loop_
 _atom_site_type_symbol
 _atom_site_label
 _atom_site_symmetry_multiplicity
 _atom_site_fract_x
 _atom_site_fract_y
 _atom_site_fract_z
 _atom_site_occupancy
  Ca  Ca0  1  0.000000  0.500000  0.748726  1
  Tm  Tm1  1  0.500000  0.000000  0.256297  1
  Cu  Cu2  1  0.500000  0.500000  0.494255  1
  Cu  Cu3  1  0.000000  0.000000  0.494255  1
  Sb  Sb4  1  0.500000  0.500000  0.010675  1
  Sb  Sb5  1  0.000000  0.000000  0.010675  1
  Sb  Sb6  1  0.000000  0.500000  0.337726  1
  Sb  Sb7  1  0.500000  0.000000  0.647391  1
