# generated using pymatgen
data_Tm8ScTiIr6
_symmetry_space_group_name_H-M   'P 1'
_cell_length_a   10.64963100
_cell_length_b   10.64963100
_cell_length_c   6.14744500
_cell_angle_alpha   90.00000000
_cell_angle_beta   90.00000000
_cell_angle_gamma   90.00000000
_symmetry_Int_Tables_number   1
_chemical_formula_structural   Tm8ScTiIr6
_chemical_formula_sum   'Tm16 Sc2 Ti2 Ir12'
_cell_volume   697.21026428
_cell_formula_units_Z   2
loop_
 _symmetry_equiv_pos_site_id
 _symmetry_equiv_pos_as_xyz
  1  'x, y, z'
loop_
 _atom_site_type_symbol
 _atom_site_label
 _atom_site_symmetry_multiplicity
 _atom_site_fract_x
 _atom_site_fract_y
 _atom_site_fract_z
 _atom_site_occupancy
  Tm  Tm0  1  0.289348  0.086380  0.372889  1
  Tm  Tm1  1  0.289348  0.913620  0.872889  1
  Tm  Tm2  1  0.710652  0.086380  0.872889  1
  Tm  Tm3  1  0.710652  0.913620  0.372889  1
  Tm  Tm4  1  0.584868  0.785937  0.874296  1
  Tm  Tm5  1  0.584868  0.214063  0.374296  1
  Tm  Tm6  1  0.415132  0.785937  0.374296  1
  Tm  Tm7  1  0.415132  0.214063  0.874296  1
  Tm  Tm8  1  0.214063  0.415132  0.625704  1
  Tm  Tm9  1  0.214063  0.584868  0.125704  1
  Tm  Tm10  1  0.785937  0.415132  0.125704  1
  Tm  Tm11  1  0.785937  0.584868  0.625704  1
  Tm  Tm12  1  0.913620  0.710652  0.127111  1
  Tm  Tm13  1  0.913620  0.289348  0.627111  1
  Tm  Tm14  1  0.086380  0.710652  0.627111  1
  Tm  Tm15  1  0.086380  0.289348  0.127111  1
  Sc  Sc16  1  0.000000  0.000000  0.500000  1
  Sc  Sc17  1  0.000000  0.000000  0.000000  1
  Ti  Ti18  1  0.500000  0.500000  0.000000  1
  Ti  Ti19  1  0.500000  0.500000  0.500000  1
  Ir  Ir20  1  0.849565  0.150435  0.250000  1
  Ir  Ir21  1  0.849565  0.849565  0.750000  1
  Ir  Ir22  1  0.150435  0.150435  0.750000  1
  Ir  Ir23  1  0.150435  0.849565  0.250000  1
  Ir  Ir24  1  0.638285  0.361715  0.750000  1
  Ir  Ir25  1  0.638285  0.638285  0.250000  1
  Ir  Ir26  1  0.361715  0.361715  0.250000  1
  Ir  Ir27  1  0.361715  0.638285  0.750000  1
  Ir  Ir28  1  0.500000  0.000000  0.120285  1
  Ir  Ir29  1  0.500000  0.000000  0.620285  1
  Ir  Ir30  1  0.000000  0.500000  0.879715  1
  Ir  Ir31  1  0.000000  0.500000  0.379715  1
