# generated using pymatgen
data_Pr3SnPd3Pb2
_symmetry_space_group_name_H-M   'P 1'
_cell_length_a   7.81994600
_cell_length_b   7.85379869
_cell_length_c   4.15946100
_cell_angle_alpha   90.00000000
_cell_angle_beta   90.00000000
_cell_angle_gamma   119.85752502
_symmetry_Int_Tables_number   1
_chemical_formula_structural   Pr3SnPd3Pb2
_chemical_formula_sum   'Pr3 Sn1 Pd3 Pb2'
_cell_volume   221.55059656
_cell_formula_units_Z   1
loop_
 _symmetry_equiv_pos_site_id
 _symmetry_equiv_pos_as_xyz
  1  'x, y, z'
loop_
 _atom_site_type_symbol
 _atom_site_label
 _atom_site_symmetry_multiplicity
 _atom_site_fract_x
 _atom_site_fract_y
 _atom_site_fract_z
 _atom_site_occupancy
  Pr  Pr0  1  0.003100  0.593736  0.000000  1
  Pr  Pr1  1  0.409363  0.406264  0.000000  1
  Pr  Pr2  1  0.588199  0.000000  0.000000  1
  Sn  Sn3  1  0.254423  0.000000  0.500000  1
  Pd  Pd4  1  0.657854  0.326864  0.500000  1
  Pd  Pd5  1  0.011316  0.000000  0.000000  1
  Pd  Pd6  1  0.330988  0.673136  0.500000  1
  Pb  Pb7  1  0.744557  0.744353  0.500000  1
  Pb  Pb8  1  0.000203  0.255647  0.500000  1
