# generated using pymatgen
data_LaY5Tc2
_symmetry_space_group_name_H-M   'P 1'
_cell_length_a   6.41337679
_cell_length_b   7.44692717
_cell_length_c   9.36984100
_cell_angle_alpha   90.00000000
_cell_angle_beta   90.00000000
_cell_angle_gamma   90.44842938
_symmetry_Int_Tables_number   1
_chemical_formula_structural   LaY5Tc2
_chemical_formula_sum   'La2 Y10 Tc4'
_cell_volume   447.48943078
_cell_formula_units_Z   2
loop_
 _symmetry_equiv_pos_site_id
 _symmetry_equiv_pos_as_xyz
  1  'x, y, z'
loop_
 _atom_site_type_symbol
 _atom_site_label
 _atom_site_symmetry_multiplicity
 _atom_site_fract_x
 _atom_site_fract_y
 _atom_site_fract_z
 _atom_site_occupancy
  La  La0  1  0.365645  0.550344  0.250000  1
  La  La1  1  0.634355  0.449656  0.750000  1
  Y  Y2  1  0.839413  0.677674  0.064668  1
  Y  Y3  1  0.667888  0.168601  0.065680  1
  Y  Y4  1  0.160587  0.322326  0.935332  1
  Y  Y5  1  0.332112  0.831399  0.565680  1
  Y  Y6  1  0.871085  0.954293  0.750000  1
  Y  Y7  1  0.128915  0.045707  0.250000  1
  Y  Y8  1  0.160587  0.322326  0.564668  1
  Y  Y9  1  0.667888  0.168601  0.434320  1
  Y  Y10  1  0.332112  0.831399  0.934320  1
  Y  Y11  1  0.839413  0.677674  0.435332  1
  Tc  Tc12  1  0.525813  0.874504  0.250000  1
  Tc  Tc13  1  0.474187  0.125496  0.750000  1
  Tc  Tc14  1  0.027132  0.612595  0.750000  1
  Tc  Tc15  1  0.972868  0.387405  0.250000  1
