# generated using pymatgen
data_Tb5SmYFeI12
_symmetry_space_group_name_H-M   'P 1'
_cell_length_a   9.73782595
_cell_length_b   9.80739731
_cell_length_c   9.80795932
_cell_angle_alpha   106.89579644
_cell_angle_beta   107.16942935
_cell_angle_gamma   106.79610387
_symmetry_Int_Tables_number   1
_chemical_formula_structural   Tb5SmYFeI12
_chemical_formula_sum   'Tb5 Sm1 Y1 Fe1 I12'
_cell_volume   781.05644077
_cell_formula_units_Z   1
loop_
 _symmetry_equiv_pos_site_id
 _symmetry_equiv_pos_as_xyz
  1  'x, y, z'
loop_
 _atom_site_type_symbol
 _atom_site_label
 _atom_site_symmetry_multiplicity
 _atom_site_fract_x
 _atom_site_fract_y
 _atom_site_fract_z
 _atom_site_occupancy
  Tb  Tb0  1  0.978478  0.906706  0.706821  1
  Tb  Tb1  1  0.093897  0.293063  0.022490  1
  Tb  Tb2  1  0.279592  0.021018  0.088720  1
  Tb  Tb3  1  0.907734  0.707242  0.977983  1
  Tb  Tb4  1  0.022154  0.093357  0.293584  1
  Sm  Sm5  1  0.716612  0.978649  0.909997  1
  Y  Y6  1  0.500256  0.500035  0.500122  1
  Fe  Fe7  1  0.999349  0.000278  0.999932  1
  I  I8  1  0.072131  0.225875  0.679479  1
  I  I9  1  0.386339  0.160811  0.461234  1
  I  I10  1  0.613506  0.837369  0.534828  1
  I  I11  1  0.228073  0.681097  0.072790  1
  I  I12  1  0.774555  0.322976  0.928015  1
  I  I13  1  0.680355  0.072727  0.228829  1
  I  I14  1  0.536501  0.612035  0.837943  1
  I  I15  1  0.840529  0.537365  0.614645  1
  I  I16  1  0.928106  0.774123  0.320569  1
  I  I17  1  0.318974  0.928310  0.775118  1
  I  I18  1  0.463013  0.384254  0.161520  1
  I  I19  1  0.159848  0.462711  0.385380  1
