# generated using pymatgen
data_CaYbTm2(ReN3)4
_symmetry_space_group_name_H-M   'P 1'
_cell_length_a   7.31246273
_cell_length_b   7.31246304
_cell_length_c   6.21091871
_cell_angle_alpha   74.17013747
_cell_angle_beta   74.17014225
_cell_angle_gamma   83.34005188
_symmetry_Int_Tables_number   1
_chemical_formula_structural   CaYbTm2(ReN3)4
_chemical_formula_sum   'Ca1 Yb1 Tm2 Re4 N12'
_cell_volume   307.08849716
_cell_formula_units_Z   1
loop_
 _symmetry_equiv_pos_site_id
 _symmetry_equiv_pos_as_xyz
  1  'x, y, z'
loop_
 _atom_site_type_symbol
 _atom_site_label
 _atom_site_symmetry_multiplicity
 _atom_site_fract_x
 _atom_site_fract_y
 _atom_site_fract_z
 _atom_site_occupancy
  Ca  Ca0  1  0.701643  0.298357  0.250000  1
  Yb  Yb1  1  0.297584  0.702416  0.750000  1
  Tm  Tm2  1  0.911831  0.088169  0.750000  1
  Tm  Tm3  1  0.089339  0.910661  0.250000  1
  Re  Re4  1  0.621130  0.798880  0.264072  1
  Re  Re5  1  0.201120  0.378870  0.235928  1
  Re  Re6  1  0.377949  0.200704  0.736836  1
  Re  Re7  1  0.799296  0.622051  0.763164  1
  N  N8  1  0.346845  0.355018  0.945181  1
  N  N9  1  0.009980  0.212693  0.349247  1
  N  N10  1  0.787307  0.990020  0.150753  1
  N  N11  1  0.213762  0.007504  0.849190  1
  N  N12  1  0.651842  0.647333  0.052672  1
  N  N13  1  0.883010  0.378808  0.821594  1
  N  N14  1  0.118344  0.622315  0.173395  1
  N  N15  1  0.992496  0.786238  0.650810  1
  N  N16  1  0.377685  0.881656  0.326605  1
  N  N17  1  0.644982  0.653155  0.554819  1
  N  N18  1  0.621192  0.116990  0.678406  1
  N  N19  1  0.352667  0.348158  0.447328  1
