# generated using pymatgen
data_Tb5ZrUO12
_symmetry_space_group_name_H-M   'P 1'
_cell_length_a   6.66084668
_cell_length_b   6.56552716
_cell_length_c   6.50808730
_cell_angle_alpha   99.38798693
_cell_angle_beta   98.85024740
_cell_angle_gamma   99.43013687
_symmetry_Int_Tables_number   1
_chemical_formula_structural   Tb5ZrUO12
_chemical_formula_sum   'Tb5 Zr1 U1 O12'
_cell_volume   272.19522952
_cell_formula_units_Z   1
loop_
 _symmetry_equiv_pos_site_id
 _symmetry_equiv_pos_as_xyz
  1  'x, y, z'
loop_
 _atom_site_type_symbol
 _atom_site_label
 _atom_site_symmetry_multiplicity
 _atom_site_fract_x
 _atom_site_fract_y
 _atom_site_fract_z
 _atom_site_occupancy
  Tb  Tb0  1  0.858624  0.686860  0.387919  1
  Tb  Tb1  1  0.391600  0.859891  0.690719  1
  Tb  Tb2  1  0.323503  0.606305  0.150295  1
  Tb  Tb3  1  0.138548  0.310439  0.609851  1
  Tb  Tb4  1  0.608095  0.138440  0.312880  1
  Zr  Zr5  1  0.668628  0.392231  0.851121  1
  U  U6  1  0.997823  0.998986  0.995649  1
  O  O7  1  0.434373  0.185908  0.593928  1
  O  O8  1  0.593221  0.427187  0.169393  1
  O  O9  1  0.174058  0.584328  0.433184  1
  O  O10  1  0.572096  0.820250  0.419948  1
  O  O11  1  0.434224  0.566496  0.821472  1
  O  O12  1  0.815691  0.415181  0.589387  1
  O  O13  1  0.094140  0.311763  0.954420  1
  O  O14  1  0.687403  0.080551  0.918751  1
  O  O15  1  0.056270  0.929978  0.682885  1
  O  O16  1  0.898204  0.676532  0.031503  1
  O  O17  1  0.311236  0.937188  0.074399  1
  O  O18  1  0.942261  0.071485  0.312295  1
