# generated using pymatgen
data_Ti5NbCuPd21
_symmetry_space_group_name_H-M   'P 1'
_cell_length_a   5.58921215
_cell_length_b   5.58576825
_cell_length_c   15.98208900
_cell_angle_alpha   89.99125039
_cell_angle_beta   90.01333673
_cell_angle_gamma   119.97104490
_symmetry_Int_Tables_number   1
_chemical_formula_structural   Ti5NbCuPd21
_chemical_formula_sum   'Ti5 Nb1 Cu1 Pd21'
_cell_volume   432.23936116
_cell_formula_units_Z   1
loop_
 _symmetry_equiv_pos_site_id
 _symmetry_equiv_pos_as_xyz
  1  'x, y, z'
loop_
 _atom_site_type_symbol
 _atom_site_label
 _atom_site_symmetry_multiplicity
 _atom_site_fract_x
 _atom_site_fract_y
 _atom_site_fract_z
 _atom_site_occupancy
  Ti  Ti0  1  0.333478  0.666873  0.135359  1
  Ti  Ti1  1  0.000191  0.000146  0.280729  1
  Ti  Ti2  1  0.666762  0.333466  0.427004  1
  Ti  Ti3  1  0.000011  0.000060  0.000212  1
  Ti  Ti4  1  0.333465  0.666626  0.575249  1
  Nb  Nb5  1  0.999962  0.999991  0.722213  1
  Cu  Cu6  1  0.666062  0.333027  0.858512  1
  Pd  Pd7  1  0.833186  0.666299  0.570304  1
  Pd  Pd8  1  0.333713  0.166816  0.570280  1
  Pd  Pd9  1  0.166920  0.334028  0.857531  1
  Pd  Pd10  1  0.166931  0.333781  0.428538  1
  Pd  Pd11  1  0.166936  0.833060  0.428545  1
  Pd  Pd12  1  0.499645  0.999300  0.712264  1
  Pd  Pd13  1  0.666199  0.833063  0.428553  1
  Pd  Pd14  1  0.166939  0.832920  0.857515  1
  Pd  Pd15  1  0.666109  0.833077  0.857518  1
  Pd  Pd16  1  0.833722  0.166264  0.143899  1
  Pd  Pd17  1  0.833182  0.166803  0.570292  1
  Pd  Pd18  1  0.499655  0.500247  0.712270  1
  Pd  Pd19  1  0.332457  0.166249  0.143903  1
  Pd  Pd20  1  0.833727  0.667508  0.143901  1
  Pd  Pd21  1  0.499668  0.500456  0.286277  1
  Pd  Pd22  1  0.499672  0.999216  0.286295  1
  Pd  Pd23  1  0.499213  0.998511  0.001430  1
  Pd  Pd24  1  0.000928  0.500464  0.286270  1
  Pd  Pd25  1  0.000587  0.500229  0.712287  1
  Pd  Pd26  1  0.499210  0.500769  0.001443  1
  Pd  Pd27  1  0.001468  0.500751  0.001406  1
