# generated using pymatgen
data_Nb4VFe5Ir2
_symmetry_space_group_name_H-M   'P 1'
_cell_length_a   4.89013100
_cell_length_b   4.85439428
_cell_length_c   8.20302800
_cell_angle_alpha   90.00000000
_cell_angle_beta   90.00000000
_cell_angle_gamma   120.24381737
_symmetry_Int_Tables_number   1
_chemical_formula_structural   Nb4VFe5Ir2
_chemical_formula_sum   'Nb4 V1 Fe5 Ir2'
_cell_volume   168.22406059
_cell_formula_units_Z   1
loop_
 _symmetry_equiv_pos_site_id
 _symmetry_equiv_pos_as_xyz
  1  'x, y, z'
loop_
 _atom_site_type_symbol
 _atom_site_label
 _atom_site_symmetry_multiplicity
 _atom_site_fract_x
 _atom_site_fract_y
 _atom_site_fract_z
 _atom_site_occupancy
  Nb  Nb0  1  0.668295  0.336591  0.065000  1
  Nb  Nb1  1  0.668295  0.336591  0.435000  1
  Nb  Nb2  1  0.334947  0.669894  0.571377  1
  Nb  Nb3  1  0.334947  0.669894  0.928623  1
  V  V4  1  0.174617  0.349232  0.250001  1
  Fe  Fe5  1  0.171057  0.819330  0.250001  1
  Fe  Fe6  1  0.648274  0.819330  0.250001  1
  Fe  Fe7  1  0.348395  0.175003  0.750000  1
  Fe  Fe8  1  0.826606  0.175003  0.750000  1
  Fe  Fe9  1  0.826534  0.653070  0.750000  1
  Ir  Ir10  1  0.999016  0.998031  0.998040  1
  Ir  Ir11  1  0.999016  0.998031  0.501960  1
