# generated using pymatgen
data_Yb3YIr8
_symmetry_space_group_name_H-M   'P 1'
_cell_length_a   5.32350900
_cell_length_b   5.32350872
_cell_length_c   8.72232900
_cell_angle_alpha   90.00000000
_cell_angle_beta   90.00000000
_cell_angle_gamma   119.99999551
_symmetry_Int_Tables_number   1
_chemical_formula_structural   Yb3YIr8
_chemical_formula_sum   'Yb3 Y1 Ir8'
_cell_volume   214.07161128
_cell_formula_units_Z   1
loop_
 _symmetry_equiv_pos_site_id
 _symmetry_equiv_pos_as_xyz
  1  'x, y, z'
loop_
 _atom_site_type_symbol
 _atom_site_label
 _atom_site_symmetry_multiplicity
 _atom_site_fract_x
 _atom_site_fract_y
 _atom_site_fract_z
 _atom_site_occupancy
  Yb  Yb0  1  0.333334  0.666667  0.438073  1
  Yb  Yb1  1  0.666666  0.333334  0.568484  1
  Yb  Yb2  1  0.666666  0.333334  0.926063  1
  Y  Y3  1  0.333334  0.666667  0.070117  1
  Ir  Ir4  1  0.000000  0.000000  0.998985  1
  Ir  Ir5  1  0.341810  0.170905  0.249287  1
  Ir  Ir6  1  0.829096  0.170905  0.249287  1
  Ir  Ir7  1  0.829094  0.658189  0.249287  1
  Ir  Ir8  1  0.000000  0.000000  0.499582  1
  Ir  Ir9  1  0.170563  0.341125  0.750277  1
  Ir  Ir10  1  0.170563  0.829436  0.750277  1
  Ir  Ir11  1  0.658874  0.829436  0.750277  1
