# generated using pymatgen
data_Ce4BeB4(Ir2Rh)3
_symmetry_space_group_name_H-M   'P 1'
_cell_length_a   10.70769970
_cell_length_b   10.70769903
_cell_length_c   10.70769964
_cell_angle_alpha   29.86481557
_cell_angle_beta   29.86480986
_cell_angle_gamma   29.86482342
_symmetry_Int_Tables_number   1
_chemical_formula_structural   Ce4BeB4(Ir2Rh)3
_chemical_formula_sum   'Ce4 Be1 B4 Ir6 Rh3'
_cell_volume   269.59338911
_cell_formula_units_Z   1
loop_
 _symmetry_equiv_pos_site_id
 _symmetry_equiv_pos_as_xyz
  1  'x, y, z'
loop_
 _atom_site_type_symbol
 _atom_site_label
 _atom_site_symmetry_multiplicity
 _atom_site_fract_x
 _atom_site_fract_y
 _atom_site_fract_z
 _atom_site_occupancy
  Ce  Ce0  1  0.149776  0.149776  0.149776  1
  Ce  Ce1  1  0.948060  0.948060  0.948060  1
  Ce  Ce2  1  0.850224  0.850224  0.850224  1
  Ce  Ce3  1  0.051940  0.051940  0.051940  1
  Be  Be4  1  0.500000  0.500000  0.500000  1
  B  B5  1  0.615015  0.615015  0.615015  1
  B  B6  1  0.719329  0.719329  0.719329  1
  B  B7  1  0.384985  0.384985  0.384985  1
  B  B8  1  0.280671  0.280671  0.280671  1
  Ir  Ir9  1  0.401390  0.897963  0.401390  1
  Ir  Ir10  1  0.897963  0.401390  0.401390  1
  Ir  Ir11  1  0.598610  0.102037  0.598610  1
  Ir  Ir12  1  0.598610  0.598610  0.102037  1
  Ir  Ir13  1  0.102037  0.598610  0.598610  1
  Ir  Ir14  1  0.401390  0.401390  0.897963  1
  Rh  Rh15  1  0.500000  0.500000  0.000000  1
  Rh  Rh16  1  0.500000  0.000000  0.500000  1
  Rh  Rh17  1  0.000000  0.500000  0.500000  1
