# generated using pymatgen
data_Tb10InBi5Cl2
_symmetry_space_group_name_H-M   'P 1'
_cell_length_a   9.27811502
_cell_length_b   9.27811571
_cell_length_c   6.54325500
_cell_angle_alpha   90.00000000
_cell_angle_beta   90.00000000
_cell_angle_gamma   119.61998843
_symmetry_Int_Tables_number   1
_chemical_formula_structural   Tb10InBi5Cl2
_chemical_formula_sum   'Tb10 In1 Bi5 Cl2'
_cell_volume   489.65966549
_cell_formula_units_Z   1
loop_
 _symmetry_equiv_pos_site_id
 _symmetry_equiv_pos_as_xyz
  1  'x, y, z'
loop_
 _atom_site_type_symbol
 _atom_site_label
 _atom_site_symmetry_multiplicity
 _atom_site_fract_x
 _atom_site_fract_y
 _atom_site_fract_z
 _atom_site_occupancy
  Tb  Tb0  1  0.733678  0.733678  0.250000  1
  Tb  Tb1  1  0.993404  0.733351  0.750000  1
  Tb  Tb2  1  0.733351  0.993404  0.750000  1
  Tb  Tb3  1  0.335857  0.665860  0.500659  1
  Tb  Tb4  1  0.267720  0.267720  0.750000  1
  Tb  Tb5  1  0.000900  0.264665  0.250000  1
  Tb  Tb6  1  0.665860  0.335857  0.500659  1
  Tb  Tb7  1  0.264665  0.000900  0.250000  1
  Tb  Tb8  1  0.335857  0.665860  0.999341  1
  Tb  Tb9  1  0.665860  0.335857  0.999341  1
  In  In10  1  0.609994  0.609994  0.750000  1
  Bi  Bi11  1  0.385242  0.998201  0.750000  1
  Bi  Bi12  1  0.001182  0.613967  0.250000  1
  Bi  Bi13  1  0.613967  0.001182  0.250000  1
  Bi  Bi14  1  0.998201  0.385242  0.750000  1
  Bi  Bi15  1  0.389016  0.389016  0.250000  1
  Cl  Cl16  1  0.002623  0.002623  0.499132  1
  Cl  Cl17  1  0.002623  0.002623  0.000868  1
