# generated using pymatgen
data_Ca4PrEr(Si3Os)8
_symmetry_space_group_name_H-M   'P 1'
_cell_length_a   10.18832798
_cell_length_b   10.18863708
_cell_length_c   8.20870686
_cell_angle_alpha   89.84723230
_cell_angle_beta   90.17814920
_cell_angle_gamma   132.48610402
_symmetry_Int_Tables_number   1
_chemical_formula_structural   Ca4PrEr(Si3Os)8
_chemical_formula_sum   'Ca4 Pr1 Er1 Si24 Os8'
_cell_volume   628.37501311
_cell_formula_units_Z   1
loop_
 _symmetry_equiv_pos_site_id
 _symmetry_equiv_pos_as_xyz
  1  'x, y, z'
loop_
 _atom_site_type_symbol
 _atom_site_label
 _atom_site_symmetry_multiplicity
 _atom_site_fract_x
 _atom_site_fract_y
 _atom_site_fract_z
 _atom_site_occupancy
  Ca  Ca0  1  0.499621  0.999768  0.750173  1
  Ca  Ca1  1  0.000567  0.500630  0.249895  1
  Ca  Ca2  1  0.499818  0.999702  0.249912  1
  Ca  Ca3  1  0.999671  0.999808  0.000201  1
  Pr  Pr4  1  0.999358  0.499173  0.750098  1
  Er  Er5  1  0.499671  0.499684  0.499546  1
  Si  Si6  1  0.790763  0.201956  0.496090  1
  Si  Si7  1  0.701423  0.291057  0.004032  1
  Si  Si8  1  0.209240  0.797456  0.496619  1
  Si  Si9  1  0.297888  0.708845  0.003432  1
  Si  Si10  1  0.664775  0.668756  0.166888  1
  Si  Si11  1  0.166491  0.162255  0.330611  1
  Si  Si12  1  0.835654  0.834284  0.669283  1
  Si  Si13  1  0.332031  0.333351  0.833135  1
  Si  Si14  1  0.845852  0.613632  0.993854  1
  Si  Si15  1  0.111085  0.344132  0.505256  1
  Si  Si16  1  0.655036  0.888883  0.493304  1
  Si  Si17  1  0.386233  0.153298  0.007539  1
  Si  Si18  1  0.153911  0.386909  0.008110  1
  Si  Si19  1  0.889506  0.655675  0.492933  1
  Si  Si20  1  0.123588  0.890931  0.729571  1
  Si  Si21  1  0.391106  0.624176  0.771508  1
  Si  Si22  1  0.376767  0.610153  0.228990  1
  Si  Si23  1  0.110471  0.877318  0.269987  1
  Si  Si24  1  0.877549  0.110445  0.270347  1
  Si  Si25  1  0.610286  0.377134  0.228702  1
  Si  Si26  1  0.622203  0.389818  0.772161  1
  Si  Si27  1  0.889446  0.121507  0.728848  1
  Si  Si28  1  0.613629  0.847483  0.993321  1
  Si  Si29  1  0.345711  0.111093  0.505551  1
  Os  Os30  1  0.625203  0.625621  0.872636  1
  Os  Os31  1  0.129786  0.129375  0.623226  1
  Os  Os32  1  0.374288  0.374106  0.127459  1
  Os  Os33  1  0.869877  0.870178  0.376691  1
  Os  Os34  1  0.169042  0.830933  0.999877  1
  Os  Os35  1  0.332336  0.667699  0.500165  1
  Os  Os36  1  0.831279  0.170154  0.999302  1
  Os  Os37  1  0.668840  0.332622  0.500746  1
