# generated using pymatgen
data_Ce2Mn21RuC3
_symmetry_space_group_name_H-M   'P 1'
_cell_length_a   6.53926728
_cell_length_b   7.77931109
_cell_length_c   7.80719800
_cell_angle_alpha   98.99393479
_cell_angle_beta   115.02757727
_cell_angle_gamma   65.41603186
_symmetry_Int_Tables_number   1
_chemical_formula_structural   Ce2Mn21RuC3
_chemical_formula_sum   'Ce2 Mn21 Ru1 C3'
_cell_volume   327.15388370
_cell_formula_units_Z   1
loop_
 _symmetry_equiv_pos_site_id
 _symmetry_equiv_pos_as_xyz
  1  'x, y, z'
loop_
 _atom_site_type_symbol
 _atom_site_label
 _atom_site_symmetry_multiplicity
 _atom_site_fract_x
 _atom_site_fract_y
 _atom_site_fract_z
 _atom_site_occupancy
  Ce  Ce0  1  0.382075  0.749639  0.249639  1
  Ce  Ce1  1  0.621109  0.249728  0.749728  1
  Mn  Mn2  1  0.000355  0.501864  0.001864  1
  Mn  Mn3  1  0.996842  0.503096  0.497044  1
  Mn  Mn4  1  0.502894  0.997044  0.003096  1
  Mn  Mn5  1  0.001575  0.996611  0.496611  1
  Mn  Mn6  1  0.881404  0.752619  0.252619  1
  Mn  Mn7  1  0.175182  0.177842  0.415110  1
  Mn  Mn8  1  0.437915  0.915110  0.677842  1
  Mn  Mn9  1  0.855051  0.821666  0.919697  1
  Mn  Mn10  1  0.257019  0.419697  0.321666  1
  Mn  Mn11  1  0.188963  0.573399  0.831277  1
  Mn  Mn12  1  0.431084  0.331277  0.073399  1
  Mn  Mn13  1  0.846058  0.092351  0.169554  1
  Mn  Mn14  1  0.268854  0.669554  0.592351  1
  Mn  Mn15  1  0.824673  0.823902  0.586093  1
  Mn  Mn16  1  0.562481  0.086093  0.323902  1
  Mn  Mn17  1  0.144484  0.175841  0.079096  1
  Mn  Mn18  1  0.741229  0.579096  0.675841  1
  Mn  Mn19  1  0.810545  0.425845  0.168348  1
  Mn  Mn20  1  0.568042  0.668348  0.925845  1
  Mn  Mn21  1  0.152059  0.909880  0.830572  1
  Mn  Mn22  1  0.731367  0.330572  0.409880  1
  Ru  Ru23  1  0.121759  0.248216  0.748216  1
  C  C24  1  0.497158  0.501153  0.498528  1
  C  C25  1  0.999783  0.998528  0.001153  1
  C  C26  1  0.500044  0.001027  0.501027  1
