# generated using pymatgen
data_Ce4Cu3Sb8
_symmetry_space_group_name_H-M   'P 1'
_cell_length_a   10.58457869
_cell_length_b   10.58457835
_cell_length_c   10.58457873
_cell_angle_alpha   145.84368986
_cell_angle_beta   145.84368916
_cell_angle_gamma   49.07899763
_symmetry_Int_Tables_number   1
_chemical_formula_structural   Ce4Cu3Sb8
_chemical_formula_sum   'Ce4 Cu3 Sb8'
_cell_volume   372.13768493
_cell_formula_units_Z   1
loop_
 _symmetry_equiv_pos_site_id
 _symmetry_equiv_pos_as_xyz
  1  'x, y, z'
loop_
 _atom_site_type_symbol
 _atom_site_label
 _atom_site_symmetry_multiplicity
 _atom_site_fract_x
 _atom_site_fract_y
 _atom_site_fract_z
 _atom_site_occupancy
  Ce  Ce0  1  0.631314  0.631314  0.503756  1
  Ce  Ce1  1  0.127557  0.127557  0.496244  1
  Ce  Ce2  1  0.368686  0.872443  0.000000  1
  Ce  Ce3  1  0.872443  0.368686  0.000000  1
  Cu  Cu4  1  0.000000  0.000000  0.000000  1
  Cu  Cu5  1  0.000000  0.500000  0.500000  1
  Cu  Cu6  1  0.500000  0.000000  0.500000  1
  Sb  Sb7  1  0.330979  0.330979  0.510263  1
  Sb  Sb8  1  0.820716  0.820716  0.489737  1
  Sb  Sb9  1  0.669021  0.179284  0.000000  1
  Sb  Sb10  1  0.179284  0.669021  0.000000  1
  Sb  Sb11  1  0.249964  0.249964  0.000000  1
  Sb  Sb12  1  0.750036  0.750036  0.000000  1
  Sb  Sb13  1  0.750000  0.250000  0.500000  1
  Sb  Sb14  1  0.250000  0.750000  0.500000  1
