# generated using pymatgen
data_Ho3ErFe5Os3
_symmetry_space_group_name_H-M   'P 1'
_cell_length_a   5.23113919
_cell_length_b   5.21774550
_cell_length_c   9.00557208
_cell_angle_alpha   72.79715081
_cell_angle_beta   90.84121944
_cell_angle_gamma   120.25544751
_symmetry_Int_Tables_number   1
_chemical_formula_structural   Ho3ErFe5Os3
_chemical_formula_sum   'Ho3 Er1 Fe5 Os3'
_cell_volume   200.11863990
_cell_formula_units_Z   1
loop_
 _symmetry_equiv_pos_site_id
 _symmetry_equiv_pos_as_xyz
  1  'x, y, z'
loop_
 _atom_site_type_symbol
 _atom_site_label
 _atom_site_symmetry_multiplicity
 _atom_site_fract_x
 _atom_site_fract_y
 _atom_site_fract_z
 _atom_site_occupancy
  Ho  Ho0  1  0.375922  0.749887  0.873552  1
  Ho  Ho1  1  0.998856  0.999233  0.998944  1
  Ho  Ho2  1  0.499058  0.000342  0.501116  1
  Er  Er3  1  0.876204  0.750710  0.376181  1
  Fe  Fe4  1  0.937391  0.874619  0.687675  1
  Fe  Fe5  1  0.183913  0.369765  0.443305  1
  Fe  Fe6  1  0.691177  0.380270  0.931607  1
  Fe  Fe7  1  0.937415  0.375124  0.187271  1
  Fe  Fe8  1  0.437732  0.374931  0.687720  1
  Os  Os9  1  0.437360  0.375020  0.187683  1
  Os  Os10  1  0.937507  0.375163  0.687303  1
  Os  Os11  1  0.437464  0.874937  0.187645  1
