# generated using pymatgen
data_Dy2Ho3Er3Ga3Os
_symmetry_space_group_name_H-M   'P 1'
_cell_length_a   9.96956510
_cell_length_b   9.96956508
_cell_length_c   7.07326307
_cell_angle_alpha   90.01328176
_cell_angle_beta   89.98671076
_cell_angle_gamma   120.00361040
_symmetry_Int_Tables_number   1
_chemical_formula_structural   Dy2Ho3Er3Ga3Os
_chemical_formula_sum   'Dy4 Ho6 Er6 Ga6 Os2'
_cell_volume   608.81739463
_cell_formula_units_Z   2
loop_
 _symmetry_equiv_pos_site_id
 _symmetry_equiv_pos_as_xyz
  1  'x, y, z'
loop_
 _atom_site_type_symbol
 _atom_site_label
 _atom_site_symmetry_multiplicity
 _atom_site_fract_x
 _atom_site_fract_y
 _atom_site_fract_z
 _atom_site_occupancy
  Dy  Dy0  1  0.930731  0.465476  0.705493  1
  Dy  Dy1  1  0.534524  0.069269  0.705493  1
  Dy  Dy2  1  0.000010  0.999990  0.234694  1
  Dy  Dy3  1  0.000047  0.999953  0.734868  1
  Ho  Ho4  1  0.333484  0.666516  0.838396  1
  Ho  Ho5  1  0.666554  0.333446  0.338162  1
  Ho  Ho6  1  0.464996  0.535004  0.205219  1
  Ho  Ho7  1  0.070134  0.535083  0.205358  1
  Ho  Ho8  1  0.464917  0.929866  0.205358  1
  Ho  Ho9  1  0.534836  0.465164  0.705322  1
  Er  Er10  1  0.171579  0.828421  0.510966  1
  Er  Er11  1  0.656661  0.828163  0.511221  1
  Er  Er12  1  0.171837  0.343339  0.511221  1
  Er  Er13  1  0.828411  0.171589  0.011826  1
  Er  Er14  1  0.343292  0.171769  0.011716  1
  Er  Er15  1  0.828231  0.656708  0.011716  1
  Ga  Ga16  1  0.163853  0.836147  0.956175  1
  Ga  Ga17  1  0.672270  0.836123  0.956166  1
  Ga  Ga18  1  0.163877  0.327730  0.956166  1
  Ga  Ga19  1  0.836237  0.163763  0.455517  1
  Ga  Ga20  1  0.327589  0.163913  0.455844  1
  Ga  Ga21  1  0.836087  0.672411  0.455844  1
  Os  Os22  1  0.333338  0.666662  0.445848  1
  Os  Os23  1  0.666506  0.333494  0.946249  1
