# generated using pymatgen
data_La3Pr2Y(RuI3)2
_symmetry_space_group_name_H-M   'P 1'
_cell_length_a   4.35491500
_cell_length_b   9.56423922
_cell_length_c   12.51702173
_cell_angle_alpha   87.87913981
_cell_angle_beta   90.00000000
_cell_angle_gamma   90.00000000
_symmetry_Int_Tables_number   1
_chemical_formula_structural   La3Pr2Y(RuI3)2
_chemical_formula_sum   'La3 Pr2 Y1 Ru2 I6'
_cell_volume   520.99495672
_cell_formula_units_Z   1
loop_
 _symmetry_equiv_pos_site_id
 _symmetry_equiv_pos_as_xyz
  1  'x, y, z'
loop_
 _atom_site_type_symbol
 _atom_site_label
 _atom_site_symmetry_multiplicity
 _atom_site_fract_x
 _atom_site_fract_y
 _atom_site_fract_z
 _atom_site_occupancy
  La  La0  1  0.250000  0.315885  0.882289  1
  La  La1  1  0.250000  0.881083  0.327466  1
  La  La2  1  0.750000  0.113994  0.670560  1
  Pr  Pr3  1  0.250000  0.899591  0.898400  1
  Pr  Pr4  1  0.750000  0.095411  0.103798  1
  Y  Y5  1  0.750000  0.691459  0.119846  1
  Ru  Ru6  1  0.250000  0.883686  0.129593  1
  Ru  Ru7  1  0.750000  0.116440  0.868528  1
  I  I8  1  0.250000  0.862169  0.620077  1
  I  I9  1  0.750000  0.133430  0.379147  1
  I  I10  1  0.750000  0.628046  0.369299  1
  I  I11  1  0.250000  0.366798  0.622468  1
  I  I12  1  0.250000  0.402807  0.136439  1
  I  I13  1  0.750000  0.609200  0.872089  1
