# generated using pymatgen
data_Dy10Ho10Ir11Ru
_symmetry_space_group_name_H-M   'P 1'
_cell_length_a   10.84779302
_cell_length_b   10.84665000
_cell_length_c   6.38554801
_cell_angle_alpha   90.00042665
_cell_angle_beta   90.00660308
_cell_angle_gamma   89.99968306
_symmetry_Int_Tables_number   1
_chemical_formula_structural   Dy10Ho10Ir11Ru
_chemical_formula_sum   'Dy10 Ho10 Ir11 Ru1'
_cell_volume   751.33771241
_cell_formula_units_Z   1
loop_
 _symmetry_equiv_pos_site_id
 _symmetry_equiv_pos_as_xyz
  1  'x, y, z'
loop_
 _atom_site_type_symbol
 _atom_site_label
 _atom_site_symmetry_multiplicity
 _atom_site_fract_x
 _atom_site_fract_y
 _atom_site_fract_z
 _atom_site_occupancy
  Dy  Dy0  1  0.292125  0.087201  0.376681  1
  Dy  Dy1  1  0.292440  0.912762  0.879443  1
  Dy  Dy2  1  0.707569  0.087268  0.879495  1
  Dy  Dy3  1  0.707881  0.912776  0.376722  1
  Dy  Dy4  1  0.587268  0.792429  0.879501  1
  Dy  Dy5  1  0.587224  0.207893  0.376733  1
  Dy  Dy6  1  0.412856  0.792167  0.376775  1
  Dy  Dy7  1  0.412811  0.207520  0.879540  1
  Dy  Dy8  1  0.209064  0.411846  0.622033  1
  Dy  Dy9  1  0.209045  0.588015  0.121715  1
  Ho  Ho10  1  0.791120  0.412051  0.121477  1
  Ho  Ho11  1  0.791107  0.588090  0.621815  1
  Ho  Ho12  1  0.911959  0.708907  0.121501  1
  Ho  Ho13  1  0.911823  0.291075  0.621834  1
  Ho  Ho14  1  0.087965  0.709023  0.621837  1
  Ho  Ho15  1  0.087832  0.291000  0.121503  1
  Ho  Ho16  1  0.000005  0.999994  0.499492  1
  Ho  Ho17  1  0.000001  0.000005  0.999446  1
  Ho  Ho18  1  0.500120  0.499961  0.999429  1
  Ho  Ho19  1  0.500113  0.500039  0.499479  1
  Ir  Ir20  1  0.847388  0.153796  0.250206  1
  Ir  Ir21  1  0.847482  0.846541  0.749945  1
  Ir  Ir22  1  0.152479  0.153284  0.750034  1
  Ir  Ir23  1  0.152561  0.846366  0.250281  1
  Ir  Ir24  1  0.653456  0.347474  0.749943  1
  Ir  Ir25  1  0.653810  0.652612  0.250200  1
  Ir  Ir26  1  0.346360  0.347201  0.249949  1
  Ir  Ir27  1  0.346701  0.652709  0.749703  1
  Ir  Ir28  1  0.500007  0.999985  0.622595  1
  Ir  Ir29  1  0.999713  0.500004  0.878747  1
  Ir  Ir30  1  0.999710  0.499997  0.378869  1
  Ru  Ru31  1  0.500003  0.000011  0.123084  1
