# generated using pymatgen
data_BaTbPPt8
_symmetry_space_group_name_H-M   'P 1'
_cell_length_a   9.38354872
_cell_length_b   9.36102604
_cell_length_c   4.29127000
_cell_angle_alpha   90.00000000
_cell_angle_beta   90.00000000
_cell_angle_gamma   145.80345422
_symmetry_Int_Tables_number   1
_chemical_formula_structural   BaTbPPt8
_chemical_formula_sum   'Ba1 Tb1 P1 Pt8'
_cell_volume   211.85495240
_cell_formula_units_Z   1
loop_
 _symmetry_equiv_pos_site_id
 _symmetry_equiv_pos_as_xyz
  1  'x, y, z'
loop_
 _atom_site_type_symbol
 _atom_site_label
 _atom_site_symmetry_multiplicity
 _atom_site_fract_x
 _atom_site_fract_y
 _atom_site_fract_z
 _atom_site_occupancy
  Ba  Ba0  1  0.620473  0.382883  0.500000  1
  Tb  Tb1  1  0.365692  0.625552  0.500000  1
  P  P2  1  0.212869  0.210269  0.000000  1
  Pt  Pt3  1  0.114223  0.889851  0.000000  1
  Pt  Pt4  1  0.894018  0.109972  0.000000  1
  Pt  Pt5  1  0.496707  0.978213  0.000000  1
  Pt  Pt6  1  0.003795  0.491383  0.000000  1
  Pt  Pt7  1  0.202056  0.790508  0.500000  1
  Pt  Pt8  1  0.797723  0.191257  0.500000  1
  Pt  Pt9  1  0.005987  0.011387  0.500000  1
  Pt  Pt10  1  0.600056  0.632324  0.000000  1
