# generated using pymatgen
data_Dy3Th(SbSe)4
_symmetry_space_group_name_H-M   'P 1'
_cell_length_a   4.19823600
_cell_length_b   4.20040620
_cell_length_c   17.68477906
_cell_angle_alpha   89.90144440
_cell_angle_beta   90.00000000
_cell_angle_gamma   90.00000000
_symmetry_Int_Tables_number   1
_chemical_formula_structural   Dy3Th(SbSe)4
_chemical_formula_sum   'Dy3 Th1 Sb4 Se4'
_cell_volume   311.85817632
_cell_formula_units_Z   1
loop_
 _symmetry_equiv_pos_site_id
 _symmetry_equiv_pos_as_xyz
  1  'x, y, z'
loop_
 _atom_site_type_symbol
 _atom_site_label
 _atom_site_symmetry_multiplicity
 _atom_site_fract_x
 _atom_site_fract_y
 _atom_site_fract_z
 _atom_site_occupancy
  Dy  Dy0  1  0.750000  0.238622  0.857181  1
  Dy  Dy1  1  0.750000  0.259702  0.351917  1
  Dy  Dy2  1  0.250000  0.759432  0.147232  1
  Th  Th3  1  0.250000  0.742982  0.645482  1
  Sb  Sb4  1  0.250000  0.249888  0.498601  1
  Sb  Sb5  1  0.250000  0.253193  0.000077  1
  Sb  Sb6  1  0.750000  0.750907  0.498696  1
  Sb  Sb7  1  0.750000  0.743186  0.000082  1
  Se  Se8  1  0.750000  0.241364  0.685976  1
  Se  Se9  1  0.750000  0.261056  0.186903  1
  Se  Se10  1  0.250000  0.761240  0.313358  1
  Se  Se11  1  0.250000  0.738427  0.814496  1
