# generated using pymatgen
data_Ce2Nd2HfZr3O14
_symmetry_space_group_name_H-M   'P 1'
_cell_length_a   7.63241088
_cell_length_b   7.61758078
_cell_length_c   7.63241102
_cell_angle_alpha   59.99231106
_cell_angle_beta   60.08966318
_cell_angle_gamma   59.99231293
_symmetry_Int_Tables_number   1
_chemical_formula_structural   Ce2Nd2HfZr3O14
_chemical_formula_sum   'Ce2 Nd2 Hf1 Zr3 O14'
_cell_volume   313.95575198
_cell_formula_units_Z   1
loop_
 _symmetry_equiv_pos_site_id
 _symmetry_equiv_pos_as_xyz
  1  'x, y, z'
loop_
 _atom_site_type_symbol
 _atom_site_label
 _atom_site_symmetry_multiplicity
 _atom_site_fract_x
 _atom_site_fract_y
 _atom_site_fract_z
 _atom_site_occupancy
  Ce  Ce0  1  0.125000  0.625000  0.125000  1
  Ce  Ce1  1  0.125000  0.125000  0.125000  1
  Nd  Nd2  1  0.625000  0.125000  0.125000  1
  Nd  Nd3  1  0.125000  0.125000  0.625000  1
  Hf  Hf4  1  0.625000  0.625000  0.625000  1
  Zr  Zr5  1  0.125000  0.625000  0.625000  1
  Zr  Zr6  1  0.625000  0.125000  0.625000  1
  Zr  Zr7  1  0.625000  0.625000  0.125000  1
  O  O8  1  0.706901  0.707944  0.294822  1
  O  O9  1  0.289255  0.288439  0.708691  1
  O  O10  1  0.708362  0.293678  0.708362  1
  O  O11  1  0.289683  0.709446  0.289683  1
  O  O12  1  0.294822  0.707944  0.706901  1
  O  O13  1  0.708691  0.288439  0.289255  1
  O  O14  1  0.543099  0.542056  0.955178  1
  O  O15  1  0.960745  0.961561  0.541309  1
  O  O16  1  0.541638  0.956322  0.541638  1
  O  O17  1  0.960317  0.540554  0.960317  1
  O  O18  1  0.955178  0.542056  0.543099  1
  O  O19  1  0.541309  0.961561  0.960745  1
  O  O20  1  0.249422  0.251209  0.249422  1
  O  O21  1  0.000578  0.998791  0.000578  1
