# generated using pymatgen
data_La5NdPd7Rh
_symmetry_space_group_name_H-M   'P 1'
_cell_length_a   8.22835306
_cell_length_b   8.22313011
_cell_length_c   8.23706665
_cell_angle_alpha   114.48253052
_cell_angle_beta   114.59194944
_cell_angle_gamma   114.15893156
_symmetry_Int_Tables_number   1
_chemical_formula_structural   La5NdPd7Rh
_chemical_formula_sum   'La5 Nd1 Pd7 Rh1'
_cell_volume   328.03304650
_cell_formula_units_Z   1
loop_
 _symmetry_equiv_pos_site_id
 _symmetry_equiv_pos_as_xyz
  1  'x, y, z'
loop_
 _atom_site_type_symbol
 _atom_site_label
 _atom_site_symmetry_multiplicity
 _atom_site_fract_x
 _atom_site_fract_y
 _atom_site_fract_z
 _atom_site_occupancy
  La  La0  1  0.972273  0.603606  0.723913  1
  La  La1  1  0.725534  0.970728  0.601336  1
  La  La2  1  0.602103  0.724404  0.972794  1
  La  La3  1  0.027321  0.397682  0.274532  1
  La  La4  1  0.275408  0.028688  0.398659  1
  Nd  Nd5  1  0.397736  0.275291  0.027113  1
  Pd  Pd6  1  0.499366  0.498869  0.497960  1
  Pd  Pd7  1  0.941419  0.775242  0.444104  1
  Pd  Pd8  1  0.443669  0.940980  0.775089  1
  Pd  Pd9  1  0.774517  0.443485  0.942168  1
  Pd  Pd10  1  0.060536  0.225980  0.559178  1
  Pd  Pd11  1  0.555924  0.060132  0.224483  1
  Pd  Pd12  1  0.225113  0.555551  0.058935  1
  Rh  Rh13  1  0.999080  0.999363  0.999736  1
