# generated using pymatgen
data_PtRh2PbO6
_symmetry_space_group_name_H-M   'P 1'
_cell_length_a   6.30654226
_cell_length_b   6.30654237
_cell_length_c   3.28242400
_cell_angle_alpha   90.00000000
_cell_angle_beta   90.00000000
_cell_angle_gamma   109.17089757
_symmetry_Int_Tables_number   1
_chemical_formula_structural   PtRh2PbO6
_chemical_formula_sum   'Pt1 Rh2 Pb1 O6'
_cell_volume   123.31024912
_cell_formula_units_Z   1
loop_
 _symmetry_equiv_pos_site_id
 _symmetry_equiv_pos_as_xyz
  1  'x, y, z'
loop_
 _atom_site_type_symbol
 _atom_site_label
 _atom_site_symmetry_multiplicity
 _atom_site_fract_x
 _atom_site_fract_y
 _atom_site_fract_z
 _atom_site_occupancy
  Pt  Pt0  1  0.000000  0.000000  0.000000  1
  Rh  Rh1  1  0.000000  0.500000  0.500000  1
  Rh  Rh2  1  0.500000  0.000000  0.500000  1
  Pb  Pb3  1  0.500000  0.500000  0.000000  1
  O  O4  1  0.667008  0.928208  0.000000  1
  O  O5  1  0.332992  0.071792  0.000000  1
  O  O6  1  0.928208  0.667008  0.000000  1
  O  O7  1  0.071792  0.332992  0.000000  1
  O  O8  1  0.667918  0.332082  0.500000  1
  O  O9  1  0.332082  0.667918  0.500000  1
