# generated using pymatgen
data_YbPr3Ga18Pd5Ru
_symmetry_space_group_name_H-M   'P 1'
_cell_length_a   7.74503156
_cell_length_b   7.73591096
_cell_length_c   9.71103857
_cell_angle_alpha   90.04002182
_cell_angle_beta   89.98187009
_cell_angle_gamma   119.74021251
_symmetry_Int_Tables_number   1
_chemical_formula_structural   YbPr3Ga18Pd5Ru
_chemical_formula_sum   'Yb1 Pr3 Ga18 Pd5 Ru1'
_cell_volume   505.19821691
_cell_formula_units_Z   1
loop_
 _symmetry_equiv_pos_site_id
 _symmetry_equiv_pos_as_xyz
  1  'x, y, z'
loop_
 _atom_site_type_symbol
 _atom_site_label
 _atom_site_symmetry_multiplicity
 _atom_site_fract_x
 _atom_site_fract_y
 _atom_site_fract_z
 _atom_site_occupancy
  Yb  Yb0  1  0.997536  0.668324  0.249551  1
  Pr  Pr1  1  0.002680  0.333770  0.751160  1
  Pr  Pr2  1  0.667551  0.997552  0.248561  1
  Pr  Pr3  1  0.331880  0.001000  0.751205  1
  Ga  Ga4  1  0.127056  0.125503  0.253842  1
  Ga  Ga5  1  0.872396  0.871628  0.745830  1
  Ga  Ga6  1  0.003505  0.338751  0.083435  1
  Ga  Ga7  1  0.996177  0.666228  0.924162  1
  Ga  Ga8  1  0.999215  0.671030  0.570883  1
  Ga  Ga9  1  0.323891  0.995816  0.421469  1
  Ga  Ga10  1  0.001182  0.332985  0.421711  1
  Ga  Ga11  1  0.671111  0.999225  0.575241  1
  Ga  Ga12  1  0.666130  0.996110  0.919919  1
  Ga  Ga13  1  0.329995  0.999159  0.082626  1
  Ga  Ga14  1  0.328184  0.327917  0.558913  1
  Ga  Ga15  1  0.676390  0.672520  0.437524  1
  Ga  Ga16  1  0.667617  0.663870  0.066867  1
  Ga  Ga17  1  0.335471  0.335449  0.936370  1
  Ga  Ga18  1  0.339455  0.543082  0.250972  1
  Ga  Ga19  1  0.660837  0.458138  0.749017  1
  Ga  Ga20  1  0.544913  0.342246  0.250985  1
  Ga  Ga21  1  0.458560  0.659525  0.748911  1
  Pd  Pd22  1  0.670046  0.328539  0.000749  1
  Pd  Pd23  1  0.329448  0.670487  0.000414  1
  Pd  Pd24  1  0.330478  0.670592  0.499959  1
  Pd  Pd25  1  0.669475  0.329026  0.499399  1
  Pd  Pd26  1  0.999418  0.000151  0.000871  1
  Ru  Ru27  1  0.999402  0.001376  0.499452  1
