# generated using pymatgen
data_La3Th(Ge2Pt)4
_symmetry_space_group_name_H-M   'P 1'
_cell_length_a   9.72631047
_cell_length_b   9.72631021
_cell_length_c   9.72631000
_cell_angle_alpha   153.39413969
_cell_angle_beta   125.63684325
_cell_angle_gamma   61.52637259
_symmetry_Int_Tables_number   1
_chemical_formula_structural   La3Th(Ge2Pt)4
_chemical_formula_sum   'La3 Th1 Ge8 Pt4'
_cell_volume   332.42722715
_cell_formula_units_Z   1
loop_
 _symmetry_equiv_pos_site_id
 _symmetry_equiv_pos_as_xyz
  1  'x, y, z'
loop_
 _atom_site_type_symbol
 _atom_site_label
 _atom_site_symmetry_multiplicity
 _atom_site_fract_x
 _atom_site_fract_y
 _atom_site_fract_z
 _atom_site_occupancy
  La  La0  1  0.296557  0.796557  0.500000  1
  La  La1  1  0.746742  0.999691  0.747051  1
  La  La2  1  0.252639  0.999691  0.252949  1
  Th  Th3  1  0.703530  0.203530  0.500000  1
  Ge  Ge4  1  0.927349  0.427349  0.500000  1
  Ge  Ge5  1  0.075765  0.575765  0.500000  1
  Ge  Ge6  1  0.573036  0.573036  0.000000  1
  Ge  Ge7  1  0.653200  0.802796  0.850403  1
  Ge  Ge8  1  0.425298  0.425298  0.000000  1
  Ge  Ge9  1  0.952393  0.802796  0.149597  1
  Ge  Ge10  1  0.346544  0.197419  0.149125  1
  Ge  Ge11  1  0.048295  0.197419  0.850875  1
  Pt  Pt12  1  0.602880  0.349392  0.253488  1
  Pt  Pt13  1  0.401013  0.649934  0.751080  1
  Pt  Pt14  1  0.095904  0.349392  0.746512  1
  Pt  Pt15  1  0.898854  0.649934  0.248920  1
