# generated using pymatgen
data_MoIBr8
_symmetry_space_group_name_H-M   'P 1'
_cell_length_a   7.90060600
_cell_length_b   7.90060600
_cell_length_c   25.99322500
_cell_angle_alpha   90.00000000
_cell_angle_beta   90.00000000
_cell_angle_gamma   90.00000000
_symmetry_Int_Tables_number   1
_chemical_formula_structural   MoIBr8
_chemical_formula_sum   'Mo4 I4 Br32'
_cell_volume   1622.48606173
_cell_formula_units_Z   4
loop_
 _symmetry_equiv_pos_site_id
 _symmetry_equiv_pos_as_xyz
  1  'x, y, z'
loop_
 _atom_site_type_symbol
 _atom_site_label
 _atom_site_symmetry_multiplicity
 _atom_site_fract_x
 _atom_site_fract_y
 _atom_site_fract_z
 _atom_site_occupancy
  Mo  Mo0  1  0.224248  0.984645  0.001977  1
  Mo  Mo1  1  0.015355  0.224248  0.251977  1
  Mo  Mo2  1  0.775752  0.015355  0.501977  1
  Mo  Mo3  1  0.984645  0.775752  0.751977  1
  I  I4  1  0.771336  0.870855  0.121671  1
  I  I5  1  0.129145  0.771336  0.371671  1
  I  I6  1  0.228665  0.129145  0.621671  1
  I  I7  1  0.870855  0.228665  0.871671  1
  Br  Br8  1  0.938896  0.091768  0.049974  1
  Br  Br9  1  0.350281  0.220775  0.049034  1
  Br  Br10  1  0.782706  0.615128  0.057966  1
  Br  Br11  1  0.268561  0.766899  0.066161  1
  Br  Br12  1  0.751659  0.166468  0.184018  1
  Br  Br13  1  0.593854  0.707400  0.190989  1
  Br  Br14  1  0.171732  0.030740  0.197787  1
  Br  Br15  1  0.084343  0.480704  0.204922  1
  Br  Br16  1  0.908232  0.938896  0.299974  1
  Br  Br17  1  0.779225  0.350281  0.299034  1
  Br  Br18  1  0.384873  0.782706  0.307965  1
  Br  Br19  1  0.233101  0.268561  0.316161  1
  Br  Br20  1  0.833531  0.751659  0.434018  1
  Br  Br21  1  0.292599  0.593854  0.440989  1
  Br  Br22  1  0.969260  0.171732  0.447788  1
  Br  Br23  1  0.519297  0.084343  0.454922  1
  Br  Br24  1  0.061105  0.908232  0.549974  1
  Br  Br25  1  0.649719  0.779225  0.549034  1
  Br  Br26  1  0.217294  0.384873  0.557966  1
  Br  Br27  1  0.731439  0.233101  0.566161  1
  Br  Br28  1  0.248340  0.833531  0.684018  1
  Br  Br29  1  0.406147  0.292599  0.690989  1
  Br  Br30  1  0.828268  0.969260  0.697788  1
  Br  Br31  1  0.915656  0.519297  0.704922  1
  Br  Br32  1  0.091768  0.061105  0.799973  1
  Br  Br33  1  0.220775  0.649719  0.799034  1
  Br  Br34  1  0.615128  0.217294  0.807966  1
  Br  Br35  1  0.766899  0.731439  0.816160  1
  Br  Br36  1  0.166468  0.248340  0.934019  1
  Br  Br37  1  0.707400  0.406147  0.940989  1
  Br  Br38  1  0.030740  0.828268  0.947787  1
  Br  Br39  1  0.480704  0.915656  0.954922  1
