# generated using pymatgen
data_Zr4Nb5ReN12
_symmetry_space_group_name_H-M   'P 1'
_cell_length_a   5.31479200
_cell_length_b   5.28992687
_cell_length_c   10.74814200
_cell_angle_alpha   90.00000000
_cell_angle_beta   90.00000000
_cell_angle_gamma   120.15562494
_symmetry_Int_Tables_number   1
_chemical_formula_structural   Zr4Nb5ReN12
_chemical_formula_sum   'Zr4 Nb5 Re1 N12'
_cell_volume   261.28638356
_cell_formula_units_Z   1
loop_
 _symmetry_equiv_pos_site_id
 _symmetry_equiv_pos_as_xyz
  1  'x, y, z'
loop_
 _atom_site_type_symbol
 _atom_site_label
 _atom_site_symmetry_multiplicity
 _atom_site_fract_x
 _atom_site_fract_y
 _atom_site_fract_z
 _atom_site_occupancy
  Zr  Zr0  1  0.331622  0.664758  0.495257  1
  Zr  Zr1  1  0.666865  0.335242  0.004743  1
  Zr  Zr2  1  0.666865  0.335242  0.495257  1
  Zr  Zr3  1  0.331622  0.664758  0.004743  1
  Nb  Nb4  1  0.675057  0.674825  0.250000  1
  Nb  Nb5  1  0.000232  0.325175  0.250000  1
  Nb  Nb6  1  0.999292  0.673071  0.750000  1
  Nb  Nb7  1  0.326221  0.326929  0.750000  1
  Nb  Nb8  1  0.325314  0.000000  0.250000  1
  Re  Re9  1  0.674431  0.000000  0.750000  1
  N  N10  1  0.339723  0.339337  0.373687  1
  N  N11  1  0.658919  0.000000  0.374325  1
  N  N12  1  0.000386  0.660663  0.373687  1
  N  N13  1  0.995248  0.336831  0.870011  1
  N  N14  1  0.658919  0.000000  0.125675  1
  N  N15  1  0.658416  0.663169  0.870011  1
  N  N16  1  0.348549  0.000000  0.869493  1
  N  N17  1  0.658416  0.663169  0.629989  1
  N  N18  1  0.995248  0.336831  0.629989  1
  N  N19  1  0.000386  0.660663  0.126313  1
  N  N20  1  0.348549  0.000000  0.630507  1
  N  N21  1  0.339723  0.339337  0.126313  1
