# generated using pymatgen
data_Li3Nd4AlPt4
_symmetry_space_group_name_H-M   'P 1'
_cell_length_a   4.12462200
_cell_length_b   7.25169990
_cell_length_c   8.63481999
_cell_angle_alpha   88.52847609
_cell_angle_beta   90.00000000
_cell_angle_gamma   90.00000000
_symmetry_Int_Tables_number   1
_chemical_formula_structural   Li3Nd4AlPt4
_chemical_formula_sum   'Li3 Nd4 Al1 Pt4'
_cell_volume   258.18678917
_cell_formula_units_Z   1
loop_
 _symmetry_equiv_pos_site_id
 _symmetry_equiv_pos_as_xyz
  1  'x, y, z'
loop_
 _atom_site_type_symbol
 _atom_site_label
 _atom_site_symmetry_multiplicity
 _atom_site_fract_x
 _atom_site_fract_y
 _atom_site_fract_z
 _atom_site_occupancy
  Li  Li0  1  0.750000  0.874143  0.937944  1
  Li  Li1  1  0.250000  0.620349  0.447510  1
  Li  Li2  1  0.750000  0.369472  0.556438  1
  Nd  Nd3  1  0.750000  0.461245  0.186759  1
  Nd  Nd4  1  0.250000  0.046090  0.681964  1
  Nd  Nd5  1  0.750000  0.953600  0.316188  1
  Nd  Nd6  1  0.250000  0.541243  0.817236  1
  Al  Al7  1  0.250000  0.132046  0.059608  1
  Pt  Pt8  1  0.750000  0.749295  0.621845  1
  Pt  Pt9  1  0.750000  0.240094  0.897446  1
  Pt  Pt10  1  0.250000  0.245193  0.365349  1
  Pt  Pt11  1  0.250000  0.767231  0.111711  1
