# generated using pymatgen
data_Tb4Ga18PtRh5
_symmetry_space_group_name_H-M   'P 1'
_cell_length_a   7.62243916
_cell_length_b   7.62243776
_cell_length_c   9.54668368
_cell_angle_alpha   90.03385483
_cell_angle_beta   90.03384897
_cell_angle_gamma   119.95184404
_symmetry_Int_Tables_number   1
_chemical_formula_structural   Tb4Ga18PtRh5
_chemical_formula_sum   'Tb4 Ga18 Pt1 Rh5'
_cell_volume   480.59721790
_cell_formula_units_Z   1
loop_
 _symmetry_equiv_pos_site_id
 _symmetry_equiv_pos_as_xyz
  1  'x, y, z'
loop_
 _atom_site_type_symbol
 _atom_site_label
 _atom_site_symmetry_multiplicity
 _atom_site_fract_x
 _atom_site_fract_y
 _atom_site_fract_z
 _atom_site_occupancy
  Tb  Tb0  1  0.996928  0.667981  0.250450  1
  Tb  Tb1  1  0.003072  0.332019  0.749550  1
  Tb  Tb2  1  0.667981  0.996928  0.250450  1
  Tb  Tb3  1  0.332019  0.003072  0.749550  1
  Ga  Ga4  1  0.127340  0.127340  0.252734  1
  Ga  Ga5  1  0.872660  0.872660  0.747266  1
  Ga  Ga6  1  0.999730  0.337203  0.079929  1
  Ga  Ga7  1  0.000270  0.662797  0.920071  1
  Ga  Ga8  1  0.000207  0.665860  0.578434  1
  Ga  Ga9  1  0.334140  0.999793  0.421566  1
  Ga  Ga10  1  0.999793  0.334140  0.421566  1
  Ga  Ga11  1  0.665860  0.000207  0.578434  1
  Ga  Ga12  1  0.662797  0.000270  0.920071  1
  Ga  Ga13  1  0.337203  0.999730  0.079929  1
  Ga  Ga14  1  0.333329  0.333329  0.563057  1
  Ga  Ga15  1  0.666671  0.666671  0.436943  1
  Ga  Ga16  1  0.662911  0.662911  0.064254  1
  Ga  Ga17  1  0.337089  0.337089  0.935746  1
  Ga  Ga18  1  0.337700  0.547003  0.250288  1
  Ga  Ga19  1  0.662300  0.452997  0.749712  1
  Ga  Ga20  1  0.547003  0.337700  0.250288  1
  Ga  Ga21  1  0.452997  0.662300  0.749712  1
  Pt  Pt22  1  0.000000  0.000000  0.000000  1
  Rh  Rh23  1  0.671291  0.328709  0.000000  1
  Rh  Rh24  1  0.328709  0.671291  0.000000  1
  Rh  Rh25  1  0.328548  0.671452  0.500000  1
  Rh  Rh26  1  0.671452  0.328548  0.500000  1
  Rh  Rh27  1  0.000000  0.000000  0.500000  1
