# generated using pymatgen
data_La2Pr2CdCo
_symmetry_space_group_name_H-M   'P 1'
_cell_length_a   9.92312365
_cell_length_b   9.92312337
_cell_length_c   9.97283300
_cell_angle_alpha   59.83415246
_cell_angle_beta   59.83415340
_cell_angle_gamma   60.33170485
_symmetry_Int_Tables_number   1
_chemical_formula_structural   La2Pr2CdCo
_chemical_formula_sum   'La8 Pr8 Cd4 Co4'
_cell_volume   694.35004915
_cell_formula_units_Z   4
loop_
 _symmetry_equiv_pos_site_id
 _symmetry_equiv_pos_as_xyz
  1  'x, y, z'
loop_
 _atom_site_type_symbol
 _atom_site_label
 _atom_site_symmetry_multiplicity
 _atom_site_fract_x
 _atom_site_fract_y
 _atom_site_fract_z
 _atom_site_occupancy
  La  La0  1  0.344259  0.344259  0.346695  1
  La  La1  1  0.344259  0.344259  0.964786  1
  La  La2  1  0.346695  0.964786  0.344259  1
  La  La3  1  0.964786  0.346695  0.344259  1
  La  La4  1  0.811232  0.188768  0.188768  1
  La  La5  1  0.188768  0.811232  0.811232  1
  La  La6  1  0.188768  0.811232  0.188768  1
  La  La7  1  0.811232  0.188768  0.811232  1
  Pr  Pr8  1  0.192108  0.192108  0.807892  1
  Pr  Pr9  1  0.807892  0.807892  0.192108  1
  Pr  Pr10  1  0.937215  0.562785  0.562785  1
  Pr  Pr11  1  0.562785  0.937215  0.937215  1
  Pr  Pr12  1  0.562785  0.937215  0.562785  1
  Pr  Pr13  1  0.937215  0.562785  0.937215  1
  Pr  Pr14  1  0.560837  0.560837  0.939163  1
  Pr  Pr15  1  0.939163  0.939163  0.560837  1
  Cd  Cd16  1  0.579868  0.579868  0.578496  1
  Cd  Cd17  1  0.579868  0.579868  0.261767  1
  Cd  Cd18  1  0.578496  0.261767  0.579868  1
  Cd  Cd19  1  0.261767  0.578496  0.579868  1
  Co  Co20  1  0.136972  0.136972  0.146923  1
  Co  Co21  1  0.136972  0.136972  0.579134  1
  Co  Co22  1  0.146923  0.579134  0.136972  1
  Co  Co23  1  0.579134  0.146923  0.136972  1
