# generated using pymatgen
data_Dy8Ti7Nb4Si16Au
_symmetry_space_group_name_H-M   'P 1'
_cell_length_a   7.07233328
_cell_length_b   7.06714875
_cell_length_c   12.92171757
_cell_angle_alpha   89.80637892
_cell_angle_beta   90.21766758
_cell_angle_gamma   89.61534686
_symmetry_Int_Tables_number   1
_chemical_formula_structural   Dy8Ti7Nb4Si16Au
_chemical_formula_sum   'Dy8 Ti7 Nb4 Si16 Au1'
_cell_volume   645.82039536
_cell_formula_units_Z   1
loop_
 _symmetry_equiv_pos_site_id
 _symmetry_equiv_pos_as_xyz
  1  'x, y, z'
loop_
 _atom_site_type_symbol
 _atom_site_label
 _atom_site_symmetry_multiplicity
 _atom_site_fract_x
 _atom_site_fract_y
 _atom_site_fract_z
 _atom_site_occupancy
  Dy  Dy0  1  0.998051  0.655624  0.032841  1
  Dy  Dy1  1  0.000164  0.343926  0.532337  1
  Dy  Dy2  1  0.657543  0.999257  0.966420  1
  Dy  Dy3  1  0.157790  0.502289  0.783546  1
  Dy  Dy4  1  0.843176  0.498044  0.285251  1
  Dy  Dy5  1  0.503478  0.159863  0.216467  1
  Dy  Dy6  1  0.499268  0.842558  0.713975  1
  Dy  Dy7  1  0.348344  0.996419  0.468476  1
  Ti  Ti8  1  0.991980  0.851886  0.622673  1
  Ti  Ti9  1  0.503985  0.349728  0.622497  1
  Ti  Ti10  1  0.152179  0.008037  0.874656  1
  Ti  Ti11  1  0.826526  0.173274  0.749438  1
  Ti  Ti12  1  0.172249  0.827691  0.250223  1
  Ti  Ti13  1  0.492749  0.648863  0.125068  1
  Ti  Ti14  1  0.648095  0.491951  0.875522  1
  Nb  Nb15  1  0.349647  0.506221  0.376537  1
  Nb  Nb16  1  0.850956  0.993274  0.376621  1
  Nb  Nb17  1  0.009405  0.152966  0.125602  1
  Nb  Nb18  1  0.326359  0.326452  0.000012  1
  Si  Si19  1  0.060391  0.714723  0.435196  1
  Si  Si20  1  0.951059  0.290138  0.934195  1
  Si  Si21  1  0.713372  0.065028  0.567214  1
  Si  Si22  1  0.207891  0.455494  0.187189  1
  Si  Si23  1  0.790844  0.545181  0.690787  1
  Si  Si24  1  0.453413  0.208854  0.812253  1
  Si  Si25  1  0.545927  0.792824  0.308731  1
  Si  Si26  1  0.292398  0.949307  0.064156  1
  Si  Si27  1  0.796991  0.864041  0.183599  1
  Si  Si28  1  0.277626  0.627341  0.571811  1
  Si  Si29  1  0.704040  0.368997  0.065989  1
  Si  Si30  1  0.626248  0.282402  0.429611  1
  Si  Si31  1  0.368253  0.705725  0.932899  1
  Si  Si32  1  0.134997  0.202615  0.318038  1
  Si  Si33  1  0.201242  0.132168  0.683152  1
  Si  Si34  1  0.867399  0.799194  0.814719  1
  Au  Au35  1  0.675968  0.667644  0.502299  1
