# generated using pymatgen
data_Cd6AuIO12
_symmetry_space_group_name_H-M   'P 1'
_cell_length_a   5.76834511
_cell_length_b   5.61982931
_cell_length_c   9.93436876
_cell_angle_alpha   55.34007119
_cell_angle_beta   90.76576549
_cell_angle_gamma   90.59463540
_symmetry_Int_Tables_number   1
_chemical_formula_structural   Cd6AuIO12
_chemical_formula_sum   'Cd6 Au1 I1 O12'
_cell_volume   264.86918989
_cell_formula_units_Z   1
loop_
 _symmetry_equiv_pos_site_id
 _symmetry_equiv_pos_as_xyz
  1  'x, y, z'
loop_
 _atom_site_type_symbol
 _atom_site_label
 _atom_site_symmetry_multiplicity
 _atom_site_fract_x
 _atom_site_fract_y
 _atom_site_fract_z
 _atom_site_occupancy
  Cd  Cd0  1  0.954971  0.266674  0.225745  1
  Cd  Cd1  1  0.450440  0.772214  0.244648  1
  Cd  Cd2  1  0.045029  0.733326  0.774255  1
  Cd  Cd3  1  0.549560  0.227786  0.755352  1
  Cd  Cd4  1  0.000000  0.500000  0.500000  1
  Cd  Cd5  1  0.500000  0.500000  0.000000  1
  Au  Au6  1  0.000000  0.000000  0.000000  1
  I  I7  1  0.500000  0.000000  0.500000  1
  O  O8  1  0.278461  0.903026  0.913806  1
  O  O9  1  0.774713  0.074821  0.582555  1
  O  O10  1  0.721539  0.096974  0.086194  1
  O  O11  1  0.225287  0.925179  0.417445  1
  O  O12  1  0.185764  0.244500  0.052224  1
  O  O13  1  0.667918  0.767708  0.449515  1
  O  O14  1  0.814236  0.755500  0.947776  1
  O  O15  1  0.332082  0.232292  0.550485  1
  O  O16  1  0.426614  0.662291  0.714335  1
  O  O17  1  0.920704  0.353377  0.767185  1
  O  O18  1  0.573386  0.337709  0.285665  1
  O  O19  1  0.079296  0.646623  0.232815  1
