# generated using pymatgen
data_Ac4InRh
_symmetry_space_group_name_H-M   'P 1'
_cell_length_a   10.58480077
_cell_length_b   10.58480115
_cell_length_c   10.58480100
_cell_angle_alpha   59.99999733
_cell_angle_beta   59.99999614
_cell_angle_gamma   60.00000222
_symmetry_Int_Tables_number   1
_chemical_formula_structural   Ac4InRh
_chemical_formula_sum   'Ac16 In4 Rh4'
_cell_volume   838.55794246
_cell_formula_units_Z   4
loop_
 _symmetry_equiv_pos_site_id
 _symmetry_equiv_pos_as_xyz
  1  'x, y, z'
loop_
 _atom_site_type_symbol
 _atom_site_label
 _atom_site_symmetry_multiplicity
 _atom_site_fract_x
 _atom_site_fract_y
 _atom_site_fract_z
 _atom_site_occupancy
  Ac  Ac0  1  0.808055  0.808055  0.191945  1
  Ac  Ac1  1  0.808055  0.191945  0.808055  1
  Ac  Ac2  1  0.191945  0.191945  0.808055  1
  Ac  Ac3  1  0.653217  0.040349  0.653217  1
  Ac  Ac4  1  0.063384  0.063384  0.436616  1
  Ac  Ac5  1  0.436616  0.436616  0.063384  1
  Ac  Ac6  1  0.653217  0.653217  0.653217  1
  Ac  Ac7  1  0.808055  0.191945  0.191945  1
  Ac  Ac8  1  0.191945  0.808055  0.808055  1
  Ac  Ac9  1  0.040349  0.653217  0.653217  1
  Ac  Ac10  1  0.436616  0.063384  0.063384  1
  Ac  Ac11  1  0.436616  0.063384  0.436616  1
  Ac  Ac12  1  0.063384  0.436616  0.063384  1
  Ac  Ac13  1  0.653217  0.653217  0.040349  1
  Ac  Ac14  1  0.191945  0.808055  0.191945  1
  Ac  Ac15  1  0.063384  0.436616  0.436616  1
  In  In16  1  0.422829  0.422829  0.422829  1
  In  In17  1  0.422829  0.422829  0.731511  1
  In  In18  1  0.422829  0.731511  0.422829  1
  In  In19  1  0.731511  0.422829  0.422829  1
  Rh  Rh20  1  0.858791  0.423628  0.858791  1
  Rh  Rh21  1  0.858791  0.858791  0.858791  1
  Rh  Rh22  1  0.858791  0.858791  0.423628  1
  Rh  Rh23  1  0.423628  0.858791  0.858791  1
