# generated using pymatgen
data_Ho3Sc7(Co2Si5)4
_symmetry_space_group_name_H-M   'P 1'
_cell_length_a   12.09600253
_cell_length_b   12.09600170
_cell_length_c   3.96640700
_cell_angle_alpha   90.00000000
_cell_angle_beta   90.00000000
_cell_angle_gamma   90.00158681
_symmetry_Int_Tables_number   1
_chemical_formula_structural   Ho3Sc7(Co2Si5)4
_chemical_formula_sum   'Ho3 Sc7 Co8 Si20'
_cell_volume   580.33796706
_cell_formula_units_Z   1
loop_
 _symmetry_equiv_pos_site_id
 _symmetry_equiv_pos_as_xyz
  1  'x, y, z'
loop_
 _atom_site_type_symbol
 _atom_site_label
 _atom_site_symmetry_multiplicity
 _atom_site_fract_x
 _atom_site_fract_y
 _atom_site_fract_z
 _atom_site_occupancy
  Ho  Ho0  1  0.113275  0.612495  0.500000  1
  Ho  Ho1  1  0.887505  0.386725  0.500000  1
  Ho  Ho2  1  0.611872  0.888128  0.500000  1
  Sc  Sc3  1  0.388564  0.111436  0.500000  1
  Sc  Sc4  1  0.674154  0.176845  0.500000  1
  Sc  Sc5  1  0.323155  0.825846  0.500000  1
  Sc  Sc6  1  0.177743  0.322257  0.500000  1
  Sc  Sc7  1  0.823879  0.676121  0.500000  1
  Sc  Sc8  1  0.001005  0.999786  0.000000  1
  Sc  Sc9  1  0.500214  0.498995  0.000000  1
  Co  Co10  1  0.024618  0.242858  0.000000  1
  Co  Co11  1  0.976062  0.756351  0.000000  1
  Co  Co12  1  0.245235  0.976665  0.000000  1
  Co  Co13  1  0.523335  0.254765  0.000000  1
  Co  Co14  1  0.755173  0.024136  0.000000  1
  Co  Co15  1  0.475864  0.744827  0.000000  1
  Co  Co16  1  0.743649  0.523938  0.000000  1
  Co  Co17  1  0.257142  0.475382  0.000000  1
  Si  Si18  1  0.567543  0.070717  0.000000  1
  Si  Si19  1  0.429283  0.932457  0.000000  1
  Si  Si20  1  0.070622  0.429378  0.000000  1
  Si  Si21  1  0.930465  0.569535  0.000000  1
  Si  Si22  1  0.198479  0.156537  0.000000  1
  Si  Si23  1  0.803880  0.843176  0.000000  1
  Si  Si24  1  0.157622  0.804602  0.000000  1
  Si  Si25  1  0.695398  0.342378  0.000000  1
  Si  Si26  1  0.842660  0.195523  0.000000  1
  Si  Si27  1  0.304477  0.657340  0.000000  1
  Si  Si28  1  0.656824  0.696120  0.000000  1
  Si  Si29  1  0.343463  0.301521  0.000000  1
  Si  Si30  1  0.005986  0.161242  0.500000  1
  Si  Si31  1  0.994924  0.837948  0.500000  1
  Si  Si32  1  0.164954  0.000135  0.500000  1
  Si  Si33  1  0.499865  0.335046  0.500000  1
  Si  Si34  1  0.837961  0.007658  0.500000  1
  Si  Si35  1  0.492342  0.662039  0.500000  1
  Si  Si36  1  0.662052  0.505076  0.500000  1
  Si  Si37  1  0.338758  0.494014  0.500000  1
