# generated using pymatgen
data_Sc9Tc4P
_symmetry_space_group_name_H-M   'P 1'
_cell_length_a   8.58766200
_cell_length_b   8.58766248
_cell_length_c   8.60405300
_cell_angle_alpha   90.00000000
_cell_angle_beta   90.00000000
_cell_angle_gamma   119.99999817
_symmetry_Int_Tables_number   1
_chemical_formula_structural   Sc9Tc4P
_chemical_formula_sum   'Sc18 Tc8 P2'
_cell_volume   549.52015550
_cell_formula_units_Z   2
loop_
 _symmetry_equiv_pos_site_id
 _symmetry_equiv_pos_as_xyz
  1  'x, y, z'
loop_
 _atom_site_type_symbol
 _atom_site_label
 _atom_site_symmetry_multiplicity
 _atom_site_fract_x
 _atom_site_fract_y
 _atom_site_fract_z
 _atom_site_occupancy
  Sc  Sc0  1  0.197350  0.802650  0.452426  1
  Sc  Sc1  1  0.197350  0.394702  0.452426  1
  Sc  Sc2  1  0.605298  0.802650  0.452426  1
  Sc  Sc3  1  0.802650  0.197350  0.547574  1
  Sc  Sc4  1  0.802650  0.605298  0.547574  1
  Sc  Sc5  1  0.394702  0.197350  0.547574  1
  Sc  Sc6  1  0.802650  0.197350  0.952426  1
  Sc  Sc7  1  0.802650  0.605298  0.952426  1
  Sc  Sc8  1  0.394702  0.197350  0.952426  1
  Sc  Sc9  1  0.197350  0.802650  0.047574  1
  Sc  Sc10  1  0.197350  0.394702  0.047574  1
  Sc  Sc11  1  0.605298  0.802650  0.047574  1
  Sc  Sc12  1  0.538060  0.461940  0.250000  1
  Sc  Sc13  1  0.538060  0.076119  0.250000  1
  Sc  Sc14  1  0.923881  0.461940  0.250000  1
  Sc  Sc15  1  0.461940  0.538060  0.750000  1
  Sc  Sc16  1  0.461940  0.923881  0.750000  1
  Sc  Sc17  1  0.076119  0.538060  0.750000  1
  Tc  Tc18  1  0.892291  0.107709  0.250000  1
  Tc  Tc19  1  0.892291  0.784582  0.250000  1
  Tc  Tc20  1  0.215418  0.107709  0.250000  1
  Tc  Tc21  1  0.107709  0.892291  0.750000  1
  Tc  Tc22  1  0.107709  0.215418  0.750000  1
  Tc  Tc23  1  0.784582  0.892291  0.750000  1
  Tc  Tc24  1  0.000000  0.000000  0.500000  1
  Tc  Tc25  1  0.000000  0.000000  0.000000  1
  P  P26  1  0.333333  0.666667  0.250000  1
  P  P27  1  0.666667  0.333333  0.750000  1
