# generated using pymatgen
data_NaCaIrO4
_symmetry_space_group_name_H-M   'P 1'
_cell_length_a   9.56582772
_cell_length_b   9.56863581
_cell_length_c   3.21915400
_cell_angle_alpha   90.00000000
_cell_angle_beta   90.00000000
_cell_angle_gamma   119.28606249
_symmetry_Int_Tables_number   1
_chemical_formula_structural   NaCaIrO4
_chemical_formula_sum   'Na3 Ca3 Ir3 O12'
_cell_volume   256.99494803
_cell_formula_units_Z   3
loop_
 _symmetry_equiv_pos_site_id
 _symmetry_equiv_pos_as_xyz
  1  'x, y, z'
loop_
 _atom_site_type_symbol
 _atom_site_label
 _atom_site_symmetry_multiplicity
 _atom_site_fract_x
 _atom_site_fract_y
 _atom_site_fract_z
 _atom_site_occupancy
  Na  Na0  1  0.986780  0.986865  0.000000  1
  Na  Na1  1  0.692922  0.997347  0.500000  1
  Na  Na2  1  0.997129  0.692805  0.500000  1
  Ca  Ca3  1  0.672918  0.335534  0.500000  1
  Ca  Ca4  1  0.335516  0.672701  0.500000  1
  Ca  Ca5  1  0.303811  0.303789  0.500000  1
  Ir  Ir6  1  0.670489  0.670480  0.000000  1
  Ir  Ir7  1  0.326417  0.001464  0.000000  1
  Ir  Ir8  1  0.001513  0.326453  0.000000  1
  O  O9  1  0.548609  0.781419  0.000000  1
  O  O10  1  0.215642  0.772818  0.000000  1
  O  O11  1  0.238628  0.444765  0.000000  1
  O  O12  1  0.781408  0.548571  0.000000  1
  O  O13  1  0.772715  0.215589  0.000000  1
  O  O14  1  0.444661  0.238477  0.000000  1
  O  O15  1  0.541673  0.541732  0.500000  1
  O  O16  1  0.456614  0.004789  0.500000  1
  O  O17  1  0.004724  0.456543  0.500000  1
  O  O18  1  0.803625  0.803570  0.500000  1
  O  O19  1  0.194289  0.010012  0.500000  1
  O  O20  1  0.010018  0.194376  0.500000  1
