# generated using pymatgen
data_Na3Gd(PO4)2
_symmetry_space_group_name_H-M   'P 1'
_cell_length_a   5.33224902
_cell_length_b   5.33224911
_cell_length_c   7.16962251
_cell_angle_alpha   90.19905128
_cell_angle_beta   90.19905161
_cell_angle_gamma   64.60972266
_symmetry_Int_Tables_number   1
_chemical_formula_structural   Na3Gd(PO4)2
_chemical_formula_sum   'Na3 Gd1 P2 O8'
_cell_volume   184.16090423
_cell_formula_units_Z   1
loop_
 _symmetry_equiv_pos_site_id
 _symmetry_equiv_pos_as_xyz
  1  'x, y, z'
loop_
 _atom_site_type_symbol
 _atom_site_label
 _atom_site_symmetry_multiplicity
 _atom_site_fract_x
 _atom_site_fract_y
 _atom_site_fract_z
 _atom_site_occupancy
  Na  Na0  1  0.684304  0.684304  0.288118  1
  Na  Na1  1  0.000000  0.000000  0.500000  1
  Na  Na2  1  0.315696  0.315696  0.711882  1
  Gd  Gd3  1  0.000000  0.000000  0.000000  1
  P  P4  1  0.652692  0.652692  0.769858  1
  P  P5  1  0.347308  0.347308  0.230142  1
  O  O6  1  0.246768  0.246768  0.401039  1
  O  O7  1  0.753232  0.753232  0.598961  1
  O  O8  1  0.229797  0.673727  0.230709  1
  O  O9  1  0.326273  0.770203  0.769291  1
  O  O10  1  0.770203  0.326273  0.769291  1
  O  O11  1  0.673727  0.229797  0.230709  1
  O  O12  1  0.253181  0.253181  0.047865  1
  O  O13  1  0.746819  0.746819  0.952135  1
