# generated using pymatgen
data_Tb3Ho3Bi2Os
_symmetry_space_group_name_H-M   'P 1'
_cell_length_a   8.34060800
_cell_length_b   8.34060764
_cell_length_c   4.26167200
_cell_angle_alpha   90.00000000
_cell_angle_beta   90.00000000
_cell_angle_gamma   120.00000141
_symmetry_Int_Tables_number   1
_chemical_formula_structural   Tb3Ho3Bi2Os
_chemical_formula_sum   'Tb3 Ho3 Bi2 Os1'
_cell_volume   256.74739667
_cell_formula_units_Z   1
loop_
 _symmetry_equiv_pos_site_id
 _symmetry_equiv_pos_as_xyz
  1  'x, y, z'
loop_
 _atom_site_type_symbol
 _atom_site_label
 _atom_site_symmetry_multiplicity
 _atom_site_fract_x
 _atom_site_fract_y
 _atom_site_fract_z
 _atom_site_occupancy
  Tb  Tb0  1  0.000000  0.610517  0.500000  1
  Tb  Tb1  1  0.389483  0.389483  0.500000  1
  Tb  Tb2  1  0.610517  0.000000  0.500000  1
  Ho  Ho3  1  0.231035  0.000000  0.000000  1
  Ho  Ho4  1  0.768965  0.768965  0.000000  1
  Ho  Ho5  1  0.000000  0.231035  0.000000  1
  Bi  Bi6  1  0.333333  0.666667  0.000000  1
  Bi  Bi7  1  0.666667  0.333333  0.000000  1
  Os  Os8  1  0.000000  0.000000  0.500000  1
