# generated using pymatgen
data_Dy5Sc3Co16(SiP5)2
_symmetry_space_group_name_H-M   'P 1'
_cell_length_a   12.27104111
_cell_length_b   12.26239360
_cell_length_c   3.73721100
_cell_angle_alpha   90.00000000
_cell_angle_beta   90.00000000
_cell_angle_gamma   119.97668484
_symmetry_Int_Tables_number   1
_chemical_formula_structural   Dy5Sc3Co16(SiP5)2
_chemical_formula_sum   'Dy5 Sc3 Co16 Si2 P10'
_cell_volume   487.12105096
_cell_formula_units_Z   1
loop_
 _symmetry_equiv_pos_site_id
 _symmetry_equiv_pos_as_xyz
  1  'x, y, z'
loop_
 _atom_site_type_symbol
 _atom_site_label
 _atom_site_symmetry_multiplicity
 _atom_site_fract_x
 _atom_site_fract_y
 _atom_site_fract_z
 _atom_site_occupancy
  Dy  Dy0  1  0.665358  0.332448  0.000000  1
  Dy  Dy1  1  0.334642  0.667091  0.000000  1
  Dy  Dy2  1  0.181025  0.181304  0.500000  1
  Dy  Dy3  1  0.818975  0.000280  0.500000  1
  Dy  Dy4  1  0.000000  0.814456  0.500000  1
  Sc  Sc5  1  0.564076  0.562878  0.000000  1
  Sc  Sc6  1  0.435924  0.998802  0.000000  1
  Sc  Sc7  1  0.000000  0.440151  0.000000  1
  Co  Co8  1  0.823087  0.198373  0.000000  1
  Co  Co9  1  0.806203  0.625457  0.000000  1
  Co  Co10  1  0.373123  0.175991  0.000000  1
  Co  Co11  1  0.193797  0.819255  0.000000  1
  Co  Co12  1  0.626877  0.802868  0.000000  1
  Co  Co13  1  0.176913  0.375286  0.000000  1
  Co  Co14  1  0.643846  0.125552  0.500000  1
  Co  Co15  1  0.876261  0.520903  0.500000  1
  Co  Co16  1  0.482049  0.356213  0.500000  1
  Co  Co17  1  0.123739  0.644643  0.500000  1
  Co  Co18  1  0.517951  0.874165  0.500000  1
  Co  Co19  1  0.356154  0.481706  0.500000  1
  Co  Co20  1  0.723748  0.721623  0.500000  1
  Co  Co21  1  0.276252  0.997875  0.500000  1
  Co  Co22  1  0.000000  0.279583  0.500000  1
  Co  Co23  1  0.000000  0.000577  0.000000  1
  Si  Si24  1  0.356455  0.356758  0.000000  1
  Si  Si25  1  0.643545  0.000302  0.000000  1
  P  P26  1  0.000000  0.644562  0.000000  1
  P  P27  1  0.828247  0.306972  0.500000  1
  P  P28  1  0.693598  0.521523  0.500000  1
  P  P29  1  0.477017  0.170837  0.500000  1
  P  P30  1  0.306402  0.827924  0.500000  1
  P  P31  1  0.522983  0.693821  0.500000  1
  P  P32  1  0.171753  0.478725  0.500000  1
  P  P33  1  0.820322  0.819842  0.000000  1
  P  P34  1  0.179678  0.999521  0.000000  1
  P  P35  1  0.000000  0.181728  0.000000  1
