# generated using pymatgen
data_Cs2LiInSb2
_symmetry_space_group_name_H-M   'P 1'
_cell_length_a   11.43673693
_cell_length_b   11.43673626
_cell_length_c   7.07568300
_cell_angle_alpha   90.00000000
_cell_angle_beta   90.00000000
_cell_angle_gamma   103.07019283
_symmetry_Int_Tables_number   1
_chemical_formula_structural   Cs2LiInSb2
_chemical_formula_sum   'Cs8 Li4 In4 Sb8'
_cell_volume   901.51583763
_cell_formula_units_Z   4
loop_
 _symmetry_equiv_pos_site_id
 _symmetry_equiv_pos_as_xyz
  1  'x, y, z'
loop_
 _atom_site_type_symbol
 _atom_site_label
 _atom_site_symmetry_multiplicity
 _atom_site_fract_x
 _atom_site_fract_y
 _atom_site_fract_z
 _atom_site_occupancy
  Cs  Cs0  1  0.575967  0.924033  0.750000  1
  Cs  Cs1  1  0.924033  0.575967  0.250000  1
  Cs  Cs2  1  0.424033  0.075967  0.250000  1
  Cs  Cs3  1  0.075967  0.424033  0.750000  1
  Cs  Cs4  1  0.672283  0.327717  0.773597  1
  Cs  Cs5  1  0.827717  0.172283  0.273597  1
  Cs  Cs6  1  0.327717  0.672283  0.226403  1
  Cs  Cs7  1  0.172283  0.827717  0.726403  1
  Li  Li8  1  0.620290  0.620290  0.000000  1
  Li  Li9  1  0.879710  0.879710  0.500000  1
  Li  Li10  1  0.379710  0.379710  0.000000  1
  Li  Li11  1  0.120290  0.120290  0.500000  1
  In  In12  1  0.867858  0.867858  0.000000  1
  In  In13  1  0.632142  0.632142  0.500000  1
  In  In14  1  0.132142  0.132142  0.000000  1
  In  In15  1  0.367858  0.367858  0.500000  1
  Sb  Sb16  1  0.342322  0.157678  0.750000  1
  Sb  Sb17  1  0.157678  0.342322  0.250000  1
  Sb  Sb18  1  0.657678  0.842322  0.250000  1
  Sb  Sb19  1  0.842322  0.657678  0.750000  1
  Sb  Sb20  1  0.910127  0.089873  0.773542  1
  Sb  Sb21  1  0.589873  0.410127  0.273542  1
  Sb  Sb22  1  0.089873  0.910127  0.226458  1
  Sb  Sb23  1  0.410127  0.589873  0.726458  1
