# generated using pymatgen
data_Gd4CrMo5O24
_symmetry_space_group_name_H-M   'P 1'
_cell_length_a   7.48808179
_cell_length_b   7.48808179
_cell_length_c   10.73324843
_cell_angle_alpha   89.79174966
_cell_angle_beta   90.20825034
_cell_angle_gamma   89.75338047
_symmetry_Int_Tables_number   1
_chemical_formula_structural   Gd4CrMo5O24
_chemical_formula_sum   'Gd4 Cr1 Mo5 O24'
_cell_volume   601.81437277
_cell_formula_units_Z   1
loop_
 _symmetry_equiv_pos_site_id
 _symmetry_equiv_pos_as_xyz
  1  'x, y, z'
loop_
 _atom_site_type_symbol
 _atom_site_label
 _atom_site_symmetry_multiplicity
 _atom_site_fract_x
 _atom_site_fract_y
 _atom_site_fract_z
 _atom_site_occupancy
  Gd  Gd0  1  0.316357  0.309779  0.263077  1
  Gd  Gd1  1  0.690221  0.683643  0.263077  1
  Gd  Gd2  1  0.813131  0.186869  0.734522  1
  Gd  Gd3  1  0.186767  0.813233  0.740059  1
  Cr  Cr4  1  0.792100  0.207901  0.354978  1
  Mo  Mo5  1  0.502868  0.002067  0.000296  1
  Mo  Mo6  1  0.997933  0.497130  0.000296  1
  Mo  Mo7  1  0.207607  0.792394  0.354821  1
  Mo  Mo8  1  0.292478  0.293734  0.644849  1
  Mo  Mo9  1  0.706267  0.707523  0.644849  1
  O  O10  1  0.461552  0.193959  0.094981  1
  O  O11  1  0.186885  0.455421  0.099525  1
  O  O12  1  0.806042  0.538448  0.094981  1
  O  O13  1  0.544579  0.813116  0.099525  1
  O  O14  1  0.275015  0.003519  0.293808  1
  O  O15  1  0.989274  0.268638  0.299987  1
  O  O16  1  0.996482  0.724986  0.293808  1
  O  O17  1  0.731363  0.010727  0.299987  1
  O  O18  1  0.634922  0.365079  0.310914  1
  O  O19  1  0.375262  0.624739  0.310728  1
  O  O20  1  0.303048  0.308954  0.479570  1
  O  O21  1  0.691046  0.696952  0.479570  1
  O  O22  1  0.802446  0.197554  0.509598  1
  O  O23  1  0.194436  0.805564  0.520128  1
  O  O24  1  0.125855  0.126718  0.689049  1
  O  O25  1  0.873283  0.874146  0.689049  1
  O  O26  1  0.504646  0.224491  0.703931  1
  O  O27  1  0.775510  0.495355  0.703931  1
  O  O28  1  0.225511  0.504362  0.706144  1
  O  O29  1  0.495639  0.774490  0.706144  1
  O  O30  1  0.691986  0.041028  0.902247  1
  O  O31  1  0.958972  0.308015  0.902247  1
  O  O32  1  0.039758  0.689229  0.904663  1
  O  O33  1  0.310772  0.960242  0.904663  1
