# generated using pymatgen
data_Hf6Zn5AgC2
_symmetry_space_group_name_H-M   'P 1'
_cell_length_a   8.61501162
_cell_length_b   8.59695491
_cell_length_c   8.61501195
_cell_angle_alpha   60.06930236
_cell_angle_beta   60.08791622
_cell_angle_gamma   60.06930568
_symmetry_Int_Tables_number   1
_chemical_formula_structural   Hf6Zn5AgC2
_chemical_formula_sum   'Hf12 Zn10 Ag2 C4'
_cell_volume   451.94322024
_cell_formula_units_Z   2
loop_
 _symmetry_equiv_pos_site_id
 _symmetry_equiv_pos_as_xyz
  1  'x, y, z'
loop_
 _atom_site_type_symbol
 _atom_site_label
 _atom_site_symmetry_multiplicity
 _atom_site_fract_x
 _atom_site_fract_y
 _atom_site_fract_z
 _atom_site_occupancy
  Hf  Hf0  1  0.436832  0.437034  0.063683  1
  Hf  Hf1  1  0.062980  0.437020  0.062980  1
  Hf  Hf2  1  0.436832  0.062451  0.063683  1
  Hf  Hf3  1  0.063683  0.062451  0.436832  1
  Hf  Hf4  1  0.438041  0.061959  0.438041  1
  Hf  Hf5  1  0.063683  0.437034  0.436832  1
  Hf  Hf6  1  0.813168  0.812966  0.186317  1
  Hf  Hf7  1  0.187020  0.812980  0.187020  1
  Hf  Hf8  1  0.813168  0.187549  0.186317  1
  Hf  Hf9  1  0.186317  0.187549  0.813168  1
  Hf  Hf10  1  0.811959  0.188041  0.811959  1
  Hf  Hf11  1  0.186317  0.812966  0.813168  1
  Zn  Zn12  1  0.828843  0.834381  0.502395  1
  Zn  Zn13  1  0.830802  0.501196  0.830802  1
  Zn  Zn14  1  0.502395  0.834381  0.828843  1
  Zn  Zn15  1  0.830802  0.837200  0.830802  1
  Zn  Zn16  1  0.421157  0.415619  0.747605  1
  Zn  Zn17  1  0.419198  0.748804  0.419198  1
  Zn  Zn18  1  0.747605  0.415619  0.421157  1
  Zn  Zn19  1  0.419198  0.412800  0.419198  1
  Zn  Zn20  1  0.625000  0.125000  0.625000  1
  Zn  Zn21  1  0.625000  0.625000  0.625000  1
  Ag  Ag22  1  0.625000  0.625000  0.125000  1
  Ag  Ag23  1  0.125000  0.625000  0.625000  1
  C  C24  1  0.125000  0.125000  0.625000  1
  C  C25  1  0.125000  0.625000  0.125000  1
  C  C26  1  0.625000  0.125000  0.125000  1
  C  C27  1  0.125000  0.125000  0.125000  1
