# generated using pymatgen
data_Tb15ErCd4(CoRu)2
_symmetry_space_group_name_H-M   'P 1'
_cell_length_a   9.67422730
_cell_length_b   9.60568499
_cell_length_c   9.60315408
_cell_angle_alpha   59.43100116
_cell_angle_beta   59.54573980
_cell_angle_gamma   59.57545126
_symmetry_Int_Tables_number   1
_chemical_formula_structural   Tb15ErCd4(CoRu)2
_chemical_formula_sum   'Tb15 Er1 Cd4 Co2 Ru2'
_cell_volume   624.09319400
_cell_formula_units_Z   1
loop_
 _symmetry_equiv_pos_site_id
 _symmetry_equiv_pos_as_xyz
  1  'x, y, z'
loop_
 _atom_site_type_symbol
 _atom_site_label
 _atom_site_symmetry_multiplicity
 _atom_site_fract_x
 _atom_site_fract_y
 _atom_site_fract_z
 _atom_site_occupancy
  Tb  Tb0  1  0.591159  0.598168  0.599409  1
  Tb  Tb1  1  0.186968  0.812978  0.813986  1
  Tb  Tb2  1  0.064894  0.057494  0.436481  1
  Tb  Tb3  1  0.438998  0.061374  0.060411  1
  Tb  Tb4  1  0.814327  0.188411  0.809286  1
  Tb  Tb5  1  0.439156  0.058215  0.436555  1
  Tb  Tb6  1  0.593877  0.210694  0.602053  1
  Tb  Tb7  1  0.814730  0.808640  0.188383  1
  Tb  Tb8  1  0.212986  0.599223  0.598840  1
  Tb  Tb9  1  0.808853  0.191282  0.190644  1
  Tb  Tb10  1  0.061525  0.438557  0.437707  1
  Tb  Tb11  1  0.188771  0.808558  0.188527  1
  Tb  Tb12  1  0.593376  0.602213  0.210374  1
  Tb  Tb13  1  0.188404  0.188741  0.809169  1
  Tb  Tb14  1  0.065613  0.436678  0.057802  1
  Er  Er15  1  0.438835  0.437409  0.057516  1
  Cd  Cd16  1  0.830562  0.829566  0.508006  1
  Cd  Cd17  1  0.830900  0.829875  0.829616  1
  Cd  Cd18  1  0.507824  0.829636  0.830366  1
  Cd  Cd19  1  0.830194  0.507972  0.829927  1
  Co  Co20  1  0.389243  0.830058  0.393529  1
  Co  Co21  1  0.389470  0.393215  0.830597  1
  Ru  Ru22  1  0.388745  0.390026  0.389810  1
  Ru  Ru23  1  0.830588  0.391016  0.391005  1
