# generated using pymatgen
data_Nb4Si4Ir3Ru
_symmetry_space_group_name_H-M   'P 1'
_cell_length_a   3.82846900
_cell_length_b   6.45506297
_cell_length_c   7.32170055
_cell_angle_alpha   89.87255000
_cell_angle_beta   90.00000000
_cell_angle_gamma   90.00000000
_symmetry_Int_Tables_number   1
_chemical_formula_structural   Nb4Si4Ir3Ru
_chemical_formula_sum   'Nb4 Si4 Ir3 Ru1'
_cell_volume   180.94080018
_cell_formula_units_Z   1
loop_
 _symmetry_equiv_pos_site_id
 _symmetry_equiv_pos_as_xyz
  1  'x, y, z'
loop_
 _atom_site_type_symbol
 _atom_site_label
 _atom_site_symmetry_multiplicity
 _atom_site_fract_x
 _atom_site_fract_y
 _atom_site_fract_z
 _atom_site_occupancy
  Nb  Nb0  1  0.750000  0.525244  0.827962  1
  Nb  Nb1  1  0.250000  0.974164  0.325275  1
  Nb  Nb2  1  0.750000  0.022111  0.674618  1
  Nb  Nb3  1  0.250000  0.477563  0.172110  1
  Si  Si4  1  0.250000  0.227251  0.875613  1
  Si  Si5  1  0.250000  0.729126  0.626354  1
  Si  Si6  1  0.750000  0.772328  0.121974  1
  Si  Si7  1  0.750000  0.270101  0.375814  1
  Ir  Ir8  1  0.250000  0.352130  0.562089  1
  Ir  Ir9  1  0.750000  0.647197  0.437005  1
  Ir  Ir10  1  0.750000  0.149161  0.063111  1
  Ru  Ru11  1  0.250000  0.853621  0.938076  1
