# generated using pymatgen
data_Sc6S5
_symmetry_space_group_name_H-M   'P 1'
_cell_length_a   6.32031835
_cell_length_b   7.31638846
_cell_length_c   6.33609827
_cell_angle_alpha   125.27997479
_cell_angle_beta   120.04300385
_cell_angle_gamma   73.21531376
_symmetry_Int_Tables_number   1
_chemical_formula_structural   Sc6S5
_chemical_formula_sum   'Sc6 S5'
_cell_volume   207.04780791
_cell_formula_units_Z   1
loop_
 _symmetry_equiv_pos_site_id
 _symmetry_equiv_pos_as_xyz
  1  'x, y, z'
loop_
 _atom_site_type_symbol
 _atom_site_label
 _atom_site_symmetry_multiplicity
 _atom_site_fract_x
 _atom_site_fract_y
 _atom_site_fract_z
 _atom_site_occupancy
  Sc  Sc0  1  0.280952  0.357667  0.577386  1
  Sc  Sc1  1  0.938582  0.867259  0.920775  1
  Sc  Sc2  1  0.597588  0.358688  0.234681  1
  Sc  Sc3  1  0.277864  0.860417  0.570482  1
  Sc  Sc4  1  0.937527  0.354122  0.890456  1
  Sc  Sc5  1  0.597598  0.860276  0.229652  1
  S  S6  1  0.604864  0.609673  0.735848  1
  S  S7  1  0.270790  0.109709  0.069617  1
  S  S8  1  0.271126  0.609615  0.069702  1
  S  S9  1  0.938149  0.111170  0.405358  1
  S  S10  1  0.606242  0.108109  0.736446  1
