# generated using pymatgen
data_Er3BiSbRh3O14
_symmetry_space_group_name_H-M   'P 1'
_cell_length_a   7.19589419
_cell_length_b   7.19589383
_cell_length_c   7.32140141
_cell_angle_alpha   60.56546579
_cell_angle_beta   60.56546765
_cell_angle_gamma   59.99999638
_symmetry_Int_Tables_number   1
_chemical_formula_structural   Er3BiSbRh3O14
_chemical_formula_sum   'Er3 Bi1 Sb1 Rh3 O14'
_cell_volume   270.33871783
_cell_formula_units_Z   1
loop_
 _symmetry_equiv_pos_site_id
 _symmetry_equiv_pos_as_xyz
  1  'x, y, z'
loop_
 _atom_site_type_symbol
 _atom_site_label
 _atom_site_symmetry_multiplicity
 _atom_site_fract_x
 _atom_site_fract_y
 _atom_site_fract_z
 _atom_site_occupancy
  Er  Er0  1  0.125000  0.125000  0.125000  1
  Er  Er1  1  0.125000  0.625000  0.125000  1
  Er  Er2  1  0.625000  0.125000  0.125000  1
  Bi  Bi3  1  0.125000  0.125000  0.625000  1
  Sb  Sb4  1  0.625000  0.625000  0.125000  1
  Rh  Rh5  1  0.625000  0.625000  0.625000  1
  Rh  Rh6  1  0.125000  0.625000  0.625000  1
  Rh  Rh7  1  0.625000  0.125000  0.625000  1
  O  O8  1  0.252883  0.252883  0.241351  1
  O  O9  1  0.288314  0.712812  0.286063  1
  O  O10  1  0.964630  0.964630  0.527494  1
  O  O11  1  0.543247  0.964630  0.527494  1
  O  O12  1  0.712812  0.712812  0.286063  1
  O  O13  1  0.964630  0.543247  0.527494  1
  O  O14  1  0.706753  0.285370  0.722506  1
  O  O15  1  0.285370  0.285370  0.722506  1
  O  O16  1  0.712812  0.288314  0.286063  1
  O  O17  1  0.285370  0.706753  0.722506  1
  O  O18  1  0.961686  0.537188  0.963937  1
  O  O19  1  0.537188  0.537188  0.963937  1
  O  O20  1  0.997117  0.997117  0.008649  1
  O  O21  1  0.537188  0.961686  0.963937  1
