# generated using pymatgen
data_LiHo6Ni17P12
_symmetry_space_group_name_H-M   'P 1'
_cell_length_a   3.76400100
_cell_length_b   10.48203200
_cell_length_c   12.27303700
_cell_angle_alpha   90.00000000
_cell_angle_beta   90.00000000
_cell_angle_gamma   90.00000000
_symmetry_Int_Tables_number   1
_chemical_formula_structural   LiHo6Ni17P12
_chemical_formula_sum   'Li1 Ho6 Ni17 P12'
_cell_volume   484.22505242
_cell_formula_units_Z   1
loop_
 _symmetry_equiv_pos_site_id
 _symmetry_equiv_pos_as_xyz
  1  'x, y, z'
loop_
 _atom_site_type_symbol
 _atom_site_label
 _atom_site_symmetry_multiplicity
 _atom_site_fract_x
 _atom_site_fract_y
 _atom_site_fract_z
 _atom_site_occupancy
  Li  Li0  1  0.500000  0.500000  0.150939  1
  Ho  Ho1  1  0.000000  0.500000  0.523568  1
  Ho  Ho2  1  0.500000  0.000000  0.477760  1
  Ho  Ho3  1  0.500000  0.817760  0.206137  1
  Ho  Ho4  1  0.500000  0.182240  0.206137  1
  Ho  Ho5  1  0.000000  0.682323  0.795773  1
  Ho  Ho6  1  0.000000  0.317677  0.795773  1
  Ni  Ni7  1  0.000000  0.000000  0.839410  1
  Ni  Ni8  1  0.500000  0.500000  0.702305  1
  Ni  Ni9  1  0.000000  0.000000  0.299895  1
  Ni  Ni10  1  0.000000  0.500000  0.987439  1
  Ni  Ni11  1  0.500000  0.000000  0.015609  1
  Ni  Ni12  1  0.500000  0.328773  0.995046  1
  Ni  Ni13  1  0.500000  0.671227  0.995046  1
  Ni  Ni14  1  0.000000  0.163559  0.001521  1
  Ni  Ni15  1  0.000000  0.836441  0.001521  1
  Ni  Ni16  1  0.500000  0.300192  0.430574  1
  Ni  Ni17  1  0.500000  0.699808  0.430574  1
  Ni  Ni18  1  0.000000  0.199245  0.570345  1
  Ni  Ni19  1  0.000000  0.800755  0.570345  1
  Ni  Ni20  1  0.500000  0.879281  0.709920  1
  Ni  Ni21  1  0.500000  0.120719  0.709920  1
  Ni  Ni22  1  0.000000  0.620077  0.290938  1
  Ni  Ni23  1  0.000000  0.379923  0.290938  1
  P  P24  1  0.500000  0.500000  0.880413  1
  P  P25  1  0.000000  0.000000  0.122931  1
  P  P26  1  0.500000  0.500000  0.349219  1
  P  P27  1  0.000000  0.000000  0.654477  1
  P  P28  1  0.500000  0.313588  0.616261  1
  P  P29  1  0.500000  0.686412  0.616261  1
  P  P30  1  0.000000  0.186499  0.385708  1
  P  P31  1  0.000000  0.813501  0.385708  1
  P  P32  1  0.500000  0.849137  0.890331  1
  P  P33  1  0.500000  0.150863  0.890331  1
  P  P34  1  0.000000  0.659131  0.105460  1
  P  P35  1  0.000000  0.340869  0.105460  1
