# generated using pymatgen
data_Sc8Ga3Rh
_symmetry_space_group_name_H-M   'P 1'
_cell_length_a   9.49590208
_cell_length_b   9.50057846
_cell_length_c   6.37330400
_cell_angle_alpha   90.00000000
_cell_angle_beta   90.00000000
_cell_angle_gamma   120.03876265
_symmetry_Int_Tables_number   1
_chemical_formula_structural   Sc8Ga3Rh
_chemical_formula_sum   'Sc16 Ga6 Rh2'
_cell_volume   497.75058029
_cell_formula_units_Z   2
loop_
 _symmetry_equiv_pos_site_id
 _symmetry_equiv_pos_as_xyz
  1  'x, y, z'
loop_
 _atom_site_type_symbol
 _atom_site_label
 _atom_site_symmetry_multiplicity
 _atom_site_fract_x
 _atom_site_fract_y
 _atom_site_fract_z
 _atom_site_occupancy
  Sc  Sc0  1  0.171438  0.828610  0.501197  1
  Sc  Sc1  1  0.657402  0.828684  0.501193  1
  Sc  Sc2  1  0.171400  0.342710  0.501192  1
  Sc  Sc3  1  0.828562  0.171390  0.001197  1
  Sc  Sc4  1  0.342598  0.171316  0.001193  1
  Sc  Sc5  1  0.828600  0.657290  0.001192  1
  Sc  Sc6  1  0.333267  0.666661  0.847218  1
  Sc  Sc7  1  0.666733  0.333339  0.347218  1
  Sc  Sc8  1  0.471995  0.528031  0.207792  1
  Sc  Sc9  1  0.055697  0.527827  0.207528  1
  Sc  Sc10  1  0.472079  0.944126  0.207665  1
  Sc  Sc11  1  0.528005  0.471969  0.707792  1
  Sc  Sc12  1  0.944303  0.472173  0.707528  1
  Sc  Sc13  1  0.527921  0.055874  0.707665  1
  Sc  Sc14  1  0.999944  0.999989  0.228843  1
  Sc  Sc15  1  0.000056  0.000011  0.728843  1
  Ga  Ga16  1  0.163660  0.836386  0.965139  1
  Ga  Ga17  1  0.672664  0.836326  0.965267  1
  Ga  Ga18  1  0.163674  0.327273  0.965202  1
  Ga  Ga19  1  0.836340  0.163614  0.465139  1
  Ga  Ga20  1  0.327336  0.163674  0.465267  1
  Ga  Ga21  1  0.836326  0.672727  0.465202  1
  Rh  Rh22  1  0.333081  0.666652  0.439184  1
  Rh  Rh23  1  0.666919  0.333348  0.939184  1
