# generated using pymatgen
data_Tm4ScInBi2
_symmetry_space_group_name_H-M   'P 1'
_cell_length_a   6.34709203
_cell_length_b   8.94381253
_cell_length_c   8.90074305
_cell_angle_alpha   120.16019934
_cell_angle_beta   90.03278165
_cell_angle_gamma   89.93473894
_symmetry_Int_Tables_number   1
_chemical_formula_structural   Tm4ScInBi2
_chemical_formula_sum   'Tm8 Sc2 In2 Bi4'
_cell_volume   436.86852899
_cell_formula_units_Z   2
loop_
 _symmetry_equiv_pos_site_id
 _symmetry_equiv_pos_as_xyz
  1  'x, y, z'
loop_
 _atom_site_type_symbol
 _atom_site_label
 _atom_site_symmetry_multiplicity
 _atom_site_fract_x
 _atom_site_fract_y
 _atom_site_fract_z
 _atom_site_occupancy
  Tm  Tm0  1  0.004313  0.671730  0.340074  1
  Tm  Tm1  1  0.004313  0.331655  0.659926  1
  Tm  Tm2  1  0.749162  0.236199  0.000000  1
  Tm  Tm3  1  0.748026  0.766274  0.763481  1
  Tm  Tm4  1  0.748026  0.002793  0.236519  1
  Tm  Tm5  1  0.250843  0.766331  0.000000  1
  Tm  Tm6  1  0.250945  0.232779  0.242666  1
  Tm  Tm7  1  0.250945  0.990114  0.757334  1
  Sc  Sc8  1  0.496778  0.331329  0.659583  1
  Sc  Sc9  1  0.496778  0.671747  0.340417  1
  In  In10  1  0.257286  0.602256  0.604679  1
  In  In11  1  0.257286  0.997576  0.395321  1
  Bi  Bi12  1  0.744344  0.604711  0.000000  1
  Bi  Bi13  1  0.742336  0.399426  0.395753  1
  Bi  Bi14  1  0.742336  0.003673  0.604247  1
  Bi  Bi15  1  0.256284  0.391407  0.000000  1
