# generated using pymatgen
data_Er2Co3Si4Rh3
_symmetry_space_group_name_H-M   'P 1'
_cell_length_a   6.43068485
_cell_length_b   6.51079321
_cell_length_c   6.43068442
_cell_angle_alpha   131.36274993
_cell_angle_beta   113.90659430
_cell_angle_gamma   85.79135779
_symmetry_Int_Tables_number   1
_chemical_formula_structural   Er2Co3Si4Rh3
_chemical_formula_sum   'Er2 Co3 Si4 Rh3'
_cell_volume   177.17232335
_cell_formula_units_Z   1
loop_
 _symmetry_equiv_pos_site_id
 _symmetry_equiv_pos_as_xyz
  1  'x, y, z'
loop_
 _atom_site_type_symbol
 _atom_site_label
 _atom_site_symmetry_multiplicity
 _atom_site_fract_x
 _atom_site_fract_y
 _atom_site_fract_z
 _atom_site_occupancy
  Er  Er0  1  0.753737  0.038516  0.288103  1
  Er  Er1  1  0.249587  0.961484  0.715221  1
  Co  Co2  1  0.217381  0.500000  0.717381  1
  Co  Co3  1  0.780697  0.500000  0.280697  1
  Co  Co4  1  0.718183  0.000000  0.718183  1
  Si  Si5  1  0.577234  0.379019  0.810851  1
  Si  Si6  1  0.922906  0.724330  0.789479  1
  Si  Si7  1  0.431833  0.620981  0.198215  1
  Si  Si8  1  0.065149  0.275670  0.198575  1
  Rh  Rh9  1  0.501247  0.510549  0.509205  1
  Rh  Rh10  1  0.998656  0.489451  0.990698  1
  Rh  Rh11  1  0.283392  0.000000  0.283392  1
