# generated using pymatgen
data_Rb3Dy7S12
_symmetry_space_group_name_H-M   'P 1'
_cell_length_a   3.99389100
_cell_length_b   12.14651200
_cell_length_c   25.03283000
_cell_angle_alpha   90.00000000
_cell_angle_beta   90.00000000
_cell_angle_gamma   90.00000000
_symmetry_Int_Tables_number   1
_chemical_formula_structural   Rb3Dy7S12
_chemical_formula_sum   'Rb6 Dy14 S24'
_cell_volume   1214.38876782
_cell_formula_units_Z   2
loop_
 _symmetry_equiv_pos_site_id
 _symmetry_equiv_pos_as_xyz
  1  'x, y, z'
loop_
 _atom_site_type_symbol
 _atom_site_label
 _atom_site_symmetry_multiplicity
 _atom_site_fract_x
 _atom_site_fract_y
 _atom_site_fract_z
 _atom_site_occupancy
  Rb  Rb0  1  0.500000  0.537504  0.131772  1
  Rb  Rb1  1  0.500000  0.953447  0.863807  1
  Rb  Rb2  1  0.000000  0.046553  0.363807  1
  Rb  Rb3  1  0.000000  0.462496  0.631772  1
  Rb  Rb4  1  0.500000  0.809481  0.471636  1
  Rb  Rb5  1  0.000000  0.190519  0.971636  1
  Dy  Dy6  1  0.500000  0.653788  0.789062  1
  Dy  Dy7  1  0.500000  0.846399  0.211088  1
  Dy  Dy8  1  0.000000  0.153601  0.711088  1
  Dy  Dy9  1  0.000000  0.346212  0.289062  1
  Dy  Dy10  1  0.500000  0.323767  0.817786  1
  Dy  Dy11  1  0.500000  0.179276  0.180604  1
  Dy  Dy12  1  0.000000  0.820724  0.680604  1
  Dy  Dy13  1  0.000000  0.676233  0.317786  1
  Dy  Dy14  1  0.500000  0.473264  0.419532  1
  Dy  Dy15  1  0.500000  0.027565  0.582742  1
  Dy  Dy16  1  0.000000  0.972435  0.082742  1
  Dy  Dy17  1  0.000000  0.526736  0.919532  1
  Dy  Dy18  1  0.000000  0.249016  0.499923  1
  Dy  Dy19  1  0.500000  0.750984  0.999923  1
  S  S20  1  0.500000  0.374328  0.923205  1
  S  S21  1  0.500000  0.125032  0.075613  1
  S  S22  1  0.000000  0.874968  0.575613  1
  S  S23  1  0.000000  0.625672  0.423205  1
  S  S24  1  0.500000  0.509248  0.305854  1
  S  S25  1  0.500000  0.990334  0.694669  1
  S  S26  1  0.000000  0.009666  0.194669  1
  S  S27  1  0.000000  0.490752  0.805854  1
  S  S28  1  0.500000  0.398275  0.519765  1
  S  S29  1  0.500000  0.094738  0.479805  1
  S  S30  1  0.000000  0.905262  0.979805  1
  S  S31  1  0.000000  0.601725  0.019765  1
  S  S32  1  0.500000  0.300465  0.711257  1
  S  S33  1  0.500000  0.198968  0.288185  1
  S  S34  1  0.000000  0.801032  0.788185  1
  S  S35  1  0.000000  0.699535  0.211257  1
  S  S36  1  0.500000  0.671785  0.680120  1
  S  S37  1  0.500000  0.827813  0.321921  1
  S  S38  1  0.000000  0.172187  0.821921  1
  S  S39  1  0.000000  0.328215  0.180120  1
  S  S40  1  0.500000  0.675770  0.897649  1
  S  S41  1  0.500000  0.822835  0.102903  1
  S  S42  1  0.000000  0.177165  0.602903  1
  S  S43  1  0.000000  0.324230  0.397649  1
