# generated using pymatgen
data_Ca3Y(ReN3)4
_symmetry_space_group_name_H-M   'P 1'
_cell_length_a   7.43479236
_cell_length_b   7.43479201
_cell_length_c   6.28247133
_cell_angle_alpha   74.11556326
_cell_angle_beta   74.11556418
_cell_angle_gamma   83.90084746
_symmetry_Int_Tables_number   1
_chemical_formula_structural   Ca3Y(ReN3)4
_chemical_formula_sum   'Ca3 Y1 Re4 N12'
_cell_volume   321.07208967
_cell_formula_units_Z   1
loop_
 _symmetry_equiv_pos_site_id
 _symmetry_equiv_pos_as_xyz
  1  'x, y, z'
loop_
 _atom_site_type_symbol
 _atom_site_label
 _atom_site_symmetry_multiplicity
 _atom_site_fract_x
 _atom_site_fract_y
 _atom_site_fract_z
 _atom_site_occupancy
  Ca  Ca0  1  0.294571  0.705429  0.750000  1
  Ca  Ca1  1  0.089251  0.910749  0.250000  1
  Ca  Ca2  1  0.706093  0.293907  0.250000  1
  Y  Y3  1  0.909857  0.090143  0.750000  1
  Re  Re4  1  0.623561  0.796450  0.270905  1
  Re  Re5  1  0.203550  0.376439  0.229095  1
  Re  Re6  1  0.377717  0.204034  0.725909  1
  Re  Re7  1  0.795966  0.622283  0.774091  1
  N  N8  1  0.338811  0.352869  0.936740  1
  N  N9  1  0.007884  0.222761  0.349620  1
  N  N10  1  0.777239  0.992116  0.150380  1
  N  N11  1  0.217898  0.014805  0.833402  1
  N  N12  1  0.658083  0.640338  0.066186  1
  N  N13  1  0.877458  0.384206  0.823473  1
  N  N14  1  0.126748  0.612469  0.170888  1
  N  N15  1  0.985195  0.782102  0.666598  1
  N  N16  1  0.387531  0.873252  0.329112  1
  N  N17  1  0.647131  0.661189  0.563260  1
  N  N18  1  0.615794  0.122542  0.676527  1
  N  N19  1  0.359662  0.341917  0.433814  1
