# generated using pymatgen
data_TmLu4(Tl2Au)2
_symmetry_space_group_name_H-M   'P 1'
_cell_length_a   3.61604400
_cell_length_b   8.09764400
_cell_length_c   18.15044000
_cell_angle_alpha   90.00000000
_cell_angle_beta   90.00000000
_cell_angle_gamma   90.00000000
_symmetry_Int_Tables_number   1
_chemical_formula_structural   TmLu4(Tl2Au)2
_chemical_formula_sum   'Tm2 Lu8 Tl8 Au4'
_cell_volume   531.47096539
_cell_formula_units_Z   2
loop_
 _symmetry_equiv_pos_site_id
 _symmetry_equiv_pos_as_xyz
  1  'x, y, z'
loop_
 _atom_site_type_symbol
 _atom_site_label
 _atom_site_symmetry_multiplicity
 _atom_site_fract_x
 _atom_site_fract_y
 _atom_site_fract_z
 _atom_site_occupancy
  Tm  Tm0  1  0.000000  0.000000  0.000000  1
  Tm  Tm1  1  0.000000  0.500000  0.500000  1
  Lu  Lu2  1  0.000000  0.119358  0.418574  1
  Lu  Lu3  1  0.000000  0.880642  0.581426  1
  Lu  Lu4  1  0.000000  0.380642  0.918574  1
  Lu  Lu5  1  0.000000  0.619358  0.081426  1
  Lu  Lu6  1  0.000000  0.242147  0.218302  1
  Lu  Lu7  1  0.000000  0.757853  0.781698  1
  Lu  Lu8  1  0.000000  0.257853  0.718302  1
  Lu  Lu9  1  0.000000  0.742147  0.281698  1
  Tl  Tl10  1  0.500000  0.421426  0.355257  1
  Tl  Tl11  1  0.500000  0.578574  0.644743  1
  Tl  Tl12  1  0.500000  0.078574  0.855257  1
  Tl  Tl13  1  0.500000  0.921426  0.144743  1
  Tl  Tl14  1  0.500000  0.292012  0.063607  1
  Tl  Tl15  1  0.500000  0.707988  0.936393  1
  Tl  Tl16  1  0.500000  0.207988  0.563607  1
  Tl  Tl17  1  0.500000  0.792012  0.436393  1
  Au  Au18  1  0.500000  0.029912  0.303067  1
  Au  Au19  1  0.500000  0.970088  0.696933  1
  Au  Au20  1  0.500000  0.470088  0.803067  1
  Au  Au21  1  0.500000  0.529912  0.196933  1
