# generated using pymatgen
data_Zr16Pd7PtC4
_symmetry_space_group_name_H-M   'P 1'
_cell_length_a   8.93466237
_cell_length_b   8.93836688
_cell_length_c   8.93836800
_cell_angle_alpha   60.00000324
_cell_angle_beta   59.98628672
_cell_angle_gamma   59.98628455
_symmetry_Int_Tables_number   1
_chemical_formula_structural   Zr16Pd7PtC4
_chemical_formula_sum   'Zr16 Pd7 Pt1 C4'
_cell_volume   504.64910666
_cell_formula_units_Z   1
loop_
 _symmetry_equiv_pos_site_id
 _symmetry_equiv_pos_as_xyz
  1  'x, y, z'
loop_
 _atom_site_type_symbol
 _atom_site_label
 _atom_site_symmetry_multiplicity
 _atom_site_fract_x
 _atom_site_fract_y
 _atom_site_fract_z
 _atom_site_occupancy
  Zr  Zr0  1  0.124603  0.625132  0.625132  1
  Zr  Zr1  1  0.624881  0.125866  0.624626  1
  Zr  Zr2  1  0.624881  0.624626  0.125866  1
  Zr  Zr3  1  0.624881  0.624626  0.624626  1
  Zr  Zr4  1  0.817293  0.817222  0.182742  1
  Zr  Zr5  1  0.181784  0.182056  0.818080  1
  Zr  Zr6  1  0.817293  0.182742  0.817222  1
  Zr  Zr7  1  0.181784  0.818080  0.182056  1
  Zr  Zr8  1  0.181784  0.818080  0.818080  1
  Zr  Zr9  1  0.817293  0.182742  0.182742  1
  Zr  Zr10  1  0.432169  0.432107  0.067862  1
  Zr  Zr11  1  0.066559  0.068511  0.432465  1
  Zr  Zr12  1  0.432169  0.067862  0.432107  1
  Zr  Zr13  1  0.066559  0.432465  0.068511  1
  Zr  Zr14  1  0.066559  0.432465  0.432465  1
  Zr  Zr15  1  0.432169  0.067862  0.067862  1
  Pd  Pd16  1  0.410806  0.765862  0.411667  1
  Pd  Pd17  1  0.410806  0.411667  0.765862  1
  Pd  Pd18  1  0.410806  0.411667  0.411667  1
  Pd  Pd19  1  0.483484  0.838838  0.838838  1
  Pd  Pd20  1  0.839064  0.483907  0.838513  1
  Pd  Pd21  1  0.839064  0.838513  0.483907  1
  Pd  Pd22  1  0.839064  0.838513  0.838513  1
  Pt  Pt23  1  0.772118  0.409295  0.409295  1
  C  C24  1  0.625824  0.124725  0.124725  1
  C  C25  1  0.125434  0.625019  0.124773  1
  C  C26  1  0.125434  0.124773  0.625019  1
  C  C27  1  0.125434  0.124773  0.124773  1
