# generated using pymatgen
data_Sr3LiIn10
_symmetry_space_group_name_H-M   'P 1'
_cell_length_a   9.31889484
_cell_length_b   9.31889376
_cell_length_c   9.31889370
_cell_angle_alpha   148.06074618
_cell_angle_beta   105.82078735
_cell_angle_gamma   83.03639649
_symmetry_Int_Tables_number   1
_chemical_formula_structural   Sr3LiIn10
_chemical_formula_sum   'Sr3 Li1 In10'
_cell_volume   402.14665795
_cell_formula_units_Z   1
loop_
 _symmetry_equiv_pos_site_id
 _symmetry_equiv_pos_as_xyz
  1  'x, y, z'
loop_
 _atom_site_type_symbol
 _atom_site_label
 _atom_site_symmetry_multiplicity
 _atom_site_fract_x
 _atom_site_fract_y
 _atom_site_fract_z
 _atom_site_occupancy
  Sr  Sr0  1  0.703505  0.703505  0.000000  1
  Sr  Sr1  1  0.296495  0.296495  0.000000  1
  Sr  Sr2  1  0.000000  0.000000  0.000000  1
  Li  Li3  1  0.500000  0.000000  0.500000  1
  In  In4  1  0.584698  0.864605  0.720094  1
  In  In5  1  0.144511  0.864605  0.279906  1
  In  In6  1  0.023330  0.656136  0.367194  1
  In  In7  1  0.415302  0.135395  0.279906  1
  In  In8  1  0.976670  0.343864  0.632806  1
  In  In9  1  0.671145  0.500000  0.171145  1
  In  In10  1  0.328855  0.500000  0.828855  1
  In  In11  1  0.855489  0.135395  0.720094  1
  In  In12  1  0.711058  0.343864  0.367194  1
  In  In13  1  0.288942  0.656136  0.632806  1
