# generated using pymatgen
data_PrTh(FeB)8
_symmetry_space_group_name_H-M   'P 1'
_cell_length_a   7.08189900
_cell_length_b   7.08189900
_cell_length_c   3.80193900
_cell_angle_alpha   90.00000000
_cell_angle_beta   90.00000000
_cell_angle_gamma   90.00000000
_symmetry_Int_Tables_number   1
_chemical_formula_structural   PrTh(FeB)8
_chemical_formula_sum   'Pr1 Th1 Fe8 B8'
_cell_volume   190.67976233
_cell_formula_units_Z   1
loop_
 _symmetry_equiv_pos_site_id
 _symmetry_equiv_pos_as_xyz
  1  'x, y, z'
loop_
 _atom_site_type_symbol
 _atom_site_label
 _atom_site_symmetry_multiplicity
 _atom_site_fract_x
 _atom_site_fract_y
 _atom_site_fract_z
 _atom_site_occupancy
  Pr  Pr0  1  0.500000  0.500000  0.500000  1
  Th  Th1  1  0.000000  0.000000  0.000000  1
  Fe  Fe2  1  0.131290  0.388174  0.896270  1
  Fe  Fe3  1  0.868710  0.611826  0.896270  1
  Fe  Fe4  1  0.889444  0.366883  0.395021  1
  Fe  Fe5  1  0.110556  0.633117  0.395021  1
  Fe  Fe6  1  0.366883  0.110556  0.604979  1
  Fe  Fe7  1  0.633117  0.889444  0.604979  1
  Fe  Fe8  1  0.611826  0.131290  0.103730  1
  Fe  Fe9  1  0.388174  0.868710  0.103730  1
  B  B10  1  0.664537  0.797172  0.105494  1
  B  B11  1  0.335463  0.202828  0.105494  1
  B  B12  1  0.296536  0.834985  0.603424  1
  B  B13  1  0.703464  0.165015  0.603424  1
  B  B14  1  0.834985  0.703464  0.396576  1
  B  B15  1  0.165015  0.296536  0.396576  1
  B  B16  1  0.202828  0.664537  0.894506  1
  B  B17  1  0.797172  0.335463  0.894506  1
