# generated using pymatgen
data_Sm3TmCo8(PRu)12
_symmetry_space_group_name_H-M   'P 1'
_cell_length_a   3.80181800
_cell_length_b   10.66018707
_cell_length_c   12.15747721
_cell_angle_alpha   90.05123681
_cell_angle_beta   90.00000000
_cell_angle_gamma   90.00000000
_symmetry_Int_Tables_number   1
_chemical_formula_structural   Sm3TmCo8(PRu)12
_chemical_formula_sum   'Sm3 Tm1 Co8 P12 Ru12'
_cell_volume   492.71914674
_cell_formula_units_Z   1
loop_
 _symmetry_equiv_pos_site_id
 _symmetry_equiv_pos_as_xyz
  1  'x, y, z'
loop_
 _atom_site_type_symbol
 _atom_site_label
 _atom_site_symmetry_multiplicity
 _atom_site_fract_x
 _atom_site_fract_y
 _atom_site_fract_z
 _atom_site_occupancy
  Sm  Sm0  1  0.250000  0.584508  0.706789  1
  Sm  Sm1  1  0.250000  0.915705  0.206602  1
  Sm  Sm2  1  0.750000  0.415280  0.293322  1
  Tm  Tm3  1  0.750000  0.084750  0.793591  1
  Co  Co4  1  0.250000  0.889206  0.696456  1
  Co  Co5  1  0.250000  0.612615  0.194548  1
  Co  Co6  1  0.750000  0.112692  0.305912  1
  Co  Co7  1  0.750000  0.386340  0.804845  1
  Co  Co8  1  0.250000  0.462079  0.934863  1
  Co  Co9  1  0.250000  0.037041  0.436942  1
  Co  Co10  1  0.750000  0.536917  0.064178  1
  Co  Co11  1  0.750000  0.963796  0.566277  1
  P  P12  1  0.250000  0.425147  0.110988  1
  P  P13  1  0.250000  0.074035  0.614198  1
  P  P14  1  0.750000  0.574568  0.888239  1
  P  P15  1  0.750000  0.925640  0.389511  1
  P  P16  1  0.250000  0.271348  0.870631  1
  P  P17  1  0.250000  0.226115  0.371889  1
  P  P18  1  0.750000  0.726897  0.127731  1
  P  P19  1  0.750000  0.773400  0.628118  1
  P  P20  1  0.250000  0.602869  0.387908  1
  P  P21  1  0.250000  0.899441  0.886317  1
  P  P22  1  0.750000  0.397067  0.612247  1
  P  P23  1  0.750000  0.103061  0.112061  1
  Ru  Ru24  1  0.250000  0.706539  0.985358  1
  Ru  Ru25  1  0.250000  0.794633  0.486445  1
  Ru  Ru26  1  0.750000  0.293812  0.013566  1
  Ru  Ru27  1  0.750000  0.205783  0.514281  1
  Ru  Ru28  1  0.250000  0.404597  0.487512  1
  Ru  Ru29  1  0.250000  0.095148  0.983727  1
  Ru  Ru30  1  0.750000  0.595106  0.512994  1
  Ru  Ru31  1  0.750000  0.906109  0.012192  1
  Ru  Ru32  1  0.250000  0.222185  0.179648  1
  Ru  Ru33  1  0.250000  0.274412  0.680965  1
  Ru  Ru34  1  0.750000  0.777797  0.819514  1
  Ru  Ru35  1  0.750000  0.723361  0.319634  1
