# generated using pymatgen
data_Gd5Y15Si15Pt
_symmetry_space_group_name_H-M   'P 1'
_cell_length_a   7.39953828
_cell_length_b   7.72734702
_cell_length_c   14.64388600
_cell_angle_alpha   90.01132221
_cell_angle_beta   89.98429688
_cell_angle_gamma   90.09158922
_symmetry_Int_Tables_number   1
_chemical_formula_structural   Gd5Y15Si15Pt
_chemical_formula_sum   'Gd5 Y15 Si15 Pt1'
_cell_volume   837.31871252
_cell_formula_units_Z   1
loop_
 _symmetry_equiv_pos_site_id
 _symmetry_equiv_pos_as_xyz
  1  'x, y, z'
loop_
 _atom_site_type_symbol
 _atom_site_label
 _atom_site_symmetry_multiplicity
 _atom_site_fract_x
 _atom_site_fract_y
 _atom_site_fract_z
 _atom_site_occupancy
  Gd  Gd0  1  0.681136  0.178683  0.622439  1
  Gd  Gd1  1  0.186636  0.323396  0.876577  1
  Gd  Gd2  1  0.844384  0.508369  0.750022  1
  Gd  Gd3  1  0.147011  0.486814  0.250153  1
  Gd  Gd4  1  0.646432  0.011149  0.250033  1
  Y  Y5  1  0.318449  0.819650  0.122968  1
  Y  Y6  1  0.818514  0.678740  0.376708  1
  Y  Y7  1  0.318661  0.819818  0.376774  1
  Y  Y8  1  0.818509  0.678661  0.123542  1
  Y  Y9  1  0.681402  0.178089  0.877831  1
  Y  Y10  1  0.185988  0.323789  0.622969  1
  Y  Y11  1  0.525321  0.682472  0.593657  1
  Y  Y12  1  0.025856  0.817360  0.904306  1
  Y  Y13  1  0.473396  0.315675  0.097579  1
  Y  Y14  1  0.972759  0.183959  0.402460  1
  Y  Y15  1  0.473238  0.315396  0.402876  1
  Y  Y16  1  0.972537  0.184138  0.097771  1
  Y  Y17  1  0.526381  0.682118  0.906326  1
  Y  Y18  1  0.025793  0.817754  0.595347  1
  Y  Y19  1  0.356170  0.984523  0.749679  1
  Si  Si20  1  0.646101  0.971204  0.459069  1
  Si  Si21  1  0.146771  0.528414  0.040092  1
  Si  Si22  1  0.352494  0.025951  0.960383  1
  Si  Si23  1  0.853315  0.472678  0.538854  1
  Si  Si24  1  0.350638  0.025381  0.539571  1
  Si  Si25  1  0.852025  0.472418  0.961254  1
  Si  Si26  1  0.646876  0.971192  0.040774  1
  Si  Si27  1  0.147270  0.528573  0.459810  1
  Si  Si28  1  0.980286  0.101020  0.750507  1
  Si  Si29  1  0.523674  0.600303  0.249869  1
  Si  Si30  1  0.024081  0.899707  0.250167  1
  Si  Si31  1  0.741362  0.877085  0.750232  1
  Si  Si32  1  0.231515  0.632423  0.749047  1
  Si  Si33  1  0.262079  0.123728  0.250068  1
  Si  Si34  1  0.762696  0.373820  0.250028  1
  Pt  Pt35  1  0.480247  0.405552  0.750263  1
