# generated using pymatgen
data_U8Ta4Nb7Si16W
_symmetry_space_group_name_H-M   'P 1'
_cell_length_a   7.02660275
_cell_length_b   7.02528784
_cell_length_c   12.96441173
_cell_angle_alpha   90.00825662
_cell_angle_beta   89.95689505
_cell_angle_gamma   90.01951046
_symmetry_Int_Tables_number   1
_chemical_formula_structural   U8Ta4Nb7Si16W
_chemical_formula_sum   'U8 Ta4 Nb7 Si16 W1'
_cell_volume   639.97378816
_cell_formula_units_Z   1
loop_
 _symmetry_equiv_pos_site_id
 _symmetry_equiv_pos_as_xyz
  1  'x, y, z'
loop_
 _atom_site_type_symbol
 _atom_site_label
 _atom_site_symmetry_multiplicity
 _atom_site_fract_x
 _atom_site_fract_y
 _atom_site_fract_z
 _atom_site_occupancy
  U  U0  1  0.995433  0.331377  0.220907  1
  U  U1  1  0.007818  0.670223  0.718075  1
  U  U2  1  0.166971  0.494713  0.469035  1
  U  U3  1  0.505271  0.831922  0.032044  1
  U  U4  1  0.831409  0.505848  0.969116  1
  U  U5  1  0.494369  0.166539  0.529310  1
  U  U6  1  0.330715  0.992720  0.780604  1
  U  U7  1  0.668403  0.005382  0.280841  1
  Ta  Ta8  1  0.168241  0.168532  0.000545  1
  Ta  Ta9  1  0.832560  0.832739  0.499063  1
  Ta  Ta10  1  0.329853  0.669018  0.250854  1
  Ta  Ta11  1  0.669025  0.331336  0.749850  1
  Nb  Nb12  1  0.843593  0.001271  0.874078  1
  Nb  Nb13  1  0.498823  0.657517  0.623468  1
  Nb  Nb14  1  0.344223  0.498933  0.875836  1
  Nb  Nb15  1  0.497741  0.341780  0.124860  1
  Nb  Nb16  1  0.657591  0.500439  0.375841  1
  Nb  Nb17  1  0.999496  0.156998  0.625709  1
  Nb  Nb18  1  0.000375  0.844780  0.126095  1
  Si  Si19  1  0.295417  0.038894  0.186669  1
  Si  Si20  1  0.702937  0.960723  0.684065  1
  Si  Si21  1  0.458528  0.797198  0.433636  1
  Si  Si22  1  0.202183  0.539046  0.065905  1
  Si  Si23  1  0.539234  0.202509  0.934748  1
  Si  Si24  1  0.795994  0.460942  0.565469  1
  Si  Si25  1  0.039767  0.297997  0.815452  1
  Si  Si26  1  0.962545  0.706821  0.315715  1
  Si  Si27  1  0.369928  0.291255  0.317149  1
  Si  Si28  1  0.629732  0.706000  0.815488  1
  Si  Si29  1  0.204446  0.871636  0.563039  1
  Si  Si30  1  0.128973  0.793856  0.934730  1
  Si  Si31  1  0.794490  0.130655  0.065948  1
  Si  Si32  1  0.874347  0.203057  0.433571  1
  Si  Si33  1  0.294790  0.369756  0.683859  1
  Si  Si34  1  0.705984  0.628005  0.184424  1
  W  W35  1  0.158797  0.999586  0.374008  1
