# generated using pymatgen
data_MnZn3(WO3)8
_symmetry_space_group_name_H-M   'P 1'
_cell_length_a   4.70419977
_cell_length_b   10.77834582
_cell_length_c   9.40899651
_cell_angle_alpha   64.12102130
_cell_angle_beta   89.87584397
_cell_angle_gamma   89.94583098
_symmetry_Int_Tables_number   1
_chemical_formula_structural   MnZn3(WO3)8
_chemical_formula_sum   'Mn1 Zn3 W8 O24'
_cell_volume   429.22652851
_cell_formula_units_Z   1
loop_
 _symmetry_equiv_pos_site_id
 _symmetry_equiv_pos_as_xyz
  1  'x, y, z'
loop_
 _atom_site_type_symbol
 _atom_site_label
 _atom_site_symmetry_multiplicity
 _atom_site_fract_x
 _atom_site_fract_y
 _atom_site_fract_z
 _atom_site_occupancy
  Mn  Mn0  1  0.499850  0.833278  0.333385  1
  Zn  Zn1  1  0.000047  0.333351  0.333337  1
  Zn  Zn2  1  0.500014  0.833357  0.833322  1
  Zn  Zn3  1  0.000021  0.333335  0.833316  1
  W  W4  1  0.001954  0.997520  0.502928  1
  W  W5  1  0.997914  0.997536  0.999557  1
  W  W6  1  0.998015  0.669149  0.163705  1
  W  W7  1  0.002024  0.669127  0.667140  1
  W  W8  1  0.499981  0.171059  0.164471  1
  W  W9  1  0.499936  0.169652  0.665175  1
  W  W10  1  0.500055  0.496987  0.001521  1
  W  W11  1  0.500058  0.495585  0.502208  1
  O  O12  1  0.193373  0.833350  0.679670  1
  O  O13  1  0.183872  0.833352  0.175624  1
  O  O14  1  0.308919  0.333732  0.178711  1
  O  O15  1  0.308922  0.332948  0.679117  1
  O  O16  1  0.691112  0.333716  0.987562  1
  O  O17  1  0.691112  0.332939  0.487946  1
  O  O18  1  0.806620  0.833350  0.986963  1
  O  O19  1  0.816088  0.833328  0.490973  1
  O  O20  1  0.209285  0.156992  0.025527  1
  O  O21  1  0.208149  0.158368  0.525553  1
  O  O22  1  0.208224  0.508313  0.850594  1
  O  O23  1  0.209349  0.509707  0.349176  1
  O  O24  1  0.290487  0.011682  0.349306  1
  O  O25  1  0.291958  0.009557  0.848834  1
  O  O26  1  0.292035  0.657122  0.025037  1
  O  O27  1  0.290525  0.654954  0.527690  1
  O  O28  1  0.708039  0.657132  0.817835  1
  O  O29  1  0.709523  0.654970  0.317342  1
  O  O30  1  0.709431  0.011657  0.139038  1
  O  O31  1  0.708013  0.009539  0.641643  1
  O  O32  1  0.791861  0.508302  0.141114  1
  O  O33  1  0.790724  0.509682  0.641159  1
  O  O34  1  0.790686  0.156988  0.317471  1
  O  O35  1  0.791828  0.158387  0.816054  1
