# generated using pymatgen
data_Cs6BeMo3H26
_symmetry_space_group_name_H-M   'P 1'
_cell_length_a   9.43959900
_cell_length_b   10.74225461
_cell_length_c   6.23744000
_cell_angle_alpha   90.00000000
_cell_angle_beta   90.00000000
_cell_angle_gamma   123.26005538
_symmetry_Int_Tables_number   1
_chemical_formula_structural   Cs6BeMo3H26
_chemical_formula_sum   'Cs6 Be1 Mo3 H26'
_cell_volume   528.88383729
_cell_formula_units_Z   1
loop_
 _symmetry_equiv_pos_site_id
 _symmetry_equiv_pos_as_xyz
  1  'x, y, z'
loop_
 _atom_site_type_symbol
 _atom_site_label
 _atom_site_symmetry_multiplicity
 _atom_site_fract_x
 _atom_site_fract_y
 _atom_site_fract_z
 _atom_site_occupancy
  Cs  Cs0  1  0.001661  0.191985  0.500000  1
  Cs  Cs1  1  0.698312  0.733126  0.500000  1
  Cs  Cs2  1  0.276227  0.006362  0.500000  1
  Cs  Cs3  1  0.015911  0.643565  0.000000  1
  Cs  Cs4  1  0.414795  0.396071  0.000000  1
  Cs  Cs5  1  0.601061  0.028426  0.000000  1
  Be  Be6  1  0.027679  0.512254  0.500000  1
  Mo  Mo7  1  0.732928  0.384288  0.500000  1
  Mo  Mo8  1  0.338199  0.660215  0.500000  1
  Mo  Mo9  1  0.990160  0.978453  0.000000  1
  H  H10  1  0.898978  0.398844  0.672758  1
  H  H11  1  0.718590  0.465485  0.728986  1
  H  H12  1  0.580188  0.260519  0.681669  1
  H  H13  1  0.176088  0.525145  0.339012  1
  H  H14  1  0.580188  0.260519  0.318331  1
  H  H15  1  0.898978  0.398844  0.327242  1
  H  H16  1  0.718590  0.465485  0.271014  1
  H  H17  1  0.242121  0.725902  0.645732  1
  H  H18  1  0.393097  0.682359  0.774004  1
  H  H19  1  0.169257  0.965216  0.000000  1
  H  H20  1  0.810345  0.793161  0.000000  1
  H  H21  1  0.994165  0.142081  0.000000  1
  H  H22  1  0.839546  0.965646  0.184450  1
  H  H23  1  0.143088  0.108615  0.817444  1
  H  H24  1  0.986612  0.878757  0.775117  1
  H  H25  1  0.986612  0.878757  0.224883  1
  H  H26  1  0.143088  0.108615  0.182556  1
  H  H27  1  0.839546  0.965646  0.815550  1
  H  H28  1  0.472924  0.857359  0.500000  1
  H  H29  1  0.319834  0.488718  0.500000  1
  H  H30  1  0.562929  0.406267  0.500000  1
  H  H31  1  0.916629  0.578969  0.500000  1
  H  H32  1  0.700371  0.210934  0.500000  1
  H  H33  1  0.176088  0.525145  0.660988  1
  H  H34  1  0.242121  0.725902  0.354268  1
  H  H35  1  0.393097  0.682359  0.225996  1
