# generated using pymatgen
data_Sc20Si9As4Se3
_symmetry_space_group_name_H-M   'P 1'
_cell_length_a   7.11574848
_cell_length_b   7.16250392
_cell_length_c   13.71982603
_cell_angle_alpha   89.81886521
_cell_angle_beta   89.73882574
_cell_angle_gamma   90.10916814
_symmetry_Int_Tables_number   1
_chemical_formula_structural   Sc20Si9As4Se3
_chemical_formula_sum   'Sc20 Si9 As4 Se3'
_cell_volume   699.24051381
_cell_formula_units_Z   1
loop_
 _symmetry_equiv_pos_site_id
 _symmetry_equiv_pos_as_xyz
  1  'x, y, z'
loop_
 _atom_site_type_symbol
 _atom_site_label
 _atom_site_symmetry_multiplicity
 _atom_site_fract_x
 _atom_site_fract_y
 _atom_site_fract_z
 _atom_site_occupancy
  Sc  Sc0  1  0.233951  0.995994  0.748452  1
  Sc  Sc1  1  0.765852  0.003062  0.249553  1
  Sc  Sc2  1  0.266446  0.500463  0.247794  1
  Sc  Sc3  1  0.734057  0.500008  0.750182  1
  Sc  Sc4  1  0.070983  0.671122  0.613769  1
  Sc  Sc5  1  0.935164  0.328684  0.386441  1
  Sc  Sc6  1  0.429205  0.168920  0.385924  1
  Sc  Sc7  1  0.938258  0.334358  0.112782  1
  Sc  Sc8  1  0.565740  0.832106  0.613361  1
  Sc  Sc9  1  0.068613  0.665629  0.887588  1
  Sc  Sc10  1  0.559662  0.824413  0.888940  1
  Sc  Sc11  1  0.433652  0.176083  0.113918  1
  Sc  Sc12  1  0.404054  0.330950  0.617863  1
  Sc  Sc13  1  0.592674  0.669425  0.381253  1
  Sc  Sc14  1  0.094663  0.834711  0.382339  1
  Sc  Sc15  1  0.596169  0.667793  0.119465  1
  Sc  Sc16  1  0.906555  0.161346  0.618769  1
  Sc  Sc17  1  0.402519  0.335426  0.882466  1
  Sc  Sc18  1  0.903794  0.164134  0.881518  1
  Sc  Sc19  1  0.095869  0.830988  0.118487  1
  Si  Si20  1  0.108436  0.376201  0.749839  1
  Si  Si21  1  0.889916  0.622698  0.251122  1
  Si  Si22  1  0.389303  0.880167  0.249489  1
  Si  Si23  1  0.608333  0.120373  0.751495  1
  Si  Si24  1  0.363380  0.626688  0.749705  1
  Si  Si25  1  0.641234  0.373761  0.250707  1
  Si  Si26  1  0.138752  0.128561  0.248971  1
  Si  Si27  1  0.860283  0.868779  0.751633  1
  Si  Si28  1  0.263148  0.513568  0.045260  1
  As  As29  1  0.241147  0.008008  0.547045  1
  As  As30  1  0.756262  0.993194  0.453605  1
  As  As31  1  0.259221  0.508191  0.453109  1
  As  As32  1  0.757082  0.992241  0.045687  1
  Se  Se33  1  0.744619  0.492429  0.547744  1
  Se  Se34  1  0.238924  0.009257  0.951551  1
  Se  Se35  1  0.742078  0.490274  0.952174  1
