# generated using pymatgen
data_Pr3Zn2Ir7
_symmetry_space_group_name_H-M   'P 1'
_cell_length_a   9.03432866
_cell_length_b   9.03432821
_cell_length_c   9.03432804
_cell_angle_alpha   35.42103030
_cell_angle_beta   35.42103444
_cell_angle_gamma   35.42104036
_symmetry_Int_Tables_number   1
_chemical_formula_structural   Pr3Zn2Ir7
_chemical_formula_sum   'Pr3 Zn2 Ir7'
_cell_volume   221.32094513
_cell_formula_units_Z   1
loop_
 _symmetry_equiv_pos_site_id
 _symmetry_equiv_pos_as_xyz
  1  'x, y, z'
loop_
 _atom_site_type_symbol
 _atom_site_label
 _atom_site_symmetry_multiplicity
 _atom_site_fract_x
 _atom_site_fract_y
 _atom_site_fract_z
 _atom_site_occupancy
  Pr  Pr0  1  0.859390  0.859390  0.859390  1
  Pr  Pr1  1  0.140610  0.140610  0.140610  1
  Pr  Pr2  1  0.000000  0.000000  0.000000  1
  Zn  Zn3  1  0.665142  0.665142  0.665142  1
  Zn  Zn4  1  0.334858  0.334858  0.334858  1
  Ir  Ir5  1  0.414894  0.922621  0.414894  1
  Ir  Ir6  1  0.414894  0.414894  0.922621  1
  Ir  Ir7  1  0.922621  0.414894  0.414894  1
  Ir  Ir8  1  0.585106  0.077379  0.585106  1
  Ir  Ir9  1  0.585106  0.585106  0.077379  1
  Ir  Ir10  1  0.077379  0.585106  0.585106  1
  Ir  Ir11  1  0.500000  0.500000  0.500000  1
