# generated using pymatgen
data_SiNi16P5
_symmetry_space_group_name_H-M   'P 1'
_cell_length_a   6.58661337
_cell_length_b   6.62763929
_cell_length_c   6.74748943
_cell_angle_alpha   98.50484433
_cell_angle_beta   102.55208010
_cell_angle_gamma   119.33101364
_symmetry_Int_Tables_number   1
_chemical_formula_structural   SiNi16P5
_chemical_formula_sum   'Si1 Ni16 P5'
_cell_volume   239.19620994
_cell_formula_units_Z   1
loop_
 _symmetry_equiv_pos_site_id
 _symmetry_equiv_pos_as_xyz
  1  'x, y, z'
loop_
 _atom_site_type_symbol
 _atom_site_label
 _atom_site_symmetry_multiplicity
 _atom_site_fract_x
 _atom_site_fract_y
 _atom_site_fract_z
 _atom_site_occupancy
  Si  Si0  1  0.000000  0.500000  0.500000  1
  Ni  Ni1  1  0.277424  0.643304  0.299956  1
  Ni  Ni2  1  0.722576  0.356696  0.700044  1
  Ni  Ni3  1  0.585607  0.728134  0.107217  1
  Ni  Ni4  1  0.414393  0.271866  0.892783  1
  Ni  Ni5  1  0.562430  0.445784  0.338997  1
  Ni  Ni6  1  0.437570  0.554216  0.661003  1
  Ni  Ni7  1  0.618995  0.087097  0.351957  1
  Ni  Ni8  1  0.381005  0.912903  0.648043  1
  Ni  Ni9  1  0.205858  0.005142  0.103163  1
  Ni  Ni10  1  0.794142  0.994858  0.896837  1
  Ni  Ni11  1  0.046320  0.209862  0.302299  1
  Ni  Ni12  1  0.953680  0.790138  0.697701  1
  Ni  Ni13  1  0.824872  0.376059  0.107786  1
  Ni  Ni14  1  0.175128  0.623941  0.892214  1
  Ni  Ni15  1  0.015450  0.198675  0.661351  1
  Ni  Ni16  1  0.984550  0.801325  0.338649  1
  P  P17  1  0.172848  0.336093  0.031738  1
  P  P18  1  0.827152  0.663907  0.968262  1
  P  P19  1  0.330609  0.169291  0.498233  1
  P  P20  1  0.669391  0.830709  0.501767  1
  P  P21  1  0.500000  0.000000  0.000000  1
