# generated using pymatgen
data_PrTlHg2(Ir2O7)2
_symmetry_space_group_name_H-M   'P 1'
_cell_length_a   7.45269954
_cell_length_b   7.31852357
_cell_length_c   7.31852310
_cell_angle_alpha   59.41158658
_cell_angle_beta   59.88954229
_cell_angle_gamma   59.88954180
_symmetry_Int_Tables_number   1
_chemical_formula_structural   PrTlHg2(Ir2O7)2
_chemical_formula_sum   'Pr1 Tl1 Hg2 Ir4 O14'
_cell_volume   280.51511663
_cell_formula_units_Z   1
loop_
 _symmetry_equiv_pos_site_id
 _symmetry_equiv_pos_as_xyz
  1  'x, y, z'
loop_
 _atom_site_type_symbol
 _atom_site_label
 _atom_site_symmetry_multiplicity
 _atom_site_fract_x
 _atom_site_fract_y
 _atom_site_fract_z
 _atom_site_occupancy
  Pr  Pr0  1  0.625000  0.125000  0.125000  1
  Tl  Tl1  1  0.125000  0.125000  0.125000  1
  Hg  Hg2  1  0.125000  0.125000  0.625000  1
  Hg  Hg3  1  0.125000  0.625000  0.125000  1
  Ir  Ir4  1  0.625000  0.625000  0.625000  1
  Ir  Ir5  1  0.125000  0.625000  0.625000  1
  Ir  Ir6  1  0.625000  0.125000  0.625000  1
  Ir  Ir7  1  0.625000  0.625000  0.125000  1
  O  O8  1  0.943149  0.557835  0.557835  1
  O  O9  1  0.304175  0.300873  0.708828  1
  O  O10  1  0.945825  0.541172  0.949127  1
  O  O11  1  0.705150  0.296053  0.296053  1
  O  O12  1  0.555459  0.544973  0.951430  1
  O  O13  1  0.555459  0.951430  0.544973  1
  O  O14  1  0.544850  0.953947  0.953947  1
  O  O15  1  0.234117  0.264109  0.264109  1
  O  O16  1  0.306851  0.692165  0.692165  1
  O  O17  1  0.694541  0.298570  0.705027  1
  O  O18  1  0.015883  0.985891  0.985891  1
  O  O19  1  0.945825  0.949127  0.541172  1
  O  O20  1  0.304175  0.708828  0.300873  1
  O  O21  1  0.694541  0.705027  0.298570  1
