# generated using pymatgen
data_AcAgO2
_symmetry_space_group_name_H-M   'P 1'
_cell_length_a   6.64272713
_cell_length_b   6.64272727
_cell_length_c   6.64272606
_cell_angle_alpha   35.13655439
_cell_angle_beta   35.13655694
_cell_angle_gamma   35.13655097
_symmetry_Int_Tables_number   1
_chemical_formula_structural   AcAgO2
_chemical_formula_sum   'Ac1 Ag1 O2'
_cell_volume   86.70929905
_cell_formula_units_Z   1
loop_
 _symmetry_equiv_pos_site_id
 _symmetry_equiv_pos_as_xyz
  1  'x, y, z'
loop_
 _atom_site_type_symbol
 _atom_site_label
 _atom_site_symmetry_multiplicity
 _atom_site_fract_x
 _atom_site_fract_y
 _atom_site_fract_z
 _atom_site_occupancy
  Ac  Ac0  1  0.500000  0.500000  0.500000  1
  Ag  Ag1  1  0.000000  0.000000  0.000000  1
  O  O2  1  0.110785  0.110785  0.110785  1
  O  O3  1  0.889215  0.889215  0.889215  1
