# generated using pymatgen
data_Dy10MgCd7Ni4
_symmetry_space_group_name_H-M   'P 1'
_cell_length_a   3.57774200
_cell_length_b   7.89034773
_cell_length_c   18.26483555
_cell_angle_alpha   89.94134764
_cell_angle_beta   90.00000000
_cell_angle_gamma   90.00000000
_symmetry_Int_Tables_number   1
_chemical_formula_structural   Dy10MgCd7Ni4
_chemical_formula_sum   'Dy10 Mg1 Cd7 Ni4'
_cell_volume   515.60925182
_cell_formula_units_Z   1
loop_
 _symmetry_equiv_pos_site_id
 _symmetry_equiv_pos_as_xyz
  1  'x, y, z'
loop_
 _atom_site_type_symbol
 _atom_site_label
 _atom_site_symmetry_multiplicity
 _atom_site_fract_x
 _atom_site_fract_y
 _atom_site_fract_z
 _atom_site_occupancy
  Dy  Dy0  1  0.500000  0.386054  0.588741  1
  Dy  Dy1  1  0.500000  0.885052  0.910814  1
  Dy  Dy2  1  0.500000  0.111438  0.087411  1
  Dy  Dy3  1  0.500000  0.751165  0.720852  1
  Dy  Dy4  1  0.500000  0.249638  0.778524  1
  Dy  Dy5  1  0.500000  0.500274  0.998353  1
  Dy  Dy6  1  0.500000  0.755518  0.222616  1
  Dy  Dy7  1  0.500000  0.245666  0.280882  1
  Dy  Dy8  1  0.500000  0.000327  0.499937  1
  Dy  Dy9  1  0.500000  0.614234  0.410516  1
  Mg  Mg10  1  0.000000  0.431546  0.152933  1
  Cd  Cd11  1  0.000000  0.784802  0.070325  1
  Cd  Cd12  1  0.000000  0.931377  0.349677  1
  Cd  Cd13  1  0.000000  0.068849  0.651016  1
  Cd  Cd14  1  0.000000  0.567791  0.848177  1
  Cd  Cd15  1  0.000000  0.711928  0.569345  1
  Cd  Cd16  1  0.000000  0.210835  0.930719  1
  Cd  Cd17  1  0.000000  0.289230  0.431168  1
  Ni  Ni18  1  0.000000  0.969558  0.803453  1
  Ni  Ni19  1  0.000000  0.529952  0.301931  1
  Ni  Ni20  1  0.000000  0.470126  0.696368  1
  Ni  Ni21  1  0.000000  0.034639  0.196241  1
