# generated using pymatgen
data_Li5P12Ru5Rh14
_symmetry_space_group_name_H-M   'P 1'
_cell_length_a   12.45150316
_cell_length_b   12.50247272
_cell_length_c   3.89615600
_cell_angle_alpha   90.00000000
_cell_angle_beta   90.00000000
_cell_angle_gamma   120.26317592
_symmetry_Int_Tables_number   1
_chemical_formula_structural   Li5P12Ru5Rh14
_chemical_formula_sum   'Li5 P12 Ru5 Rh14'
_cell_volume   523.87397930
_cell_formula_units_Z   1
loop_
 _symmetry_equiv_pos_site_id
 _symmetry_equiv_pos_as_xyz
  1  'x, y, z'
loop_
 _atom_site_type_symbol
 _atom_site_label
 _atom_site_symmetry_multiplicity
 _atom_site_fract_x
 _atom_site_fract_y
 _atom_site_fract_z
 _atom_site_occupancy
  Li  Li0  1  0.665834  0.330046  0.000000  1
  Li  Li1  1  0.334473  0.667103  0.000000  1
  Li  Li2  1  0.823741  0.001571  0.500000  1
  Li  Li3  1  0.174027  0.176683  0.500000  1
  Li  Li4  1  0.999552  0.824767  0.500000  1
  P  P5  1  0.630476  0.997941  0.000000  1
  P  P6  1  0.367636  0.368024  0.000000  1
  P  P7  1  0.000922  0.631753  0.000000  1
  P  P8  1  0.688932  0.521670  0.500000  1
  P  P9  1  0.831960  0.307933  0.500000  1
  P  P10  1  0.316058  0.836557  0.500000  1
  P  P11  1  0.524937  0.693433  0.500000  1
  P  P12  1  0.174334  0.995205  0.000000  1
  P  P13  1  0.824733  0.820235  0.000000  1
  P  P14  1  0.993531  0.178438  0.000000  1
  P  P15  1  0.473520  0.165894  0.500000  1
  P  P16  1  0.168590  0.478529  0.500000  1
  Ru  Ru17  1  0.514983  0.874333  0.500000  1
  Ru  Ru18  1  0.723537  0.720607  0.500000  1
  Ru  Ru19  1  0.001332  0.280746  0.500000  1
  Ru  Ru20  1  0.811919  0.191102  0.000000  1
  Ru  Ru21  1  0.275264  0.997894  0.500000  1
  Rh  Rh22  1  0.627955  0.809359  0.000000  1
  Rh  Rh23  1  0.186465  0.375489  0.000000  1
  Rh  Rh24  1  0.370292  0.183680  0.000000  1
  Rh  Rh25  1  0.190404  0.813639  0.000000  1
  Rh  Rh26  1  0.810482  0.622786  0.000000  1
  Rh  Rh27  1  0.869990  0.506906  0.500000  1
  Rh  Rh28  1  0.489493  0.359551  0.500000  1
  Rh  Rh29  1  0.634474  0.132579  0.500000  1
  Rh  Rh30  1  0.133655  0.639897  0.500000  1
  Rh  Rh31  1  0.363353  0.493763  0.500000  1
  Rh  Rh32  1  0.999747  0.002201  0.000000  1
  Rh  Rh33  1  0.447624  0.999972  0.000000  1
  Rh  Rh34  1  0.552584  0.548204  0.000000  1
  Rh  Rh35  1  0.003193  0.451510  0.000000  1
