# generated using pymatgen
data_Nd6Co18P13Pt2
_symmetry_space_group_name_H-M   'P 1'
_cell_length_a   12.89187600
_cell_length_b   12.89187726
_cell_length_c   3.74567900
_cell_angle_alpha   90.00000000
_cell_angle_beta   90.00000000
_cell_angle_gamma   120.00000189
_symmetry_Int_Tables_number   1
_chemical_formula_structural   Nd6Co18P13Pt2
_chemical_formula_sum   'Nd6 Co18 P13 Pt2'
_cell_volume   539.12995339
_cell_formula_units_Z   1
loop_
 _symmetry_equiv_pos_site_id
 _symmetry_equiv_pos_as_xyz
  1  'x, y, z'
loop_
 _atom_site_type_symbol
 _atom_site_label
 _atom_site_symmetry_multiplicity
 _atom_site_fract_x
 _atom_site_fract_y
 _atom_site_fract_z
 _atom_site_occupancy
  Nd  Nd0  1  0.463291  0.182568  0.000000  1
  Nd  Nd1  1  0.719278  0.536709  0.000000  1
  Nd  Nd2  1  0.817432  0.280722  0.000000  1
  Nd  Nd3  1  0.537433  0.817290  0.500000  1
  Nd  Nd4  1  0.279857  0.462567  0.500000  1
  Nd  Nd5  1  0.182710  0.720143  0.500000  1
  Co  Co6  1  0.191113  0.089805  0.000000  1
  Co  Co7  1  0.898691  0.808887  0.000000  1
  Co  Co8  1  0.910195  0.101309  0.000000  1
  Co  Co9  1  0.844878  0.926077  0.500000  1
  Co  Co10  1  0.081199  0.155122  0.500000  1
  Co  Co11  1  0.073923  0.918801  0.500000  1
  Co  Co12  1  0.436579  0.413638  0.000000  1
  Co  Co13  1  0.977060  0.563421  0.000000  1
  Co  Co14  1  0.586362  0.022940  0.000000  1
  Co  Co15  1  0.565500  0.587840  0.500000  1
  Co  Co16  1  0.022340  0.434500  0.500000  1
  Co  Co17  1  0.412160  0.977660  0.500000  1
  Co  Co18  1  0.074487  0.313549  0.000000  1
  Co  Co19  1  0.239061  0.925513  0.000000  1
  Co  Co20  1  0.686451  0.760939  0.000000  1
  Co  Co21  1  0.932138  0.687510  0.500000  1
  Co  Co22  1  0.755373  0.067862  0.500000  1
  Co  Co23  1  0.312490  0.244627  0.500000  1
  P  P24  1  0.229627  0.274186  0.000000  1
  P  P25  1  0.044560  0.770373  0.000000  1
  P  P26  1  0.725814  0.955440  0.000000  1
  P  P27  1  0.773621  0.729846  0.500000  1
  P  P28  1  0.956225  0.226379  0.500000  1
  P  P29  1  0.270154  0.043775  0.500000  1
  P  P30  1  0.490777  0.613841  0.000000  1
  P  P31  1  0.123064  0.509223  0.000000  1
  P  P32  1  0.386159  0.876936  0.000000  1
  P  P33  1  0.510163  0.388129  0.500000  1
  P  P34  1  0.877966  0.489837  0.500000  1
  P  P35  1  0.611871  0.122034  0.500000  1
  P  P36  1  0.000000  0.000000  0.000000  1
  Pt  Pt37  1  0.333333  0.666667  0.000000  1
  Pt  Pt38  1  0.666667  0.333333  0.500000  1
