# generated using pymatgen
data_Th3NpB16
_symmetry_space_group_name_H-M   'P 1'
_cell_length_a   7.20779023
_cell_length_b   7.20779005
_cell_length_c   4.09562500
_cell_angle_alpha   90.00000000
_cell_angle_beta   90.00000000
_cell_angle_gamma   90.54820084
_symmetry_Int_Tables_number   1
_chemical_formula_structural   Th3NpB16
_chemical_formula_sum   'Th3 Np1 B16'
_cell_volume   212.76714830
_cell_formula_units_Z   1
loop_
 _symmetry_equiv_pos_site_id
 _symmetry_equiv_pos_as_xyz
  1  'x, y, z'
loop_
 _atom_site_type_symbol
 _atom_site_label
 _atom_site_symmetry_multiplicity
 _atom_site_fract_x
 _atom_site_fract_y
 _atom_site_fract_z
 _atom_site_occupancy
  Th  Th0  1  0.814431  0.313994  0.000000  1
  Th  Th1  1  0.186006  0.685569  0.000000  1
  Th  Th2  1  0.315785  0.184215  0.000000  1
  Np  Np3  1  0.686343  0.813657  0.000000  1
  B  B4  1  0.502799  0.503329  0.798850  1
  B  B5  1  0.996671  0.997201  0.798850  1
  B  B6  1  0.502799  0.503329  0.201150  1
  B  B7  1  0.996671  0.997201  0.201150  1
  B  B8  1  0.411345  0.911235  0.500000  1
  B  B9  1  0.588765  0.088655  0.500000  1
  B  B10  1  0.912597  0.587403  0.500000  1
  B  B11  1  0.089926  0.410074  0.500000  1
  B  B12  1  0.677637  0.544409  0.500000  1
  B  B13  1  0.326677  0.462094  0.500000  1
  B  B14  1  0.173216  0.960686  0.500000  1
  B  B15  1  0.820832  0.035309  0.500000  1
  B  B16  1  0.464691  0.679168  0.500000  1
  B  B17  1  0.539314  0.326784  0.500000  1
  B  B18  1  0.037906  0.173323  0.500000  1
  B  B19  1  0.955591  0.822363  0.500000  1
