# generated using pymatgen
data_Nd5YAl24Os7Pd
_symmetry_space_group_name_H-M   'P 1'
_cell_length_a   8.91776001
_cell_length_b   8.91775976
_cell_length_c   9.64909701
_cell_angle_alpha   89.76153780
_cell_angle_beta   90.23845485
_cell_angle_gamma   119.87433563
_symmetry_Int_Tables_number   1
_chemical_formula_structural   Nd5YAl24Os7Pd
_chemical_formula_sum   'Nd5 Y1 Al24 Os7 Pd1'
_cell_volume   665.38403761
_cell_formula_units_Z   1
loop_
 _symmetry_equiv_pos_site_id
 _symmetry_equiv_pos_as_xyz
  1  'x, y, z'
loop_
 _atom_site_type_symbol
 _atom_site_label
 _atom_site_symmetry_multiplicity
 _atom_site_fract_x
 _atom_site_fract_y
 _atom_site_fract_z
 _atom_site_occupancy
  Nd  Nd0  1  0.188332  0.382620  0.251093  1
  Nd  Nd1  1  0.811407  0.617225  0.748851  1
  Nd  Nd2  1  0.617380  0.811668  0.251093  1
  Nd  Nd3  1  0.382775  0.188593  0.748851  1
  Nd  Nd4  1  0.192746  0.807254  0.253229  1
  Y  Y5  1  0.806177  0.193823  0.746667  1
  Al  Al6  1  0.330354  0.669646  0.013185  1
  Al  Al7  1  0.670352  0.329648  0.984705  1
  Al  Al8  1  0.666917  0.333083  0.513173  1
  Al  Al9  1  0.333784  0.666216  0.488788  1
  Al  Al10  1  0.161762  0.325355  0.576135  1
  Al  Al11  1  0.836754  0.673633  0.424881  1
  Al  Al12  1  0.674645  0.838238  0.576135  1
  Al  Al13  1  0.843799  0.676368  0.077425  1
  Al  Al14  1  0.326367  0.163246  0.424881  1
  Al  Al15  1  0.154367  0.322607  0.921499  1
  Al  Al16  1  0.163408  0.836592  0.574986  1
  Al  Al17  1  0.323632  0.156201  0.077425  1
  Al  Al18  1  0.836666  0.163334  0.427437  1
  Al  Al19  1  0.677393  0.845633  0.921499  1
  Al  Al20  1  0.836608  0.163392  0.071917  1
  Al  Al21  1  0.163422  0.836578  0.925675  1
  Al  Al22  1  0.562329  0.124601  0.249300  1
  Al  Al23  1  0.440467  0.877688  0.750557  1
  Al  Al24  1  0.875399  0.437671  0.249300  1
  Al  Al25  1  0.122312  0.559533  0.750557  1
  Al  Al26  1  0.562797  0.437203  0.253240  1
  Al  Al27  1  0.437077  0.562923  0.747050  1
  Al  Al28  1  0.999705  0.000295  0.250414  1
  Al  Al29  1  0.998744  0.001256  0.749667  1
  Os  Os30  1  0.500947  0.000414  0.999137  1
  Os  Os31  1  0.999586  0.499053  0.999137  1
  Os  Os32  1  0.501172  0.000533  0.500883  1
  Os  Os33  1  0.999467  0.498828  0.500883  1
  Os  Os34  1  0.500373  0.499627  0.500466  1
  Os  Os35  1  0.000095  0.999905  0.999710  1
  Os  Os36  1  0.000151  0.999849  0.500350  1
  Pd  Pd37  1  0.500331  0.499669  0.999819  1
