# generated using pymatgen
data_Tb5DyIrI10
_symmetry_space_group_name_H-M   'P 1'
_cell_length_a   7.77963947
_cell_length_b   9.78338603
_cell_length_c   9.78083149
_cell_angle_alpha   107.13334699
_cell_angle_beta   104.52450006
_cell_angle_gamma   96.84044488
_symmetry_Int_Tables_number   1
_chemical_formula_structural   Tb5DyIrI10
_chemical_formula_sum   'Tb5 Dy1 Ir1 I10'
_cell_volume   673.50626258
_cell_formula_units_Z   1
loop_
 _symmetry_equiv_pos_site_id
 _symmetry_equiv_pos_as_xyz
  1  'x, y, z'
loop_
 _atom_site_type_symbol
 _atom_site_label
 _atom_site_symmetry_multiplicity
 _atom_site_fract_x
 _atom_site_fract_y
 _atom_site_fract_z
 _atom_site_occupancy
  Tb  Tb0  1  0.348242  0.167351  0.124376  1
  Tb  Tb1  1  0.030131  0.913744  0.713437  1
  Tb  Tb2  1  0.969201  0.085871  0.286393  1
  Tb  Tb3  1  0.114601  0.763107  0.042875  1
  Tb  Tb4  1  0.884426  0.236565  0.956709  1
  Dy  Dy5  1  0.653312  0.833444  0.876047  1
  Ir  Ir6  1  0.000144  0.000107  0.999975  1
  I  I7  1  0.646934  0.727990  0.549864  1
  I  I8  1  0.352271  0.271671  0.451280  1
  I  I9  1  0.223783  0.655128  0.745359  1
  I  I10  1  0.778679  0.346137  0.255501  1
  I  I11  1  0.455750  0.090972  0.816782  1
  I  I12  1  0.544447  0.907738  0.182076  1
  I  I13  1  0.253987  0.460740  0.086216  1
  I  I14  1  0.744604  0.539821  0.913349  1
  I  I15  1  0.085719  0.820370  0.372294  1
  I  I16  1  0.913766  0.179244  0.627468  1
