# generated using pymatgen
data_Hf3Si4MoPtRh3
_symmetry_space_group_name_H-M   'P 1'
_cell_length_a   3.86667200
_cell_length_b   6.47340091
_cell_length_c   7.45280973
_cell_angle_alpha   90.44528141
_cell_angle_beta   90.00000000
_cell_angle_gamma   90.00000000
_symmetry_Int_Tables_number   1
_chemical_formula_structural   Hf3Si4MoPtRh3
_chemical_formula_sum   'Hf3 Si4 Mo1 Pt1 Rh3'
_cell_volume   186.54205495
_cell_formula_units_Z   1
loop_
 _symmetry_equiv_pos_site_id
 _symmetry_equiv_pos_as_xyz
  1  'x, y, z'
loop_
 _atom_site_type_symbol
 _atom_site_label
 _atom_site_symmetry_multiplicity
 _atom_site_fract_x
 _atom_site_fract_y
 _atom_site_fract_z
 _atom_site_occupancy
  Hf  Hf0  1  0.750000  0.477403  0.823469  1
  Hf  Hf1  1  0.250000  0.019588  0.314854  1
  Hf  Hf2  1  0.750000  0.966917  0.675990  1
  Si  Si3  1  0.250000  0.763520  0.892302  1
  Si  Si4  1  0.750000  0.247430  0.132156  1
  Si  Si5  1  0.250000  0.268264  0.613595  1
  Si  Si6  1  0.750000  0.713257  0.365618  1
  Mo  Mo7  1  0.250000  0.528320  0.176540  1
  Pt  Pt8  1  0.250000  0.153681  0.932398  1
  Rh  Rh9  1  0.750000  0.863896  0.063063  1
  Rh  Rh10  1  0.750000  0.349009  0.442069  1
  Rh  Rh11  1  0.250000  0.648717  0.567947  1
