# generated using pymatgen
data_Ir2NF8
_symmetry_space_group_name_H-M   'P 1'
_cell_length_a   5.34711977
_cell_length_b   5.46146362
_cell_length_c   6.23669555
_cell_angle_alpha   87.72196337
_cell_angle_beta   100.18980083
_cell_angle_gamma   97.94848634
_symmetry_Int_Tables_number   1
_chemical_formula_structural   Ir2NF8
_chemical_formula_sum   'Ir2 N1 F8'
_cell_volume   177.51411818
_cell_formula_units_Z   1
loop_
 _symmetry_equiv_pos_site_id
 _symmetry_equiv_pos_as_xyz
  1  'x, y, z'
loop_
 _atom_site_type_symbol
 _atom_site_label
 _atom_site_symmetry_multiplicity
 _atom_site_fract_x
 _atom_site_fract_y
 _atom_site_fract_z
 _atom_site_occupancy
  Ir  Ir0  1  0.057303  0.400197  0.751859  1
  Ir  Ir1  1  0.942697  0.599803  0.248141  1
  N  N2  1  0.000000  0.500000  0.000000  1
  F  F3  1  0.613080  0.406137  0.236678  1
  F  F4  1  0.898406  0.675257  0.563237  1
  F  F5  1  0.260642  0.810710  0.322643  1
  F  F6  1  0.783551  0.877966  0.140442  1
  F  F7  1  0.216449  0.122034  0.859558  1
  F  F8  1  0.386920  0.593863  0.763322  1
  F  F9  1  0.101594  0.324743  0.436763  1
  F  F10  1  0.739358  0.189290  0.677357  1
