# generated using pymatgen
data_SmGd3Se3N2
_symmetry_space_group_name_H-M   'P 1'
_cell_length_a   8.15487613
_cell_length_b   8.15487679
_cell_length_c   6.35112828
_cell_angle_alpha   90.15244157
_cell_angle_beta   90.15243638
_cell_angle_gamma   75.36109407
_symmetry_Int_Tables_number   1
_chemical_formula_structural   SmGd3Se3N2
_chemical_formula_sum   'Sm2 Gd6 Se6 N4'
_cell_volume   408.64965503
_cell_formula_units_Z   2
loop_
 _symmetry_equiv_pos_site_id
 _symmetry_equiv_pos_as_xyz
  1  'x, y, z'
loop_
 _atom_site_type_symbol
 _atom_site_label
 _atom_site_symmetry_multiplicity
 _atom_site_fract_x
 _atom_site_fract_y
 _atom_site_fract_z
 _atom_site_occupancy
  Sm  Sm0  1  0.189684  0.557693  0.470305  1
  Sm  Sm1  1  0.442307  0.810316  0.029695  1
  Gd  Gd2  1  0.244046  0.088243  0.573776  1
  Gd  Gd3  1  0.911757  0.755954  0.926224  1
  Gd  Gd4  1  0.756245  0.913114  0.426217  1
  Gd  Gd5  1  0.086886  0.243755  0.073783  1
  Gd  Gd6  1  0.812968  0.443005  0.528677  1
  Gd  Gd7  1  0.556995  0.187032  0.971323  1
  Se  Se8  1  0.747349  0.482375  0.036049  1
  Se  Se9  1  0.094381  0.905619  0.250000  1
  Se  Se10  1  0.517625  0.252651  0.463951  1
  Se  Se11  1  0.252716  0.516199  0.964402  1
  Se  Se12  1  0.905214  0.094786  0.750000  1
  Se  Se13  1  0.483801  0.747284  0.535598  1
  N  N14  1  0.081538  0.327532  0.414891  1
  N  N15  1  0.328811  0.084790  0.914525  1
  N  N16  1  0.915210  0.671189  0.585475  1
  N  N17  1  0.672468  0.918462  0.085109  1
