# generated using pymatgen
data_Ho12Tl2Fe3
_symmetry_space_group_name_H-M   'P 1'
_cell_length_a   8.34459211
_cell_length_b   8.34459252
_cell_length_c   8.34459259
_cell_angle_alpha   108.62846428
_cell_angle_beta   108.62846664
_cell_angle_gamma   111.17021076
_symmetry_Int_Tables_number   1
_chemical_formula_structural   Ho12Tl2Fe3
_chemical_formula_sum   'Ho12 Tl2 Fe3'
_cell_volume   446.99845110
_cell_formula_units_Z   1
loop_
 _symmetry_equiv_pos_site_id
 _symmetry_equiv_pos_as_xyz
  1  'x, y, z'
loop_
 _atom_site_type_symbol
 _atom_site_label
 _atom_site_symmetry_multiplicity
 _atom_site_fract_x
 _atom_site_fract_y
 _atom_site_fract_z
 _atom_site_occupancy
  Ho  Ho0  1  0.189867  0.426579  0.236711  1
  Ho  Ho1  1  0.810133  0.573421  0.763289  1
  Ho  Ho2  1  0.189867  0.953157  0.763289  1
  Ho  Ho3  1  0.953157  0.189867  0.763289  1
  Ho  Ho4  1  0.810133  0.046843  0.236711  1
  Ho  Ho5  1  0.046843  0.810133  0.236711  1
  Ho  Ho6  1  0.426579  0.189867  0.236711  1
  Ho  Ho7  1  0.573421  0.810133  0.763289  1
  Ho  Ho8  1  0.308768  0.308768  0.617537  1
  Ho  Ho9  1  0.691232  0.691232  0.382463  1
  Ho  Ho10  1  0.691232  0.308768  0.000000  1
  Ho  Ho11  1  0.308768  0.691232  0.000000  1
  Tl  Tl12  1  0.000000  0.500000  0.500000  1
  Tl  Tl13  1  0.500000  0.000000  0.500000  1
  Fe  Fe14  1  0.386120  0.386120  0.000000  1
  Fe  Fe15  1  0.613880  0.613880  0.000000  1
  Fe  Fe16  1  0.000000  0.000000  0.000000  1
