# generated using pymatgen
data_Sc2CoNi(SnH)2
_symmetry_space_group_name_H-M   'P 1'
_cell_length_a   4.09696100
_cell_length_b   6.85654593
_cell_length_c   7.94817811
_cell_angle_alpha   90.24190361
_cell_angle_beta   90.00000000
_cell_angle_gamma   90.00000000
_symmetry_Int_Tables_number   1
_chemical_formula_structural   Sc2CoNi(SnH)2
_chemical_formula_sum   'Sc4 Co2 Ni2 Sn4 H4'
_cell_volume   223.27029163
_cell_formula_units_Z   2
loop_
 _symmetry_equiv_pos_site_id
 _symmetry_equiv_pos_as_xyz
  1  'x, y, z'
loop_
 _atom_site_type_symbol
 _atom_site_label
 _atom_site_symmetry_multiplicity
 _atom_site_fract_x
 _atom_site_fract_y
 _atom_site_fract_z
 _atom_site_occupancy
  Sc  Sc0  1  0.750000  0.517105  0.811639  1
  Sc  Sc1  1  0.250000  0.482895  0.188361  1
  Sc  Sc2  1  0.250000  0.986298  0.320877  1
  Sc  Sc3  1  0.750000  0.013702  0.679123  1
  Co  Co4  1  0.750000  0.263294  0.388536  1
  Co  Co5  1  0.250000  0.736706  0.611464  1
  Ni  Ni6  1  0.250000  0.233840  0.889831  1
  Ni  Ni7  1  0.750000  0.766160  0.110169  1
  Sn  Sn8  1  0.750000  0.156440  0.073457  1
  Sn  Sn9  1  0.250000  0.843560  0.926543  1
  Sn  Sn10  1  0.250000  0.345264  0.573124  1
  Sn  Sn11  1  0.750000  0.654736  0.426876  1
  H  H12  1  0.250000  0.961762  0.579679  1
  H  H13  1  0.750000  0.038238  0.420321  1
  H  H14  1  0.750000  0.541965  0.072844  1
  H  H15  1  0.250000  0.458035  0.927156  1
