# generated using pymatgen
data_Nd6CoNiBr6
_symmetry_space_group_name_H-M   'P 1'
_cell_length_a   10.32953985
_cell_length_b   10.32953970
_cell_length_c   10.26337791
_cell_angle_alpha   109.46445421
_cell_angle_beta   109.46445711
_cell_angle_gamma   109.74440154
_symmetry_Int_Tables_number   1
_chemical_formula_structural   Nd6CoNiBr6
_chemical_formula_sum   'Nd12 Co2 Ni2 Br12'
_cell_volume   840.28820559
_cell_formula_units_Z   2
loop_
 _symmetry_equiv_pos_site_id
 _symmetry_equiv_pos_as_xyz
  1  'x, y, z'
loop_
 _atom_site_type_symbol
 _atom_site_label
 _atom_site_symmetry_multiplicity
 _atom_site_fract_x
 _atom_site_fract_y
 _atom_site_fract_z
 _atom_site_occupancy
  Nd  Nd0  1  0.466966  0.486560  0.231328  1
  Nd  Nd1  1  0.755233  0.235639  0.268672  1
  Nd  Nd2  1  0.755337  0.019622  0.486210  1
  Nd  Nd3  1  0.230873  0.466588  0.486210  1
  Nd  Nd4  1  0.264361  0.744767  0.231328  1
  Nd  Nd5  1  0.033412  0.269127  0.013790  1
  Nd  Nd6  1  0.013440  0.033034  0.268672  1
  Nd  Nd7  1  0.480378  0.744663  0.013790  1
  Nd  Nd8  1  0.483960  0.233960  0.467919  1
  Nd  Nd9  1  0.016905  0.483095  0.750000  1
  Nd  Nd10  1  0.266040  0.016040  0.032081  1
  Nd  Nd11  1  0.233095  0.266905  0.750000  1
  Co  Co12  1  0.999818  0.249818  0.499636  1
  Co  Co13  1  0.250182  0.500182  0.000364  1
  Ni  Ni14  1  0.250399  0.249601  0.250000  1
  Ni  Ni15  1  0.499601  0.000399  0.250000  1
  Br  Br16  1  0.250208  0.757918  0.742942  1
  Br  Br17  1  0.514976  0.507266  0.757058  1
  Br  Br18  1  0.986532  0.743486  0.993393  1
  Br  Br19  1  0.742082  0.249792  0.757058  1
  Br  Br20  1  0.992734  0.985024  0.742942  1
  Br  Br21  1  0.250092  0.993139  0.506607  1
  Br  Br22  1  0.756514  0.513468  0.506607  1
  Br  Br23  1  0.506861  0.249908  0.993393  1
  Br  Br24  1  0.757367  0.742633  0.250000  1
  Br  Br25  1  0.743123  0.993123  0.986246  1
  Br  Br26  1  0.992633  0.507367  0.250000  1
  Br  Br27  1  0.506877  0.756877  0.513754  1
