# generated using pymatgen
data_Ba2TiGa2O7
_symmetry_space_group_name_H-M   'P 1'
_cell_length_a   8.34718000
_cell_length_b   5.59989773
_cell_length_c   8.36452900
_cell_angle_alpha   89.60700208
_cell_angle_beta   90.00000000
_cell_angle_gamma   90.00000000
_symmetry_Int_Tables_number   1
_chemical_formula_structural   Ba2TiGa2O7
_chemical_formula_sum   'Ba4 Ti2 Ga4 O14'
_cell_volume   390.97694546
_cell_formula_units_Z   2
loop_
 _symmetry_equiv_pos_site_id
 _symmetry_equiv_pos_as_xyz
  1  'x, y, z'
loop_
 _atom_site_type_symbol
 _atom_site_label
 _atom_site_symmetry_multiplicity
 _atom_site_fract_x
 _atom_site_fract_y
 _atom_site_fract_z
 _atom_site_occupancy
  Ba  Ba0  1  0.658201  0.489379  0.578567  1
  Ba  Ba1  1  0.158201  0.510621  0.421433  1
  Ba  Ba2  1  0.334727  0.497172  0.902562  1
  Ba  Ba3  1  0.834727  0.502828  0.097438  1
  Ti  Ti4  1  0.143122  0.037915  0.107835  1
  Ti  Ti5  1  0.643122  0.962085  0.892165  1
  Ga  Ga6  1  0.503509  0.999142  0.254386  1
  Ga  Ga7  1  0.003509  0.000858  0.745614  1
  Ga  Ga8  1  0.854719  0.025752  0.396747  1
  Ga  Ga9  1  0.354719  0.974248  0.603253  1
  O  O10  1  0.505239  0.837556  0.745784  1
  O  O11  1  0.005239  0.162444  0.254216  1
  O  O12  1  0.858351  0.705861  0.388002  1
  O  O13  1  0.358351  0.294139  0.611998  1
  O  O14  1  0.138739  0.722097  0.108880  1
  O  O15  1  0.638739  0.277903  0.891120  1
  O  O16  1  0.580326  0.815817  0.082286  1
  O  O17  1  0.080326  0.184183  0.917714  1
  O  O18  1  0.415193  0.815393  0.415639  1
  O  O19  1  0.915193  0.184607  0.584361  1
  O  O20  1  0.670306  0.188555  0.324341  1
  O  O21  1  0.170306  0.811445  0.675659  1
  O  O22  1  0.337567  0.177533  0.158899  1
  O  O23  1  0.837567  0.822467  0.841101  1
