# generated using pymatgen
data_La3Tb2P12Pd3Ru16
_symmetry_space_group_name_H-M   'P 1'
_cell_length_a   4.01945700
_cell_length_b   12.70923019
_cell_length_c   12.70908902
_cell_angle_alpha   120.00036700
_cell_angle_beta   90.00000000
_cell_angle_gamma   90.00000000
_symmetry_Int_Tables_number   1
_chemical_formula_structural   La3Tb2P12Pd3Ru16
_chemical_formula_sum   'La3 Tb2 P12 Pd3 Ru16'
_cell_volume   562.25079736
_cell_formula_units_Z   1
loop_
 _symmetry_equiv_pos_site_id
 _symmetry_equiv_pos_as_xyz
  1  'x, y, z'
loop_
 _atom_site_type_symbol
 _atom_site_label
 _atom_site_symmetry_multiplicity
 _atom_site_fract_x
 _atom_site_fract_y
 _atom_site_fract_z
 _atom_site_occupancy
  La  La0  1  0.500000  0.999995  0.180944  1
  La  La1  1  0.500000  0.180998  0.000000  1
  La  La2  1  0.500000  0.819052  0.819056  1
  Tb  Tb3  1  0.000000  0.333299  0.666638  1
  Tb  Tb4  1  0.000000  0.666661  0.333362  1
  P  P5  1  0.000000  0.000002  0.808094  1
  P  P6  1  0.000000  0.808066  0.000000  1
  P  P7  1  0.000000  0.191906  0.191906  1
  P  P8  1  0.500000  0.299612  0.481245  1
  P  P9  1  0.500000  0.181642  0.700345  1
  P  P10  1  0.500000  0.518696  0.818327  1
  P  P11  1  0.500000  0.818366  0.518755  1
  P  P12  1  0.500000  0.481296  0.299655  1
  P  P13  1  0.500000  0.700371  0.181673  1
  P  P14  1  0.000000  0.999994  0.370104  1
  P  P15  1  0.000000  0.370094  0.000000  1
  P  P16  1  0.000000  0.629890  0.629896  1
  Pd  Pd17  1  0.000000  0.000007  0.553324  1
  Pd  Pd18  1  0.000000  0.553307  0.000000  1
  Pd  Pd19  1  0.000000  0.446683  0.446676  1
  Ru  Ru20  1  0.500000  0.000015  0.707260  1
  Ru  Ru21  1  0.500000  0.707265  0.000000  1
  Ru  Ru22  1  0.500000  0.292755  0.292740  1
  Ru  Ru23  1  0.000000  0.196415  0.383461  1
  Ru  Ru24  1  0.000000  0.187082  0.803568  1
  Ru  Ru25  1  0.000000  0.616449  0.812888  1
  Ru  Ru26  1  0.000000  0.812954  0.616539  1
  Ru  Ru27  1  0.000000  0.383514  0.196432  1
  Ru  Ru28  1  0.000000  0.803560  0.187112  1
  Ru  Ru29  1  0.500000  0.123779  0.494527  1
  Ru  Ru30  1  0.500000  0.370760  0.876175  1
  Ru  Ru31  1  0.500000  0.505401  0.629214  1
  Ru  Ru32  1  0.500000  0.629252  0.505473  1
  Ru  Ru33  1  0.500000  0.494585  0.123825  1
  Ru  Ru34  1  0.500000  0.876187  0.370786  1
  Ru  Ru35  1  0.000000  0.999991  0.000000  1
