# generated using pymatgen
data_Ce3(Cd2Sn)2
_symmetry_space_group_name_H-M   'P 1'
_cell_length_a   7.71657900
_cell_length_b   7.71657837
_cell_length_c   4.66894200
_cell_angle_alpha   90.00000000
_cell_angle_beta   90.00000000
_cell_angle_gamma   119.99999843
_symmetry_Int_Tables_number   1
_chemical_formula_structural   Ce3(Cd2Sn)2
_chemical_formula_sum   'Ce3 Cd4 Sn2'
_cell_volume   240.76796119
_cell_formula_units_Z   1
loop_
 _symmetry_equiv_pos_site_id
 _symmetry_equiv_pos_as_xyz
  1  'x, y, z'
loop_
 _atom_site_type_symbol
 _atom_site_label
 _atom_site_symmetry_multiplicity
 _atom_site_fract_x
 _atom_site_fract_y
 _atom_site_fract_z
 _atom_site_occupancy
  Ce  Ce0  1  0.577460  0.000000  0.000000  1
  Ce  Ce1  1  0.000000  0.577460  0.000000  1
  Ce  Ce2  1  0.422540  0.422540  0.000000  1
  Cd  Cd3  1  0.239313  0.000000  0.500000  1
  Cd  Cd4  1  0.000000  0.239313  0.500000  1
  Cd  Cd5  1  0.760687  0.760687  0.500000  1
  Cd  Cd6  1  0.000000  0.000000  0.000000  1
  Sn  Sn7  1  0.333333  0.666667  0.500000  1
  Sn  Sn8  1  0.666667  0.333333  0.500000  1
