# generated using pymatgen
data_Sc(Te4Mo3)2
_symmetry_space_group_name_H-M   'P 1'
_cell_length_a   7.27320348
_cell_length_b   7.33842995
_cell_length_c   7.32987266
_cell_angle_alpha   91.33283917
_cell_angle_beta   96.17944410
_cell_angle_gamma   99.39257415
_symmetry_Int_Tables_number   1
_chemical_formula_structural   Sc(Te4Mo3)2
_chemical_formula_sum   'Sc1 Te8 Mo6'
_cell_volume   383.40359474
_cell_formula_units_Z   1
loop_
 _symmetry_equiv_pos_site_id
 _symmetry_equiv_pos_as_xyz
  1  'x, y, z'
loop_
 _atom_site_type_symbol
 _atom_site_label
 _atom_site_symmetry_multiplicity
 _atom_site_fract_x
 _atom_site_fract_y
 _atom_site_fract_z
 _atom_site_occupancy
  Sc  Sc0  1  0.980630  0.994896  0.500110  1
  Te  Te1  1  0.798976  0.801193  0.794211  1
  Te  Te2  1  0.180283  0.188303  0.209521  1
  Te  Te3  1  0.868682  0.306610  0.656098  1
  Te  Te4  1  0.110547  0.687931  0.347267  1
  Te  Te5  1  0.278439  0.607736  0.872583  1
  Te  Te6  1  0.699947  0.383783  0.128430  1
  Te  Te7  1  0.615938  0.896282  0.265935  1
  Te  Te8  1  0.359097  0.094505  0.730843  1
  Mo  Mo9  1  0.571200  0.454560  0.752202  1
  Mo  Mo10  1  0.406292  0.536399  0.249191  1
  Mo  Mo11  1  0.736972  0.592394  0.457985  1
  Mo  Mo12  1  0.241646  0.399269  0.542868  1
  Mo  Mo13  1  0.453271  0.744828  0.576728  1
  Mo  Mo14  1  0.526279  0.246812  0.424433  1
