# generated using pymatgen
data_NaCu(S2O7)2
_symmetry_space_group_name_H-M   'P 1'
_cell_length_a   5.70701075
_cell_length_b   6.93689529
_cell_length_c   8.83370010
_cell_angle_alpha   107.01831376
_cell_angle_beta   93.67789238
_cell_angle_gamma   102.05463692
_symmetry_Int_Tables_number   1
_chemical_formula_structural   NaCu(S2O7)2
_chemical_formula_sum   'Na1 Cu1 S4 O14'
_cell_volume   324.08148366
_cell_formula_units_Z   1
loop_
 _symmetry_equiv_pos_site_id
 _symmetry_equiv_pos_as_xyz
  1  'x, y, z'
loop_
 _atom_site_type_symbol
 _atom_site_label
 _atom_site_symmetry_multiplicity
 _atom_site_fract_x
 _atom_site_fract_y
 _atom_site_fract_z
 _atom_site_occupancy
  Na  Na0  1  0.500000  0.000000  0.000000  1
  Cu  Cu1  1  0.500000  0.500000  0.500000  1
  S  S2  1  0.923696  0.725339  0.754420  1
  S  S3  1  0.076304  0.274661  0.245580  1
  S  S4  1  0.661775  0.316756  0.742909  1
  S  S5  1  0.338225  0.683244  0.257091  1
  O  O6  1  0.824484  0.643083  0.577012  1
  O  O7  1  0.175516  0.356917  0.422988  1
  O  O8  1  0.471329  0.411363  0.681270  1
  O  O9  1  0.528671  0.588637  0.318730  1
  O  O10  1  0.180045  0.808683  0.770121  1
  O  O11  1  0.819955  0.191317  0.229879  1
  O  O12  1  0.780694  0.848712  0.849227  1
  O  O13  1  0.219306  0.151288  0.150773  1
  O  O14  1  0.592134  0.276606  0.886439  1
  O  O15  1  0.407866  0.723394  0.113561  1
  O  O16  1  0.904814  0.516370  0.808354  1
  O  O17  1  0.095186  0.483630  0.191646  1
  O  O18  1  0.733533  0.162055  0.621325  1
  O  O19  1  0.266467  0.837945  0.378675  1
