# generated using pymatgen
data_Tb4Tm(SiHg)2
_symmetry_space_group_name_H-M   'P 1'
_cell_length_a   8.81250027
_cell_length_b   8.81250044
_cell_length_c   7.55907300
_cell_angle_alpha   90.00000000
_cell_angle_beta   90.00000000
_cell_angle_gamma   129.38625838
_symmetry_Int_Tables_number   1
_chemical_formula_structural   Tb4Tm(SiHg)2
_chemical_formula_sum   'Tb8 Tm2 Si4 Hg4'
_cell_volume   453.71397159
_cell_formula_units_Z   2
loop_
 _symmetry_equiv_pos_site_id
 _symmetry_equiv_pos_as_xyz
  1  'x, y, z'
loop_
 _atom_site_type_symbol
 _atom_site_label
 _atom_site_symmetry_multiplicity
 _atom_site_fract_x
 _atom_site_fract_y
 _atom_site_fract_z
 _atom_site_occupancy
  Tb  Tb0  1  0.055335  0.310150  0.323762  1
  Tb  Tb1  1  0.944665  0.689850  0.676238  1
  Tb  Tb2  1  0.444665  0.189850  0.823762  1
  Tb  Tb3  1  0.810150  0.555335  0.176238  1
  Tb  Tb4  1  0.555335  0.810150  0.176238  1
  Tb  Tb5  1  0.189850  0.444665  0.823762  1
  Tb  Tb6  1  0.689850  0.944665  0.676238  1
  Tb  Tb7  1  0.310150  0.055335  0.323762  1
  Tm  Tm8  1  0.000000  0.000000  0.000000  1
  Tm  Tm9  1  0.500000  0.500000  0.500000  1
  Si  Si10  1  0.381351  0.381351  0.121779  1
  Si  Si11  1  0.618649  0.618649  0.878221  1
  Si  Si12  1  0.118649  0.118649  0.621779  1
  Si  Si13  1  0.881351  0.881351  0.378221  1
  Hg  Hg14  1  0.782278  0.217722  0.000000  1
  Hg  Hg15  1  0.217722  0.782278  0.000000  1
  Hg  Hg16  1  0.717722  0.282278  0.500000  1
  Hg  Hg17  1  0.282278  0.717722  0.500000  1
