# generated using pymatgen
data_Nd16Tm4(Ir3Ru)3
_symmetry_space_group_name_H-M   'P 1'
_cell_length_a   11.15460000
_cell_length_b   11.15460000
_cell_length_c   6.54033300
_cell_angle_alpha   90.00000000
_cell_angle_beta   90.00000000
_cell_angle_gamma   90.00000000
_symmetry_Int_Tables_number   1
_chemical_formula_structural   Nd16Tm4(Ir3Ru)3
_chemical_formula_sum   'Nd16 Tm4 Ir9 Ru3'
_cell_volume   813.78159515
_cell_formula_units_Z   1
loop_
 _symmetry_equiv_pos_site_id
 _symmetry_equiv_pos_as_xyz
  1  'x, y, z'
loop_
 _atom_site_type_symbol
 _atom_site_label
 _atom_site_symmetry_multiplicity
 _atom_site_fract_x
 _atom_site_fract_y
 _atom_site_fract_z
 _atom_site_occupancy
  Nd  Nd0  1  0.291227  0.085777  0.380755  1
  Nd  Nd1  1  0.291331  0.914402  0.881133  1
  Nd  Nd2  1  0.708669  0.085598  0.881133  1
  Nd  Nd3  1  0.708773  0.914223  0.380755  1
  Nd  Nd4  1  0.585598  0.791331  0.881133  1
  Nd  Nd5  1  0.585777  0.208773  0.380755  1
  Nd  Nd6  1  0.414223  0.791227  0.380755  1
  Nd  Nd7  1  0.414402  0.208669  0.881133  1
  Nd  Nd8  1  0.210624  0.413466  0.620388  1
  Nd  Nd9  1  0.210480  0.586476  0.117562  1
  Nd  Nd10  1  0.789520  0.413524  0.117562  1
  Nd  Nd11  1  0.789376  0.586534  0.620388  1
  Nd  Nd12  1  0.913524  0.710480  0.117562  1
  Nd  Nd13  1  0.913466  0.289376  0.620388  1
  Nd  Nd14  1  0.086534  0.710624  0.620388  1
  Nd  Nd15  1  0.086476  0.289520  0.117562  1
  Tm  Tm16  1  0.000000  0.000000  0.499709  1
  Tm  Tm17  1  0.000000  0.000000  0.999754  1
  Tm  Tm18  1  0.500000  0.500000  0.999754  1
  Tm  Tm19  1  0.500000  0.500000  0.499709  1
  Ir  Ir20  1  0.853338  0.147314  0.250247  1
  Ir  Ir21  1  0.853099  0.852544  0.749872  1
  Ir  Ir22  1  0.146901  0.147456  0.749872  1
  Ir  Ir23  1  0.146662  0.852686  0.250247  1
  Ir  Ir24  1  0.647456  0.353099  0.749872  1
  Ir  Ir25  1  0.647314  0.646662  0.250247  1
  Ir  Ir26  1  0.352686  0.353338  0.250247  1
  Ir  Ir27  1  0.352544  0.646901  0.749872  1
  Ir  Ir28  1  0.000000  0.500000  0.381680  1
  Ru  Ru29  1  0.500000  0.000000  0.118734  1
  Ru  Ru30  1  0.500000  0.000000  0.618343  1
  Ru  Ru31  1  0.000000  0.500000  0.882490  1
