# generated using pymatgen
data_Th2Mn4Cr2P7Ir6
_symmetry_space_group_name_H-M   'P 1'
_cell_length_a   9.48037292
_cell_length_b   9.45382451
_cell_length_c   3.86497500
_cell_angle_alpha   90.00000000
_cell_angle_beta   90.00000000
_cell_angle_gamma   119.95553042
_symmetry_Int_Tables_number   1
_chemical_formula_structural   Th2Mn4Cr2P7Ir6
_chemical_formula_sum   'Th2 Mn4 Cr2 P7 Ir6'
_cell_volume   300.12675541
_cell_formula_units_Z   1
loop_
 _symmetry_equiv_pos_site_id
 _symmetry_equiv_pos_as_xyz
  1  'x, y, z'
loop_
 _atom_site_type_symbol
 _atom_site_label
 _atom_site_symmetry_multiplicity
 _atom_site_fract_x
 _atom_site_fract_y
 _atom_site_fract_z
 _atom_site_occupancy
  Th  Th0  1  0.332209  0.665450  0.000000  1
  Th  Th1  1  0.998542  0.000050  0.500000  1
  Mn  Mn2  1  0.553585  0.066543  0.000000  1
  Mn  Mn3  1  0.935301  0.489786  0.000000  1
  Mn  Mn4  1  0.512618  0.443830  0.000000  1
  Mn  Mn5  1  0.455480  0.218686  0.500000  1
  Cr  Cr6  1  0.781696  0.235143  0.500000  1
  Cr  Cr7  1  0.763972  0.544358  0.500000  1
  P  P8  1  0.770849  0.041623  0.000000  1
  P  P9  1  0.961015  0.733109  0.000000  1
  P  P10  1  0.266345  0.228270  0.000000  1
  P  P11  1  0.391831  0.945954  0.500000  1
  P  P12  1  0.050104  0.443748  0.500000  1
  P  P13  1  0.554211  0.608547  0.500000  1
  P  P14  1  0.670144  0.333010  0.000000  1
  Ir  Ir15  1  0.030158  0.268108  0.000000  1
  Ir  Ir16  1  0.732631  0.763233  0.000000  1
  Ir  Ir17  1  0.238398  0.970956  0.000000  1
  Ir  Ir18  1  0.610587  0.892178  0.500000  1
  Ir  Ir19  1  0.108062  0.720036  0.500000  1
  Ir  Ir20  1  0.282260  0.387382  0.500000  1
