# generated using pymatgen
data_NdSmP2(Ru2C)2
_symmetry_space_group_name_H-M   'P 1'
_cell_length_a   3.89239000
_cell_length_b   5.84060446
_cell_length_c   7.14663200
_cell_angle_alpha   90.00000000
_cell_angle_beta   90.00000000
_cell_angle_gamma   70.53579378
_symmetry_Int_Tables_number   1
_chemical_formula_structural   NdSmP2(Ru2C)2
_chemical_formula_sum   'Nd1 Sm1 P2 Ru4 C2'
_cell_volume   153.18565460
_cell_formula_units_Z   1
loop_
 _symmetry_equiv_pos_site_id
 _symmetry_equiv_pos_as_xyz
  1  'x, y, z'
loop_
 _atom_site_type_symbol
 _atom_site_label
 _atom_site_symmetry_multiplicity
 _atom_site_fract_x
 _atom_site_fract_y
 _atom_site_fract_z
 _atom_site_occupancy
  Nd  Nd0  1  0.953189  0.093624  0.250000  1
  Sm  Sm1  1  0.046261  0.907478  0.749999  1
  P  P2  1  0.229879  0.540243  0.250000  1
  P  P3  1  0.770056  0.459889  0.749999  1
  Ru  Ru4  1  0.666566  0.666870  0.052667  1
  Ru  Ru5  1  0.666566  0.666870  0.447333  1
  Ru  Ru6  1  0.333413  0.333173  0.555089  1
  Ru  Ru7  1  0.333413  0.333173  0.944911  1
  C  C8  1  0.500330  0.999341  0.996819  1
  C  C9  1  0.500330  0.999341  0.503182  1
