# generated using pymatgen
data_HfSc5Al8Si8Rh7
_symmetry_space_group_name_H-M   'P 1'
_cell_length_a   8.59402493
_cell_length_b   8.59402426
_cell_length_c   8.59274400
_cell_angle_alpha   60.00492011
_cell_angle_beta   60.00492269
_cell_angle_gamma   59.99015165
_symmetry_Int_Tables_number   1
_chemical_formula_structural   HfSc5Al8Si8Rh7
_chemical_formula_sum   'Hf1 Sc5 Al8 Si8 Rh7'
_cell_volume   448.75574638
_cell_formula_units_Z   1
loop_
 _symmetry_equiv_pos_site_id
 _symmetry_equiv_pos_as_xyz
  1  'x, y, z'
loop_
 _atom_site_type_symbol
 _atom_site_label
 _atom_site_symmetry_multiplicity
 _atom_site_fract_x
 _atom_site_fract_y
 _atom_site_fract_z
 _atom_site_occupancy
  Hf  Hf0  1  0.694076  0.694076  0.305923  1
  Sc  Sc1  1  0.692870  0.306304  0.307129  1
  Sc  Sc2  1  0.306304  0.692870  0.693695  1
  Sc  Sc3  1  0.306304  0.692870  0.307129  1
  Sc  Sc4  1  0.305009  0.305009  0.694990  1
  Sc  Sc5  1  0.692870  0.306304  0.693695  1
  Al  Al6  1  0.122788  0.122788  0.122184  1
  Al  Al7  1  0.122788  0.122788  0.632239  1
  Al  Al8  1  0.632129  0.122577  0.122647  1
  Al  Al9  1  0.122577  0.632129  0.122647  1
  Al  Al10  1  0.877352  0.877352  0.877422  1
  Al  Al11  1  0.877352  0.877352  0.367874  1
  Al  Al12  1  0.877815  0.367764  0.877211  1
  Al  Al13  1  0.367764  0.877815  0.877211  1
  Si  Si14  1  0.346887  0.346887  0.347030  1
  Si  Si15  1  0.346887  0.346887  0.959195  1
  Si  Si16  1  0.959663  0.347128  0.346604  1
  Si  Si17  1  0.347128  0.959663  0.346604  1
  Si  Si18  1  0.653396  0.653396  0.652872  1
  Si  Si19  1  0.653396  0.653396  0.040337  1
  Si  Si20  1  0.652970  0.040805  0.653113  1
  Si  Si21  1  0.040805  0.652970  0.653113  1
  Rh  Rh22  1  0.999364  0.999364  0.000636  1
  Rh  Rh23  1  0.500853  0.999082  0.000918  1
  Rh  Rh24  1  0.999082  0.500853  0.499147  1
  Rh  Rh25  1  0.999082  0.500853  0.000918  1
  Rh  Rh26  1  0.000816  0.000816  0.499184  1
  Rh  Rh27  1  0.500853  0.999082  0.499147  1
  Rh  Rh28  1  0.500816  0.500816  0.999184  1
