# generated using pymatgen
data_Rb3Cd2Br7
_symmetry_space_group_name_H-M   'P 1'
_cell_length_a   7.87920999
_cell_length_b   12.23701982
_cell_length_c   12.21344991
_cell_angle_alpha   119.47158419
_cell_angle_beta   107.78777917
_cell_angle_gamma   90.78906620
_symmetry_Int_Tables_number   1
_chemical_formula_structural   Rb3Cd2Br7
_chemical_formula_sum   'Rb6 Cd4 Br14'
_cell_volume   956.89392124
_cell_formula_units_Z   2
loop_
 _symmetry_equiv_pos_site_id
 _symmetry_equiv_pos_as_xyz
  1  'x, y, z'
loop_
 _atom_site_type_symbol
 _atom_site_label
 _atom_site_symmetry_multiplicity
 _atom_site_fract_x
 _atom_site_fract_y
 _atom_site_fract_z
 _atom_site_occupancy
  Rb  Rb0  1  0.614894  0.089821  0.214739  1
  Rb  Rb1  1  0.385106  0.910179  0.785261  1
  Rb  Rb2  1  0.086011  0.807658  0.212952  1
  Rb  Rb3  1  0.913989  0.192342  0.787048  1
  Rb  Rb4  1  0.870744  0.594486  0.715173  1
  Rb  Rb5  1  0.129256  0.405514  0.284827  1
  Cd  Cd6  1  0.490346  0.660150  0.984934  1
  Cd  Cd7  1  0.509654  0.339850  0.015066  1
  Cd  Cd8  1  0.360085  0.273086  0.572016  1
  Cd  Cd9  1  0.639915  0.726914  0.427984  1
  Br  Br10  1  0.333023  0.168588  0.712023  1
  Br  Br11  1  0.666977  0.831412  0.287977  1
  Br  Br12  1  0.310296  0.512376  0.670945  1
  Br  Br13  1  0.689704  0.487624  0.329055  1
  Br  Br14  1  0.724390  0.809544  0.966777  1
  Br  Br15  1  0.275610  0.190456  0.033223  1
  Br  Br16  1  0.734208  0.496436  0.988583  1
  Br  Br17  1  0.265792  0.503564  0.011417  1
  Br  Br18  1  0.247602  0.814881  0.984157  1
  Br  Br19  1  0.752398  0.185119  0.015843  1
  Br  Br20  1  0.687638  0.272336  0.553830  1
  Br  Br21  1  0.312362  0.727664  0.446170  1
  Br  Br22  1  0.124203  0.137401  0.324407  1
  Br  Br23  1  0.875797  0.862599  0.675593  1
