# generated using pymatgen
data_Ta4Ti9VP8
_symmetry_space_group_name_H-M   'P 1'
_cell_length_a   7.53864398
_cell_length_b   7.53864450
_cell_length_c   13.62782273
_cell_angle_alpha   76.11772413
_cell_angle_beta   76.11772393
_cell_angle_gamma   25.95890201
_symmetry_Int_Tables_number   1
_chemical_formula_structural   Ta4Ti9VP8
_chemical_formula_sum   'Ta4 Ti9 V1 P8'
_cell_volume   328.57573348
_cell_formula_units_Z   1
loop_
 _symmetry_equiv_pos_site_id
 _symmetry_equiv_pos_as_xyz
  1  'x, y, z'
loop_
 _atom_site_type_symbol
 _atom_site_label
 _atom_site_symmetry_multiplicity
 _atom_site_fract_x
 _atom_site_fract_y
 _atom_site_fract_z
 _atom_site_occupancy
  Ta  Ta0  1  0.999974  0.999974  0.999122  1
  Ta  Ta1  1  0.499978  0.499978  0.501363  1
  Ta  Ta2  1  0.427935  0.427935  0.173306  1
  Ta  Ta3  1  0.574657  0.574657  0.821047  1
  Ti  Ti4  1  0.802171  0.802171  0.310414  1
  Ti  Ti5  1  0.207854  0.207854  0.206425  1
  Ti  Ti6  1  0.791255  0.791255  0.791390  1
  Ti  Ti7  1  0.339522  0.339522  0.968265  1
  Ti  Ti8  1  0.660625  0.660625  0.029969  1
  Ti  Ti9  1  0.002895  0.002895  0.337157  1
  Ti  Ti10  1  0.997105  0.997105  0.663686  1
  Ti  Ti11  1  0.176556  0.176556  0.462315  1
  Ti  Ti12  1  0.821561  0.821561  0.542559  1
  V  V13  1  0.198594  0.198594  0.689656  1
  P  P14  1  0.180089  0.180089  0.888458  1
  P  P15  1  0.819557  0.819557  0.109898  1
  P  P16  1  0.372409  0.372409  0.396004  1
  P  P17  1  0.629215  0.629215  0.608355  1
  P  P18  1  0.367439  0.367439  0.660449  1
  P  P19  1  0.630887  0.630887  0.340720  1
  P  P20  1  0.064225  0.064225  0.153540  1
  P  P21  1  0.935496  0.935496  0.845900  1
