# generated using pymatgen
data_Er8Tc2B24RuRh
_symmetry_space_group_name_H-M   'P 1'
_cell_length_a   3.65043900
_cell_length_b   9.10360715
_cell_length_c   11.48678353
_cell_angle_alpha   90.24529690
_cell_angle_beta   90.00000000
_cell_angle_gamma   90.00000000
_symmetry_Int_Tables_number   1
_chemical_formula_structural   Er8Tc2B24RuRh
_chemical_formula_sum   'Er8 Tc2 B24 Ru1 Rh1'
_cell_volume   381.72715931
_cell_formula_units_Z   1
loop_
 _symmetry_equiv_pos_site_id
 _symmetry_equiv_pos_as_xyz
  1  'x, y, z'
loop_
 _atom_site_type_symbol
 _atom_site_label
 _atom_site_symmetry_multiplicity
 _atom_site_fract_x
 _atom_site_fract_y
 _atom_site_fract_z
 _atom_site_occupancy
  Er  Er0  1  0.500000  0.318139  0.413827  1
  Er  Er1  1  0.500000  0.679260  0.590386  1
  Er  Er2  1  0.500000  0.175085  0.915171  1
  Er  Er3  1  0.500000  0.827068  0.081753  1
  Er  Er4  1  0.500000  0.441486  0.127090  1
  Er  Er5  1  0.500000  0.556517  0.872056  1
  Er  Er6  1  0.500000  0.055368  0.628842  1
  Er  Er7  1  0.500000  0.945667  0.371099  1
  Tc  Tc8  1  0.500000  0.138771  0.180139  1
  Tc  Tc9  1  0.500000  0.861143  0.820159  1
  B  B10  1  0.000000  0.106278  0.470857  1
  B  B11  1  0.000000  0.892510  0.528981  1
  B  B12  1  0.000000  0.393978  0.970670  1
  B  B13  1  0.000000  0.606650  0.029777  1
  B  B14  1  0.000000  0.132070  0.315418  1
  B  B15  1  0.000000  0.867712  0.685014  1
  B  B16  1  0.000000  0.368440  0.814582  1
  B  B17  1  0.000000  0.632070  0.183330  1
  B  B18  1  0.000000  0.053084  0.066920  1
  B  B19  1  0.000000  0.946978  0.932851  1
  B  B20  1  0.000000  0.446012  0.566316  1
  B  B21  1  0.000000  0.554265  0.434264  1
  B  B22  1  0.000000  0.483245  0.287360  1
  B  B23  1  0.000000  0.516690  0.712242  1
  B  B24  1  0.000000  0.017387  0.787180  1
  B  B25  1  0.000000  0.982707  0.212542  1
  B  B26  1  0.000000  0.248710  0.080635  1
  B  B27  1  0.000000  0.751335  0.919292  1
  B  B28  1  0.000000  0.251098  0.580111  1
  B  B29  1  0.000000  0.749740  0.421316  1
  B  B30  1  0.000000  0.292830  0.234867  1
  B  B31  1  0.000000  0.707139  0.765674  1
  B  B32  1  0.000000  0.208651  0.733643  1
  B  B33  1  0.000000  0.791892  0.265810  1
  Ru  Ru34  1  0.500000  0.361810  0.678362  1
  Rh  Rh35  1  0.500000  0.638217  0.321463  1
