# generated using pymatgen
data_La2Yb3Si4
_symmetry_space_group_name_H-M   'P 1'
_cell_length_a   7.95289100
_cell_length_b   7.95289100
_cell_length_c   14.85268800
_cell_angle_alpha   90.00000000
_cell_angle_beta   90.00000000
_cell_angle_gamma   90.00000000
_symmetry_Int_Tables_number   1
_chemical_formula_structural   La2Yb3Si4
_chemical_formula_sum   'La8 Yb12 Si16'
_cell_volume   939.40986948
_cell_formula_units_Z   4
loop_
 _symmetry_equiv_pos_site_id
 _symmetry_equiv_pos_as_xyz
  1  'x, y, z'
loop_
 _atom_site_type_symbol
 _atom_site_label
 _atom_site_symmetry_multiplicity
 _atom_site_fract_x
 _atom_site_fract_y
 _atom_site_fract_z
 _atom_site_occupancy
  La  La0  1  0.988992  0.621354  0.049257  1
  La  La1  1  0.011008  0.378646  0.549257  1
  La  La2  1  0.621354  0.988992  0.950743  1
  La  La3  1  0.121354  0.511008  0.799257  1
  La  La4  1  0.878646  0.488992  0.299257  1
  La  La5  1  0.511008  0.121354  0.200743  1
  La  La6  1  0.488992  0.878646  0.700743  1
  La  La7  1  0.378646  0.011008  0.450743  1
  Yb  Yb8  1  0.372412  0.491265  0.374776  1
  Yb  Yb9  1  0.872412  0.008735  0.375224  1
  Yb  Yb10  1  0.991265  0.127588  0.124776  1
  Yb  Yb11  1  0.008735  0.872412  0.624776  1
  Yb  Yb12  1  0.627588  0.508735  0.874776  1
  Yb  Yb13  1  0.491265  0.372412  0.625224  1
  Yb  Yb14  1  0.508735  0.627588  0.125224  1
  Yb  Yb15  1  0.127588  0.991265  0.875224  1
  Yb  Yb16  1  0.687247  0.687247  0.500000  1
  Yb  Yb17  1  0.812753  0.187247  0.750000  1
  Yb  Yb18  1  0.187247  0.812753  0.250000  1
  Yb  Yb19  1  0.312753  0.312753  0.000000  1
  Si  Si20  1  0.082398  0.710431  0.442375  1
  Si  Si21  1  0.917602  0.289569  0.942375  1
  Si  Si22  1  0.710431  0.082398  0.557625  1
  Si  Si23  1  0.210432  0.417602  0.192375  1
  Si  Si24  1  0.789569  0.582398  0.692375  1
  Si  Si25  1  0.417602  0.210432  0.807625  1
  Si  Si26  1  0.582398  0.789569  0.307625  1
  Si  Si27  1  0.289569  0.917602  0.057625  1
  Si  Si28  1  0.832326  0.796559  0.806324  1
  Si  Si29  1  0.167674  0.203441  0.306324  1
  Si  Si30  1  0.796559  0.832326  0.193676  1
  Si  Si31  1  0.296559  0.667674  0.556324  1
  Si  Si32  1  0.703441  0.332326  0.056324  1
  Si  Si33  1  0.667674  0.296559  0.443676  1
  Si  Si34  1  0.332326  0.703441  0.943676  1
  Si  Si35  1  0.203441  0.167674  0.693676  1
