# generated using pymatgen
data_YbHo7Si12PdPt3
_symmetry_space_group_name_H-M   'P 1'
_cell_length_a   8.19755100
_cell_length_b   8.17571584
_cell_length_c   7.90317544
_cell_angle_alpha   89.96689817
_cell_angle_beta   90.00000000
_cell_angle_gamma   120.08838252
_symmetry_Int_Tables_number   1
_chemical_formula_structural   YbHo7Si12PdPt3
_chemical_formula_sum   'Yb1 Ho7 Si12 Pd1 Pt3'
_cell_volume   458.30500568
_cell_formula_units_Z   1
loop_
 _symmetry_equiv_pos_site_id
 _symmetry_equiv_pos_as_xyz
  1  'x, y, z'
loop_
 _atom_site_type_symbol
 _atom_site_label
 _atom_site_symmetry_multiplicity
 _atom_site_fract_x
 _atom_site_fract_y
 _atom_site_fract_z
 _atom_site_occupancy
  Yb  Yb0  1  0.511892  0.023782  0.250276  1
  Ho  Ho1  1  0.489551  0.979101  0.749799  1
  Ho  Ho2  1  0.975947  0.487791  0.249893  1
  Ho  Ho3  1  0.021584  0.509996  0.749535  1
  Ho  Ho4  1  0.511846  0.487791  0.249893  1
  Ho  Ho5  1  0.488413  0.509996  0.749535  1
  Ho  Ho6  1  0.999794  0.999589  0.251221  1
  Ho  Ho7  1  0.000709  0.001418  0.749648  1
  Si  Si8  1  0.164929  0.329858  0.001748  1
  Si  Si9  1  0.834911  0.669824  0.997509  1
  Si  Si10  1  0.669050  0.834330  0.003491  1
  Si  Si11  1  0.834981  0.669963  0.502225  1
  Si  Si12  1  0.330431  0.165510  0.996861  1
  Si  Si13  1  0.165369  0.330737  0.500287  1
  Si  Si14  1  0.165280  0.834330  0.003491  1
  Si  Si15  1  0.329962  0.165515  0.502846  1
  Si  Si16  1  0.835078  0.165510  0.996861  1
  Si  Si17  1  0.669546  0.834353  0.499041  1
  Si  Si18  1  0.835551  0.165515  0.502846  1
  Si  Si19  1  0.164808  0.834353  0.499041  1
  Pd  Pd20  1  0.333484  0.666970  0.457715  1
  Pt  Pt21  1  0.332879  0.665759  0.035014  1
  Pt  Pt22  1  0.667036  0.334070  0.959964  1
  Pt  Pt23  1  0.666968  0.333936  0.541263  1
