# generated using pymatgen
data_Tb4Al24Fe(Pd3Au)2
_symmetry_space_group_name_H-M   'P 1'
_cell_length_a   7.55775746
_cell_length_b   7.56416293
_cell_length_c   13.22499530
_cell_angle_alpha   84.64896125
_cell_angle_beta   100.92126699
_cell_angle_gamma   119.84722462
_symmetry_Int_Tables_number   1
_chemical_formula_structural   Tb4Al24Fe(Pd3Au)2
_chemical_formula_sum   'Tb4 Al24 Fe1 Pd6 Au2'
_cell_volume   643.88505178
_cell_formula_units_Z   1
loop_
 _symmetry_equiv_pos_site_id
 _symmetry_equiv_pos_as_xyz
  1  'x, y, z'
loop_
 _atom_site_type_symbol
 _atom_site_label
 _atom_site_symmetry_multiplicity
 _atom_site_fract_x
 _atom_site_fract_y
 _atom_site_fract_z
 _atom_site_occupancy
  Tb  Tb0  1  0.439487  0.831584  0.810632  1
  Tb  Tb1  1  0.560513  0.168416  0.189368  1
  Tb  Tb2  1  0.769365  0.501808  0.810964  1
  Tb  Tb3  1  0.230635  0.498192  0.189036  1
  Al  Al4  1  0.484147  0.175918  0.948877  1
  Al  Al5  1  0.515853  0.824082  0.051123  1
  Al  Al6  1  0.016624  0.161310  0.561639  1
  Al  Al7  1  0.983376  0.838690  0.438361  1
  Al  Al8  1  0.353513  0.839756  0.559353  1
  Al  Al9  1  0.646487  0.160244  0.440647  1
  Al  Al10  1  0.616831  0.839976  0.324896  1
  Al  Al11  1  0.383169  0.160024  0.675104  1
  Al  Al12  1  0.053496  0.492148  0.675829  1
  Al  Al13  1  0.946504  0.507852  0.324171  1
  Al  Al14  1  0.738480  0.846859  0.672999  1
  Al  Al15  1  0.261520  0.153141  0.327001  1
  Al  Al16  1  0.158672  0.501320  0.948602  1
  Al  Al17  1  0.841328  0.498680  0.051398  1
  Al  Al18  1  0.807444  0.821212  0.958490  1
  Al  Al19  1  0.192556  0.178788  0.041510  1
  Al  Al20  1  0.305781  0.500858  0.438262  1
  Al  Al21  1  0.694219  0.499142  0.561738  1
  Al  Al22  1  0.102237  0.836750  0.182507  1
  Al  Al23  1  0.897763  0.163250  0.817493  1
  Al  Al24  1  0.313954  0.371586  0.825482  1
  Al  Al25  1  0.686046  0.628414  0.174518  1
  Al  Al26  1  0.102583  0.957673  0.817413  1
  Al  Al27  1  0.897417  0.042327  0.182587  1
  Fe  Fe28  1  0.500000  0.500000  0.000000  1
  Pd  Pd29  1  0.171316  0.828625  0.999916  1
  Pd  Pd30  1  0.828684  0.171375  0.000084  1
  Pd  Pd31  1  0.294956  0.832894  0.363456  1
  Pd  Pd32  1  0.705044  0.167106  0.636544  1
  Pd  Pd33  1  0.045893  0.824933  0.636196  1
  Pd  Pd34  1  0.954107  0.175067  0.363804  1
  Au  Au35  1  0.388168  0.507377  0.639240  1
  Au  Au36  1  0.611832  0.492623  0.360760  1
