# generated using pymatgen
data_Th4Zn3Au5
_symmetry_space_group_name_H-M   'P 1'
_cell_length_a   4.70624400
_cell_length_b   7.04295427
_cell_length_c   8.16039631
_cell_angle_alpha   89.78765042
_cell_angle_beta   90.00000000
_cell_angle_gamma   90.00000000
_symmetry_Int_Tables_number   1
_chemical_formula_structural   Th4Zn3Au5
_chemical_formula_sum   'Th4 Zn3 Au5'
_cell_volume   270.48150642
_cell_formula_units_Z   1
loop_
 _symmetry_equiv_pos_site_id
 _symmetry_equiv_pos_as_xyz
  1  'x, y, z'
loop_
 _atom_site_type_symbol
 _atom_site_label
 _atom_site_symmetry_multiplicity
 _atom_site_fract_x
 _atom_site_fract_y
 _atom_site_fract_z
 _atom_site_occupancy
  Th  Th0  1  0.500000  0.500360  0.770052  1
  Th  Th1  1  0.500000  0.000865  0.737342  1
  Th  Th2  1  0.000000  0.490986  0.232115  1
  Th  Th3  1  0.000000  0.003891  0.260602  1
  Zn  Zn4  1  0.500000  0.721857  0.418181  1
  Zn  Zn5  1  0.000000  0.775513  0.916287  1
  Zn  Zn6  1  0.000000  0.282754  0.579218  1
  Au  Au7  1  0.500000  0.761849  0.085318  1
  Au  Au8  1  0.500000  0.269441  0.432483  1
  Au  Au9  1  0.000000  0.228215  0.899297  1
  Au  Au10  1  0.000000  0.733645  0.580928  1
  Au  Au11  1  0.500000  0.230623  0.088178  1
