# generated using pymatgen
data_Ho2Al9FePt2
_symmetry_space_group_name_H-M   'P 1'
_cell_length_a   7.52497864
_cell_length_b   7.52497836
_cell_length_c   9.40094500
_cell_angle_alpha   90.00000000
_cell_angle_beta   90.00000000
_cell_angle_gamma   119.34334566
_symmetry_Int_Tables_number   1
_chemical_formula_structural   Ho2Al9FePt2
_chemical_formula_sum   'Ho4 Al18 Fe2 Pt4'
_cell_volume   464.03259049
_cell_formula_units_Z   2
loop_
 _symmetry_equiv_pos_site_id
 _symmetry_equiv_pos_as_xyz
  1  'x, y, z'
loop_
 _atom_site_type_symbol
 _atom_site_label
 _atom_site_symmetry_multiplicity
 _atom_site_fract_x
 _atom_site_fract_y
 _atom_site_fract_z
 _atom_site_occupancy
  Ho  Ho0  1  0.995764  0.674942  0.250151  1
  Ho  Ho1  1  0.004236  0.325058  0.750151  1
  Ho  Ho2  1  0.674942  0.995764  0.249849  1
  Ho  Ho3  1  0.325058  0.004236  0.749849  1
  Al  Al4  1  0.136850  0.136850  0.250000  1
  Al  Al5  1  0.863150  0.863150  0.750000  1
  Al  Al6  1  0.342966  0.332978  0.551862  1
  Al  Al7  1  0.657034  0.667022  0.051862  1
  Al  Al8  1  0.332978  0.342966  0.948138  1
  Al  Al9  1  0.667022  0.657034  0.448138  1
  Al  Al10  1  0.340227  0.553630  0.241867  1
  Al  Al11  1  0.659773  0.446370  0.741867  1
  Al  Al12  1  0.553630  0.340227  0.258133  1
  Al  Al13  1  0.446370  0.659773  0.758133  1
  Al  Al14  1  0.010521  0.347211  0.074818  1
  Al  Al15  1  0.989479  0.652789  0.574818  1
  Al  Al16  1  0.347211  0.010521  0.425182  1
  Al  Al17  1  0.652789  0.989479  0.925182  1
  Al  Al18  1  0.012671  0.664830  0.924535  1
  Al  Al19  1  0.987329  0.335170  0.424535  1
  Al  Al20  1  0.664830  0.012671  0.575465  1
  Al  Al21  1  0.335170  0.987329  0.075465  1
  Fe  Fe22  1  0.329088  0.670912  0.000000  1
  Fe  Fe23  1  0.670912  0.329088  0.500000  1
  Pt  Pt24  1  0.999888  0.000112  0.000000  1
  Pt  Pt25  1  0.000112  0.999888  0.500000  1
  Pt  Pt26  1  0.672290  0.327710  0.000000  1
  Pt  Pt27  1  0.327710  0.672290  0.500000  1
