# generated using pymatgen
data_TbPr8ThIr4
_symmetry_space_group_name_H-M   'P 1'
_cell_length_a   6.71969223
_cell_length_b   7.29004944
_cell_length_c   9.10931392
_cell_angle_alpha   96.58481169
_cell_angle_beta   111.64387596
_cell_angle_gamma   90.00000016
_symmetry_Int_Tables_number   1
_chemical_formula_structural   TbPr8ThIr4
_chemical_formula_sum   'Tb1 Pr8 Th1 Ir4'
_cell_volume   411.60601495
_cell_formula_units_Z   1
loop_
 _symmetry_equiv_pos_site_id
 _symmetry_equiv_pos_as_xyz
  1  'x, y, z'
loop_
 _atom_site_type_symbol
 _atom_site_label
 _atom_site_symmetry_multiplicity
 _atom_site_fract_x
 _atom_site_fract_y
 _atom_site_fract_z
 _atom_site_occupancy
  Tb  Tb0  1  0.564534  0.250000  0.000000  1
  Pr  Pr1  1  0.981563  0.925582  0.184306  1
  Pr  Pr2  1  0.797257  0.574418  0.815694  1
  Pr  Pr3  1  0.016666  0.080800  0.815832  1
  Pr  Pr4  1  0.200835  0.419200  0.184168  1
  Pr  Pr5  1  0.651292  0.814960  0.435071  1
  Pr  Pr6  1  0.216221  0.685040  0.564929  1
  Pr  Pr7  1  0.355574  0.185628  0.571710  1
  Pr  Pr8  1  0.783865  0.314372  0.428290  1
  Th  Th9  1  0.432575  0.750000  0.000000  1
  Ir  Ir10  1  0.799469  0.575052  0.206902  1
  Ir  Ir11  1  0.592566  0.924948  0.793098  1
  Ir  Ir12  1  0.199662  0.433461  0.791742  1
  Ir  Ir13  1  0.407921  0.066539  0.208258  1
