# generated using pymatgen
data_Er10SnBiPb4
_symmetry_space_group_name_H-M   'P 1'
_cell_length_a   8.99701036
_cell_length_b   8.99778512
_cell_length_c   6.49396100
_cell_angle_alpha   90.00000000
_cell_angle_beta   90.00000000
_cell_angle_gamma   119.98740280
_symmetry_Int_Tables_number   1
_chemical_formula_structural   Er10SnBiPb4
_chemical_formula_sum   'Er10 Sn1 Bi1 Pb4'
_cell_volume   455.33313967
_cell_formula_units_Z   1
loop_
 _symmetry_equiv_pos_site_id
 _symmetry_equiv_pos_as_xyz
  1  'x, y, z'
loop_
 _atom_site_type_symbol
 _atom_site_label
 _atom_site_symmetry_multiplicity
 _atom_site_fract_x
 _atom_site_fract_y
 _atom_site_fract_z
 _atom_site_occupancy
  Er  Er0  1  0.668113  0.331524  0.999878  1
  Er  Er1  1  0.334150  0.669705  0.999906  1
  Er  Er2  1  0.334150  0.669705  0.500094  1
  Er  Er3  1  0.668113  0.331524  0.500122  1
  Er  Er4  1  0.763307  0.765200  0.750000  1
  Er  Er5  1  0.238095  0.996754  0.750000  1
  Er  Er6  1  0.994842  0.235419  0.750000  1
  Er  Er7  1  0.237684  0.237798  0.250000  1
  Er  Er8  1  0.761454  0.000447  0.250000  1
  Er  Er9  1  0.000379  0.762271  0.250000  1
  Sn  Sn10  1  0.605440  0.999673  0.750000  1
  Bi  Bi11  1  0.392766  0.392768  0.750000  1
  Pb  Pb12  1  0.999588  0.605808  0.750000  1
  Pb  Pb13  1  0.606721  0.606461  0.250000  1
  Pb  Pb14  1  0.393930  0.001017  0.250000  1
  Pb  Pb15  1  0.001269  0.393924  0.250000  1
