# generated using pymatgen
data_Tb2BeAlBO7
_symmetry_space_group_name_H-M   'P 1'
_cell_length_a   7.37867300
_cell_length_b   4.75484896
_cell_length_c   7.39355118
_cell_angle_alpha   89.86094087
_cell_angle_beta   90.00000000
_cell_angle_gamma   90.00000000
_symmetry_Int_Tables_number   1
_chemical_formula_structural   Tb2BeAlBO7
_chemical_formula_sum   'Tb4 Be2 Al2 B2 O14'
_cell_volume   259.39810217
_cell_formula_units_Z   2
loop_
 _symmetry_equiv_pos_site_id
 _symmetry_equiv_pos_as_xyz
  1  'x, y, z'
loop_
 _atom_site_type_symbol
 _atom_site_label
 _atom_site_symmetry_multiplicity
 _atom_site_fract_x
 _atom_site_fract_y
 _atom_site_fract_z
 _atom_site_occupancy
  Tb  Tb0  1  0.662852  0.511002  0.576684  1
  Tb  Tb1  1  0.162852  0.488998  0.423316  1
  Tb  Tb2  1  0.335778  0.502290  0.905126  1
  Tb  Tb3  1  0.835778  0.497710  0.094874  1
  Be  Be4  1  0.865078  0.947942  0.385612  1
  Be  Be5  1  0.365078  0.052058  0.614388  1
  Al  Al6  1  0.497889  0.001152  0.245372  1
  Al  Al7  1  0.997889  0.998848  0.754628  1
  B  B8  1  0.136175  0.934523  0.114296  1
  B  B9  1  0.636175  0.065477  0.885704  1
  O  O10  1  0.577277  0.212029  0.062755  1
  O  O11  1  0.077277  0.787971  0.937245  1
  O  O12  1  0.421400  0.215685  0.421713  1
  O  O13  1  0.921400  0.784315  0.578287  1
  O  O14  1  0.674244  0.781281  0.318253  1
  O  O15  1  0.174244  0.218719  0.681747  1
  O  O16  1  0.316429  0.794596  0.160603  1
  O  O17  1  0.816429  0.205404  0.839397  1
  O  O18  1  0.859760  0.281635  0.385995  1
  O  O19  1  0.359760  0.718365  0.614005  1
  O  O20  1  0.141598  0.239413  0.103439  1
  O  O21  1  0.641598  0.760587  0.896561  1
  O  O22  1  0.511520  0.178969  0.751884  1
  O  O23  1  0.011520  0.821031  0.248116  1
