# generated using pymatgen
data_Hf2Zn7Rh9
_symmetry_space_group_name_H-M   'P 1'
_cell_length_a   7.55161609
_cell_length_b   7.55220431
_cell_length_c   5.31381406
_cell_angle_alpha   89.99104414
_cell_angle_beta   90.01791311
_cell_angle_gamma   119.99743233
_symmetry_Int_Tables_number   1
_chemical_formula_structural   Hf2Zn7Rh9
_chemical_formula_sum   'Hf2 Zn7 Rh9'
_cell_volume   262.45922014
_cell_formula_units_Z   1
loop_
 _symmetry_equiv_pos_site_id
 _symmetry_equiv_pos_as_xyz
  1  'x, y, z'
loop_
 _atom_site_type_symbol
 _atom_site_label
 _atom_site_symmetry_multiplicity
 _atom_site_fract_x
 _atom_site_fract_y
 _atom_site_fract_z
 _atom_site_occupancy
  Hf  Hf0  1  0.999930  0.333421  0.892095  1
  Hf  Hf1  1  0.666508  0.666579  0.892095  1
  Zn  Zn2  1  0.667986  0.000000  0.226421  1
  Zn  Zn3  1  0.333061  0.333978  0.226444  1
  Zn  Zn4  1  0.999084  0.666022  0.226444  1
  Zn  Zn5  1  0.998962  0.000000  0.557073  1
  Zn  Zn6  1  0.667559  0.334252  0.558224  1
  Zn  Zn7  1  0.333308  0.665748  0.558224  1
  Zn  Zn8  1  0.333607  0.000000  0.891973  1
  Rh  Rh9  1  0.005692  0.000000  0.064127  1
  Rh  Rh10  1  0.661013  0.327666  0.065098  1
  Rh  Rh11  1  0.333348  0.672334  0.065098  1
  Rh  Rh12  1  0.333564  0.000000  0.391999  1
  Rh  Rh13  1  0.000058  0.333680  0.392089  1
  Rh  Rh14  1  0.666379  0.666320  0.392089  1
  Rh  Rh15  1  0.661154  0.000000  0.719368  1
  Rh  Rh16  1  0.333139  0.327491  0.719497  1
  Rh  Rh17  1  0.005648  0.672509  0.719497  1
