# generated using pymatgen
data_PbSe23
_symmetry_space_group_name_H-M   'P 1'
_cell_length_a   5.39746987
_cell_length_b   10.07725794
_cell_length_c   16.08222500
_cell_angle_alpha   93.36146596
_cell_angle_beta   86.96594930
_cell_angle_gamma   87.56530097
_symmetry_Int_Tables_number   1
_chemical_formula_structural   PbSe23
_chemical_formula_sum   'Pb1 Se23'
_cell_volume   871.09830197
_cell_formula_units_Z   1
loop_
 _symmetry_equiv_pos_site_id
 _symmetry_equiv_pos_as_xyz
  1  'x, y, z'
loop_
 _atom_site_type_symbol
 _atom_site_label
 _atom_site_symmetry_multiplicity
 _atom_site_fract_x
 _atom_site_fract_y
 _atom_site_fract_z
 _atom_site_occupancy
  Pb  Pb0  1  0.423540  0.185820  0.378119  1
  Se  Se1  1  0.440919  0.844382  0.386060  1
  Se  Se2  1  0.035998  0.309011  0.148742  1
  Se  Se3  1  0.869642  0.246793  0.459277  1
  Se  Se4  1  0.204830  0.801559  0.509254  1
  Se  Se5  1  0.210421  0.233592  0.015460  1
  Se  Se6  1  0.795651  0.720456  0.018736  1
  Se  Se7  1  0.140420  0.431425  0.352729  1
  Se  Se8  1  0.687229  0.639823  0.349725  1
  Se  Se9  1  0.775139  0.136774  0.191811  1
  Se  Se10  1  0.285141  0.870843  0.147537  1
  Se  Se11  1  0.723750  0.626019  0.619128  1
  Se  Se12  1  0.308110  0.340218  0.608704  1
  Se  Se13  1  0.230189  0.860903  0.856862  1
  Se  Se14  1  0.730021  0.137207  0.864751  1
  Se  Se15  1  0.082582  0.671215  0.120383  1
  Se  Se16  1  0.476507  0.825800  0.618793  1
  Se  Se17  1  0.591688  0.160321  0.562775  1
  Se  Se18  1  0.007420  0.671596  0.887190  1
  Se  Se19  1  0.973329  0.315038  0.908105  1
  Se  Se20  1  0.449436  0.512355  0.259938  1
  Se  Se21  1  0.047447  0.988499  0.259393  1
  Se  Se22  1  0.519939  0.475675  0.704043  1
  Se  Se23  1  0.990649  0.994675  0.772489  1
