# generated using pymatgen
data_Ce2Mn21AlC3
_symmetry_space_group_name_H-M   'P 1'
_cell_length_a   6.53926762
_cell_length_b   7.77931065
_cell_length_c   7.80719841
_cell_angle_alpha   98.99393488
_cell_angle_beta   115.02757354
_cell_angle_gamma   65.41603388
_symmetry_Int_Tables_number   1
_chemical_formula_structural   Ce2Mn21AlC3
_chemical_formula_sum   'Ce2 Mn21 Al1 C3'
_cell_volume   327.15391509
_cell_formula_units_Z   1
loop_
 _symmetry_equiv_pos_site_id
 _symmetry_equiv_pos_as_xyz
  1  'x, y, z'
loop_
 _atom_site_type_symbol
 _atom_site_label
 _atom_site_symmetry_multiplicity
 _atom_site_fract_x
 _atom_site_fract_y
 _atom_site_fract_z
 _atom_site_occupancy
  Ce  Ce0  1  0.381373  0.750732  0.250732  1
  Ce  Ce1  1  0.618815  0.249938  0.749938  1
  Mn  Mn2  1  0.001034  0.501842  0.001842  1
  Mn  Mn3  1  0.995375  0.505349  0.495837  1
  Mn  Mn4  1  0.504887  0.995837  0.005349  1
  Mn  Mn5  1  0.003632  0.992711  0.492711  1
  Mn  Mn6  1  0.878686  0.752997  0.252997  1
  Mn  Mn7  1  0.173849  0.178118  0.411815  1
  Mn  Mn8  1  0.440153  0.911815  0.678118  1
  Mn  Mn9  1  0.857980  0.821964  0.921230  1
  Mn  Mn10  1  0.258713  0.421230  0.321964  1
  Mn  Mn11  1  0.190525  0.572785  0.834814  1
  Mn  Mn12  1  0.428495  0.334814  0.072785  1
  Mn  Mn13  1  0.846032  0.091979  0.168771  1
  Mn  Mn14  1  0.269239  0.668771  0.591979  1
  Mn  Mn15  1  0.823122  0.824482  0.585106  1
  Mn  Mn16  1  0.562497  0.085106  0.324482  1
  Mn  Mn17  1  0.146842  0.177736  0.083719  1
  Mn  Mn18  1  0.740859  0.583719  0.677736  1
  Mn  Mn19  1  0.809089  0.426439  0.168830  1
  Mn  Mn20  1  0.566698  0.668830  0.926439  1
  Mn  Mn21  1  0.152816  0.904880  0.830775  1
  Mn  Mn22  1  0.726920  0.330775  0.404880  1
  Al  Al23  1  0.121449  0.245470  0.745470  1
  C  C24  1  0.501077  0.500864  0.500255  1
  C  C25  1  0.001686  0.000255  0.000864  1
  C  C26  1  0.498157  0.000561  0.500561  1
