# generated using pymatgen
data_Ti3Al2PtO
_symmetry_space_group_name_H-M   'P 1'
_cell_length_a   8.20253552
_cell_length_b   8.20253627
_cell_length_c   8.20253600
_cell_angle_alpha   60.00000111
_cell_angle_beta   59.99999807
_cell_angle_gamma   60.00000175
_symmetry_Int_Tables_number   1
_chemical_formula_structural   Ti3Al2PtO
_chemical_formula_sum   'Ti12 Al8 Pt4 O4'
_cell_volume   390.23788559
_cell_formula_units_Z   4
loop_
 _symmetry_equiv_pos_site_id
 _symmetry_equiv_pos_as_xyz
  1  'x, y, z'
loop_
 _atom_site_type_symbol
 _atom_site_label
 _atom_site_symmetry_multiplicity
 _atom_site_fract_x
 _atom_site_fract_y
 _atom_site_fract_z
 _atom_site_occupancy
  Ti  Ti0  1  0.567441  0.932559  0.567441  1
  Ti  Ti1  1  0.317441  0.682559  0.682559  1
  Ti  Ti2  1  0.682559  0.317441  0.317441  1
  Ti  Ti3  1  0.317441  0.682559  0.317441  1
  Ti  Ti4  1  0.682559  0.682559  0.317441  1
  Ti  Ti5  1  0.317441  0.317441  0.682559  1
  Ti  Ti6  1  0.567441  0.567441  0.932559  1
  Ti  Ti7  1  0.932559  0.567441  0.567441  1
  Ti  Ti8  1  0.567441  0.932559  0.932559  1
  Ti  Ti9  1  0.932559  0.932559  0.567441  1
  Ti  Ti10  1  0.682559  0.317441  0.682559  1
  Ti  Ti11  1  0.932559  0.567441  0.932559  1
  Al  Al12  1  0.335256  0.335256  0.335256  1
  Al  Al13  1  0.255768  0.914744  0.914744  1
  Al  Al14  1  0.914744  0.255768  0.914744  1
  Al  Al15  1  0.914744  0.914744  0.255768  1
  Al  Al16  1  0.335256  0.994232  0.335256  1
  Al  Al17  1  0.335256  0.335256  0.994232  1
  Al  Al18  1  0.994232  0.335256  0.335256  1
  Al  Al19  1  0.914744  0.914744  0.914744  1
  Pt  Pt20  1  0.125000  0.125000  0.125000  1
  Pt  Pt21  1  0.625000  0.125000  0.125000  1
  Pt  Pt22  1  0.125000  0.625000  0.125000  1
  Pt  Pt23  1  0.125000  0.125000  0.625000  1
  O  O24  1  0.625000  0.625000  0.625000  1
  O  O25  1  0.125000  0.625000  0.625000  1
  O  O26  1  0.625000  0.125000  0.625000  1
  O  O27  1  0.625000  0.625000  0.125000  1
