# generated using pymatgen
data_Tb2Mn3Re14C3
_symmetry_space_group_name_H-M   'P 1'
_cell_length_a   6.94737944
_cell_length_b   6.94737939
_cell_length_c   6.94737890
_cell_angle_alpha   82.39213637
_cell_angle_beta   82.39213922
_cell_angle_gamma   82.39213172
_symmetry_Int_Tables_number   1
_chemical_formula_structural   Tb2Mn3Re14C3
_chemical_formula_sum   'Tb2 Mn3 Re14 C3'
_cell_volume   327.18597582
_cell_formula_units_Z   1
loop_
 _symmetry_equiv_pos_site_id
 _symmetry_equiv_pos_as_xyz
  1  'x, y, z'
loop_
 _atom_site_type_symbol
 _atom_site_label
 _atom_site_symmetry_multiplicity
 _atom_site_fract_x
 _atom_site_fract_y
 _atom_site_fract_z
 _atom_site_occupancy
  Tb  Tb0  1  0.648443  0.648443  0.648443  1
  Tb  Tb1  1  0.351557  0.351557  0.351557  1
  Mn  Mn2  1  0.000000  0.000000  0.500000  1
  Mn  Mn3  1  0.500000  0.000000  0.000000  1
  Mn  Mn4  1  0.000000  0.500000  0.000000  1
  Re  Re5  1  0.721438  0.278562  0.000000  1
  Re  Re6  1  0.000000  0.721438  0.278562  1
  Re  Re7  1  0.278562  0.000000  0.721438  1
  Re  Re8  1  0.000000  0.278562  0.721438  1
  Re  Re9  1  0.721438  0.000000  0.278562  1
  Re  Re10  1  0.278562  0.721438  0.000000  1
  Re  Re11  1  0.346178  0.346178  0.860399  1
  Re  Re12  1  0.860399  0.346178  0.346178  1
  Re  Re13  1  0.346178  0.860399  0.346178  1
  Re  Re14  1  0.653822  0.653822  0.139601  1
  Re  Re15  1  0.139601  0.653822  0.653822  1
  Re  Re16  1  0.653822  0.139601  0.653822  1
  Re  Re17  1  0.899218  0.899218  0.899218  1
  Re  Re18  1  0.100782  0.100782  0.100782  1
  C  C19  1  0.500000  0.500000  0.000000  1
  C  C20  1  0.000000  0.500000  0.500000  1
  C  C21  1  0.500000  0.000000  0.500000  1
