# generated using pymatgen
data_Pr11In9AgRh3
_symmetry_space_group_name_H-M   'P 1'
_cell_length_a   13.61009810
_cell_length_b   13.62709679
_cell_length_c   3.83255400
_cell_angle_alpha   90.00000000
_cell_angle_beta   90.00000000
_cell_angle_gamma   111.66597044
_symmetry_Int_Tables_number   1
_chemical_formula_structural   Pr11In9AgRh3
_chemical_formula_sum   'Pr11 In9 Ag1 Rh3'
_cell_volume   660.59171347
_cell_formula_units_Z   1
loop_
 _symmetry_equiv_pos_site_id
 _symmetry_equiv_pos_as_xyz
  1  'x, y, z'
loop_
 _atom_site_type_symbol
 _atom_site_label
 _atom_site_symmetry_multiplicity
 _atom_site_fract_x
 _atom_site_fract_y
 _atom_site_fract_z
 _atom_site_occupancy
  Pr  Pr0  1  0.500574  0.501577  0.500000  1
  Pr  Pr1  1  0.817721  0.798872  0.500000  1
  Pr  Pr2  1  0.188925  0.187284  0.500000  1
  Pr  Pr3  1  0.561212  0.914780  0.500000  1
  Pr  Pr4  1  0.419944  0.079281  0.500000  1
  Pr  Pr5  1  0.919640  0.574980  0.500000  1
  Pr  Pr6  1  0.083477  0.425220  0.500000  1
  Pr  Pr7  1  0.127767  0.875919  0.500000  1
  Pr  Pr8  1  0.884408  0.143047  0.500000  1
  Pr  Pr9  1  0.342950  0.658499  0.500000  1
  Pr  Pr10  1  0.657797  0.341410  0.500000  1
  In  In11  1  0.333024  0.863671  0.000000  1
  In  In12  1  0.658350  0.132048  0.000000  1
  In  In13  1  0.864443  0.339863  0.000000  1
  In  In14  1  0.134561  0.662713  0.000000  1
  In  In15  1  0.577096  0.720462  0.000000  1
  In  In16  1  0.420807  0.280099  0.000000  1
  In  In17  1  0.719904  0.575573  0.000000  1
  In  In18  1  0.280338  0.419592  0.000000  1
  In  In19  1  0.999958  0.001104  0.000000  1
  Ag  Ag20  1  0.752760  0.951899  0.000000  1
  Rh  Rh21  1  0.255236  0.052072  0.000000  1
  Rh  Rh22  1  0.949861  0.742230  0.000000  1
  Rh  Rh23  1  0.049247  0.257803  0.000000  1
