# generated using pymatgen
data_Ba4La5Nd3Be4O20
_symmetry_space_group_name_H-M   'P 1'
_cell_length_a   7.51068942
_cell_length_b   6.83255761
_cell_length_c   9.93064206
_cell_angle_alpha   90.04813286
_cell_angle_beta   90.76486916
_cell_angle_gamma   90.00339481
_symmetry_Int_Tables_number   1
_chemical_formula_structural   Ba4La5Nd3Be4O20
_chemical_formula_sum   'Ba4 La5 Nd3 Be4 O20'
_cell_volume   509.56733518
_cell_formula_units_Z   1
loop_
 _symmetry_equiv_pos_site_id
 _symmetry_equiv_pos_as_xyz
  1  'x, y, z'
loop_
 _atom_site_type_symbol
 _atom_site_label
 _atom_site_symmetry_multiplicity
 _atom_site_fract_x
 _atom_site_fract_y
 _atom_site_fract_z
 _atom_site_occupancy
  Ba  Ba0  1  0.980419  0.917494  0.172302  1
  Ba  Ba1  1  0.020024  0.418164  0.326889  1
  Ba  Ba2  1  0.979452  0.581811  0.673400  1
  Ba  Ba3  1  0.021126  0.081729  0.827550  1
  La  La4  1  0.743807  0.409491  0.019770  1
  La  La5  1  0.521681  0.917195  0.174826  1
  La  La6  1  0.477922  0.418040  0.324387  1
  La  La7  1  0.256193  0.909320  0.480353  1
  La  La8  1  0.744002  0.090488  0.522199  1
  Nd  Nd9  1  0.520464  0.582081  0.677829  1
  Nd  Nd10  1  0.478697  0.082108  0.823420  1
  Nd  Nd11  1  0.257240  0.588920  0.978984  1
  Be  Be12  1  0.260481  0.193087  0.095459  1
  Be  Be13  1  0.739432  0.692546  0.404104  1
  Be  Be14  1  0.261477  0.308102  0.598105  1
  Be  Be15  1  0.738320  0.807373  0.902115  1
  O  O16  1  0.279216  0.983657  0.008321  1
  O  O17  1  0.071259  0.307571  0.061371  1
  O  O18  1  0.438864  0.320689  0.063343  1
  O  O19  1  0.282272  0.664282  0.212997  1
  O  O20  1  0.723273  0.630958  0.233585  1
  O  O21  1  0.276767  0.131114  0.266052  1
  O  O22  1  0.717050  0.165395  0.284360  1
  O  O23  1  0.559609  0.819448  0.435296  1
  O  O24  1  0.930336  0.805465  0.437583  1
  O  O25  1  0.720427  0.485457  0.491562  1
  O  O26  1  0.279709  0.516748  0.512416  1
  O  O27  1  0.070684  0.194973  0.563277  1
  O  O28  1  0.440214  0.179488  0.567523  1
  O  O29  1  0.286570  0.835108  0.717297  1
  O  O30  1  0.719137  0.867015  0.733442  1
  O  O31  1  0.280634  0.369376  0.768457  1
  O  O32  1  0.713067  0.335392  0.783243  1
  O  O33  1  0.558122  0.679242  0.933428  1
  O  O34  1  0.931691  0.694253  0.937253  1
  O  O35  1  0.720364  0.016412  0.987497  1
