# generated using pymatgen
data_Tm3Lu(SiRh2)8
_symmetry_space_group_name_H-M   'P 1'
_cell_length_a   4.11322200
_cell_length_b   9.06286437
_cell_length_c   11.24215146
_cell_angle_alpha   90.03274428
_cell_angle_beta   90.00000000
_cell_angle_gamma   90.00000000
_symmetry_Int_Tables_number   1
_chemical_formula_structural   Tm3Lu(SiRh2)8
_chemical_formula_sum   'Tm3 Lu1 Si8 Rh16'
_cell_volume   419.08005448
_cell_formula_units_Z   1
loop_
 _symmetry_equiv_pos_site_id
 _symmetry_equiv_pos_as_xyz
  1  'x, y, z'
loop_
 _atom_site_type_symbol
 _atom_site_label
 _atom_site_symmetry_multiplicity
 _atom_site_fract_x
 _atom_site_fract_y
 _atom_site_fract_z
 _atom_site_occupancy
  Tm  Tm0  1  0.250000  0.146798  0.825199  1
  Tm  Tm1  1  0.250000  0.353232  0.325374  1
  Tm  Tm2  1  0.750000  0.853087  0.174735  1
  Lu  Lu3  1  0.750000  0.646644  0.674808  1
  Si  Si4  1  0.250000  0.412095  0.637336  1
  Si  Si5  1  0.250000  0.088262  0.137210  1
  Si  Si6  1  0.750000  0.588310  0.362808  1
  Si  Si7  1  0.750000  0.911490  0.862533  1
  Si  Si8  1  0.250000  0.617051  0.058656  1
  Si  Si9  1  0.250000  0.883092  0.558716  1
  Si  Si10  1  0.750000  0.383103  0.941382  1
  Si  Si11  1  0.750000  0.116983  0.441422  1
  Rh  Rh12  1  0.250000  0.616123  0.502598  1
  Rh  Rh13  1  0.250000  0.884642  0.000939  1
  Rh  Rh14  1  0.750000  0.384982  0.498843  1
  Rh  Rh15  1  0.750000  0.115252  0.998438  1
  Rh  Rh16  1  0.250000  0.686340  0.268672  1
  Rh  Rh17  1  0.250000  0.811824  0.767551  1
  Rh  Rh18  1  0.750000  0.313731  0.731622  1
  Rh  Rh19  1  0.750000  0.186613  0.231895  1
  Rh  Rh20  1  0.250000  0.172580  0.559794  1
  Rh  Rh21  1  0.250000  0.327527  0.059389  1
  Rh  Rh22  1  0.750000  0.827457  0.440689  1
  Rh  Rh23  1  0.750000  0.672318  0.939780  1
  Rh  Rh24  1  0.250000  0.007418  0.343781  1
  Rh  Rh25  1  0.250000  0.492997  0.843343  1
  Rh  Rh26  1  0.750000  0.992339  0.656328  1
  Rh  Rh27  1  0.750000  0.507710  0.156157  1
