# generated using pymatgen
data_Nd9Er3(Si2Ni)4
_symmetry_space_group_name_H-M   'P 1'
_cell_length_a   4.19335400
_cell_length_b   11.58019829
_cell_length_c   11.63813635
_cell_angle_alpha   90.49732798
_cell_angle_beta   90.00000000
_cell_angle_gamma   90.00000000
_symmetry_Int_Tables_number   1
_chemical_formula_structural   Nd9Er3(Si2Ni)4
_chemical_formula_sum   'Nd9 Er3 Si8 Ni4'
_cell_volume   565.12510809
_cell_formula_units_Z   1
loop_
 _symmetry_equiv_pos_site_id
 _symmetry_equiv_pos_as_xyz
  1  'x, y, z'
loop_
 _atom_site_type_symbol
 _atom_site_label
 _atom_site_symmetry_multiplicity
 _atom_site_fract_x
 _atom_site_fract_y
 _atom_site_fract_z
 _atom_site_occupancy
  Nd  Nd0  1  0.750000  0.561090  0.621207  1
  Nd  Nd1  1  0.250000  0.128300  0.557655  1
  Nd  Nd2  1  0.250000  0.369864  0.058816  1
  Nd  Nd3  1  0.750000  0.875859  0.438890  1
  Nd  Nd4  1  0.750000  0.628189  0.945975  1
  Nd  Nd5  1  0.250000  0.808525  0.714014  1
  Nd  Nd6  1  0.250000  0.695960  0.214748  1
  Nd  Nd7  1  0.750000  0.195979  0.282826  1
  Nd  Nd8  1  0.750000  0.299678  0.784059  1
  Er  Er9  1  0.250000  0.056655  0.884100  1
  Er  Er10  1  0.250000  0.444385  0.384004  1
  Er  Er11  1  0.750000  0.942899  0.114812  1
  Si  Si12  1  0.250000  0.821812  0.975043  1
  Si  Si13  1  0.250000  0.684304  0.472056  1
  Si  Si14  1  0.750000  0.177776  0.023710  1
  Si  Si15  1  0.750000  0.319850  0.522913  1
  Si  Si16  1  0.250000  0.491270  0.804780  1
  Si  Si17  1  0.250000  0.001169  0.293305  1
  Si  Si18  1  0.750000  0.499763  0.205360  1
  Si  Si19  1  0.750000  0.001366  0.705168  1
  Ni  Ni20  1  0.250000  0.372328  0.623925  1
  Ni  Ni21  1  0.250000  0.121653  0.121573  1
  Ni  Ni22  1  0.750000  0.626380  0.375686  1
  Ni  Ni23  1  0.750000  0.874947  0.875376  1
