# generated using pymatgen
data_HfMgCl6
_symmetry_space_group_name_H-M   'P 1'
_cell_length_a   6.46361500
_cell_length_b   6.46361543
_cell_length_c   13.05747800
_cell_angle_alpha   90.00000000
_cell_angle_beta   90.00000000
_cell_angle_gamma   120.00000291
_symmetry_Int_Tables_number   1
_chemical_formula_structural   HfMgCl6
_chemical_formula_sum   'Hf2 Mg2 Cl12'
_cell_volume   472.43374521
_cell_formula_units_Z   2
loop_
 _symmetry_equiv_pos_site_id
 _symmetry_equiv_pos_as_xyz
  1  'x, y, z'
loop_
 _atom_site_type_symbol
 _atom_site_label
 _atom_site_symmetry_multiplicity
 _atom_site_fract_x
 _atom_site_fract_y
 _atom_site_fract_z
 _atom_site_occupancy
  Hf  Hf0  1  0.333333  0.666667  0.250000  1
  Hf  Hf1  1  0.666667  0.333333  0.750000  1
  Mg  Mg2  1  0.000000  0.000000  0.250000  1
  Mg  Mg3  1  0.000000  0.000000  0.750000  1
  Cl  Cl4  1  0.659908  0.961776  0.140681  1
  Cl  Cl5  1  0.038224  0.698133  0.140681  1
  Cl  Cl6  1  0.301867  0.340092  0.140681  1
  Cl  Cl7  1  0.038224  0.340092  0.359319  1
  Cl  Cl8  1  0.340092  0.301867  0.640681  1
  Cl  Cl9  1  0.698133  0.038224  0.640681  1
  Cl  Cl10  1  0.961776  0.659908  0.640681  1
  Cl  Cl11  1  0.698133  0.659908  0.859319  1
  Cl  Cl12  1  0.961776  0.301867  0.859319  1
  Cl  Cl13  1  0.340092  0.038224  0.859319  1
  Cl  Cl14  1  0.659908  0.698133  0.359319  1
  Cl  Cl15  1  0.301867  0.961776  0.359319  1
