# generated using pymatgen
data_Hf3Mn(Bi2O7)2
_symmetry_space_group_name_H-M   'P 1'
_cell_length_a   7.56865695
_cell_length_b   7.63989239
_cell_length_c   7.62543695
_cell_angle_alpha   59.98895730
_cell_angle_beta   59.65822758
_cell_angle_gamma   89.89666676
_symmetry_Int_Tables_number   1
_chemical_formula_structural   Hf3Mn(Bi2O7)2
_chemical_formula_sum   'Hf3 Mn1 Bi4 O14'
_cell_volume   310.39725740
_cell_formula_units_Z   1
loop_
 _symmetry_equiv_pos_site_id
 _symmetry_equiv_pos_as_xyz
  1  'x, y, z'
loop_
 _atom_site_type_symbol
 _atom_site_label
 _atom_site_symmetry_multiplicity
 _atom_site_fract_x
 _atom_site_fract_y
 _atom_site_fract_z
 _atom_site_occupancy
  Hf  Hf0  1  0.121273  0.874794  0.758776  1
  Hf  Hf1  1  0.123125  0.879025  0.255052  1
  Hf  Hf2  1  0.122623  0.378291  0.742023  1
  Mn  Mn3  1  0.623267  0.877671  0.249542  1
  Bi  Bi4  1  0.637074  0.447680  0.675262  1
  Bi  Bi5  1  0.120583  0.365354  0.214358  1
  Bi  Bi6  1  0.615577  0.876460  0.815777  1
  Bi  Bi7  1  0.606551  0.307280  0.261098  1
  O  O8  1  0.798201  0.178641  0.025449  1
  O  O9  1  0.500245  0.505984  0.980775  1
  O  O10  1  0.223752  0.203274  0.599492  1
  O  O11  1  0.448118  0.928734  0.124186  1
  O  O12  1  0.201976  0.212096  0.004564  1
  O  O13  1  0.447023  0.952859  0.476584  1
  O  O14  1  0.448680  0.576123  0.501235  1
  O  O15  1  0.039218  0.958985  0.506580  1
  O  O16  1  0.736627  0.242093  0.495828  1
  O  O17  1  0.020862  0.555675  0.528337  1
  O  O18  1  0.796650  0.826179  0.999942  1
  O  O19  1  0.044751  0.543605  0.919370  1
  O  O20  1  0.799175  0.802371  0.375141  1
  O  O21  1  0.217649  0.813823  0.990628  1
