# generated using pymatgen
data_Li12CrReCN7
_symmetry_space_group_name_H-M   'P 1'
_cell_length_a   6.60563800
_cell_length_b   6.58273787
_cell_length_c   4.93303459
_cell_angle_alpha   89.77370108
_cell_angle_beta   90.00000000
_cell_angle_gamma   90.00000000
_symmetry_Int_Tables_number   1
_chemical_formula_structural   Li12CrReCN7
_chemical_formula_sum   'Li12 Cr1 Re1 C1 N7'
_cell_volume   214.50237495
_cell_formula_units_Z   1
loop_
 _symmetry_equiv_pos_site_id
 _symmetry_equiv_pos_as_xyz
  1  'x, y, z'
loop_
 _atom_site_type_symbol
 _atom_site_label
 _atom_site_symmetry_multiplicity
 _atom_site_fract_x
 _atom_site_fract_y
 _atom_site_fract_z
 _atom_site_occupancy
  Li  Li0  1  0.500000  0.999907  0.600973  1
  Li  Li1  1  0.000000  0.499372  0.904489  1
  Li  Li2  1  0.000000  0.498655  0.400606  1
  Li  Li3  1  0.500000  0.995943  0.090461  1
  Li  Li4  1  0.207052  0.211968  0.502555  1
  Li  Li5  1  0.792346  0.793287  0.499588  1
  Li  Li6  1  0.721849  0.719293  0.001003  1
  Li  Li7  1  0.274873  0.277173  0.994794  1
  Li  Li8  1  0.207654  0.793287  0.499588  1
  Li  Li9  1  0.792948  0.211968  0.502555  1
  Li  Li10  1  0.725127  0.277173  0.994794  1
  Li  Li11  1  0.278151  0.719293  0.001003  1
  Cr  Cr12  1  0.000000  0.998774  0.999922  1
  Re  Re13  1  0.500000  0.502323  0.506126  1
  C  C14  1  0.500000  0.265172  0.306793  1
  N  N15  1  0.500000  0.742780  0.300783  1
  N  N16  1  0.000000  0.768927  0.190468  1
  N  N17  1  0.000000  0.228077  0.187490  1
  N  N18  1  0.253540  0.500415  0.697315  1
  N  N19  1  0.746460  0.500415  0.697315  1
  N  N20  1  0.771563  0.997898  0.810690  1
  N  N21  1  0.228437  0.997898  0.810690  1
