# generated using pymatgen
data_Np7U(B6Mo)4
_symmetry_space_group_name_H-M   'P 1'
_cell_length_a   3.67502900
_cell_length_b   9.27668900
_cell_length_c   11.32632400
_cell_angle_alpha   90.00325272
_cell_angle_beta   90.00000000
_cell_angle_gamma   90.00000000
_symmetry_Int_Tables_number   1
_chemical_formula_structural   Np7U(B6Mo)4
_chemical_formula_sum   'Np7 U1 B24 Mo4'
_cell_volume   386.13818258
_cell_formula_units_Z   1
loop_
 _symmetry_equiv_pos_site_id
 _symmetry_equiv_pos_as_xyz
  1  'x, y, z'
loop_
 _atom_site_type_symbol
 _atom_site_label
 _atom_site_symmetry_multiplicity
 _atom_site_fract_x
 _atom_site_fract_y
 _atom_site_fract_z
 _atom_site_occupancy
  Np  Np0  1  0.000000  0.661592  0.592848  1
  Np  Np1  1  0.000000  0.838418  0.092599  1
  Np  Np2  1  0.000000  0.161622  0.907468  1
  Np  Np3  1  0.000000  0.958821  0.399384  1
  Np  Np4  1  0.000000  0.041158  0.600628  1
  Np  Np5  1  0.000000  0.458900  0.099915  1
  Np  Np6  1  0.000000  0.541294  0.899324  1
  U  U7  1  0.000000  0.337187  0.408103  1
  B  B8  1  0.500000  0.550225  0.432331  1
  B  B9  1  0.500000  0.448156  0.566739  1
  B  B10  1  0.500000  0.051966  0.067704  1
  B  B11  1  0.500000  0.948683  0.932465  1
  B  B12  1  0.500000  0.744648  0.424140  1
  B  B13  1  0.500000  0.255508  0.575628  1
  B  B14  1  0.500000  0.244818  0.075667  1
  B  B15  1  0.500000  0.755350  0.924194  1
  B  B16  1  0.500000  0.805975  0.273771  1
  B  B17  1  0.500000  0.194029  0.726395  1
  B  B18  1  0.500000  0.306337  0.226811  1
  B  B19  1  0.500000  0.694039  0.773838  1
  B  B20  1  0.500000  0.646033  0.187152  1
  B  B21  1  0.500000  0.353932  0.812681  1
  B  B22  1  0.500000  0.146622  0.313054  1
  B  B23  1  0.500000  0.854095  0.687092  1
  B  B24  1  0.500000  0.987826  0.220539  1
  B  B25  1  0.500000  0.012547  0.779564  1
  B  B26  1  0.500000  0.487059  0.280083  1
  B  B27  1  0.500000  0.512271  0.720566  1
  B  B28  1  0.500000  0.641213  0.039097  1
  B  B29  1  0.500000  0.358511  0.960562  1
  B  B30  1  0.500000  0.141930  0.460782  1
  B  B31  1  0.500000  0.858342  0.539086  1
  Mo  Mo32  1  0.000000  0.646037  0.319390  1
  Mo  Mo33  1  0.000000  0.353561  0.679972  1
  Mo  Mo34  1  0.000000  0.147642  0.181121  1
  Mo  Mo35  1  0.000000  0.853654  0.819304  1
