# generated using pymatgen
data_Ho5ZrFeTe2
_symmetry_space_group_name_H-M   'P 1'
_cell_length_a   8.16605723
_cell_length_b   8.28863794
_cell_length_c   3.91017700
_cell_angle_alpha   90.00000000
_cell_angle_beta   90.00000000
_cell_angle_gamma   120.49781536
_symmetry_Int_Tables_number   1
_chemical_formula_structural   Ho5ZrFeTe2
_chemical_formula_sum   'Ho5 Zr1 Fe1 Te2'
_cell_volume   228.04583647
_cell_formula_units_Z   1
loop_
 _symmetry_equiv_pos_site_id
 _symmetry_equiv_pos_as_xyz
  1  'x, y, z'
loop_
 _atom_site_type_symbol
 _atom_site_label
 _atom_site_symmetry_multiplicity
 _atom_site_fract_x
 _atom_site_fract_y
 _atom_site_fract_z
 _atom_site_occupancy
  Ho  Ho0  1  0.771268  0.764632  0.500000  1
  Ho  Ho1  1  0.000000  0.586283  0.000000  1
  Ho  Ho2  1  0.228732  0.993364  0.500000  1
  Ho  Ho3  1  0.618036  0.003622  0.000000  1
  Ho  Ho4  1  0.381964  0.385587  0.000000  1
  Zr  Zr5  1  0.000000  0.233962  0.500000  1
  Fe  Fe6  1  0.000000  0.039729  0.000000  1
  Te  Te7  1  0.666677  0.329748  0.500000  1
  Te  Te8  1  0.333323  0.663072  0.500000  1
