# generated using pymatgen
data_Hf6Fe15Si7Ni
_symmetry_space_group_name_H-M   'P 1'
_cell_length_a   8.06072198
_cell_length_b   8.05168514
_cell_length_c   8.06072300
_cell_angle_alpha   59.96286580
_cell_angle_beta   59.99999991
_cell_angle_gamma   59.96286583
_symmetry_Int_Tables_number   1
_chemical_formula_structural   Hf6Fe15Si7Ni
_chemical_formula_sum   'Hf6 Fe15 Si7 Ni1'
_cell_volume   369.72237531
_cell_formula_units_Z   1
loop_
 _symmetry_equiv_pos_site_id
 _symmetry_equiv_pos_as_xyz
  1  'x, y, z'
loop_
 _atom_site_type_symbol
 _atom_site_label
 _atom_site_symmetry_multiplicity
 _atom_site_fract_x
 _atom_site_fract_y
 _atom_site_fract_z
 _atom_site_occupancy
  Hf  Hf0  1  0.791775  0.204667  0.791775  1
  Hf  Hf1  1  0.793933  0.793890  0.206088  1
  Hf  Hf2  1  0.206088  0.793890  0.793933  1
  Hf  Hf3  1  0.211783  0.204667  0.791775  1
  Hf  Hf4  1  0.791775  0.204667  0.211783  1
  Hf  Hf5  1  0.206088  0.793890  0.206088  1
  Fe  Fe6  1  0.174751  0.176527  0.174751  1
  Fe  Fe7  1  0.619700  0.625611  0.134991  1
  Fe  Fe8  1  0.378703  0.378939  0.378703  1
  Fe  Fe9  1  0.175364  0.473908  0.175364  1
  Fe  Fe10  1  0.174751  0.176527  0.473972  1
  Fe  Fe11  1  0.134991  0.625611  0.619700  1
  Fe  Fe12  1  0.621935  0.134196  0.621935  1
  Fe  Fe13  1  0.824302  0.823904  0.824302  1
  Fe  Fe14  1  0.863654  0.378939  0.378703  1
  Fe  Fe15  1  0.378703  0.378939  0.863654  1
  Fe  Fe16  1  0.378836  0.863491  0.378836  1
  Fe  Fe17  1  0.527491  0.823904  0.824302  1
  Fe  Fe18  1  0.619700  0.625611  0.619700  1
  Fe  Fe19  1  0.824302  0.823904  0.527491  1
  Fe  Fe20  1  0.473972  0.176527  0.174751  1
  Si  Si21  1  0.000001  0.501466  0.000001  1
  Si  Si22  1  0.500372  0.498885  0.500372  1
  Si  Si23  1  0.498531  0.501466  0.000001  1
  Si  Si24  1  0.498955  0.000456  0.498955  1
  Si  Si25  1  0.000001  0.501466  0.498531  1
  Si  Si26  1  0.001634  0.000456  0.498955  1
  Si  Si27  1  0.498955  0.000456  0.001634  1
  Ni  Ni28  1  0.828954  0.513138  0.828954  1
