# generated using pymatgen
data_Ni3Hg2Pb(BrO4)2
_symmetry_space_group_name_H-M   'P 1'
_cell_length_a   5.59786111
_cell_length_b   6.43759331
_cell_length_c   7.23306600
_cell_angle_alpha   63.27263958
_cell_angle_beta   105.12613328
_cell_angle_gamma   89.98295481
_symmetry_Int_Tables_number   1
_chemical_formula_structural   Ni3Hg2Pb(BrO4)2
_chemical_formula_sum   'Ni3 Hg2 Pb1 Br2 O8'
_cell_volume   222.63867923
_cell_formula_units_Z   1
loop_
 _symmetry_equiv_pos_site_id
 _symmetry_equiv_pos_as_xyz
  1  'x, y, z'
loop_
 _atom_site_type_symbol
 _atom_site_label
 _atom_site_symmetry_multiplicity
 _atom_site_fract_x
 _atom_site_fract_y
 _atom_site_fract_z
 _atom_site_occupancy
  Ni  Ni0  1  0.999260  0.006676  0.497061  1
  Ni  Ni1  1  0.500419  0.250305  0.502178  1
  Ni  Ni2  1  0.004078  0.491653  0.501883  1
  Hg  Hg3  1  0.004376  0.486342  0.009569  1
  Hg  Hg4  1  0.501613  0.759103  0.001815  1
  Pb  Pb5  1  0.493863  0.753844  0.496099  1
  Br  Br6  1  0.990128  0.999271  0.974172  1
  Br  Br7  1  0.501086  0.260495  0.002165  1
  O  O8  1  0.095145  0.830408  0.333579  1
  O  O9  1  0.617671  0.098945  0.334274  1
  O  O10  1  0.117564  0.329627  0.339542  1
  O  O11  1  0.620794  0.573386  0.332645  1
  O  O12  1  0.901119  0.660868  0.673142  1
  O  O13  1  0.382223  0.928980  0.670817  1
  O  O14  1  0.885131  0.165666  0.659256  1
  O  O15  1  0.385528  0.404430  0.671805  1
