# generated using pymatgen
data_Nd3TaMnC6
_symmetry_space_group_name_H-M   'P 1'
_cell_length_a   8.41126700
_cell_length_b   8.41126720
_cell_length_c   5.29143800
_cell_angle_alpha   90.00000000
_cell_angle_beta   90.00000000
_cell_angle_gamma   119.99998740
_symmetry_Int_Tables_number   1
_chemical_formula_structural   Nd3TaMnC6
_chemical_formula_sum   'Nd6 Ta2 Mn2 C12'
_cell_volume   324.21062787
_cell_formula_units_Z   2
loop_
 _symmetry_equiv_pos_site_id
 _symmetry_equiv_pos_as_xyz
  1  'x, y, z'
loop_
 _atom_site_type_symbol
 _atom_site_label
 _atom_site_symmetry_multiplicity
 _atom_site_fract_x
 _atom_site_fract_y
 _atom_site_fract_z
 _atom_site_occupancy
  Nd  Nd0  1  0.611546  0.676794  0.750000  1
  Nd  Nd1  1  0.934752  0.611546  0.250000  1
  Nd  Nd2  1  0.676794  0.065248  0.250000  1
  Nd  Nd3  1  0.323206  0.934752  0.750000  1
  Nd  Nd4  1  0.065248  0.388454  0.750000  1
  Nd  Nd5  1  0.388454  0.323206  0.250000  1
  Ta  Ta6  1  0.000000  0.000000  0.500000  1
  Ta  Ta7  1  0.000000  0.000000  0.000000  1
  Mn  Mn8  1  0.666667  0.333333  0.750000  1
  Mn  Mn9  1  0.333333  0.666667  0.250000  1
  C  C10  1  0.953308  0.758789  0.750000  1
  C  C11  1  0.194518  0.953308  0.250000  1
  C  C12  1  0.758789  0.805482  0.250000  1
  C  C13  1  0.241211  0.194518  0.750000  1
  C  C14  1  0.805482  0.046692  0.750000  1
  C  C15  1  0.046692  0.241211  0.250000  1
  C  C16  1  0.856723  0.569473  0.750000  1
  C  C17  1  0.287249  0.856723  0.250000  1
  C  C18  1  0.569473  0.712751  0.250000  1
  C  C19  1  0.430527  0.287249  0.750000  1
  C  C20  1  0.143277  0.430527  0.250000  1
  C  C21  1  0.712751  0.143277  0.750000  1
