# generated using pymatgen
data_Dy(S8F)3
_symmetry_space_group_name_H-M   'P 1'
_cell_length_a   14.75298619
_cell_length_b   14.75298603
_cell_length_c   14.75298589
_cell_angle_alpha   118.62479750
_cell_angle_beta   118.62479799
_cell_angle_gamma   118.62478703
_symmetry_Int_Tables_number   1
_chemical_formula_structural   Dy(S8F)3
_chemical_formula_sum   'Dy1 S24 F3'
_cell_volume   971.65139270
_cell_formula_units_Z   1
loop_
 _symmetry_equiv_pos_site_id
 _symmetry_equiv_pos_as_xyz
  1  'x, y, z'
loop_
 _atom_site_type_symbol
 _atom_site_label
 _atom_site_symmetry_multiplicity
 _atom_site_fract_x
 _atom_site_fract_y
 _atom_site_fract_z
 _atom_site_occupancy
  Dy  Dy0  1  0.808385  0.808385  0.808385  1
  S  S1  1  0.800344  0.523018  0.523018  1
  S  S2  1  0.523018  0.523018  0.800344  1
  S  S3  1  0.523018  0.800344  0.523018  1
  S  S4  1  0.246789  0.379511  0.633671  1
  S  S5  1  0.347764  0.951233  0.347764  1
  S  S6  1  0.347764  0.347764  0.951233  1
  S  S7  1  0.951233  0.347764  0.347764  1
  S  S8  1  0.125376  0.740792  0.256763  1
  S  S9  1  0.256763  0.125376  0.740792  1
  S  S10  1  0.740792  0.256763  0.125376  1
  S  S11  1  0.740792  0.125376  0.256763  1
  S  S12  1  0.256763  0.740792  0.125376  1
  S  S13  1  0.125376  0.256763  0.740792  1
  S  S14  1  0.345063  0.877620  0.530538  1
  S  S15  1  0.530538  0.345063  0.877620  1
  S  S16  1  0.877620  0.530538  0.345063  1
  S  S17  1  0.877620  0.345063  0.530538  1
  S  S18  1  0.530538  0.877620  0.345063  1
  S  S19  1  0.345063  0.530538  0.877620  1
  S  S20  1  0.246789  0.633671  0.379511  1
  S  S21  1  0.379511  0.246789  0.633671  1
  S  S22  1  0.633671  0.379511  0.246789  1
  S  S23  1  0.633671  0.246789  0.379511  1
  S  S24  1  0.379511  0.633671  0.246789  1
  F  F25  1  0.902722  0.024401  0.024401  1
  F  F26  1  0.024401  0.024401  0.902722  1
  F  F27  1  0.024401  0.902722  0.024401  1
