# generated using pymatgen
data_Th8Si12Ru3Au
_symmetry_space_group_name_H-M   'P 1'
_cell_length_a   8.28131400
_cell_length_b   8.28131547
_cell_length_c   8.39261100
_cell_angle_alpha   90.00000000
_cell_angle_beta   90.00000000
_cell_angle_gamma   119.99999412
_symmetry_Int_Tables_number   1
_chemical_formula_structural   Th8Si12Ru3Au
_chemical_formula_sum   'Th8 Si12 Ru3 Au1'
_cell_volume   498.45543116
_cell_formula_units_Z   1
loop_
 _symmetry_equiv_pos_site_id
 _symmetry_equiv_pos_as_xyz
  1  'x, y, z'
loop_
 _atom_site_type_symbol
 _atom_site_label
 _atom_site_symmetry_multiplicity
 _atom_site_fract_x
 _atom_site_fract_y
 _atom_site_fract_z
 _atom_site_occupancy
  Th  Th0  1  0.495553  0.504447  0.755787  1
  Th  Th1  1  0.495778  0.504222  0.244158  1
  Th  Th2  1  0.008892  0.504447  0.755787  1
  Th  Th3  1  0.008444  0.504222  0.244158  1
  Th  Th4  1  0.495553  0.991108  0.755787  1
  Th  Th5  1  0.495778  0.991556  0.244158  1
  Th  Th6  1  0.000000  0.000000  0.751386  1
  Th  Th7  1  0.000000  0.000000  0.248599  1
  Si  Si8  1  0.833115  0.166885  0.999852  1
  Si  Si9  1  0.165160  0.834840  0.000117  1
  Si  Si10  1  0.333773  0.166885  0.999852  1
  Si  Si11  1  0.167490  0.832510  0.499790  1
  Si  Si12  1  0.669680  0.834840  0.000117  1
  Si  Si13  1  0.837964  0.162036  0.500087  1
  Si  Si14  1  0.833115  0.666227  0.999852  1
  Si  Si15  1  0.665018  0.832510  0.499790  1
  Si  Si16  1  0.165160  0.330320  0.000117  1
  Si  Si17  1  0.324074  0.162036  0.500087  1
  Si  Si18  1  0.167490  0.334982  0.499790  1
  Si  Si19  1  0.837964  0.675926  0.500087  1
  Ru  Ru20  1  0.666667  0.333333  0.999960  1
  Ru  Ru21  1  0.333333  0.666667  0.000281  1
  Ru  Ru22  1  0.333333  0.666667  0.499933  1
  Au  Au23  1  0.666667  0.333333  0.500472  1
