# generated using pymatgen
data_Ba2GeS3F2
_symmetry_space_group_name_H-M   'P 1'
_cell_length_a   6.18975000
_cell_length_b   19.31112700
_cell_length_c   6.26721600
_cell_angle_alpha   90.00000000
_cell_angle_beta   90.00000000
_cell_angle_gamma   90.00000000
_symmetry_Int_Tables_number   1
_chemical_formula_structural   Ba2GeS3F2
_chemical_formula_sum   'Ba8 Ge4 S12 F8'
_cell_volume   749.12689870
_cell_formula_units_Z   4
loop_
 _symmetry_equiv_pos_site_id
 _symmetry_equiv_pos_as_xyz
  1  'x, y, z'
loop_
 _atom_site_type_symbol
 _atom_site_label
 _atom_site_symmetry_multiplicity
 _atom_site_fract_x
 _atom_site_fract_y
 _atom_site_fract_z
 _atom_site_occupancy
  Ba  Ba0  1  0.748598  0.330352  0.005480  1
  Ba  Ba1  1  0.748598  0.669649  0.005480  1
  Ba  Ba2  1  0.248599  0.330352  0.494520  1
  Ba  Ba3  1  0.248599  0.669649  0.494520  1
  Ba  Ba4  1  0.751401  0.169648  0.505482  1
  Ba  Ba5  1  0.751401  0.830352  0.505482  1
  Ba  Ba6  1  0.251402  0.169648  0.994520  1
  Ba  Ba7  1  0.251402  0.830352  0.994520  1
  Ge  Ge8  1  0.350033  0.500000  0.095599  1
  Ge  Ge9  1  0.850034  0.500000  0.404403  1
  Ge  Ge10  1  0.149966  0.000000  0.595600  1
  Ge  Ge11  1  0.649967  0.000000  0.904401  1
  S  S12  1  0.747281  0.102748  0.019505  1
  S  S13  1  0.747281  0.897252  0.019505  1
  S  S14  1  0.727283  0.500000  0.058119  1
  S  S15  1  0.227282  0.500000  0.441881  1
  S  S16  1  0.247280  0.102748  0.480497  1
  S  S17  1  0.247280  0.897252  0.480497  1
  S  S18  1  0.752722  0.397252  0.519503  1
  S  S19  1  0.752722  0.602748  0.519503  1
  S  S20  1  0.772716  0.000000  0.558119  1
  S  S21  1  0.272715  0.000000  0.941882  1
  S  S22  1  0.252721  0.397252  0.980497  1
  S  S23  1  0.252721  0.602748  0.980497  1
  F  F24  1  0.998889  0.247946  0.247654  1
  F  F25  1  0.998889  0.752054  0.247654  1
  F  F26  1  0.498888  0.247946  0.252348  1
  F  F27  1  0.498888  0.752054  0.252348  1
  F  F28  1  0.501112  0.252054  0.747653  1
  F  F29  1  0.501112  0.747947  0.747653  1
  F  F30  1  0.001111  0.252054  0.752348  1
  F  F31  1  0.001111  0.747947  0.752348  1
