# generated using pymatgen
data_La3Nd17(Ir5Ru)2
_symmetry_space_group_name_H-M   'P 1'
_cell_length_a   11.28796165
_cell_length_b   11.29527079
_cell_length_c   6.60365384
_cell_angle_alpha   90.08552287
_cell_angle_beta   90.00085074
_cell_angle_gamma   90.03887810
_symmetry_Int_Tables_number   1
_chemical_formula_structural   La3Nd17(Ir5Ru)2
_chemical_formula_sum   'La3 Nd17 Ir10 Ru2'
_cell_volume   841.96858631
_cell_formula_units_Z   1
loop_
 _symmetry_equiv_pos_site_id
 _symmetry_equiv_pos_as_xyz
  1  'x, y, z'
loop_
 _atom_site_type_symbol
 _atom_site_label
 _atom_site_symmetry_multiplicity
 _atom_site_fract_x
 _atom_site_fract_y
 _atom_site_fract_z
 _atom_site_occupancy
  La  La0  1  0.089719  0.291008  0.116756  1
  La  La1  1  0.791132  0.411181  0.116437  1
  La  La2  1  0.208507  0.590076  0.116572  1
  Nd  Nd3  1  0.910455  0.709176  0.117358  1
  Nd  Nd4  1  0.411907  0.792893  0.383641  1
  Nd  Nd5  1  0.588108  0.207080  0.383535  1
  Nd  Nd6  1  0.292976  0.087949  0.383775  1
  Nd  Nd7  1  0.707532  0.911458  0.383228  1
  Nd  Nd8  1  0.411207  0.207244  0.884839  1
  Nd  Nd9  1  0.707238  0.088500  0.884781  1
  Nd  Nd10  1  0.292742  0.911264  0.885141  1
  Nd  Nd11  1  0.589163  0.792640  0.885249  1
  Nd  Nd12  1  0.088720  0.707977  0.614471  1
  Nd  Nd13  1  0.910457  0.291948  0.614518  1
  Nd  Nd14  1  0.208018  0.410691  0.614339  1
  Nd  Nd15  1  0.792600  0.590025  0.614417  1
  Nd  Nd16  1  0.999549  0.999285  0.998934  1
  Nd  Nd17  1  0.500027  0.500247  0.998782  1
  Nd  Nd18  1  0.499932  0.500012  0.500681  1
  Nd  Nd19  1  0.000062  0.999682  0.500133  1
  Ir  Ir20  1  0.153416  0.846480  0.250240  1
  Ir  Ir21  1  0.346841  0.345873  0.250641  1
  Ir  Ir22  1  0.653597  0.654005  0.250722  1
  Ir  Ir23  1  0.845990  0.153187  0.250731  1
  Ir  Ir24  1  0.346339  0.652935  0.750406  1
  Ir  Ir25  1  0.153041  0.153580  0.750297  1
  Ir  Ir26  1  0.846939  0.846732  0.749975  1
  Ir  Ir27  1  0.653795  0.347096  0.750352  1
  Ir  Ir28  1  0.499878  0.000018  0.621516  1
  Ir  Ir29  1  0.999813  0.500293  0.878911  1
  Ru  Ru30  1  0.000187  0.499429  0.378594  1
  Ru  Ru31  1  0.500112  0.000038  0.120028  1
