# generated using pymatgen
data_LiIn2BRh5
_symmetry_space_group_name_H-M   'P 1'
_cell_length_a   5.77605630
_cell_length_b   5.68443088
_cell_length_c   5.68443065
_cell_angle_alpha   61.06928775
_cell_angle_beta   59.46533464
_cell_angle_gamma   59.46534432
_symmetry_Int_Tables_number   1
_chemical_formula_structural   LiIn2BRh5
_chemical_formula_sum   'Li1 In2 B1 Rh5'
_cell_volume   131.90486992
_cell_formula_units_Z   1
loop_
 _symmetry_equiv_pos_site_id
 _symmetry_equiv_pos_as_xyz
  1  'x, y, z'
loop_
 _atom_site_type_symbol
 _atom_site_label
 _atom_site_symmetry_multiplicity
 _atom_site_fract_x
 _atom_site_fract_y
 _atom_site_fract_z
 _atom_site_occupancy
  Li  Li0  1  0.768932  0.231067  0.231067  1
  In  In1  1  0.251295  0.248705  0.248705  1
  In  In2  1  0.751295  0.748705  0.748705  1
  B  B3  1  0.490821  0.509179  0.509179  1
  Rh  Rh4  1  0.247202  0.752797  0.245884  1
  Rh  Rh5  1  0.754115  0.752797  0.245884  1
  Rh  Rh6  1  0.247202  0.245884  0.752797  1
  Rh  Rh7  1  0.754115  0.245884  0.752797  1
  Rh  Rh8  1  0.235020  0.764979  0.764979  1
