# generated using pymatgen
data_Sm2In2PdPt3
_symmetry_space_group_name_H-M   'P 1'
_cell_length_a   4.60430700
_cell_length_b   4.60430603
_cell_length_c   9.30220200
_cell_angle_alpha   90.00000000
_cell_angle_beta   90.00000000
_cell_angle_gamma   119.99999977
_symmetry_Int_Tables_number   1
_chemical_formula_structural   Sm2In2PdPt3
_chemical_formula_sum   'Sm2 In2 Pd1 Pt3'
_cell_volume   170.78308488
_cell_formula_units_Z   1
loop_
 _symmetry_equiv_pos_site_id
 _symmetry_equiv_pos_as_xyz
  1  'x, y, z'
loop_
 _atom_site_type_symbol
 _atom_site_label
 _atom_site_symmetry_multiplicity
 _atom_site_fract_x
 _atom_site_fract_y
 _atom_site_fract_z
 _atom_site_occupancy
  Sm  Sm0  1  0.666667  0.333333  0.748726  1
  Sm  Sm1  1  0.333333  0.666667  0.253191  1
  In  In2  1  0.000000  0.000000  0.999315  1
  In  In3  1  0.000000  0.000000  0.499380  1
  Pd  Pd4  1  0.666667  0.333333  0.088508  1
  Pt  Pt5  1  0.333333  0.666667  0.912355  1
  Pt  Pt6  1  0.333333  0.666667  0.592021  1
  Pt  Pt7  1  0.666667  0.333333  0.406504  1
