# generated using pymatgen
data_Pr4NdDy5Sn8
_symmetry_space_group_name_H-M   'P 1'
_cell_length_a   8.15424100
_cell_length_b   8.33013210
_cell_length_c   15.70953600
_cell_angle_alpha   89.99107906
_cell_angle_beta   90.00000000
_cell_angle_gamma   90.00000000
_symmetry_Int_Tables_number   1
_chemical_formula_structural   Pr4NdDy5Sn8
_chemical_formula_sum   'Pr8 Nd2 Dy10 Sn16'
_cell_volume   1067.08443249
_cell_formula_units_Z   2
loop_
 _symmetry_equiv_pos_site_id
 _symmetry_equiv_pos_as_xyz
  1  'x, y, z'
loop_
 _atom_site_type_symbol
 _atom_site_label
 _atom_site_symmetry_multiplicity
 _atom_site_fract_x
 _atom_site_fract_y
 _atom_site_fract_z
 _atom_site_occupancy
  Pr  Pr0  1  0.510552  0.320149  0.904315  1
  Pr  Pr1  1  0.010552  0.179851  0.595685  1
  Pr  Pr2  1  0.488880  0.677997  0.402248  1
  Pr  Pr3  1  0.988880  0.822003  0.097752  1
  Pr  Pr4  1  0.488399  0.678596  0.098098  1
  Pr  Pr5  1  0.988399  0.821404  0.401902  1
  Pr  Pr6  1  0.512124  0.320408  0.595226  1
  Pr  Pr7  1  0.012124  0.179592  0.904774  1
  Nd  Nd8  1  0.359139  0.834316  0.880736  1
  Nd  Nd9  1  0.859139  0.665684  0.619264  1
  Dy  Dy10  1  0.642072  0.164394  0.374253  1
  Dy  Dy11  1  0.142072  0.335606  0.125747  1
  Dy  Dy12  1  0.642306  0.163896  0.123441  1
  Dy  Dy13  1  0.142306  0.336104  0.376559  1
  Dy  Dy14  1  0.356099  0.834668  0.623410  1
  Dy  Dy15  1  0.856099  0.665332  0.876590  1
  Dy  Dy16  1  0.189872  0.501489  0.749377  1
  Dy  Dy17  1  0.689872  0.998511  0.750623  1
  Dy  Dy18  1  0.808732  0.498030  0.249082  1
  Dy  Dy19  1  0.308732  0.001970  0.250918  1
  Sn  Sn20  1  0.304936  0.043686  0.046116  1
  Sn  Sn21  1  0.804936  0.456314  0.453884  1
  Sn  Sn22  1  0.687573  0.964440  0.540157  1
  Sn  Sn23  1  0.187573  0.535560  0.959843  1
  Sn  Sn24  1  0.702080  0.961068  0.959505  1
  Sn  Sn25  1  0.202080  0.538932  0.540495  1
  Sn  Sn26  1  0.307698  0.040818  0.458282  1
  Sn  Sn27  1  0.807698  0.459182  0.041718  1
  Sn  Sn28  1  0.556416  0.619558  0.750460  1
  Sn  Sn29  1  0.056416  0.880442  0.749540  1
  Sn  Sn30  1  0.443757  0.377880  0.249764  1
  Sn  Sn31  1  0.943757  0.122120  0.250236  1
  Sn  Sn32  1  0.318607  0.143623  0.749272  1
  Sn  Sn33  1  0.818607  0.356377  0.750728  1
  Sn  Sn34  1  0.680756  0.857820  0.249792  1
  Sn  Sn35  1  0.180756  0.642180  0.250208  1
