# generated using pymatgen
data_Dy4TmSc(Si3Ru)8
_symmetry_space_group_name_H-M   'P 1'
_cell_length_a   10.07380237
_cell_length_b   10.07380231
_cell_length_c   8.11716415
_cell_angle_alpha   89.99441308
_cell_angle_beta   89.99441630
_cell_angle_gamma   132.53828512
_symmetry_Int_Tables_number   1
_chemical_formula_structural   Dy4TmSc(Si3Ru)8
_chemical_formula_sum   'Dy4 Tm1 Sc1 Si24 Ru8'
_cell_volume   606.95425031
_cell_formula_units_Z   1
loop_
 _symmetry_equiv_pos_site_id
 _symmetry_equiv_pos_as_xyz
  1  'x, y, z'
loop_
 _atom_site_type_symbol
 _atom_site_label
 _atom_site_symmetry_multiplicity
 _atom_site_fract_x
 _atom_site_fract_y
 _atom_site_fract_z
 _atom_site_occupancy
  Dy  Dy0  1  0.502556  0.002370  0.749714  1
  Dy  Dy1  1  0.997630  0.497444  0.250286  1
  Dy  Dy2  1  0.497444  0.997630  0.250286  1
  Dy  Dy3  1  0.002370  0.502556  0.749714  1
  Tm  Tm4  1  0.000000  0.000000  0.000000  1
  Sc  Sc5  1  0.500000  0.500000  0.500000  1
  Si  Si6  1  0.794366  0.205634  0.500000  1
  Si  Si7  1  0.294964  0.705036  0.000000  1
  Si  Si8  1  0.205634  0.794366  0.500000  1
  Si  Si9  1  0.705036  0.294964  0.000000  1
  Si  Si10  1  0.333255  0.333255  0.830941  1
  Si  Si11  1  0.666745  0.666745  0.169059  1
  Si  Si12  1  0.170024  0.170024  0.334333  1
  Si  Si13  1  0.829976  0.829976  0.665667  1
  Si  Si14  1  0.121073  0.886678  0.728094  1
  Si  Si15  1  0.113322  0.878927  0.271906  1
  Si  Si16  1  0.611062  0.378983  0.230271  1
  Si  Si17  1  0.621017  0.388938  0.769729  1
  Si  Si18  1  0.878927  0.113322  0.271906  1
  Si  Si19  1  0.886678  0.121073  0.728094  1
  Si  Si20  1  0.388938  0.621017  0.769729  1
  Si  Si21  1  0.378983  0.611062  0.230271  1
  Si  Si22  1  0.345628  0.114145  0.504137  1
  Si  Si23  1  0.885855  0.654372  0.495863  1
  Si  Si24  1  0.388083  0.155064  0.004760  1
  Si  Si25  1  0.844936  0.611917  0.995240  1
  Si  Si26  1  0.654372  0.885855  0.495863  1
  Si  Si27  1  0.114145  0.345628  0.504137  1
  Si  Si28  1  0.611917  0.844936  0.995240  1
  Si  Si29  1  0.155064  0.388083  0.004760  1
  Ru  Ru30  1  0.667864  0.332136  0.500000  1
  Ru  Ru31  1  0.168747  0.831253  0.000000  1
  Ru  Ru32  1  0.332136  0.667864  0.500000  1
  Ru  Ru33  1  0.831253  0.168747  0.000000  1
  Ru  Ru34  1  0.125312  0.125312  0.627809  1
  Ru  Ru35  1  0.874688  0.874688  0.372191  1
  Ru  Ru36  1  0.373102  0.373102  0.126838  1
  Ru  Ru37  1  0.626898  0.626898  0.873162  1
