# generated using pymatgen
data_Ti6Al6PdRu11
_symmetry_space_group_name_H-M   'P 1'
_cell_length_a   4.31227400
_cell_length_b   6.11968100
_cell_length_c   12.90587000
_cell_angle_alpha   90.00032690
_cell_angle_beta   89.99960536
_cell_angle_gamma   90.00145712
_symmetry_Int_Tables_number   1
_chemical_formula_structural   Ti6Al6PdRu11
_chemical_formula_sum   'Ti6 Al6 Pd1 Ru11'
_cell_volume   340.58257003
_cell_formula_units_Z   1
loop_
 _symmetry_equiv_pos_site_id
 _symmetry_equiv_pos_as_xyz
  1  'x, y, z'
loop_
 _atom_site_type_symbol
 _atom_site_label
 _atom_site_symmetry_multiplicity
 _atom_site_fract_x
 _atom_site_fract_y
 _atom_site_fract_z
 _atom_site_occupancy
  Ti  Ti0  1  0.999998  0.005559  0.005440  1
  Ti  Ti1  1  0.500127  0.500777  0.167097  1
  Ti  Ti2  1  0.000143  0.996648  0.333372  1
  Ti  Ti3  1  0.499993  0.500787  0.499578  1
  Ti  Ti4  1  0.999863  0.005533  0.661198  1
  Ti  Ti5  1  0.499916  0.486655  0.833322  1
  Al  Al6  1  0.999970  0.498563  0.001730  1
  Al  Al7  1  0.500134  0.999164  0.166336  1
  Al  Al8  1  0.000182  0.500926  0.333428  1
  Al  Al9  1  0.499981  0.999162  0.500391  1
  Al  Al10  1  0.999824  0.498582  0.664852  1
  Al  Al11  1  0.499881  0.003165  0.833257  1
  Pd  Pd12  1  0.999891  0.750739  0.833314  1
  Ru  Ru13  1  0.500022  0.249078  0.999261  1
  Ru  Ru14  1  0.499971  0.751527  0.998028  1
  Ru  Ru15  1  0.000123  0.251632  0.167024  1
  Ru  Ru16  1  0.000128  0.749017  0.165968  1
  Ru  Ru17  1  0.500145  0.248430  0.333347  1
  Ru  Ru18  1  0.500144  0.752041  0.333321  1
  Ru  Ru19  1  0.999968  0.251560  0.499654  1
  Ru  Ru20  1  0.999988  0.749063  0.500721  1
  Ru  Ru21  1  0.499895  0.249103  0.667391  1
  Ru  Ru22  1  0.499856  0.751474  0.668647  1
  Ru  Ru23  1  0.999860  0.250815  0.833324  1
