# generated using pymatgen
data_La4Cd3Sn4Hg
_symmetry_space_group_name_H-M   'P 1'
_cell_length_a   4.86166000
_cell_length_b   4.86165994
_cell_length_c   16.91736900
_cell_angle_alpha   90.00000000
_cell_angle_beta   90.00000000
_cell_angle_gamma   120.00000038
_symmetry_Int_Tables_number   1
_chemical_formula_structural   La4Cd3Sn4Hg
_chemical_formula_sum   'La4 Cd3 Sn4 Hg1'
_cell_volume   346.28415001
_cell_formula_units_Z   1
loop_
 _symmetry_equiv_pos_site_id
 _symmetry_equiv_pos_as_xyz
  1  'x, y, z'
loop_
 _atom_site_type_symbol
 _atom_site_label
 _atom_site_symmetry_multiplicity
 _atom_site_fract_x
 _atom_site_fract_y
 _atom_site_fract_z
 _atom_site_occupancy
  La  La0  1  0.000000  0.000000  0.000070  1
  La  La1  1  0.000000  0.000000  0.248501  1
  La  La2  1  0.000000  0.000000  0.499930  1
  La  La3  1  0.000000  0.000000  0.749961  1
  Cd  Cd4  1  0.666666  0.333334  0.348076  1
  Cd  Cd5  1  0.333334  0.666668  0.653023  1
  Cd  Cd6  1  0.333334  0.666668  0.847066  1
  Sn  Sn7  1  0.333334  0.666668  0.108008  1
  Sn  Sn8  1  0.333334  0.666668  0.390291  1
  Sn  Sn9  1  0.666666  0.333334  0.609387  1
  Sn  Sn10  1  0.666666  0.333334  0.890572  1
  Hg  Hg11  1  0.666666  0.333334  0.155115  1
