# generated using pymatgen
data_Ba4Sb2Te
_symmetry_space_group_name_H-M   'P 1'
_cell_length_a   9.17637997
_cell_length_b   9.16149769
_cell_length_c   9.17638059
_cell_angle_alpha   109.46582847
_cell_angle_beta   109.47676956
_cell_angle_gamma   109.46583098
_symmetry_Int_Tables_number   1
_chemical_formula_structural   Ba4Sb2Te
_chemical_formula_sum   'Ba8 Sb4 Te2'
_cell_volume   593.90288014
_cell_formula_units_Z   2
loop_
 _symmetry_equiv_pos_site_id
 _symmetry_equiv_pos_as_xyz
  1  'x, y, z'
loop_
 _atom_site_type_symbol
 _atom_site_label
 _atom_site_symmetry_multiplicity
 _atom_site_fract_x
 _atom_site_fract_y
 _atom_site_fract_z
 _atom_site_occupancy
  Ba  Ba0  1  0.349079  0.497679  0.995791  1
  Ba  Ba1  1  0.867435  0.497262  0.994955  1
  Ba  Ba2  1  0.138139  0.138467  0.138813  1
  Ba  Ba3  1  0.494954  0.997262  0.367435  1
  Ba  Ba4  1  0.007340  0.366472  0.506769  1
  Ba  Ba5  1  0.006770  0.866472  0.507340  1
  Ba  Ba6  1  0.638812  0.638466  0.638138  1
  Ba  Ba7  1  0.495791  0.997680  0.849079  1
  Sb  Sb8  1  0.249487  0.621521  0.374657  1
  Sb  Sb9  1  0.375902  0.253594  0.628377  1
  Sb  Sb10  1  0.874657  0.121522  0.749487  1
  Sb  Sb11  1  0.128378  0.753594  0.875902  1
  Te  Te12  1  0.747758  0.875004  0.125494  1
  Te  Te13  1  0.625493  0.375004  0.247758  1
