# generated using pymatgen
data_Zr3Sc7(Sb3Se)2
_symmetry_space_group_name_H-M   'P 1'
_cell_length_a   8.58147300
_cell_length_b   8.58147308
_cell_length_c   6.16408200
_cell_angle_alpha   90.00000000
_cell_angle_beta   90.00000000
_cell_angle_gamma   119.99999584
_symmetry_Int_Tables_number   1
_chemical_formula_structural   Zr3Sc7(Sb3Se)2
_chemical_formula_sum   'Zr3 Sc7 Sb6 Se2'
_cell_volume   393.11783027
_cell_formula_units_Z   1
loop_
 _symmetry_equiv_pos_site_id
 _symmetry_equiv_pos_as_xyz
  1  'x, y, z'
loop_
 _atom_site_type_symbol
 _atom_site_label
 _atom_site_symmetry_multiplicity
 _atom_site_fract_x
 _atom_site_fract_y
 _atom_site_fract_z
 _atom_site_occupancy
  Zr  Zr0  1  0.333333  0.666667  0.500000  1
  Zr  Zr1  1  0.333333  0.666667  0.000000  1
  Zr  Zr2  1  0.666667  0.333333  0.000000  1
  Sc  Sc3  1  0.738905  0.739633  0.249421  1
  Sc  Sc4  1  0.260367  0.999272  0.249421  1
  Sc  Sc5  1  0.000728  0.261095  0.249421  1
  Sc  Sc6  1  0.260367  0.261095  0.750579  1
  Sc  Sc7  1  0.738905  0.999272  0.750579  1
  Sc  Sc8  1  0.000728  0.739633  0.750579  1
  Sc  Sc9  1  0.666667  0.333333  0.500000  1
  Sb  Sb10  1  0.395662  0.394760  0.250132  1
  Sb  Sb11  1  0.605240  0.000902  0.250132  1
  Sb  Sb12  1  0.999098  0.604338  0.250132  1
  Sb  Sb13  1  0.605240  0.604338  0.749868  1
  Sb  Sb14  1  0.395662  0.000902  0.749868  1
  Sb  Sb15  1  0.999098  0.394760  0.749868  1
  Se  Se16  1  0.000000  0.000000  0.500000  1
  Se  Se17  1  0.000000  0.000000  0.000000  1
