# generated using pymatgen
data_Tb3Zn2Ga3Cu10
_symmetry_space_group_name_H-M   'P 1'
_cell_length_a   8.82058032
_cell_length_b   8.82058053
_cell_length_c   4.17927800
_cell_angle_alpha   90.00000000
_cell_angle_beta   90.00000000
_cell_angle_gamma   119.15686252
_symmetry_Int_Tables_number   1
_chemical_formula_structural   Tb3Zn2Ga3Cu10
_chemical_formula_sum   'Tb3 Zn2 Ga3 Cu10'
_cell_volume   283.95769732
_cell_formula_units_Z   1
loop_
 _symmetry_equiv_pos_site_id
 _symmetry_equiv_pos_as_xyz
  1  'x, y, z'
loop_
 _atom_site_type_symbol
 _atom_site_label
 _atom_site_symmetry_multiplicity
 _atom_site_fract_x
 _atom_site_fract_y
 _atom_site_fract_z
 _atom_site_occupancy
  Tb  Tb0  1  0.334127  0.665873  0.000000  1
  Tb  Tb1  1  0.665873  0.334127  0.000000  1
  Tb  Tb2  1  0.000000  0.000000  0.000000  1
  Zn  Zn3  1  0.162298  0.837702  0.500000  1
  Zn  Zn4  1  0.837702  0.162298  0.500000  1
  Ga  Ga5  1  0.500000  0.000000  0.500000  1
  Ga  Ga6  1  0.000000  0.500000  0.500000  1
  Ga  Ga7  1  0.500000  0.500000  0.500000  1
  Cu  Cu8  1  0.332407  0.002407  0.000000  1
  Cu  Cu9  1  0.667593  0.997593  0.000000  1
  Cu  Cu10  1  0.002407  0.332407  0.000000  1
  Cu  Cu11  1  0.997593  0.667593  0.000000  1
  Cu  Cu12  1  0.671085  0.671085  0.000000  1
  Cu  Cu13  1  0.328915  0.328915  0.000000  1
  Cu  Cu14  1  0.170767  0.337515  0.500000  1
  Cu  Cu15  1  0.829233  0.662485  0.500000  1
  Cu  Cu16  1  0.662485  0.829233  0.500000  1
  Cu  Cu17  1  0.337515  0.170767  0.500000  1
