# generated using pymatgen
data_ErCu3NiPd
_symmetry_space_group_name_H-M   'P 1'
_cell_length_a   4.93348632
_cell_length_b   4.93348702
_cell_length_c   4.96796862
_cell_angle_alpha   60.22932945
_cell_angle_beta   60.22931750
_cell_angle_gamma   59.99999334
_symmetry_Int_Tables_number   1
_chemical_formula_structural   ErCu3NiPd
_chemical_formula_sum   'Er1 Cu3 Ni1 Pd1'
_cell_volume   85.79627654
_cell_formula_units_Z   1
loop_
 _symmetry_equiv_pos_site_id
 _symmetry_equiv_pos_as_xyz
  1  'x, y, z'
loop_
 _atom_site_type_symbol
 _atom_site_label
 _atom_site_symmetry_multiplicity
 _atom_site_fract_x
 _atom_site_fract_y
 _atom_site_fract_z
 _atom_site_occupancy
  Er  Er0  1  0.998316  0.998316  0.005052  1
  Cu  Cu1  1  0.624569  0.127291  0.623573  1
  Cu  Cu2  1  0.127291  0.624569  0.623573  1
  Cu  Cu3  1  0.624569  0.624569  0.623573  1
  Ni  Ni4  1  0.625463  0.625463  0.123613  1
  Pd  Pd5  1  0.249794  0.249794  0.250618  1
