# generated using pymatgen
data_Tb3Mg2ZnIr2Pd
_symmetry_space_group_name_H-M   'P 1'
_cell_length_a   7.33472300
_cell_length_b   7.32618761
_cell_length_c   3.97675900
_cell_angle_alpha   90.00000000
_cell_angle_beta   90.00000000
_cell_angle_gamma   120.03854260
_symmetry_Int_Tables_number   1
_chemical_formula_structural   Tb3Mg2ZnIr2Pd
_chemical_formula_sum   'Tb3 Mg2 Zn1 Ir2 Pd1'
_cell_volume   184.99196032
_cell_formula_units_Z   1
loop_
 _symmetry_equiv_pos_site_id
 _symmetry_equiv_pos_as_xyz
  1  'x, y, z'
loop_
 _atom_site_type_symbol
 _atom_site_label
 _atom_site_symmetry_multiplicity
 _atom_site_fract_x
 _atom_site_fract_y
 _atom_site_fract_z
 _atom_site_occupancy
  Tb  Tb0  1  0.569732  0.000000  0.000000  1
  Tb  Tb1  1  0.007636  0.594650  0.000000  1
  Tb  Tb2  1  0.412987  0.405350  0.000000  1
  Mg  Mg3  1  0.999007  0.246034  0.500000  1
  Mg  Mg4  1  0.752973  0.753966  0.500000  1
  Zn  Zn5  1  0.251594  0.000000  0.500000  1
  Ir  Ir6  1  0.333338  0.666063  0.500000  1
  Ir  Ir7  1  0.667276  0.333937  0.500000  1
  Pd  Pd8  1  0.005457  0.000000  0.000000  1
