# generated using pymatgen
data_TbYAl6(GaIr)3
_symmetry_space_group_name_H-M   'P 1'
_cell_length_a   7.53306600
_cell_length_b   7.53306678
_cell_length_c   9.59154300
_cell_angle_alpha   90.00000000
_cell_angle_beta   90.00000000
_cell_angle_gamma   119.61293778
_symmetry_Int_Tables_number   1
_chemical_formula_structural   TbYAl6(GaIr)3
_chemical_formula_sum   'Tb2 Y2 Al12 Ga6 Ir6'
_cell_volume   473.19854180
_cell_formula_units_Z   2
loop_
 _symmetry_equiv_pos_site_id
 _symmetry_equiv_pos_as_xyz
  1  'x, y, z'
loop_
 _atom_site_type_symbol
 _atom_site_label
 _atom_site_symmetry_multiplicity
 _atom_site_fract_x
 _atom_site_fract_y
 _atom_site_fract_z
 _atom_site_occupancy
  Tb  Tb0  1  0.996134  0.670247  0.250000  1
  Tb  Tb1  1  0.003866  0.329753  0.750000  1
  Y  Y2  1  0.670247  0.996134  0.250000  1
  Y  Y3  1  0.329753  0.003866  0.750000  1
  Al  Al4  1  0.001634  0.334622  0.072166  1
  Al  Al5  1  0.998366  0.665378  0.927834  1
  Al  Al6  1  0.998366  0.665378  0.572166  1
  Al  Al7  1  0.334622  0.001634  0.427834  1
  Al  Al8  1  0.001634  0.334622  0.427834  1
  Al  Al9  1  0.665378  0.998366  0.572166  1
  Al  Al10  1  0.665378  0.998366  0.927834  1
  Al  Al11  1  0.334622  0.001634  0.072166  1
  Al  Al12  1  0.333980  0.333980  0.553982  1
  Al  Al13  1  0.666020  0.666020  0.446018  1
  Al  Al14  1  0.666020  0.666020  0.053982  1
  Al  Al15  1  0.333980  0.333980  0.946018  1
  Ga  Ga16  1  0.128923  0.128923  0.250000  1
  Ga  Ga17  1  0.871077  0.871077  0.750000  1
  Ga  Ga18  1  0.339499  0.547676  0.250000  1
  Ga  Ga19  1  0.660501  0.452324  0.750000  1
  Ga  Ga20  1  0.547676  0.339499  0.250000  1
  Ga  Ga21  1  0.452324  0.660501  0.750000  1
  Ir  Ir22  1  0.671480  0.328520  0.000000  1
  Ir  Ir23  1  0.328520  0.671480  0.000000  1
  Ir  Ir24  1  0.328520  0.671480  0.500000  1
  Ir  Ir25  1  0.671480  0.328520  0.500000  1
  Ir  Ir26  1  0.000000  0.000000  0.000000  1
  Ir  Ir27  1  0.000000  0.000000  0.500000  1
