# generated using pymatgen
data_La5PrRuPtBr6
_symmetry_space_group_name_H-M   'P 1'
_cell_length_a   10.58621911
_cell_length_b   10.57375456
_cell_length_c   10.69479277
_cell_angle_alpha   109.39256224
_cell_angle_beta   109.27054869
_cell_angle_gamma   109.21946603
_symmetry_Int_Tables_number   1
_chemical_formula_structural   La5PrRuPtBr6
_chemical_formula_sum   'La10 Pr2 Ru2 Pt2 Br12'
_cell_volume   927.54286005
_cell_formula_units_Z   2
loop_
 _symmetry_equiv_pos_site_id
 _symmetry_equiv_pos_as_xyz
  1  'x, y, z'
loop_
 _atom_site_type_symbol
 _atom_site_label
 _atom_site_symmetry_multiplicity
 _atom_site_fract_x
 _atom_site_fract_y
 _atom_site_fract_z
 _atom_site_occupancy
  La  La0  1  0.467411  0.479115  0.237732  1
  La  La1  1  0.733616  0.227488  0.257133  1
  La  La2  1  0.747824  0.011617  0.482812  1
  La  La3  1  0.235323  0.469443  0.481359  1
  La  La4  1  0.271658  0.765173  0.242041  1
  La  La5  1  0.033723  0.263891  0.022208  1
  La  La6  1  0.021291  0.032341  0.261321  1
  La  La7  1  0.488903  0.757151  0.021125  1
  La  La8  1  0.483563  0.234070  0.467844  1
  La  La9  1  0.017445  0.483689  0.750695  1
  Pr  Pr10  1  0.263818  0.014674  0.028659  1
  Pr  Pr11  1  0.237310  0.263191  0.750433  1
  Ru  Ru12  1  0.249499  0.252070  0.251115  1
  Ru  Ru13  1  0.500791  0.999540  0.250911  1
  Pt  Pt14  1  0.998805  0.248384  0.497347  1
  Pt  Pt15  1  0.251609  0.501353  0.002788  1
  Br  Br16  1  0.251330  0.755681  0.747383  1
  Br  Br17  1  0.506002  0.501871  0.752835  1
  Br  Br18  1  0.990513  0.744988  0.991049  1
  Br  Br19  1  0.746603  0.248814  0.752908  1
  Br  Br20  1  0.998370  0.992068  0.747232  1
  Br  Br21  1  0.250160  0.997673  0.509005  1
  Br  Br22  1  0.755261  0.509655  0.506138  1
  Br  Br23  1  0.499254  0.246444  0.988451  1
  Br  Br24  1  0.754425  0.745790  0.249475  1
  Br  Br25  1  0.745312  0.995402  0.990923  1
  Br  Br26  1  0.995386  0.503469  0.249516  1
  Br  Br27  1  0.504792  0.754955  0.509563  1
