# generated using pymatgen
data_ErTm3Ga20OsRu5
_symmetry_space_group_name_H-M   'P 1'
_cell_length_a   8.89443504
_cell_length_b   8.89437704
_cell_length_c   6.38376000
_cell_angle_alpha   90.00000000
_cell_angle_beta   90.00000000
_cell_angle_gamma   89.98979623
_symmetry_Int_Tables_number   1
_chemical_formula_structural   ErTm3Ga20OsRu5
_chemical_formula_sum   'Er1 Tm3 Ga20 Os1 Ru5'
_cell_volume   505.02217395
_cell_formula_units_Z   1
loop_
 _symmetry_equiv_pos_site_id
 _symmetry_equiv_pos_as_xyz
  1  'x, y, z'
loop_
 _atom_site_type_symbol
 _atom_site_label
 _atom_site_symmetry_multiplicity
 _atom_site_fract_x
 _atom_site_fract_y
 _atom_site_fract_z
 _atom_site_occupancy
  Er  Er0  1  0.183506  0.317438  0.000000  1
  Tm  Tm1  1  0.682623  0.183434  0.000000  1
  Tm  Tm2  1  0.317369  0.816563  0.000000  1
  Tm  Tm3  1  0.816566  0.682620  0.000000  1
  Ga  Ga4  1  0.938618  0.206741  0.292661  1
  Ga  Ga5  1  0.707025  0.438598  0.293255  1
  Ga  Ga6  1  0.499995  0.000000  0.284897  1
  Ga  Ga7  1  0.561377  0.707032  0.706753  1
  Ga  Ga8  1  0.292983  0.561434  0.706687  1
  Ga  Ga9  1  0.793236  0.938674  0.292597  1
  Ga  Ga10  1  0.938618  0.206741  0.707339  1
  Ga  Ga11  1  0.292983  0.561434  0.293313  1
  Ga  Ga12  1  0.061343  0.793241  0.292602  1
  Ga  Ga13  1  0.707025  0.438598  0.706745  1
  Ga  Ga14  1  0.438671  0.292963  0.706661  1
  Ga  Ga15  1  0.061343  0.793241  0.707398  1
  Ga  Ga16  1  0.206761  0.061267  0.707314  1
  Ga  Ga17  1  0.793236  0.938674  0.707403  1
  Ga  Ga18  1  0.206761  0.061267  0.292686  1
  Ga  Ga19  1  0.999955  0.500042  0.715015  1
  Ga  Ga20  1  0.999955  0.500042  0.284985  1
  Ga  Ga21  1  0.561377  0.707032  0.293247  1
  Ga  Ga22  1  0.438671  0.292963  0.293339  1
  Ga  Ga23  1  0.499995  0.000000  0.715103  1
  Os  Os24  1  0.500086  0.500048  0.000000  1
  Ru  Ru25  1  0.678108  0.178248  0.500000  1
  Ru  Ru26  1  0.821730  0.678129  0.500000  1
  Ru  Ru27  1  0.178252  0.321879  0.500000  1
  Ru  Ru28  1  0.999950  0.999912  0.000000  1
  Ru  Ru29  1  0.321883  0.821749  0.500000  1
