# generated using pymatgen
data_Sr8Mg2RuRhO16
_symmetry_space_group_name_H-M   'P 1'
_cell_length_a   5.58483177
_cell_length_b   5.58354637
_cell_length_c   13.41316901
_cell_angle_alpha   102.00560388
_cell_angle_beta   102.01389580
_cell_angle_gamma   89.99718196
_symmetry_Int_Tables_number   1
_chemical_formula_structural   Sr8Mg2RuRhO16
_chemical_formula_sum   'Sr8 Mg2 Ru1 Rh1 O16'
_cell_volume   399.74661242
_cell_formula_units_Z   1
loop_
 _symmetry_equiv_pos_site_id
 _symmetry_equiv_pos_as_xyz
  1  'x, y, z'
loop_
 _atom_site_type_symbol
 _atom_site_label
 _atom_site_symmetry_multiplicity
 _atom_site_fract_x
 _atom_site_fract_y
 _atom_site_fract_z
 _atom_site_occupancy
  Sr  Sr0  1  0.823725  0.823562  0.645643  1
  Sr  Sr1  1  0.074088  0.574548  0.146928  1
  Sr  Sr2  1  0.177409  0.177862  0.354339  1
  Sr  Sr3  1  0.427221  0.926538  0.853054  1
  Sr  Sr4  1  0.320681  0.320615  0.642571  1
  Sr  Sr5  1  0.572046  0.072088  0.145554  1
  Sr  Sr6  1  0.677478  0.678575  0.357438  1
  Sr  Sr7  1  0.927043  0.425993  0.854430  1
  Mg  Mg8  1  0.000038  0.999734  0.999977  1
  Mg  Mg9  1  0.249962  0.750365  0.499977  1
  Ru  Ru10  1  0.500423  0.499872  0.000008  1
  Rh  Rh11  1  0.749896  0.250418  0.500024  1
  O  O12  1  0.002178  0.486373  0.499945  1
  O  O13  1  0.916065  0.920137  0.836065  1
  O  O14  1  0.083007  0.079156  0.163918  1
  O  O15  1  0.169757  0.665612  0.335104  1
  O  O16  1  0.329681  0.833402  0.664879  1
  O  O17  1  0.249989  0.733346  0.998940  1
  O  O18  1  0.266361  0.250208  0.000227  1
  O  O19  1  0.497516  0.014213  0.500170  1
  O  O20  1  0.514205  0.503260  0.500969  1
  O  O21  1  0.422709  0.419718  0.842099  1
  O  O22  1  0.577951  0.580661  0.157908  1
  O  O23  1  0.668485  0.171570  0.339400  1
  O  O24  1  0.831850  0.329136  0.660637  1
  O  O25  1  0.734281  0.749480  0.999943  1
  O  O26  1  0.750366  0.266275  0.000874  1
  O  O27  1  0.985588  0.997285  0.498976  1
