# generated using pymatgen
data_Nd19YSi15Pd
_symmetry_space_group_name_H-M   'P 1'
_cell_length_a   7.79817246
_cell_length_b   7.93731320
_cell_length_c   15.15243176
_cell_angle_alpha   89.69690037
_cell_angle_beta   89.49347989
_cell_angle_gamma   90.04728606
_symmetry_Int_Tables_number   1
_chemical_formula_structural   Nd19YSi15Pd
_chemical_formula_sum   'Nd19 Y1 Si15 Pd1'
_cell_volume   937.83292839
_cell_formula_units_Z   1
loop_
 _symmetry_equiv_pos_site_id
 _symmetry_equiv_pos_as_xyz
  1  'x, y, z'
loop_
 _atom_site_type_symbol
 _atom_site_label
 _atom_site_symmetry_multiplicity
 _atom_site_fract_x
 _atom_site_fract_y
 _atom_site_fract_z
 _atom_site_occupancy
  Nd  Nd0  1  0.813307  0.327862  0.617952  1
  Nd  Nd1  1  0.456887  0.686441  0.897995  1
  Nd  Nd2  1  0.957336  0.813983  0.897662  1
  Nd  Nd3  1  0.186380  0.682636  0.120340  1
  Nd  Nd4  1  0.691567  0.819490  0.120796  1
  Nd  Nd5  1  0.307875  0.178733  0.878424  1
  Nd  Nd6  1  0.188590  0.677860  0.380212  1
  Nd  Nd7  1  0.042882  0.187137  0.102722  1
  Nd  Nd8  1  0.312819  0.179587  0.622051  1
  Nd  Nd9  1  0.857029  0.490660  0.255995  1
  Nd  Nd10  1  0.363190  0.008120  0.251492  1
  Nd  Nd11  1  0.533667  0.312642  0.396895  1
  Nd  Nd12  1  0.810385  0.318697  0.878686  1
  Nd  Nd13  1  0.964961  0.817959  0.601189  1
  Nd  Nd14  1  0.460294  0.686923  0.603465  1
  Nd  Nd15  1  0.042552  0.181694  0.397795  1
  Nd  Nd16  1  0.688261  0.818267  0.381575  1
  Nd  Nd17  1  0.638142  0.992979  0.748878  1
  Nd  Nd18  1  0.543218  0.312497  0.102085  1
  Y  Y19  1  0.138316  0.511688  0.748335  1
  Si  Si20  1  0.479157  0.602260  0.246601  1
  Si  Si21  1  0.249549  0.378864  0.247528  1
  Si  Si22  1  0.514192  0.401987  0.751105  1
  Si  Si23  1  0.631889  0.025235  0.958271  1
  Si  Si24  1  0.016734  0.104465  0.749625  1
  Si  Si25  1  0.752307  0.620927  0.750222  1
  Si  Si26  1  0.751180  0.120660  0.248988  1
  Si  Si27  1  0.364399  0.970924  0.460749  1
  Si  Si28  1  0.981917  0.898875  0.248926  1
  Si  Si29  1  0.366116  0.974375  0.041212  1
  Si  Si30  1  0.636082  0.026046  0.541612  1
  Si  Si31  1  0.134260  0.475455  0.956580  1
  Si  Si32  1  0.146980  0.475975  0.545346  1
  Si  Si33  1  0.867471  0.525163  0.039811  1
  Si  Si34  1  0.245511  0.872678  0.751013  1
  Pd  Pd35  1  0.864599  0.520255  0.457864  1
