# generated using pymatgen
data_TbEr4P12Ru16Pt3
_symmetry_space_group_name_H-M   'P 1'
_cell_length_a   12.58468308
_cell_length_b   12.58468350
_cell_length_c   3.98068400
_cell_angle_alpha   90.00000000
_cell_angle_beta   90.00000000
_cell_angle_gamma   119.98748014
_symmetry_Int_Tables_number   1
_chemical_formula_structural   TbEr4P12Ru16Pt3
_chemical_formula_sum   'Tb1 Er4 P12 Ru16 Pt3'
_cell_volume   546.04406567
_cell_formula_units_Z   1
loop_
 _symmetry_equiv_pos_site_id
 _symmetry_equiv_pos_as_xyz
  1  'x, y, z'
loop_
 _atom_site_type_symbol
 _atom_site_label
 _atom_site_symmetry_multiplicity
 _atom_site_fract_x
 _atom_site_fract_y
 _atom_site_fract_z
 _atom_site_occupancy
  Tb  Tb0  1  0.181912  0.181912  0.500000  1
  Er  Er1  1  0.818159  0.999875  0.500000  1
  Er  Er2  1  0.999875  0.818159  0.500000  1
  Er  Er3  1  0.333387  0.666743  0.000000  1
  Er  Er4  1  0.666743  0.333387  0.000000  1
  P  P5  1  0.815450  0.815450  0.000000  1
  P  P6  1  0.184421  0.999700  0.000000  1
  P  P7  1  0.999700  0.184421  0.000000  1
  P  P8  1  0.180299  0.480717  0.500000  1
  P  P9  1  0.519343  0.699591  0.500000  1
  P  P10  1  0.300426  0.819611  0.500000  1
  P  P11  1  0.699591  0.519343  0.500000  1
  P  P12  1  0.819611  0.300426  0.500000  1
  P  P13  1  0.480717  0.180299  0.500000  1
  P  P14  1  0.365294  0.365294  0.000000  1
  P  P15  1  0.635139  0.000002  0.000000  1
  P  P16  1  0.000002  0.635139  0.000000  1
  Ru  Ru17  1  0.711738  0.711738  0.500000  1
  Ru  Ru18  1  0.288339  0.999723  0.500000  1
  Ru  Ru19  1  0.999723  0.288339  0.500000  1
  Ru  Ru20  1  0.184909  0.378700  0.000000  1
  Ru  Ru21  1  0.621925  0.806883  0.000000  1
  Ru  Ru22  1  0.193102  0.814973  0.000000  1
  Ru  Ru23  1  0.806883  0.621925  0.000000  1
  Ru  Ru24  1  0.814973  0.193102  0.000000  1
  Ru  Ru25  1  0.378700  0.184909  0.000000  1
  Ru  Ru26  1  0.369295  0.494423  0.500000  1
  Ru  Ru27  1  0.505683  0.874860  0.500000  1
  Ru  Ru28  1  0.125128  0.630797  0.500000  1
  Ru  Ru29  1  0.874860  0.505683  0.500000  1
  Ru  Ru30  1  0.630797  0.125128  0.500000  1
  Ru  Ru31  1  0.494423  0.369295  0.500000  1
  Ru  Ru32  1  0.999343  0.999343  0.000000  1
  Pt  Pt33  1  0.551640  0.551640  0.000000  1
  Pt  Pt34  1  0.448482  0.999988  0.000000  1
  Pt  Pt35  1  0.999988  0.448482  0.000000  1
