# generated using pymatgen
data_Pr4NdPPb3
_symmetry_space_group_name_H-M   'P 1'
_cell_length_a   9.54061314
_cell_length_b   9.54061228
_cell_length_c   7.18040200
_cell_angle_alpha   90.00000000
_cell_angle_beta   90.00000000
_cell_angle_gamma   119.96300246
_symmetry_Int_Tables_number   1
_chemical_formula_structural   Pr4NdPPb3
_chemical_formula_sum   'Pr8 Nd2 P2 Pb6'
_cell_volume   566.23109240
_cell_formula_units_Z   2
loop_
 _symmetry_equiv_pos_site_id
 _symmetry_equiv_pos_as_xyz
  1  'x, y, z'
loop_
 _atom_site_type_symbol
 _atom_site_label
 _atom_site_symmetry_multiplicity
 _atom_site_fract_x
 _atom_site_fract_y
 _atom_site_fract_z
 _atom_site_occupancy
  Pr  Pr0  1  0.763127  0.763127  0.750000  1
  Pr  Pr1  1  0.236474  0.999972  0.750000  1
  Pr  Pr2  1  0.999972  0.236474  0.750000  1
  Pr  Pr3  1  0.236708  0.236708  0.250000  1
  Pr  Pr4  1  0.666773  0.333246  0.000236  1
  Pr  Pr5  1  0.333246  0.666773  0.000236  1
  Pr  Pr6  1  0.333246  0.666773  0.499764  1
  Pr  Pr7  1  0.666773  0.333246  0.499764  1
  Nd  Nd8  1  0.764563  0.000062  0.250000  1
  Nd  Nd9  1  0.000062  0.764563  0.250000  1
  P  P10  1  0.999210  0.999210  0.001147  1
  P  P11  1  0.999210  0.999210  0.498853  1
  Pb  Pb12  1  0.400058  0.400058  0.750000  1
  Pb  Pb13  1  0.599771  0.000132  0.750000  1
  Pb  Pb14  1  0.000132  0.599771  0.750000  1
  Pb  Pb15  1  0.600916  0.600916  0.250000  1
  Pb  Pb16  1  0.400161  0.999597  0.250000  1
  Pb  Pb17  1  0.999597  0.400161  0.250000  1
