# generated using pymatgen
data_Rb8Hf6BeI20
_symmetry_space_group_name_H-M   'P 1'
_cell_length_a   12.92990148
_cell_length_b   12.92990160
_cell_length_c   12.92990100
_cell_angle_alpha   59.99999897
_cell_angle_beta   59.99999867
_cell_angle_gamma   59.99999498
_symmetry_Int_Tables_number   1
_chemical_formula_structural   Rb8Hf6BeI20
_chemical_formula_sum   'Rb8 Hf6 Be1 I20'
_cell_volume   1528.51819612
_cell_formula_units_Z   1
loop_
 _symmetry_equiv_pos_site_id
 _symmetry_equiv_pos_as_xyz
  1  'x, y, z'
loop_
 _atom_site_type_symbol
 _atom_site_label
 _atom_site_symmetry_multiplicity
 _atom_site_fract_x
 _atom_site_fract_y
 _atom_site_fract_z
 _atom_site_occupancy
  Rb  Rb0  1  0.361669  0.361669  0.361669  1
  Rb  Rb1  1  0.638331  0.638331  0.638331  1
  Rb  Rb2  1  0.361669  0.361669  0.914995  1
  Rb  Rb3  1  0.361669  0.914995  0.361669  1
  Rb  Rb4  1  0.638331  0.638331  0.085005  1
  Rb  Rb5  1  0.638331  0.085005  0.638331  1
  Rb  Rb6  1  0.914995  0.361669  0.361669  1
  Rb  Rb7  1  0.085005  0.638331  0.638331  1
  Hf  Hf8  1  0.869107  0.130893  0.130893  1
  Hf  Hf9  1  0.130893  0.869107  0.869107  1
  Hf  Hf10  1  0.130893  0.869107  0.130893  1
  Hf  Hf11  1  0.869107  0.130893  0.869107  1
  Hf  Hf12  1  0.130893  0.130893  0.869107  1
  Hf  Hf13  1  0.869107  0.869107  0.130893  1
  Be  Be14  1  0.000000  0.000000  0.000000  1
  I  I15  1  0.314923  0.000000  0.000000  1
  I  I16  1  0.685077  0.000000  0.000000  1
  I  I17  1  0.000000  0.314923  0.685077  1
  I  I18  1  0.000000  0.685077  0.314923  1
  I  I19  1  0.000000  0.314923  0.000000  1
  I  I20  1  0.685077  0.000000  0.314923  1
  I  I21  1  0.000000  0.685077  0.000000  1
  I  I22  1  0.314923  0.000000  0.685077  1
  I  I23  1  0.000000  0.000000  0.314923  1
  I  I24  1  0.000000  0.000000  0.685077  1
  I  I25  1  0.685077  0.314923  0.000000  1
  I  I26  1  0.314923  0.685077  0.000000  1
  I  I27  1  0.692346  0.307654  0.307654  1
  I  I28  1  0.307654  0.692346  0.692346  1
  I  I29  1  0.307654  0.692346  0.307654  1
  I  I30  1  0.692346  0.307654  0.692346  1
  I  I31  1  0.307654  0.307654  0.692346  1
  I  I32  1  0.692346  0.692346  0.307654  1
  I  I33  1  0.250000  0.250000  0.250000  1
  I  I34  1  0.750000  0.750000  0.750000  1
