# generated using pymatgen
data_Yb3Pr16HoGa12
_symmetry_space_group_name_H-M   'P 1'
_cell_length_a   7.86843600
_cell_length_b   7.86843600
_cell_length_c   14.78843600
_cell_angle_alpha   90.00000000
_cell_angle_beta   90.00000000
_cell_angle_gamma   90.00000000
_symmetry_Int_Tables_number   1
_chemical_formula_structural   Yb3Pr16HoGa12
_chemical_formula_sum   'Yb3 Pr16 Ho1 Ga12'
_cell_volume   915.58586561
_cell_formula_units_Z   1
loop_
 _symmetry_equiv_pos_site_id
 _symmetry_equiv_pos_as_xyz
  1  'x, y, z'
loop_
 _atom_site_type_symbol
 _atom_site_label
 _atom_site_symmetry_multiplicity
 _atom_site_fract_x
 _atom_site_fract_y
 _atom_site_fract_z
 _atom_site_occupancy
  Yb  Yb0  1  0.000000  0.500000  0.241683  1
  Yb  Yb1  1  0.500000  0.000000  0.258070  1
  Yb  Yb2  1  0.500000  0.000000  0.758872  1
  Pr  Pr3  1  0.822662  0.831282  0.602658  1
  Pr  Pr4  1  0.177032  0.830051  0.102671  1
  Pr  Pr5  1  0.169835  0.823220  0.397660  1
  Pr  Pr6  1  0.830165  0.176780  0.397660  1
  Pr  Pr7  1  0.676780  0.669835  0.397660  1
  Pr  Pr8  1  0.668718  0.322662  0.602658  1
  Pr  Pr9  1  0.331282  0.677338  0.602658  1
  Pr  Pr10  1  0.669949  0.677032  0.102671  1
  Pr  Pr11  1  0.677898  0.330405  0.897123  1
  Pr  Pr12  1  0.830405  0.822102  0.897123  1
  Pr  Pr13  1  0.323220  0.330165  0.397660  1
  Pr  Pr14  1  0.177338  0.168718  0.602658  1
  Pr  Pr15  1  0.822968  0.169949  0.102671  1
  Pr  Pr16  1  0.322102  0.669595  0.897123  1
  Pr  Pr17  1  0.330051  0.322968  0.102671  1
  Pr  Pr18  1  0.169595  0.177898  0.897123  1
  Ho  Ho19  1  0.000000  0.500000  0.736437  1
  Ga  Ga20  1  0.616821  0.383275  0.250130  1
  Ga  Ga21  1  0.112758  0.876151  0.750292  1
  Ga  Ga22  1  0.376151  0.387242  0.750292  1
  Ga  Ga23  1  0.383179  0.616725  0.250130  1
  Ga  Ga24  1  0.883275  0.883179  0.250130  1
  Ga  Ga25  1  0.623849  0.612758  0.750292  1
  Ga  Ga26  1  0.000000  0.500000  0.508004  1
  Ga  Ga27  1  0.887242  0.123849  0.750292  1
  Ga  Ga28  1  0.500000  0.000000  0.495800  1
  Ga  Ga29  1  0.500000  0.000000  0.996725  1
  Ga  Ga30  1  0.116725  0.116821  0.250130  1
  Ga  Ga31  1  0.000000  0.500000  0.002274  1
