# generated using pymatgen
data_Tm2LuZn3Si2Au
_symmetry_space_group_name_H-M   'P 1'
_cell_length_a   6.80606600
_cell_length_b   6.79453376
_cell_length_c   4.24083400
_cell_angle_alpha   90.00000000
_cell_angle_beta   90.00000000
_cell_angle_gamma   120.05616155
_symmetry_Int_Tables_number   1
_chemical_formula_structural   Tm2LuZn3Si2Au
_chemical_formula_sum   'Tm2 Lu1 Zn3 Si2 Au1'
_cell_volume   169.74291930
_cell_formula_units_Z   1
loop_
 _symmetry_equiv_pos_site_id
 _symmetry_equiv_pos_as_xyz
  1  'x, y, z'
loop_
 _atom_site_type_symbol
 _atom_site_label
 _atom_site_symmetry_multiplicity
 _atom_site_fract_x
 _atom_site_fract_y
 _atom_site_fract_z
 _atom_site_occupancy
  Tm  Tm0  1  0.000375  0.575199  0.000000  1
  Tm  Tm1  1  0.425177  0.424801  0.000000  1
  Lu  Lu2  1  0.575155  0.000000  0.000000  1
  Zn  Zn3  1  0.249353  0.000000  0.500000  1
  Zn  Zn4  1  0.999999  0.249025  0.500000  1
  Zn  Zn5  1  0.750974  0.750975  0.500000  1
  Si  Si6  1  0.334175  0.667963  0.500000  1
  Si  Si7  1  0.666214  0.332037  0.500000  1
  Au  Au8  1  0.998578  0.000000  0.000000  1
