# generated using pymatgen
data_Ce6Al24Fe4Ir3Ru
_symmetry_space_group_name_H-M   'P 1'
_cell_length_a   8.82151300
_cell_length_b   8.83775008
_cell_length_c   9.41779411
_cell_angle_alpha   89.84242507
_cell_angle_beta   90.00000000
_cell_angle_gamma   119.93923940
_symmetry_Int_Tables_number   1
_chemical_formula_structural   Ce6Al24Fe4Ir3Ru
_chemical_formula_sum   'Ce6 Al24 Fe4 Ir3 Ru1'
_cell_volume   636.25031214
_cell_formula_units_Z   1
loop_
 _symmetry_equiv_pos_site_id
 _symmetry_equiv_pos_as_xyz
  1  'x, y, z'
loop_
 _atom_site_type_symbol
 _atom_site_label
 _atom_site_symmetry_multiplicity
 _atom_site_fract_x
 _atom_site_fract_y
 _atom_site_fract_z
 _atom_site_occupancy
  Ce  Ce0  1  0.806442  0.612884  0.746334  1
  Ce  Ce1  1  0.192629  0.805526  0.252256  1
  Ce  Ce2  1  0.612898  0.805526  0.252256  1
  Ce  Ce3  1  0.387102  0.194474  0.747744  1
  Ce  Ce4  1  0.807371  0.194474  0.747744  1
  Ce  Ce5  1  0.193558  0.387116  0.253666  1
  Al  Al6  1  0.330328  0.660656  0.482431  1
  Al  Al7  1  0.665986  0.331972  0.979813  1
  Al  Al8  1  0.669672  0.339344  0.517569  1
  Al  Al9  1  0.334014  0.668028  0.020187  1
  Al  Al10  1  0.161191  0.322381  0.576171  1
  Al  Al11  1  0.678481  0.835992  0.575773  1
  Al  Al12  1  0.157511  0.835992  0.575773  1
  Al  Al13  1  0.839457  0.158791  0.076894  1
  Al  Al14  1  0.842489  0.164008  0.424227  1
  Al  Al15  1  0.840239  0.680477  0.075493  1
  Al  Al16  1  0.319334  0.158791  0.076894  1
  Al  Al17  1  0.680666  0.841209  0.923106  1
  Al  Al18  1  0.159761  0.319523  0.924507  1
  Al  Al19  1  0.838809  0.677619  0.423829  1
  Al  Al20  1  0.000249  0.000496  0.250092  1
  Al  Al21  1  0.999751  0.999504  0.749908  1
  Al  Al22  1  0.563174  0.126349  0.248673  1
  Al  Al23  1  0.438366  0.561692  0.744540  1
  Al  Al24  1  0.123326  0.561692  0.744540  1
  Al  Al25  1  0.876674  0.438308  0.255460  1
  Al  Al26  1  0.561634  0.438308  0.255460  1
  Al  Al27  1  0.436826  0.873651  0.751327  1
  Al  Al28  1  0.160543  0.841209  0.923106  1
  Al  Al29  1  0.321519  0.164008  0.424227  1
  Fe  Fe30  1  0.000000  0.000000  0.500000  1
  Fe  Fe31  1  0.000000  0.000000  0.000000  1
  Fe  Fe32  1  0.000000  0.500000  0.500000  1
  Fe  Fe33  1  0.500000  0.500000  0.500000  1
  Ir  Ir34  1  0.500000  0.000000  0.500000  1
  Ir  Ir35  1  0.500000  0.500000  0.000000  1
  Ir  Ir36  1  0.000000  0.500000  0.000000  1
  Ru  Ru37  1  0.500000  0.000000  0.000000  1
