# generated using pymatgen
data_Ta6Re5Si6Tc
_symmetry_space_group_name_H-M   'P 1'
_cell_length_a   7.56131041
_cell_length_b   7.55437664
_cell_length_c   7.55437644
_cell_angle_alpha   127.27300255
_cell_angle_beta   124.55177491
_cell_angle_gamma   80.03038121
_symmetry_Int_Tables_number   1
_chemical_formula_structural   Ta6Re5Si6Tc
_chemical_formula_sum   'Ta6 Re5 Si6 Tc1'
_cell_volume   273.09323122
_cell_formula_units_Z   1
loop_
 _symmetry_equiv_pos_site_id
 _symmetry_equiv_pos_as_xyz
  1  'x, y, z'
loop_
 _atom_site_type_symbol
 _atom_site_label
 _atom_site_symmetry_multiplicity
 _atom_site_fract_x
 _atom_site_fract_y
 _atom_site_fract_z
 _atom_site_occupancy
  Ta  Ta0  1  0.555106  0.095664  0.041150  1
  Ta  Ta1  1  0.444894  0.486045  0.540559  1
  Ta  Ta2  1  0.965875  0.499724  0.034686  1
  Ta  Ta3  1  0.034125  0.068811  0.533849  1
  Ta  Ta4  1  0.753829  0.911129  0.657921  1
  Ta  Ta5  1  0.246171  0.904092  0.157300  1
  Re  Re6  1  0.000000  0.245686  0.245686  1
  Re  Re7  1  0.161816  0.750131  0.657748  1
  Re  Re8  1  0.838184  0.495932  0.588315  1
  Re  Re9  1  0.592862  0.749710  0.088031  1
  Re  Re10  1  0.407138  0.495169  0.156848  1
  Si  Si11  1  0.777283  0.536830  0.258505  1
  Si  Si12  1  0.222717  0.481222  0.759547  1
  Si  Si13  1  0.337487  0.826993  0.498897  1
  Si  Si14  1  0.662513  0.161410  0.489506  1
  Si  Si15  1  0.828070  0.826497  0.989350  1
  Si  Si16  1  0.171930  0.161280  0.998428  1
  Tc  Tc17  1  0.500000  0.245871  0.745871  1
