# generated using pymatgen
data_LaPr3(TcC2)2
_symmetry_space_group_name_H-M   'P 1'
_cell_length_a   5.42178100
_cell_length_b   6.74961000
_cell_length_c   10.30501900
_cell_angle_alpha   90.00000000
_cell_angle_beta   90.00000000
_cell_angle_gamma   90.00000000
_symmetry_Int_Tables_number   1
_chemical_formula_structural   LaPr3(TcC2)2
_chemical_formula_sum   'La2 Pr6 Tc4 C8'
_cell_volume   377.11121457
_cell_formula_units_Z   2
loop_
 _symmetry_equiv_pos_site_id
 _symmetry_equiv_pos_as_xyz
  1  'x, y, z'
loop_
 _atom_site_type_symbol
 _atom_site_label
 _atom_site_symmetry_multiplicity
 _atom_site_fract_x
 _atom_site_fract_y
 _atom_site_fract_z
 _atom_site_occupancy
  La  La0  1  0.750000  0.524190  0.787289  1
  La  La1  1  0.250000  0.975810  0.287289  1
  Pr  Pr2  1  0.750000  0.687117  0.448566  1
  Pr  Pr3  1  0.250000  0.812883  0.948566  1
  Pr  Pr4  1  0.750000  0.189067  0.051205  1
  Pr  Pr5  1  0.250000  0.310933  0.551205  1
  Pr  Pr6  1  0.250000  0.474832  0.213002  1
  Pr  Pr7  1  0.750000  0.025168  0.713002  1
  Tc  Tc8  1  0.250000  0.269509  0.856281  1
  Tc  Tc9  1  0.250000  0.768706  0.643499  1
  Tc  Tc10  1  0.750000  0.230491  0.356281  1
  Tc  Tc11  1  0.750000  0.731294  0.143499  1
  C  C12  1  0.250000  0.687450  0.466166  1
  C  C13  1  0.250000  0.532469  0.756894  1
  C  C14  1  0.750000  0.467157  0.242587  1
  C  C15  1  0.750000  0.812550  0.966166  1
  C  C16  1  0.250000  0.032843  0.742587  1
  C  C17  1  0.250000  0.189784  0.034511  1
  C  C18  1  0.750000  0.310216  0.534511  1
  C  C19  1  0.750000  0.967531  0.256894  1
