# generated using pymatgen
data_DyHoI6
_symmetry_space_group_name_H-M   'P 1'
_cell_length_a   8.76923695
_cell_length_b   8.76923689
_cell_length_c   8.76923573
_cell_angle_alpha   52.07985222
_cell_angle_beta   52.07985227
_cell_angle_gamma   52.07985165
_symmetry_Int_Tables_number   1
_chemical_formula_structural   DyHoI6
_chemical_formula_sum   'Dy1 Ho1 I6'
_cell_volume   388.06671685
_cell_formula_units_Z   1
loop_
 _symmetry_equiv_pos_site_id
 _symmetry_equiv_pos_as_xyz
  1  'x, y, z'
loop_
 _atom_site_type_symbol
 _atom_site_label
 _atom_site_symmetry_multiplicity
 _atom_site_fract_x
 _atom_site_fract_y
 _atom_site_fract_z
 _atom_site_occupancy
  Dy  Dy0  1  0.833558  0.833558  0.833558  1
  Ho  Ho1  1  0.166444  0.166444  0.166444  1
  I  I2  1  0.576305  0.221798  0.935938  1
  I  I3  1  0.779478  0.065277  0.421203  1
  I  I4  1  0.065277  0.421203  0.779478  1
  I  I5  1  0.421203  0.779478  0.065277  1
  I  I6  1  0.935938  0.576305  0.221798  1
  I  I7  1  0.221798  0.935938  0.576305  1
