# generated using pymatgen
data_Dy2Tm4ScCo17P12
_symmetry_space_group_name_H-M   'P 1'
_cell_length_a   3.69493300
_cell_length_b   10.54710500
_cell_length_c   12.22658900
_cell_angle_alpha   90.00000000
_cell_angle_beta   90.00000000
_cell_angle_gamma   90.00000000
_symmetry_Int_Tables_number   1
_chemical_formula_structural   Dy2Tm4ScCo17P12
_chemical_formula_sum   'Dy2 Tm4 Sc1 Co17 P12'
_cell_volume   476.48052092
_cell_formula_units_Z   1
loop_
 _symmetry_equiv_pos_site_id
 _symmetry_equiv_pos_as_xyz
  1  'x, y, z'
loop_
 _atom_site_type_symbol
 _atom_site_label
 _atom_site_symmetry_multiplicity
 _atom_site_fract_x
 _atom_site_fract_y
 _atom_site_fract_z
 _atom_site_occupancy
  Dy  Dy0  1  0.000000  0.500000  0.528278  1
  Dy  Dy1  1  0.500000  0.000000  0.477178  1
  Tm  Tm2  1  0.500000  0.821885  0.207350  1
  Tm  Tm3  1  0.500000  0.178115  0.207350  1
  Tm  Tm4  1  0.000000  0.682228  0.795851  1
  Tm  Tm5  1  0.000000  0.317772  0.795851  1
  Sc  Sc6  1  0.500000  0.500000  0.152603  1
  Co  Co7  1  0.000000  0.000000  0.837035  1
  Co  Co8  1  0.500000  0.500000  0.704448  1
  Co  Co9  1  0.000000  0.000000  0.294940  1
  Co  Co10  1  0.000000  0.500000  0.984247  1
  Co  Co11  1  0.500000  0.000000  0.013400  1
  Co  Co12  1  0.500000  0.326566  0.989493  1
  Co  Co13  1  0.500000  0.673434  0.989493  1
  Co  Co14  1  0.000000  0.162335  0.001502  1
  Co  Co15  1  0.000000  0.837665  0.001502  1
  Co  Co16  1  0.500000  0.294582  0.434065  1
  Co  Co17  1  0.500000  0.705418  0.434065  1
  Co  Co18  1  0.000000  0.202023  0.570905  1
  Co  Co19  1  0.000000  0.797977  0.570905  1
  Co  Co20  1  0.500000  0.879827  0.708218  1
  Co  Co21  1  0.500000  0.120173  0.708218  1
  Co  Co22  1  0.000000  0.623288  0.295560  1
  Co  Co23  1  0.000000  0.376712  0.295560  1
  P  P24  1  0.500000  0.500000  0.882641  1
  P  P25  1  0.000000  0.000000  0.116553  1
  P  P26  1  0.500000  0.500000  0.358212  1
  P  P27  1  0.000000  0.000000  0.654549  1
  P  P28  1  0.500000  0.309488  0.618853  1
  P  P29  1  0.500000  0.690512  0.618853  1
  P  P30  1  0.000000  0.188504  0.385294  1
  P  P31  1  0.000000  0.811496  0.385294  1
  P  P32  1  0.500000  0.851155  0.888415  1
  P  P33  1  0.500000  0.148845  0.888415  1
  P  P34  1  0.000000  0.664129  0.102451  1
  P  P35  1  0.000000  0.335871  0.102451  1
