# generated using pymatgen
data_Lu12AsOs3
_symmetry_space_group_name_H-M   'P 1'
_cell_length_a   7.35185664
_cell_length_b   8.86742100
_cell_length_c   6.18116576
_cell_angle_alpha   90.00000000
_cell_angle_beta   90.56502279
_cell_angle_gamma   90.00000000
_symmetry_Int_Tables_number   1
_chemical_formula_structural   Lu12AsOs3
_chemical_formula_sum   'Lu12 As1 Os3'
_cell_volume   402.94301337
_cell_formula_units_Z   1
loop_
 _symmetry_equiv_pos_site_id
 _symmetry_equiv_pos_as_xyz
  1  'x, y, z'
loop_
 _atom_site_type_symbol
 _atom_site_label
 _atom_site_symmetry_multiplicity
 _atom_site_fract_x
 _atom_site_fract_y
 _atom_site_fract_z
 _atom_site_occupancy
  Lu  Lu0  1  0.665557  0.056139  0.346073  1
  Lu  Lu1  1  0.189877  0.441834  0.161787  1
  Lu  Lu2  1  0.323791  0.562918  0.666601  1
  Lu  Lu3  1  0.821887  0.934197  0.828046  1
  Lu  Lu4  1  0.323791  0.937082  0.666601  1
  Lu  Lu5  1  0.821887  0.565803  0.828046  1
  Lu  Lu6  1  0.665557  0.443861  0.346073  1
  Lu  Lu7  1  0.189877  0.058166  0.161787  1
  Lu  Lu8  1  0.526579  0.250000  0.870832  1
  Lu  Lu9  1  0.043115  0.250000  0.619819  1
  Lu  Lu10  1  0.464485  0.750000  0.120410  1
  Lu  Lu11  1  0.963549  0.750000  0.369735  1
  As  As12  1  0.881523  0.250000  0.061493  1
  Os  Os13  1  0.381406  0.250000  0.457400  1
  Os  Os14  1  0.118097  0.750000  0.960927  1
  Os  Os15  1  0.619025  0.750000  0.534370  1
