# generated using pymatgen
data_Cs3TbBiI9
_symmetry_space_group_name_H-M   'P 1'
_cell_length_a   8.63612147
_cell_length_b   8.63618748
_cell_length_c   21.96743715
_cell_angle_alpha   90.92327047
_cell_angle_beta   89.07684390
_cell_angle_gamma   60.08421275
_symmetry_Int_Tables_number   1
_chemical_formula_structural   Cs3TbBiI9
_chemical_formula_sum   'Cs6 Tb2 Bi2 I18'
_cell_volume   1419.36371964
_cell_formula_units_Z   2
loop_
 _symmetry_equiv_pos_site_id
 _symmetry_equiv_pos_as_xyz
  1  'x, y, z'
loop_
 _atom_site_type_symbol
 _atom_site_label
 _atom_site_symmetry_multiplicity
 _atom_site_fract_x
 _atom_site_fract_y
 _atom_site_fract_z
 _atom_site_occupancy
  Cs  Cs0  1  0.326222  0.334937  0.071525  1
  Cs  Cs1  1  0.334935  0.326228  0.428475  1
  Cs  Cs2  1  0.676408  0.662100  0.925594  1
  Cs  Cs3  1  0.662096  0.676409  0.574407  1
  Cs  Cs4  1  0.003680  0.003676  0.749999  1
  Cs  Cs5  1  0.995926  0.995929  0.250001  1
  Tb  Tb6  1  0.652696  0.674818  0.155726  1
  Tb  Tb7  1  0.674816  0.652698  0.344274  1
  Bi  Bi8  1  0.347399  0.325271  0.843902  1
  Bi  Bi9  1  0.325270  0.347401  0.656098  1
  I  I10  1  0.504681  0.999452  0.741952  1
  I  I11  1  0.999448  0.504685  0.758048  1
  I  I12  1  0.503098  0.985117  0.257420  1
  I  I13  1  0.985120  0.503095  0.242581  1
  I  I14  1  0.191410  0.145741  0.917952  1
  I  I15  1  0.145740  0.191410  0.582049  1
  I  I16  1  0.810217  0.855197  0.086293  1
  I  I17  1  0.855197  0.810219  0.413707  1
  I  I18  1  0.504841  0.504842  0.750000  1
  I  I19  1  0.502811  0.502809  0.250001  1
  I  I20  1  0.651396  0.186242  0.574480  1
  I  I21  1  0.186243  0.651396  0.925520  1
  I  I22  1  0.346176  0.815698  0.421447  1
  I  I23  1  0.815693  0.346180  0.078554  1
  I  I24  1  0.690791  0.150709  0.910229  1
  I  I25  1  0.150716  0.690779  0.589768  1
  I  I26  1  0.306966  0.849997  0.094164  1
  I  I27  1  0.850000  0.306968  0.405834  1
