# generated using pymatgen
data_Nb12Al8VNi3C4
_symmetry_space_group_name_H-M   'P 1'
_cell_length_a   8.27958480
_cell_length_b   8.27958479
_cell_length_c   8.31981552
_cell_angle_alpha   60.15983017
_cell_angle_beta   60.15983133
_cell_angle_gamma   60.00000438
_symmetry_Int_Tables_number   1
_chemical_formula_structural   Nb12Al8VNi3C4
_chemical_formula_sum   'Nb12 Al8 V1 Ni3 C4'
_cell_volume   404.26002840
_cell_formula_units_Z   1
loop_
 _symmetry_equiv_pos_site_id
 _symmetry_equiv_pos_as_xyz
  1  'x, y, z'
loop_
 _atom_site_type_symbol
 _atom_site_label
 _atom_site_symmetry_multiplicity
 _atom_site_fract_x
 _atom_site_fract_y
 _atom_site_fract_z
 _atom_site_occupancy
  Nb  Nb0  1  0.807820  0.807820  0.182620  1
  Nb  Nb1  1  0.185942  0.185942  0.815213  1
  Nb  Nb2  1  0.812902  0.185942  0.815213  1
  Nb  Nb3  1  0.201740  0.807820  0.182620  1
  Nb  Nb4  1  0.185942  0.812902  0.815213  1
  Nb  Nb5  1  0.807820  0.201740  0.182620  1
  Nb  Nb6  1  0.442180  0.442180  0.067380  1
  Nb  Nb7  1  0.064058  0.064058  0.434787  1
  Nb  Nb8  1  0.437098  0.064058  0.434787  1
  Nb  Nb9  1  0.048260  0.442180  0.067380  1
  Nb  Nb10  1  0.064058  0.437098  0.434787  1
  Nb  Nb11  1  0.442180  0.048260  0.067380  1
  Al  Al12  1  0.746202  0.413215  0.427368  1
  Al  Al13  1  0.413215  0.746202  0.427368  1
  Al  Al14  1  0.414718  0.414718  0.755847  1
  Al  Al15  1  0.413215  0.413215  0.427368  1
  Al  Al16  1  0.503798  0.836785  0.822632  1
  Al  Al17  1  0.836785  0.503798  0.822632  1
  Al  Al18  1  0.835282  0.835282  0.494153  1
  Al  Al19  1  0.836785  0.836785  0.822632  1
  V  V20  1  0.625000  0.625000  0.125000  1
  Ni  Ni21  1  0.125000  0.625000  0.625000  1
  Ni  Ni22  1  0.625000  0.125000  0.625000  1
  Ni  Ni23  1  0.625000  0.625000  0.625000  1
  C  C24  1  0.625000  0.125000  0.125000  1
  C  C25  1  0.125000  0.625000  0.125000  1
  C  C26  1  0.125000  0.125000  0.625000  1
  C  C27  1  0.125000  0.125000  0.125000  1
