# generated using pymatgen
data_Er2Ti2Fe10P7
_symmetry_space_group_name_H-M   'P 1'
_cell_length_a   9.16306386
_cell_length_b   9.05712704
_cell_length_c   3.63372900
_cell_angle_alpha   90.00000000
_cell_angle_beta   90.00000000
_cell_angle_gamma   119.13275037
_symmetry_Int_Tables_number   1
_chemical_formula_structural   Er2Ti2Fe10P7
_chemical_formula_sum   'Er2 Ti2 Fe10 P7'
_cell_volume   263.41692686
_cell_formula_units_Z   1
loop_
 _symmetry_equiv_pos_site_id
 _symmetry_equiv_pos_as_xyz
  1  'x, y, z'
loop_
 _atom_site_type_symbol
 _atom_site_label
 _atom_site_symmetry_multiplicity
 _atom_site_fract_x
 _atom_site_fract_y
 _atom_site_fract_z
 _atom_site_occupancy
  Er  Er0  1  0.325208  0.657339  0.000000  1
  Er  Er1  1  0.003800  0.006838  0.500000  1
  Ti  Ti2  1  0.776862  0.555145  0.500000  1
  Ti  Ti3  1  0.449385  0.217797  0.500000  1
  Fe  Fe4  1  0.035731  0.279943  0.000000  1
  Fe  Fe5  1  0.717365  0.767575  0.000000  1
  Fe  Fe6  1  0.240418  0.958343  0.000000  1
  Fe  Fe7  1  0.548378  0.048223  0.000000  1
  Fe  Fe8  1  0.943565  0.490117  0.000000  1
  Fe  Fe9  1  0.511656  0.454005  0.000000  1
  Fe  Fe10  1  0.622065  0.896142  0.500000  1
  Fe  Fe11  1  0.103158  0.722786  0.500000  1
  Fe  Fe12  1  0.275048  0.379994  0.500000  1
  Fe  Fe13  1  0.787440  0.239292  0.500000  1
  P  P14  1  0.790272  0.052231  0.000000  1
  P  P15  1  0.972255  0.752139  0.000000  1
  P  P16  1  0.250873  0.225076  0.000000  1
  P  P17  1  0.377070  0.916284  0.500000  1
  P  P18  1  0.064874  0.444524  0.500000  1
  P  P19  1  0.531734  0.608246  0.500000  1
  P  P20  1  0.672842  0.327962  0.000000  1
