# generated using pymatgen
data_Sm6HoFeBr12
_symmetry_space_group_name_H-M   'P 1'
_cell_length_a   9.37839173
_cell_length_b   9.37839128
_cell_length_c   9.37839205
_cell_angle_alpha   107.09930503
_cell_angle_beta   107.09930179
_cell_angle_gamma   107.09930826
_symmetry_Int_Tables_number   1
_chemical_formula_structural   Sm6HoFeBr12
_chemical_formula_sum   'Sm6 Ho1 Fe1 Br12'
_cell_volume   685.08954408
_cell_formula_units_Z   1
loop_
 _symmetry_equiv_pos_site_id
 _symmetry_equiv_pos_as_xyz
  1  'x, y, z'
loop_
 _atom_site_type_symbol
 _atom_site_label
 _atom_site_symmetry_multiplicity
 _atom_site_fract_x
 _atom_site_fract_y
 _atom_site_fract_z
 _atom_site_occupancy
  Sm  Sm0  1  0.804907  0.521863  0.597329  1
  Sm  Sm1  1  0.402671  0.195093  0.478137  1
  Sm  Sm2  1  0.478137  0.402671  0.195093  1
  Sm  Sm3  1  0.597329  0.804907  0.521863  1
  Sm  Sm4  1  0.521863  0.597329  0.804907  1
  Sm  Sm5  1  0.195093  0.478137  0.402671  1
  Ho  Ho6  1  0.000000  0.000000  0.000000  1
  Fe  Fe7  1  0.500000  0.500000  0.500000  1
  Br  Br8  1  0.673442  0.964717  0.888781  1
  Br  Br9  1  0.724859  0.182320  0.571280  1
  Br  Br10  1  0.888781  0.673442  0.964717  1
  Br  Br11  1  0.275141  0.817680  0.428720  1
  Br  Br12  1  0.182320  0.571280  0.724859  1
  Br  Br13  1  0.035283  0.111219  0.326558  1
  Br  Br14  1  0.571280  0.724859  0.182320  1
  Br  Br15  1  0.111219  0.326558  0.035283  1
  Br  Br16  1  0.817680  0.428720  0.275141  1
  Br  Br17  1  0.428720  0.275141  0.817680  1
  Br  Br18  1  0.964717  0.888781  0.673442  1
  Br  Br19  1  0.326558  0.035283  0.111219  1
