# generated using pymatgen
data_LiHo8Sc11Si15Os
_symmetry_space_group_name_H-M   'P 1'
_cell_length_a   7.02991911
_cell_length_b   7.41753316
_cell_length_c   13.95597400
_cell_angle_alpha   90.00000000
_cell_angle_beta   90.00000000
_cell_angle_gamma   90.03455937
_symmetry_Int_Tables_number   1
_chemical_formula_structural   LiHo8Sc11Si15Os
_chemical_formula_sum   'Li1 Ho8 Sc11 Si15 Os1'
_cell_volume   727.72936030
_cell_formula_units_Z   1
loop_
 _symmetry_equiv_pos_site_id
 _symmetry_equiv_pos_as_xyz
  1  'x, y, z'
loop_
 _atom_site_type_symbol
 _atom_site_label
 _atom_site_symmetry_multiplicity
 _atom_site_fract_x
 _atom_site_fract_y
 _atom_site_fract_z
 _atom_site_occupancy
  Li  Li0  1  0.839802  0.494995  0.250000  1
  Ho  Ho1  1  0.010191  0.184623  0.097991  1
  Ho  Ho2  1  0.990565  0.826744  0.904024  1
  Ho  Ho3  1  0.489183  0.676088  0.905002  1
  Ho  Ho4  1  0.990565  0.826744  0.595976  1
  Ho  Ho5  1  0.515415  0.325241  0.097405  1
  Ho  Ho6  1  0.010191  0.184623  0.402009  1
  Ho  Ho7  1  0.515415  0.325241  0.402595  1
  Ho  Ho8  1  0.489183  0.676088  0.594998  1
  Sc  Sc9  1  0.156547  0.497373  0.750000  1
  Sc  Sc10  1  0.340473  0.005368  0.250000  1
  Sc  Sc11  1  0.669448  0.998533  0.750000  1
  Sc  Sc12  1  0.317333  0.171053  0.627152  1
  Sc  Sc13  1  0.673977  0.820388  0.373189  1
  Sc  Sc14  1  0.165577  0.675791  0.373258  1
  Sc  Sc15  1  0.673977  0.820388  0.126811  1
  Sc  Sc16  1  0.836400  0.318215  0.627475  1
  Sc  Sc17  1  0.317333  0.171053  0.872848  1
  Sc  Sc18  1  0.836400  0.318215  0.872525  1
  Sc  Sc19  1  0.165577  0.675791  0.126742  1
  Si  Si20  1  0.969330  0.896575  0.250000  1
  Si  Si21  1  0.466475  0.612291  0.250000  1
  Si  Si22  1  0.528833  0.388534  0.750000  1
  Si  Si23  1  0.285845  0.865366  0.750000  1
  Si  Si24  1  0.713723  0.121059  0.250000  1
  Si  Si25  1  0.221504  0.372751  0.250000  1
  Si  Si26  1  0.778904  0.627454  0.750000  1
  Si  Si27  1  0.160131  0.468765  0.536671  1
  Si  Si28  1  0.842556  0.537788  0.465331  1
  Si  Si29  1  0.343225  0.966744  0.459045  1
  Si  Si30  1  0.842556  0.537788  0.034669  1
  Si  Si31  1  0.655048  0.033755  0.537753  1
  Si  Si32  1  0.160131  0.468765  0.963329  1
  Si  Si33  1  0.655048  0.033755  0.962247  1
  Si  Si34  1  0.343225  0.966744  0.040955  1
  Os  Os35  1  0.029916  0.109307  0.750000  1
