# generated using pymatgen
data_Pr2Tm18Bi7Sb5
_symmetry_space_group_name_H-M   'P 1'
_cell_length_a   8.09889365
_cell_length_b   9.37085283
_cell_length_c   11.80919300
_cell_angle_alpha   90.06180901
_cell_angle_beta   89.92124643
_cell_angle_gamma   89.94468985
_symmetry_Int_Tables_number   1
_chemical_formula_structural   Pr2Tm18Bi7Sb5
_chemical_formula_sum   'Pr2 Tm18 Bi7 Sb5'
_cell_volume   896.23968026
_cell_formula_units_Z   1
loop_
 _symmetry_equiv_pos_site_id
 _symmetry_equiv_pos_as_xyz
  1  'x, y, z'
loop_
 _atom_site_type_symbol
 _atom_site_label
 _atom_site_symmetry_multiplicity
 _atom_site_fract_x
 _atom_site_fract_y
 _atom_site_fract_z
 _atom_site_occupancy
  Pr  Pr0  1  0.681891  0.750134  0.780335  1
  Pr  Pr1  1  0.182049  0.749941  0.719707  1
  Tm  Tm2  1  0.357035  0.754053  0.218052  1
  Tm  Tm3  1  0.848161  0.753545  0.283870  1
  Tm  Tm4  1  0.648374  0.250296  0.785715  1
  Tm  Tm5  1  0.148483  0.249997  0.713773  1
  Tm  Tm6  1  0.688978  0.564393  0.059716  1
  Tm  Tm7  1  0.190922  0.937159  0.439812  1
  Tm  Tm8  1  0.312181  0.064192  0.942371  1
  Tm  Tm9  1  0.811207  0.435400  0.557107  1
  Tm  Tm10  1  0.312078  0.435580  0.942446  1
  Tm  Tm11  1  0.810778  0.063407  0.555437  1
  Tm  Tm12  1  0.686688  0.936740  0.062130  1
  Tm  Tm13  1  0.190254  0.564021  0.439799  1
  Tm  Tm14  1  0.474401  0.247433  0.484976  1
  Tm  Tm15  1  0.974002  0.250026  0.014130  1
  Tm  Tm16  1  0.526820  0.752584  0.508057  1
  Tm  Tm17  1  0.025060  0.750358  0.990330  1
  Tm  Tm18  1  0.318003  0.246639  0.217596  1
  Tm  Tm19  1  0.812170  0.245295  0.283854  1
  Bi  Bi20  1  0.065817  0.503705  0.176239  1
  Bi  Bi21  1  0.435612  0.489483  0.670688  1
  Bi  Bi22  1  0.934930  0.010486  0.827935  1
  Bi  Bi23  1  0.435371  0.010451  0.672250  1
  Bi  Bi24  1  0.935178  0.489487  0.827966  1
  Bi  Bi25  1  0.565802  0.503039  0.324577  1
  Bi  Bi26  1  0.066098  0.996304  0.175044  1
  Sb  Sb27  1  0.402872  0.749756  0.964910  1
  Sb  Sb28  1  0.904609  0.749404  0.535183  1
  Sb  Sb29  1  0.594801  0.250398  0.041762  1
  Sb  Sb30  1  0.094043  0.250318  0.457484  1
  Sb  Sb31  1  0.565327  0.995977  0.326749  1
