# generated using pymatgen
data_Yb12ZnSi8Pt7
_symmetry_space_group_name_H-M   'P 1'
_cell_length_a   5.62722406
_cell_length_b   8.00377337
_cell_length_c   13.13570800
_cell_angle_alpha   89.94387660
_cell_angle_beta   89.87191171
_cell_angle_gamma   90.07845427
_symmetry_Int_Tables_number   1
_chemical_formula_structural   Yb12ZnSi8Pt7
_chemical_formula_sum   'Yb12 Zn1 Si8 Pt7'
_cell_volume   591.61717653
_cell_formula_units_Z   1
loop_
 _symmetry_equiv_pos_site_id
 _symmetry_equiv_pos_as_xyz
  1  'x, y, z'
loop_
 _atom_site_type_symbol
 _atom_site_label
 _atom_site_symmetry_multiplicity
 _atom_site_fract_x
 _atom_site_fract_y
 _atom_site_fract_z
 _atom_site_occupancy
  Yb  Yb0  1  0.643368  0.240939  0.251638  1
  Yb  Yb1  1  0.355948  0.757810  0.750413  1
  Yb  Yb2  1  0.354946  0.750058  0.251210  1
  Yb  Yb3  1  0.646601  0.253227  0.751064  1
  Yb  Yb4  1  0.126226  0.377759  0.102304  1
  Yb  Yb5  1  0.862799  0.613302  0.891906  1
  Yb  Yb6  1  0.863904  0.609654  0.604583  1
  Yb  Yb7  1  0.862190  0.885233  0.396912  1
  Yb  Yb8  1  0.136869  0.389706  0.394756  1
  Yb  Yb9  1  0.137904  0.113503  0.603065  1
  Yb  Yb10  1  0.137684  0.111448  0.897170  1
  Yb  Yb11  1  0.867955  0.891638  0.101909  1
  Zn  Zn12  1  0.628362  0.535486  0.088549  1
  Si  Si13  1  0.155377  0.098936  0.251609  1
  Si  Si14  1  0.846047  0.904962  0.748860  1
  Si  Si15  1  0.840640  0.596415  0.249896  1
  Si  Si16  1  0.163536  0.404063  0.751609  1
  Si  Si17  1  0.620352  0.245907  0.000390  1
  Si  Si18  1  0.375970  0.755364  0.996791  1
  Si  Si19  1  0.392686  0.749146  0.500904  1
  Si  Si20  1  0.607429  0.250392  0.500732  1
  Pt  Pt21  1  0.373128  0.026562  0.092514  1
  Pt  Pt22  1  0.626697  0.971188  0.906985  1
  Pt  Pt23  1  0.632780  0.973161  0.589976  1
  Pt  Pt24  1  0.634209  0.527346  0.410999  1
  Pt  Pt25  1  0.369133  0.026031  0.409993  1
  Pt  Pt26  1  0.363151  0.471804  0.590594  1
  Pt  Pt27  1  0.374109  0.468957  0.912670  1
