# generated using pymatgen
data_Yb(MoC)4
_symmetry_space_group_name_H-M   'P 1'
_cell_length_a   6.14904459
_cell_length_b   6.14904513
_cell_length_c   6.14904510
_cell_angle_alpha   94.09515127
_cell_angle_beta   94.09514996
_cell_angle_gamma   149.00074627
_symmetry_Int_Tables_number   1
_chemical_formula_structural   Yb(MoC)4
_chemical_formula_sum   'Yb1 Mo4 C4'
_cell_volume   115.38894714
_cell_formula_units_Z   1
loop_
 _symmetry_equiv_pos_site_id
 _symmetry_equiv_pos_as_xyz
  1  'x, y, z'
loop_
 _atom_site_type_symbol
 _atom_site_label
 _atom_site_symmetry_multiplicity
 _atom_site_fract_x
 _atom_site_fract_y
 _atom_site_fract_z
 _atom_site_occupancy
  Yb  Yb0  1  0.000000  0.000000  0.000000  1
  Mo  Mo1  1  0.818332  0.371278  0.189609  1
  Mo  Mo2  1  0.628723  0.818332  0.447054  1
  Mo  Mo3  1  0.371278  0.181669  0.552947  1
  Mo  Mo4  1  0.181669  0.628723  0.810391  1
  C  C5  1  0.400472  0.734944  0.135415  1
  C  C6  1  0.734944  0.599529  0.334472  1
  C  C7  1  0.265057  0.400472  0.665529  1
  C  C8  1  0.599529  0.265057  0.864586  1
