# generated using pymatgen
data_Er12Mn(Si4Ir)3
_symmetry_space_group_name_H-M   'P 1'
_cell_length_a   4.19783700
_cell_length_b   10.60745416
_cell_length_c   12.22035615
_cell_angle_alpha   89.95826606
_cell_angle_beta   90.00000000
_cell_angle_gamma   90.00000000
_symmetry_Int_Tables_number   1
_chemical_formula_structural   Er12Mn(Si4Ir)3
_chemical_formula_sum   'Er12 Mn1 Si12 Ir3'
_cell_volume   544.15231696
_cell_formula_units_Z   1
loop_
 _symmetry_equiv_pos_site_id
 _symmetry_equiv_pos_as_xyz
  1  'x, y, z'
loop_
 _atom_site_type_symbol
 _atom_site_label
 _atom_site_symmetry_multiplicity
 _atom_site_fract_x
 _atom_site_fract_y
 _atom_site_fract_z
 _atom_site_occupancy
  Er  Er0  1  0.250000  0.879590  0.021066  1
  Er  Er1  1  0.250000  0.620640  0.521901  1
  Er  Er2  1  0.750000  0.119917  0.979538  1
  Er  Er3  1  0.750000  0.378998  0.478332  1
  Er  Er4  1  0.250000  0.920559  0.603128  1
  Er  Er5  1  0.250000  0.580473  0.104552  1
  Er  Er6  1  0.750000  0.078980  0.395061  1
  Er  Er7  1  0.750000  0.420837  0.898175  1
  Er  Er8  1  0.250000  0.661408  0.801016  1
  Er  Er9  1  0.250000  0.839778  0.300883  1
  Er  Er10  1  0.750000  0.340986  0.198632  1
  Er  Er11  1  0.750000  0.160414  0.699037  1
  Mn  Mn12  1  0.250000  0.387335  0.680463  1
  Si  Si13  1  0.250000  0.011381  0.821173  1
  Si  Si14  1  0.250000  0.488043  0.322356  1
  Si  Si15  1  0.750000  0.988140  0.178280  1
  Si  Si16  1  0.750000  0.514768  0.678321  1
  Si  Si17  1  0.250000  0.247651  0.842445  1
  Si  Si18  1  0.250000  0.252245  0.340482  1
  Si  Si19  1  0.750000  0.753452  0.158711  1
  Si  Si20  1  0.750000  0.749100  0.658762  1
  Si  Si21  1  0.250000  0.196193  0.540450  1
  Si  Si22  1  0.250000  0.298694  0.043943  1
  Si  Si23  1  0.750000  0.800179  0.456511  1
  Si  Si24  1  0.750000  0.700467  0.957513  1
  Ir  Ir25  1  0.250000  0.109504  0.180240  1
  Ir  Ir26  1  0.750000  0.610626  0.318856  1
  Ir  Ir27  1  0.750000  0.889644  0.820170  1
