# generated using pymatgen
data_ErMg2Pa3Rh4
_symmetry_space_group_name_H-M   'P 1'
_cell_length_a   7.66292383
_cell_length_b   7.66292330
_cell_length_c   3.62732300
_cell_angle_alpha   90.00000000
_cell_angle_beta   90.00000000
_cell_angle_gamma   92.11772800
_symmetry_Int_Tables_number   1
_chemical_formula_structural   ErMg2Pa3Rh4
_chemical_formula_sum   'Er1 Mg2 Pa3 Rh4'
_cell_volume   212.85237300
_cell_formula_units_Z   1
loop_
 _symmetry_equiv_pos_site_id
 _symmetry_equiv_pos_as_xyz
  1  'x, y, z'
loop_
 _atom_site_type_symbol
 _atom_site_label
 _atom_site_symmetry_multiplicity
 _atom_site_fract_x
 _atom_site_fract_y
 _atom_site_fract_z
 _atom_site_occupancy
  Er  Er0  1  0.833712  0.666288  0.500000  1
  Mg  Mg1  1  0.998859  0.991779  0.000000  1
  Mg  Mg2  1  0.508221  0.501141  0.000000  1
  Pa  Pa3  1  0.669715  0.166365  0.500000  1
  Pa  Pa4  1  0.333635  0.830285  0.500000  1
  Pa  Pa5  1  0.166854  0.333146  0.500000  1
  Rh  Rh6  1  0.149929  0.631772  0.000000  1
  Rh  Rh7  1  0.868228  0.350071  0.000000  1
  Rh  Rh8  1  0.616834  0.883166  0.000000  1
  Rh  Rh9  1  0.354015  0.145985  0.000000  1
