# generated using pymatgen
data_HoTm5Al14(Si5Os4)2
_symmetry_space_group_name_H-M   'P 1'
_cell_length_a   8.67729910
_cell_length_b   8.68923338
_cell_length_c   9.28399500
_cell_angle_alpha   90.00000000
_cell_angle_beta   90.00000000
_cell_angle_gamma   119.96622858
_symmetry_Int_Tables_number   1
_chemical_formula_structural   HoTm5Al14(Si5Os4)2
_chemical_formula_sum   'Ho1 Tm5 Al14 Si10 Os8'
_cell_volume   606.42800673
_cell_formula_units_Z   1
loop_
 _symmetry_equiv_pos_site_id
 _symmetry_equiv_pos_as_xyz
  1  'x, y, z'
loop_
 _atom_site_type_symbol
 _atom_site_label
 _atom_site_symmetry_multiplicity
 _atom_site_fract_x
 _atom_site_fract_y
 _atom_site_fract_z
 _atom_site_occupancy
  Ho  Ho0  1  0.809824  0.192855  0.750000  1
  Tm  Tm1  1  0.191934  0.804269  0.250000  1
  Tm  Tm2  1  0.386921  0.194769  0.750000  1
  Tm  Tm3  1  0.611970  0.804228  0.250000  1
  Tm  Tm4  1  0.805514  0.610977  0.750000  1
  Tm  Tm5  1  0.194932  0.390126  0.250000  1
  Al  Al6  1  0.834880  0.163328  0.419921  1
  Al  Al7  1  0.164651  0.834269  0.580121  1
  Al  Al8  1  0.327839  0.163106  0.420322  1
  Al  Al9  1  0.164651  0.834269  0.919879  1
  Al  Al10  1  0.668332  0.833564  0.579629  1
  Al  Al11  1  0.834880  0.163328  0.080079  1
  Al  Al12  1  0.836216  0.672512  0.420174  1
  Al  Al13  1  0.668332  0.833564  0.920371  1
  Al  Al14  1  0.166405  0.332605  0.578492  1
  Al  Al15  1  0.327839  0.163106  0.079678  1
  Al  Al16  1  0.166405  0.332605  0.921508  1
  Al  Al17  1  0.836216  0.672512  0.079826  1
  Al  Al18  1  0.564014  0.128826  0.250000  1
  Al  Al19  1  0.000497  0.001229  0.250000  1
  Si  Si20  1  0.665468  0.330921  0.958024  1
  Si  Si21  1  0.334010  0.668432  0.043305  1
  Si  Si22  1  0.334010  0.668432  0.456695  1
  Si  Si23  1  0.665468  0.330921  0.541976  1
  Si  Si24  1  0.439221  0.562421  0.750000  1
  Si  Si25  1  0.563778  0.438884  0.250000  1
  Si  Si26  1  0.124622  0.563717  0.750000  1
  Si  Si27  1  0.875177  0.439276  0.250000  1
  Si  Si28  1  0.436278  0.874031  0.750000  1
  Si  Si29  1  0.001477  0.994782  0.750000  1
  Os  Os30  1  0.500122  0.500661  0.999712  1
  Os  Os31  1  0.000891  0.501318  0.999883  1
  Os  Os32  1  0.500122  0.500661  0.500288  1
  Os  Os33  1  0.498590  0.998295  0.993811  1
  Os  Os34  1  0.000891  0.501318  0.500117  1
  Os  Os35  1  0.498590  0.998295  0.506189  1
  Os  Os36  1  0.999518  0.000795  0.992569  1
  Os  Os37  1  0.999518  0.000795  0.507431  1
