# generated using pymatgen
data_LaHo4(CoO6)2
_symmetry_space_group_name_H-M   'P 1'
_cell_length_a   6.80498676
_cell_length_b   6.80498635
_cell_length_c   7.26624414
_cell_angle_alpha   74.67718192
_cell_angle_beta   74.67718159
_cell_angle_gamma   49.96243845
_symmetry_Int_Tables_number   1
_chemical_formula_structural   LaHo4(CoO6)2
_chemical_formula_sum   'La1 Ho4 Co2 O12'
_cell_volume   246.42926434
_cell_formula_units_Z   1
loop_
 _symmetry_equiv_pos_site_id
 _symmetry_equiv_pos_as_xyz
  1  'x, y, z'
loop_
 _atom_site_type_symbol
 _atom_site_label
 _atom_site_symmetry_multiplicity
 _atom_site_fract_x
 _atom_site_fract_y
 _atom_site_fract_z
 _atom_site_occupancy
  La  La0  1  0.000000  0.000000  0.500000  1
  Ho  Ho1  1  0.307338  0.307338  0.354934  1
  Ho  Ho2  1  0.692662  0.692662  0.645066  1
  Ho  Ho3  1  0.305154  0.305154  0.838476  1
  Ho  Ho4  1  0.694846  0.694846  0.161524  1
  Co  Co5  1  0.754419  0.245581  0.000000  1
  Co  Co6  1  0.245581  0.754419  0.000000  1
  O  O7  1  0.898799  0.416912  0.923608  1
  O  O8  1  0.416912  0.898799  0.923608  1
  O  O9  1  0.101201  0.583088  0.076392  1
  O  O10  1  0.583088  0.101201  0.076392  1
  O  O11  1  0.094331  0.584837  0.583240  1
  O  O12  1  0.584837  0.094331  0.583240  1
  O  O13  1  0.905669  0.415163  0.416760  1
  O  O14  1  0.415163  0.905669  0.416760  1
  O  O15  1  0.000913  0.000913  0.834822  1
  O  O16  1  0.999087  0.999087  0.165178  1
  O  O17  1  0.499607  0.499607  0.823778  1
  O  O18  1  0.500393  0.500393  0.176222  1
