# generated using pymatgen
data_Mn6In5SnRh12
_symmetry_space_group_name_H-M   'P 1'
_cell_length_a   4.47352800
_cell_length_b   6.27960600
_cell_length_c   13.40082500
_cell_angle_alpha   89.99997805
_cell_angle_beta   90.00081754
_cell_angle_gamma   89.99996894
_symmetry_Int_Tables_number   1
_chemical_formula_structural   Mn6In5SnRh12
_chemical_formula_sum   'Mn6 In5 Sn1 Rh12'
_cell_volume   376.45588609
_cell_formula_units_Z   1
loop_
 _symmetry_equiv_pos_site_id
 _symmetry_equiv_pos_as_xyz
  1  'x, y, z'
loop_
 _atom_site_type_symbol
 _atom_site_label
 _atom_site_symmetry_multiplicity
 _atom_site_fract_x
 _atom_site_fract_y
 _atom_site_fract_z
 _atom_site_occupancy
  Mn  Mn0  1  0.000000  0.000000  0.000000  1
  Mn  Mn1  1  0.500019  0.500001  0.168364  1
  Mn  Mn2  1  0.000012  0.000000  0.333818  1
  Mn  Mn3  1  0.500002  0.500001  0.500000  1
  Mn  Mn4  1  0.999988  0.000000  0.666178  1
  Mn  Mn5  1  0.499980  0.500001  0.831647  1
  In  In6  1  0.499982  0.000000  0.167382  1
  In  In7  1  0.000069  0.500001  0.333996  1
  In  In8  1  0.499999  0.000000  0.499996  1
  In  In9  1  0.999935  0.500001  0.666005  1
  In  In10  1  0.500017  0.000000  0.832618  1
  Sn  Sn11  1  0.000003  0.500001  0.999999  1
  Rh  Rh12  1  0.499999  0.253651  0.999999  1
  Rh  Rh13  1  0.500000  0.746350  0.999999  1
  Rh  Rh14  1  0.000017  0.251323  0.165051  1
  Rh  Rh15  1  0.000016  0.748675  0.165051  1
  Rh  Rh16  1  0.500017  0.250844  0.332984  1
  Rh  Rh17  1  0.500017  0.749155  0.332984  1
  Rh  Rh18  1  0.000000  0.249072  0.500001  1
  Rh  Rh19  1  0.000000  0.750928  0.500001  1
  Rh  Rh20  1  0.499984  0.250843  0.667015  1
  Rh  Rh21  1  0.499983  0.749156  0.667015  1
  Rh  Rh22  1  0.999983  0.251327  0.834947  1
  Rh  Rh23  1  0.999983  0.748672  0.834947  1
