# generated using pymatgen
data_SmGdPSe
_symmetry_space_group_name_H-M   'P 1'
_cell_length_a   7.18157682
_cell_length_b   7.18157658
_cell_length_c   7.18157738
_cell_angle_alpha   33.04192866
_cell_angle_beta   33.04193398
_cell_angle_gamma   33.04193179
_symmetry_Int_Tables_number   1
_chemical_formula_structural   SmGdPSe
_chemical_formula_sum   'Sm1 Gd1 P1 Se1'
_cell_volume   98.00144555
_cell_formula_units_Z   1
loop_
 _symmetry_equiv_pos_site_id
 _symmetry_equiv_pos_as_xyz
  1  'x, y, z'
loop_
 _atom_site_type_symbol
 _atom_site_label
 _atom_site_symmetry_multiplicity
 _atom_site_fract_x
 _atom_site_fract_y
 _atom_site_fract_z
 _atom_site_occupancy
  Sm  Sm0  1  0.506406  0.506406  0.506406  1
  Gd  Gd1  1  0.993607  0.993607  0.993607  1
  P  P2  1  0.251220  0.251220  0.251220  1
  Se  Se3  1  0.748766  0.748766  0.748766  1
