# generated using pymatgen
data_LiNiMoF6
_symmetry_space_group_name_H-M   'P 1'
_cell_length_a   4.81256700
_cell_length_b   4.81256700
_cell_length_c   9.52384000
_cell_angle_alpha   90.00000000
_cell_angle_beta   90.00000000
_cell_angle_gamma   90.00000000
_symmetry_Int_Tables_number   1
_chemical_formula_structural   LiNiMoF6
_chemical_formula_sum   'Li2 Ni2 Mo2 F12'
_cell_volume   220.57976423
_cell_formula_units_Z   2
loop_
 _symmetry_equiv_pos_site_id
 _symmetry_equiv_pos_as_xyz
  1  'x, y, z'
loop_
 _atom_site_type_symbol
 _atom_site_label
 _atom_site_symmetry_multiplicity
 _atom_site_fract_x
 _atom_site_fract_y
 _atom_site_fract_z
 _atom_site_occupancy
  Li  Li0  1  0.500000  0.500000  0.498372  1
  Li  Li1  1  0.000000  0.000000  0.998372  1
  Ni  Ni2  1  0.500000  0.500000  0.167837  1
  Ni  Ni3  1  0.000000  0.000000  0.667837  1
  Mo  Mo4  1  0.500000  0.500000  0.832626  1
  Mo  Mo5  1  0.000000  0.000000  0.332626  1
  F  F6  1  0.195833  0.804167  0.504373  1
  F  F7  1  0.804167  0.195833  0.504373  1
  F  F8  1  0.304167  0.304167  0.004373  1
  F  F9  1  0.695833  0.695833  0.004373  1
  F  F10  1  0.201093  0.798907  0.164671  1
  F  F11  1  0.798907  0.201093  0.164671  1
  F  F12  1  0.298907  0.298907  0.664671  1
  F  F13  1  0.701093  0.701093  0.664671  1
  F  F14  1  0.809084  0.190916  0.831539  1
  F  F15  1  0.190916  0.809084  0.831539  1
  F  F16  1  0.690916  0.690916  0.331539  1
  F  F17  1  0.309084  0.309084  0.331539  1
