# generated using pymatgen
data_Sc2Ta3Ge4
_symmetry_space_group_name_H-M   'P 1'
_cell_length_a   6.85910600
_cell_length_b   7.00794700
_cell_length_c   13.30419900
_cell_angle_alpha   90.00000000
_cell_angle_beta   90.00000000
_cell_angle_gamma   90.00000000
_symmetry_Int_Tables_number   1
_chemical_formula_structural   Sc2Ta3Ge4
_chemical_formula_sum   'Sc8 Ta12 Ge16'
_cell_volume   639.50958108
_cell_formula_units_Z   4
loop_
 _symmetry_equiv_pos_site_id
 _symmetry_equiv_pos_as_xyz
  1  'x, y, z'
loop_
 _atom_site_type_symbol
 _atom_site_label
 _atom_site_symmetry_multiplicity
 _atom_site_fract_x
 _atom_site_fract_y
 _atom_site_fract_z
 _atom_site_occupancy
  Sc  Sc0  1  0.488552  0.674886  0.593354  1
  Sc  Sc1  1  0.988552  0.825114  0.906646  1
  Sc  Sc2  1  0.511448  0.325114  0.093354  1
  Sc  Sc3  1  0.011448  0.174886  0.406646  1
  Sc  Sc4  1  0.511448  0.325114  0.406646  1
  Sc  Sc5  1  0.011448  0.174886  0.093354  1
  Sc  Sc6  1  0.488552  0.674886  0.906646  1
  Sc  Sc7  1  0.988552  0.825114  0.593354  1
  Ta  Ta8  1  0.654109  0.171072  0.625479  1
  Ta  Ta9  1  0.154109  0.328928  0.874521  1
  Ta  Ta10  1  0.345891  0.828928  0.125479  1
  Ta  Ta11  1  0.845891  0.671072  0.374521  1
  Ta  Ta12  1  0.345891  0.828928  0.374521  1
  Ta  Ta13  1  0.845891  0.671072  0.125479  1
  Ta  Ta14  1  0.654109  0.171072  0.874521  1
  Ta  Ta15  1  0.154109  0.328928  0.625479  1
  Ta  Ta16  1  0.830682  0.487885  0.750000  1
  Ta  Ta17  1  0.330682  0.012115  0.750000  1
  Ta  Ta18  1  0.169318  0.512115  0.250000  1
  Ta  Ta19  1  0.669318  0.987885  0.250000  1
  Ge  Ge20  1  0.684679  0.967184  0.459878  1
  Ge  Ge21  1  0.184679  0.532816  0.040122  1
  Ge  Ge22  1  0.315321  0.032816  0.959878  1
  Ge  Ge23  1  0.815321  0.467184  0.540122  1
  Ge  Ge24  1  0.315321  0.032816  0.540122  1
  Ge  Ge25  1  0.815321  0.467184  0.959878  1
  Ge  Ge26  1  0.684679  0.967184  0.040122  1
  Ge  Ge27  1  0.184679  0.532816  0.459878  1
  Ge  Ge28  1  0.453194  0.389110  0.750000  1
  Ge  Ge29  1  0.953194  0.110890  0.750000  1
  Ge  Ge30  1  0.546806  0.610890  0.250000  1
  Ge  Ge31  1  0.046806  0.889110  0.250000  1
  Ge  Ge32  1  0.687866  0.849434  0.750000  1
  Ge  Ge33  1  0.187866  0.650566  0.750000  1
  Ge  Ge34  1  0.312134  0.150566  0.250000  1
  Ge  Ge35  1  0.812134  0.349434  0.250000  1
