# generated using pymatgen
data_K2Te(PSe3)2
_symmetry_space_group_name_H-M   'P 1'
_cell_length_a   12.64154100
_cell_length_b   7.38997869
_cell_length_c   9.96362630
_cell_angle_alpha   50.46203146
_cell_angle_beta   90.00000000
_cell_angle_gamma   90.00000000
_symmetry_Int_Tables_number   1
_chemical_formula_structural   K2Te(PSe3)2
_chemical_formula_sum   'K4 Te2 P4 Se12'
_cell_volume   717.84270000
_cell_formula_units_Z   2
loop_
 _symmetry_equiv_pos_site_id
 _symmetry_equiv_pos_as_xyz
  1  'x, y, z'
loop_
 _atom_site_type_symbol
 _atom_site_label
 _atom_site_symmetry_multiplicity
 _atom_site_fract_x
 _atom_site_fract_y
 _atom_site_fract_z
 _atom_site_occupancy
  K  K0  1  0.224021  0.798806  0.059245  1
  K  K1  1  0.724021  0.201194  0.440755  1
  K  K2  1  0.775979  0.201194  0.940755  1
  K  K3  1  0.275979  0.798806  0.559245  1
  Te  Te4  1  0.000000  0.000000  0.500000  1
  Te  Te5  1  0.500000  0.000000  0.000000  1
  P  P6  1  0.453518  0.370493  0.126246  1
  P  P7  1  0.546482  0.629507  0.873754  1
  P  P8  1  0.046482  0.370493  0.626246  1
  P  P9  1  0.953518  0.629507  0.373754  1
  Se  Se10  1  0.524195  0.498642  0.726104  1
  Se  Se11  1  0.024195  0.501358  0.773896  1
  Se  Se12  1  0.475805  0.501358  0.273896  1
  Se  Se13  1  0.975805  0.498642  0.226104  1
  Se  Se14  1  0.551231  0.045137  0.253196  1
  Se  Se15  1  0.051231  0.954863  0.246804  1
  Se  Se16  1  0.448769  0.954863  0.746804  1
  Se  Se17  1  0.948769  0.045137  0.753196  1
  Se  Se18  1  0.290898  0.339982  0.076534  1
  Se  Se19  1  0.790898  0.660018  0.423466  1
  Se  Se20  1  0.709102  0.660018  0.923466  1
  Se  Se21  1  0.209102  0.339982  0.576534  1
