# generated using pymatgen
data_Li2Er(AgO2)4
_symmetry_space_group_name_H-M   'P 1'
_cell_length_a   6.90561004
_cell_length_b   6.93200562
_cell_length_c   6.90561064
_cell_angle_alpha   59.87347537
_cell_angle_beta   60.25303540
_cell_angle_gamma   59.87348244
_symmetry_Int_Tables_number   1
_chemical_formula_structural   Li2Er(AgO2)4
_chemical_formula_sum   'Li2 Er1 Ag4 O8'
_cell_volume   233.74120857
_cell_formula_units_Z   1
loop_
 _symmetry_equiv_pos_site_id
 _symmetry_equiv_pos_as_xyz
  1  'x, y, z'
loop_
 _atom_site_type_symbol
 _atom_site_label
 _atom_site_symmetry_multiplicity
 _atom_site_fract_x
 _atom_site_fract_y
 _atom_site_fract_z
 _atom_site_occupancy
  Li  Li0  1  0.000000  0.500000  0.000000  1
  Li  Li1  1  0.500000  0.000000  0.500000  1
  Er  Er2  1  0.000000  0.000000  0.000000  1
  Ag  Ag3  1  0.500000  0.500000  0.000000  1
  Ag  Ag4  1  0.500000  0.000000  0.000000  1
  Ag  Ag5  1  0.000000  0.000000  0.500000  1
  Ag  Ag6  1  0.000000  0.500000  0.500000  1
  O  O7  1  0.857678  0.863362  0.415600  1
  O  O8  1  0.136638  0.142322  0.136638  1
  O  O9  1  0.584400  0.136638  0.142322  1
  O  O10  1  0.863362  0.415600  0.863362  1
  O  O11  1  0.415600  0.863362  0.857678  1
  O  O12  1  0.136638  0.584400  0.136638  1
  O  O13  1  0.863362  0.857678  0.863362  1
  O  O14  1  0.142322  0.136638  0.584400  1
