# generated using pymatgen
data_TbLu3(GaRh)4
_symmetry_space_group_name_H-M   'P 1'
_cell_length_a   4.21724700
_cell_length_b   6.78796309
_cell_length_c   7.82511895
_cell_angle_alpha   90.44135781
_cell_angle_beta   90.00000000
_cell_angle_gamma   90.00000000
_symmetry_Int_Tables_number   1
_chemical_formula_structural   TbLu3(GaRh)4
_chemical_formula_sum   'Tb1 Lu3 Ga4 Rh4'
_cell_volume   223.99925428
_cell_formula_units_Z   1
loop_
 _symmetry_equiv_pos_site_id
 _symmetry_equiv_pos_as_xyz
  1  'x, y, z'
loop_
 _atom_site_type_symbol
 _atom_site_label
 _atom_site_symmetry_multiplicity
 _atom_site_fract_x
 _atom_site_fract_y
 _atom_site_fract_z
 _atom_site_occupancy
  Tb  Tb0  1  0.750000  0.531125  0.814997  1
  Lu  Lu1  1  0.250000  0.968691  0.313831  1
  Lu  Lu2  1  0.250000  0.467296  0.187356  1
  Lu  Lu3  1  0.750000  0.032122  0.683797  1
  Ga  Ga4  1  0.250000  0.351578  0.565020  1
  Ga  Ga5  1  0.250000  0.853590  0.935376  1
  Ga  Ga6  1  0.750000  0.648040  0.433396  1
  Ga  Ga7  1  0.750000  0.145392  0.065606  1
  Rh  Rh8  1  0.250000  0.234442  0.884006  1
  Rh  Rh9  1  0.250000  0.744122  0.612958  1
  Rh  Rh10  1  0.750000  0.762462  0.119714  1
  Rh  Rh11  1  0.750000  0.261140  0.383944  1
