# generated using pymatgen
data_Dy3Al2Ga3Pt
_symmetry_space_group_name_H-M   'P 1'
_cell_length_a   6.92399900
_cell_length_b   6.92399814
_cell_length_c   4.26778100
_cell_angle_alpha   90.00000000
_cell_angle_beta   90.00000000
_cell_angle_gamma   119.78636663
_symmetry_Int_Tables_number   1
_chemical_formula_structural   Dy3Al2Ga3Pt
_chemical_formula_sum   'Dy3 Al2 Ga3 Pt1'
_cell_volume   177.57326803
_cell_formula_units_Z   1
loop_
 _symmetry_equiv_pos_site_id
 _symmetry_equiv_pos_as_xyz
  1  'x, y, z'
loop_
 _atom_site_type_symbol
 _atom_site_label
 _atom_site_symmetry_multiplicity
 _atom_site_fract_x
 _atom_site_fract_y
 _atom_site_fract_z
 _atom_site_occupancy
  Dy  Dy0  1  0.583396  0.999024  0.000000  1
  Dy  Dy1  1  0.419515  0.419515  0.000000  1
  Dy  Dy2  1  0.999024  0.583395  0.000000  1
  Al  Al3  1  0.234895  0.000983  0.499999  1
  Al  Al4  1  0.000983  0.234895  0.499999  1
  Ga  Ga5  1  0.666936  0.330614  0.499999  1
  Ga  Ga6  1  0.330614  0.666936  0.499999  1
  Ga  Ga7  1  0.756606  0.756606  0.499999  1
  Pt  Pt8  1  0.008034  0.008034  0.000000  1
