# generated using pymatgen
data_Pr20InSi10As
_symmetry_space_group_name_H-M   'P 1'
_cell_length_a   7.83308700
_cell_length_b   7.83308700
_cell_length_c   14.44064800
_cell_angle_alpha   90.00000000
_cell_angle_beta   90.00000000
_cell_angle_gamma   90.00000000
_symmetry_Int_Tables_number   1
_chemical_formula_structural   Pr20InSi10As
_chemical_formula_sum   'Pr20 In1 Si10 As1'
_cell_volume   886.03847765
_cell_formula_units_Z   1
loop_
 _symmetry_equiv_pos_site_id
 _symmetry_equiv_pos_as_xyz
  1  'x, y, z'
loop_
 _atom_site_type_symbol
 _atom_site_label
 _atom_site_symmetry_multiplicity
 _atom_site_fract_x
 _atom_site_fract_y
 _atom_site_fract_z
 _atom_site_occupancy
  Pr  Pr0  1  0.826485  0.816653  0.603085  1
  Pr  Pr1  1  0.189840  0.838513  0.113679  1
  Pr  Pr2  1  0.171709  0.814762  0.396944  1
  Pr  Pr3  1  0.000000  0.500000  0.763373  1
  Pr  Pr4  1  0.828291  0.185238  0.396944  1
  Pr  Pr5  1  0.685238  0.671709  0.396944  1
  Pr  Pr6  1  0.683347  0.326485  0.603085  1
  Pr  Pr7  1  0.316653  0.673515  0.603085  1
  Pr  Pr8  1  0.000000  0.500000  0.233262  1
  Pr  Pr9  1  0.661487  0.689840  0.113679  1
  Pr  Pr10  1  0.663074  0.311764  0.886310  1
  Pr  Pr11  1  0.811764  0.836926  0.886310  1
  Pr  Pr12  1  0.314762  0.328291  0.396944  1
  Pr  Pr13  1  0.173515  0.183347  0.603085  1
  Pr  Pr14  1  0.810160  0.161487  0.113679  1
  Pr  Pr15  1  0.336926  0.688236  0.886310  1
  Pr  Pr16  1  0.338513  0.310160  0.113679  1
  Pr  Pr17  1  0.500000  0.000000  0.282567  1
  Pr  Pr18  1  0.188236  0.163074  0.886310  1
  Pr  Pr19  1  0.500000  0.000000  0.719960  1
  In  In20  1  0.000000  0.500000  0.999140  1
  Si  Si21  1  0.614834  0.386759  0.255332  1
  Si  Si22  1  0.113031  0.885373  0.744948  1
  Si  Si23  1  0.385373  0.386969  0.744948  1
  Si  Si24  1  0.385166  0.613241  0.255332  1
  Si  Si25  1  0.886759  0.885166  0.255332  1
  Si  Si26  1  0.614627  0.613031  0.744948  1
  Si  Si27  1  0.000000  0.500000  0.501730  1
  Si  Si28  1  0.886969  0.114627  0.744948  1
  Si  Si29  1  0.500000  0.000000  0.500956  1
  Si  Si30  1  0.113241  0.114834  0.255332  1
  As  As31  1  0.500000  0.000000  0.997817  1
