# generated using pymatgen
data_Nd4Al18(NiOs)3
_symmetry_space_group_name_H-M   'P 1'
_cell_length_a   7.55510677
_cell_length_b   7.55510641
_cell_length_c   9.56603993
_cell_angle_alpha   90.08350873
_cell_angle_beta   90.08350542
_cell_angle_gamma   118.87224202
_symmetry_Int_Tables_number   1
_chemical_formula_structural   Nd4Al18(NiOs)3
_chemical_formula_sum   'Nd4 Al18 Ni3 Os3'
_cell_volume   478.15228165
_cell_formula_units_Z   1
loop_
 _symmetry_equiv_pos_site_id
 _symmetry_equiv_pos_as_xyz
  1  'x, y, z'
loop_
 _atom_site_type_symbol
 _atom_site_label
 _atom_site_symmetry_multiplicity
 _atom_site_fract_x
 _atom_site_fract_y
 _atom_site_fract_z
 _atom_site_occupancy
  Nd  Nd0  1  0.007880  0.325083  0.750276  1
  Nd  Nd1  1  0.323881  0.005520  0.750132  1
  Nd  Nd2  1  0.994480  0.676119  0.249868  1
  Nd  Nd3  1  0.674917  0.992120  0.249724  1
  Al  Al4  1  0.662266  0.998950  0.928328  1
  Al  Al5  1  0.998333  0.661511  0.571768  1
  Al  Al6  1  0.134082  0.133378  0.250651  1
  Al  Al7  1  0.665498  0.666639  0.040065  1
  Al  Al8  1  0.334991  0.334219  0.542325  1
  Al  Al9  1  0.333361  0.334502  0.959935  1
  Al  Al10  1  0.665781  0.665009  0.457675  1
  Al  Al11  1  0.337197  0.003744  0.072438  1
  Al  Al12  1  0.000918  0.336869  0.427371  1
  Al  Al13  1  0.341681  0.550212  0.251514  1
  Al  Al14  1  0.001050  0.337734  0.071672  1
  Al  Al15  1  0.552728  0.340933  0.250647  1
  Al  Al16  1  0.659067  0.447272  0.749353  1
  Al  Al17  1  0.866622  0.865918  0.749349  1
  Al  Al18  1  0.996256  0.662803  0.927562  1
  Al  Al19  1  0.663131  0.999082  0.572629  1
  Al  Al20  1  0.338489  0.001667  0.428232  1
  Al  Al21  1  0.449788  0.658319  0.748486  1
  Ni  Ni22  1  0.669825  0.330175  0.500000  1
  Ni  Ni23  1  0.669456  0.330544  0.000000  1
  Ni  Ni24  1  0.330143  0.669857  0.500000  1
  Os  Os25  1  0.999339  0.000661  0.000000  1
  Os  Os26  1  0.000171  0.999829  0.500000  1
  Os  Os27  1  0.328668  0.671332  0.000000  1
