# generated using pymatgen
data_Ho3Ga7Cu4
_symmetry_space_group_name_H-M   'P 1'
_cell_length_a   7.98238024
_cell_length_b   7.98237942
_cell_length_c   9.33162188
_cell_angle_alpha   54.51889191
_cell_angle_beta   54.51889576
_cell_angle_gamma   30.66442362
_symmetry_Int_Tables_number   1
_chemical_formula_structural   Ho3Ga7Cu4
_chemical_formula_sum   'Ho3 Ga7 Cu4'
_cell_volume   242.17642068
_cell_formula_units_Z   1
loop_
 _symmetry_equiv_pos_site_id
 _symmetry_equiv_pos_as_xyz
  1  'x, y, z'
loop_
 _atom_site_type_symbol
 _atom_site_label
 _atom_site_symmetry_multiplicity
 _atom_site_fract_x
 _atom_site_fract_y
 _atom_site_fract_z
 _atom_site_occupancy
  Ho  Ho0  1  0.302020  0.302020  0.705865  1
  Ho  Ho1  1  0.697980  0.697980  0.294135  1
  Ho  Ho2  1  0.000000  0.000000  0.000000  1
  Ga  Ga3  1  0.858462  0.858462  0.420860  1
  Ga  Ga4  1  0.141538  0.141538  0.579140  1
  Ga  Ga5  1  0.138988  0.138988  0.132470  1
  Ga  Ga6  1  0.861012  0.861012  0.867530  1
  Ga  Ga7  1  0.000000  0.000000  0.500000  1
  Ga  Ga8  1  0.345497  0.345497  0.275217  1
  Ga  Ga9  1  0.654503  0.654503  0.724783  1
  Cu  Cu10  1  0.496291  0.496291  0.313474  1
  Cu  Cu11  1  0.503709  0.503709  0.686526  1
  Cu  Cu12  1  0.656577  0.656577  0.984968  1
  Cu  Cu13  1  0.343423  0.343423  0.015032  1
