# generated using pymatgen
data_Tb4Sm3Sn23Ru6
_symmetry_space_group_name_H-M   'P 1'
_cell_length_a   9.89280342
_cell_length_b   9.89280140
_cell_length_c   10.12072796
_cell_angle_alpha   89.91233264
_cell_angle_beta   90.08766776
_cell_angle_gamma   119.83283371
_symmetry_Int_Tables_number   1
_chemical_formula_structural   Tb4Sm3Sn23Ru6
_chemical_formula_sum   'Tb4 Sm3 Sn23 Ru6'
_cell_volume   859.23007883
_cell_formula_units_Z   1
loop_
 _symmetry_equiv_pos_site_id
 _symmetry_equiv_pos_as_xyz
  1  'x, y, z'
loop_
 _atom_site_type_symbol
 _atom_site_label
 _atom_site_symmetry_multiplicity
 _atom_site_fract_x
 _atom_site_fract_y
 _atom_site_fract_z
 _atom_site_occupancy
  Tb  Tb0  1  0.484051  0.968314  0.302554  1
  Tb  Tb1  1  0.515949  0.031686  0.697446  1
  Tb  Tb2  1  0.031686  0.515949  0.302554  1
  Tb  Tb3  1  0.968314  0.484051  0.697446  1
  Sm  Sm4  1  0.000000  0.000000  0.000000  1
  Sm  Sm5  1  0.483423  0.516577  0.303004  1
  Sm  Sm6  1  0.516577  0.483423  0.696996  1
  Sn  Sn7  1  0.348973  0.999862  0.999857  1
  Sn  Sn8  1  0.651027  0.000138  0.000143  1
  Sn  Sn9  1  0.999862  0.348973  0.000143  1
  Sn  Sn10  1  0.000138  0.651027  0.999857  1
  Sn  Sn11  1  0.651458  0.651458  0.000000  1
  Sn  Sn12  1  0.348542  0.348542  0.000000  1
  Sn  Sn13  1  0.333186  0.666814  0.821622  1
  Sn  Sn14  1  0.666814  0.333186  0.178378  1
  Sn  Sn15  1  0.000000  0.000000  0.500000  1
  Sn  Sn16  1  0.780472  0.219528  0.461911  1
  Sn  Sn17  1  0.219528  0.780472  0.538089  1
  Sn  Sn18  1  0.781472  0.561466  0.461965  1
  Sn  Sn19  1  0.218528  0.438534  0.538035  1
  Sn  Sn20  1  0.438534  0.218528  0.461965  1
  Sn  Sn21  1  0.561466  0.781472  0.538035  1
  Sn  Sn22  1  0.332786  0.667214  0.125029  1
  Sn  Sn23  1  0.667214  0.332786  0.874971  1
  Sn  Sn24  1  0.118292  0.881708  0.273363  1
  Sn  Sn25  1  0.881708  0.118292  0.726637  1
  Sn  Sn26  1  0.117742  0.235992  0.273375  1
  Sn  Sn27  1  0.882258  0.764008  0.726625  1
  Sn  Sn28  1  0.764008  0.882258  0.273375  1
  Sn  Sn29  1  0.235992  0.117742  0.726625  1
  Ru  Ru30  1  0.830092  0.169908  0.202380  1
  Ru  Ru31  1  0.169908  0.830092  0.797620  1
  Ru  Ru32  1  0.831214  0.660549  0.202037  1
  Ru  Ru33  1  0.168786  0.339451  0.797963  1
  Ru  Ru34  1  0.339451  0.168786  0.202037  1
  Ru  Ru35  1  0.660549  0.831214  0.797963  1
