# generated using pymatgen
data_Rb4DyErF10
_symmetry_space_group_name_H-M   'P 1'
_cell_length_a   6.92249593
_cell_length_b   7.43244600
_cell_length_c   11.46914050
_cell_angle_alpha   90.00000000
_cell_angle_beta   90.13677026
_cell_angle_gamma   90.00000000
_symmetry_Int_Tables_number   1
_chemical_formula_structural   Rb4DyErF10
_chemical_formula_sum   'Rb8 Dy2 Er2 F20'
_cell_volume   590.09795167
_cell_formula_units_Z   2
loop_
 _symmetry_equiv_pos_site_id
 _symmetry_equiv_pos_as_xyz
  1  'x, y, z'
loop_
 _atom_site_type_symbol
 _atom_site_label
 _atom_site_symmetry_multiplicity
 _atom_site_fract_x
 _atom_site_fract_y
 _atom_site_fract_z
 _atom_site_occupancy
  Rb  Rb0  1  0.536595  0.997088  0.829909  1
  Rb  Rb1  1  0.463405  0.497088  0.170091  1
  Rb  Rb2  1  0.963397  0.997221  0.328324  1
  Rb  Rb3  1  0.036603  0.497221  0.671676  1
  Rb  Rb4  1  0.536595  0.502912  0.829909  1
  Rb  Rb5  1  0.463405  0.002912  0.170091  1
  Rb  Rb6  1  0.963397  0.502779  0.328324  1
  Rb  Rb7  1  0.036603  0.002779  0.671676  1
  Dy  Dy8  1  0.560330  0.250000  0.501790  1
  Dy  Dy9  1  0.439670  0.750000  0.498210  1
  Er  Er10  1  0.941024  0.250000  0.001247  1
  Er  Er11  1  0.058976  0.750000  0.998753  1
  F  F12  1  0.883689  0.750000  0.841049  1
  F  F13  1  0.116311  0.250000  0.158951  1
  F  F14  1  0.618252  0.750000  0.339284  1
  F  F15  1  0.381748  0.250000  0.660716  1
  F  F16  1  0.849649  0.250000  0.818510  1
  F  F17  1  0.150351  0.750000  0.181490  1
  F  F18  1  0.651214  0.250000  0.316944  1
  F  F19  1  0.348786  0.750000  0.683056  1
  F  F20  1  0.642401  0.965220  0.570084  1
  F  F21  1  0.357599  0.465220  0.429916  1
  F  F22  1  0.859190  0.964814  0.068429  1
  F  F23  1  0.140810  0.464814  0.931571  1
  F  F24  1  0.372628  0.750000  0.984480  1
  F  F25  1  0.627372  0.250000  0.015520  1
  F  F26  1  0.122263  0.750000  0.485087  1
  F  F27  1  0.877737  0.250000  0.514913  1
  F  F28  1  0.140810  0.035186  0.931571  1
  F  F29  1  0.859190  0.535186  0.068429  1
  F  F30  1  0.357599  0.034780  0.429916  1
  F  F31  1  0.642401  0.534780  0.570084  1
