# generated using pymatgen
data_Dy3Er3MnBi2
_symmetry_space_group_name_H-M   'P 1'
_cell_length_a   8.27090100
_cell_length_b   8.27090129
_cell_length_c   4.26888900
_cell_angle_alpha   90.00000000
_cell_angle_beta   90.00000000
_cell_angle_gamma   119.99999485
_symmetry_Int_Tables_number   1
_chemical_formula_structural   Dy3Er3MnBi2
_chemical_formula_sum   'Dy3 Er3 Mn1 Bi2'
_cell_volume   252.90136697
_cell_formula_units_Z   1
loop_
 _symmetry_equiv_pos_site_id
 _symmetry_equiv_pos_as_xyz
  1  'x, y, z'
loop_
 _atom_site_type_symbol
 _atom_site_label
 _atom_site_symmetry_multiplicity
 _atom_site_fract_x
 _atom_site_fract_y
 _atom_site_fract_z
 _atom_site_occupancy
  Dy  Dy0  1  0.000000  0.609392  0.500000  1
  Dy  Dy1  1  0.390608  0.390608  0.500000  1
  Dy  Dy2  1  0.609392  0.000000  0.500000  1
  Er  Er3  1  0.231914  0.000000  0.000000  1
  Er  Er4  1  0.768086  0.768086  0.000000  1
  Er  Er5  1  0.000000  0.231914  0.000000  1
  Mn  Mn6  1  0.000000  0.000000  0.500000  1
  Bi  Bi7  1  0.333333  0.666667  0.000000  1
  Bi  Bi8  1  0.666667  0.333333  0.000000  1
