# generated using pymatgen
data_Li3Ca8Si12Pd
_symmetry_space_group_name_H-M   'P 1'
_cell_length_a   4.33664500
_cell_length_b   10.55380885
_cell_length_c   11.12506326
_cell_angle_alpha   89.77148961
_cell_angle_beta   90.00000000
_cell_angle_gamma   90.00000000
_symmetry_Int_Tables_number   1
_chemical_formula_structural   Li3Ca8Si12Pd
_chemical_formula_sum   'Li3 Ca8 Si12 Pd1'
_cell_volume   509.16920733
_cell_formula_units_Z   1
loop_
 _symmetry_equiv_pos_site_id
 _symmetry_equiv_pos_as_xyz
  1  'x, y, z'
loop_
 _atom_site_type_symbol
 _atom_site_label
 _atom_site_symmetry_multiplicity
 _atom_site_fract_x
 _atom_site_fract_y
 _atom_site_fract_z
 _atom_site_occupancy
  Li  Li0  1  0.500000  0.136331  0.717626  1
  Li  Li1  1  0.000000  0.361013  0.219215  1
  Li  Li2  1  0.000000  0.639648  0.782252  1
  Ca  Ca3  1  0.500000  0.555947  0.345901  1
  Ca  Ca4  1  0.500000  0.451144  0.649433  1
  Ca  Ca5  1  0.000000  0.049508  0.153636  1
  Ca  Ca6  1  0.000000  0.948268  0.850482  1
  Ca  Ca7  1  0.500000  0.822043  0.572042  1
  Ca  Ca8  1  0.500000  0.175354  0.420450  1
  Ca  Ca9  1  0.000000  0.321398  0.924609  1
  Ca  Ca10  1  0.000000  0.680851  0.080800  1
  Si  Si11  1  0.500000  0.890250  0.052179  1
  Si  Si12  1  0.500000  0.105232  0.962105  1
  Si  Si13  1  0.000000  0.392526  0.459285  1
  Si  Si14  1  0.000000  0.610718  0.536867  1
  Si  Si15  1  0.000000  0.963889  0.395587  1
  Si  Si16  1  0.000000  0.034473  0.596839  1
  Si  Si17  1  0.500000  0.463199  0.098337  1
  Si  Si18  1  0.500000  0.536031  0.900883  1
  Si  Si19  1  0.000000  0.254922  0.630976  1
  Si  Si20  1  0.000000  0.746002  0.355809  1
  Si  Si21  1  0.500000  0.756725  0.874215  1
  Si  Si22  1  0.500000  0.244448  0.132198  1
  Pd  Pd23  1  0.500000  0.860080  0.288273  1
