# generated using pymatgen
data_DyTm3Al16SiGeIr6
_symmetry_space_group_name_H-M   'P 1'
_cell_length_a   7.54682600
_cell_length_b   7.54624537
_cell_length_c   9.41175100
_cell_angle_alpha   90.00000000
_cell_angle_beta   90.00000000
_cell_angle_gamma   119.70054471
_symmetry_Int_Tables_number   1
_chemical_formula_structural   DyTm3Al16SiGeIr6
_chemical_formula_sum   'Dy1 Tm3 Al16 Si1 Ge1 Ir6'
_cell_volume   465.58493036
_cell_formula_units_Z   1
loop_
 _symmetry_equiv_pos_site_id
 _symmetry_equiv_pos_as_xyz
  1  'x, y, z'
loop_
 _atom_site_type_symbol
 _atom_site_label
 _atom_site_symmetry_multiplicity
 _atom_site_fract_x
 _atom_site_fract_y
 _atom_site_fract_z
 _atom_site_occupancy
  Dy  Dy0  1  0.323369  0.004171  0.250000  1
  Tm  Tm1  1  0.995648  0.677434  0.750000  1
  Tm  Tm2  1  0.004037  0.323030  0.250000  1
  Tm  Tm3  1  0.677699  0.995919  0.750000  1
  Al  Al4  1  0.001495  0.337342  0.576935  1
  Al  Al5  1  0.999227  0.662119  0.426645  1
  Al  Al6  1  0.999227  0.662119  0.073355  1
  Al  Al7  1  0.337357  0.001518  0.922415  1
  Al  Al8  1  0.001495  0.337342  0.923065  1
  Al  Al9  1  0.663147  0.999616  0.073428  1
  Al  Al10  1  0.663147  0.999616  0.426572  1
  Al  Al11  1  0.337357  0.001518  0.577585  1
  Al  Al12  1  0.335396  0.335879  0.057718  1
  Al  Al13  1  0.664368  0.664427  0.939199  1
  Al  Al14  1  0.664368  0.664427  0.560801  1
  Al  Al15  1  0.335396  0.335879  0.442282  1
  Al  Al16  1  0.335154  0.550388  0.750000  1
  Al  Al17  1  0.664651  0.446202  0.250000  1
  Al  Al18  1  0.550468  0.335466  0.750000  1
  Al  Al19  1  0.445587  0.663483  0.250000  1
  Si  Si20  1  0.131293  0.131560  0.750000  1
  Ge  Ge21  1  0.866238  0.866553  0.250000  1
  Ir  Ir22  1  0.672118  0.328888  0.500303  1
  Ir  Ir23  1  0.328782  0.671882  0.500274  1
  Ir  Ir24  1  0.328782  0.671882  0.999726  1
  Ir  Ir25  1  0.672118  0.328888  0.999697  1
  Ir  Ir26  1  0.001039  0.001230  0.506683  1
  Ir  Ir27  1  0.001039  0.001230  0.993317  1
