# generated using pymatgen
data_Y4HfIr3
_symmetry_space_group_name_H-M   'P 1'
_cell_length_a   10.88735900
_cell_length_b   10.88735900
_cell_length_c   6.27878700
_cell_angle_alpha   90.00000000
_cell_angle_beta   90.00000000
_cell_angle_gamma   90.00000000
_symmetry_Int_Tables_number   1
_chemical_formula_structural   Y4HfIr3
_chemical_formula_sum   'Y16 Hf4 Ir12'
_cell_volume   744.25341760
_cell_formula_units_Z   4
loop_
 _symmetry_equiv_pos_site_id
 _symmetry_equiv_pos_as_xyz
  1  'x, y, z'
loop_
 _atom_site_type_symbol
 _atom_site_label
 _atom_site_symmetry_multiplicity
 _atom_site_fract_x
 _atom_site_fract_y
 _atom_site_fract_z
 _atom_site_occupancy
  Y  Y0  1  0.289242  0.085701  0.375322  1
  Y  Y1  1  0.289242  0.914299  0.875322  1
  Y  Y2  1  0.710758  0.085701  0.875322  1
  Y  Y3  1  0.710758  0.914299  0.375322  1
  Y  Y4  1  0.585701  0.789242  0.875322  1
  Y  Y5  1  0.585701  0.210758  0.375322  1
  Y  Y6  1  0.414299  0.789242  0.375322  1
  Y  Y7  1  0.414299  0.210758  0.875322  1
  Y  Y8  1  0.210758  0.414299  0.624678  1
  Y  Y9  1  0.210758  0.585701  0.124678  1
  Y  Y10  1  0.789242  0.414299  0.124678  1
  Y  Y11  1  0.789242  0.585701  0.624678  1
  Y  Y12  1  0.914299  0.710758  0.124678  1
  Y  Y13  1  0.914299  0.289242  0.624678  1
  Y  Y14  1  0.085701  0.710758  0.624678  1
  Y  Y15  1  0.085701  0.289242  0.124678  1
  Hf  Hf16  1  0.000000  0.000000  0.500000  1
  Hf  Hf17  1  0.000000  0.000000  0.000000  1
  Hf  Hf18  1  0.500000  0.500000  0.000000  1
  Hf  Hf19  1  0.500000  0.500000  0.500000  1
  Ir  Ir20  1  0.858131  0.141869  0.250000  1
  Ir  Ir21  1  0.858131  0.858131  0.750000  1
  Ir  Ir22  1  0.141869  0.141869  0.750000  1
  Ir  Ir23  1  0.141869  0.858131  0.250000  1
  Ir  Ir24  1  0.641869  0.358131  0.750000  1
  Ir  Ir25  1  0.641869  0.641869  0.250000  1
  Ir  Ir26  1  0.358131  0.358131  0.250000  1
  Ir  Ir27  1  0.358131  0.641869  0.750000  1
  Ir  Ir28  1  0.500000  0.000000  0.123525  1
  Ir  Ir29  1  0.500000  0.000000  0.623525  1
  Ir  Ir30  1  0.000000  0.500000  0.876475  1
  Ir  Ir31  1  0.000000  0.500000  0.376475  1
