# generated using pymatgen
data_Nb4CoNi3Te8
_symmetry_space_group_name_H-M   'P 1'
_cell_length_a   6.34161283
_cell_length_b   7.95060190
_cell_length_c   8.60943687
_cell_angle_alpha   62.99174834
_cell_angle_beta   90.05482659
_cell_angle_gamma   90.01049637
_symmetry_Int_Tables_number   1
_chemical_formula_structural   Nb4CoNi3Te8
_chemical_formula_sum   'Nb4 Co1 Ni3 Te8'
_cell_volume   386.74372040
_cell_formula_units_Z   1
loop_
 _symmetry_equiv_pos_site_id
 _symmetry_equiv_pos_as_xyz
  1  'x, y, z'
loop_
 _atom_site_type_symbol
 _atom_site_label
 _atom_site_symmetry_multiplicity
 _atom_site_fract_x
 _atom_site_fract_y
 _atom_site_fract_z
 _atom_site_occupancy
  Nb  Nb0  1  0.486189  0.192006  0.511688  1
  Nb  Nb1  1  0.510599  0.806154  0.486692  1
  Nb  Nb2  1  0.988061  0.300866  0.485581  1
  Nb  Nb3  1  0.010500  0.701901  0.512858  1
  Co  Co4  1  0.139564  0.051789  0.395502  1
  Ni  Ni5  1  0.852281  0.942492  0.617144  1
  Ni  Ni6  1  0.353759  0.557949  0.384383  1
  Ni  Ni7  1  0.642457  0.445224  0.610423  1
  Te  Te8  1  0.251352  0.374612  0.711370  1
  Te  Te9  1  0.750108  0.596592  0.805074  1
  Te  Te10  1  0.251455  0.907550  0.195403  1
  Te  Te11  1  0.754969  0.127634  0.282536  1
  Te  Te12  1  0.752543  0.102065  0.803779  1
  Te  Te13  1  0.254331  0.395636  0.195156  1
  Te  Te14  1  0.251079  0.870328  0.717819  1
  Te  Te15  1  0.750752  0.627204  0.284593  1
