# generated using pymatgen
data_MnBi6(RuO9)2
_symmetry_space_group_name_H-M   'P 1'
_cell_length_a   9.17710400
_cell_length_b   9.17710333
_cell_length_c   5.25316900
_cell_angle_alpha   90.00000000
_cell_angle_beta   90.00000000
_cell_angle_gamma   119.99999521
_symmetry_Int_Tables_number   1
_chemical_formula_structural   MnBi6(RuO9)2
_chemical_formula_sum   'Mn1 Bi6 Ru2 O18'
_cell_volume   383.14512177
_cell_formula_units_Z   1
loop_
 _symmetry_equiv_pos_site_id
 _symmetry_equiv_pos_as_xyz
  1  'x, y, z'
loop_
 _atom_site_type_symbol
 _atom_site_label
 _atom_site_symmetry_multiplicity
 _atom_site_fract_x
 _atom_site_fract_y
 _atom_site_fract_z
 _atom_site_occupancy
  Mn  Mn0  1  0.666667  0.333333  0.993654  1
  Bi  Bi1  1  0.988830  0.375930  0.498982  1
  Bi  Bi2  1  0.291794  0.286524  0.001450  1
  Bi  Bi3  1  0.994729  0.708206  0.001450  1
  Bi  Bi4  1  0.624070  0.612900  0.498982  1
  Bi  Bi5  1  0.387100  0.011170  0.498982  1
  Bi  Bi6  1  0.713476  0.005271  0.001450  1
  Ru  Ru7  1  0.000000  0.000000  0.507452  1
  Ru  Ru8  1  0.333333  0.666667  0.005686  1
  O  O9  1  0.073781  0.196205  0.714446  1
  O  O10  1  0.232250  0.467623  0.219584  1
  O  O11  1  0.136161  0.598669  0.790815  1
  O  O12  1  0.401331  0.537492  0.790815  1
  O  O13  1  0.235374  0.767750  0.219584  1
  O  O14  1  0.122423  0.926219  0.714446  1
  O  O15  1  0.532377  0.764626  0.219584  1
  O  O16  1  0.199546  0.075664  0.287388  1
  O  O17  1  0.462508  0.863839  0.790815  1
  O  O18  1  0.803795  0.877577  0.714446  1
  O  O19  1  0.465364  0.230705  0.778731  1
  O  O20  1  0.596838  0.136316  0.206340  1
  O  O21  1  0.539478  0.403162  0.206340  1
  O  O22  1  0.769295  0.234659  0.778731  1
  O  O23  1  0.924336  0.123881  0.287388  1
  O  O24  1  0.765341  0.534636  0.778731  1
  O  O25  1  0.863684  0.460522  0.206340  1
  O  O26  1  0.876119  0.800454  0.287388  1
