# generated using pymatgen
data_CeYPa2Ir3Rh
_symmetry_space_group_name_H-M   'P 1'
_cell_length_a   3.75534500
_cell_length_b   4.26315000
_cell_length_c   10.85236300
_cell_angle_alpha   90.00000000
_cell_angle_beta   90.00000000
_cell_angle_gamma   90.00000000
_symmetry_Int_Tables_number   1
_chemical_formula_structural   CeYPa2Ir3Rh
_chemical_formula_sum   'Ce1 Y1 Pa2 Ir3 Rh1'
_cell_volume   173.74198023
_cell_formula_units_Z   1
loop_
 _symmetry_equiv_pos_site_id
 _symmetry_equiv_pos_as_xyz
  1  'x, y, z'
loop_
 _atom_site_type_symbol
 _atom_site_label
 _atom_site_symmetry_multiplicity
 _atom_site_fract_x
 _atom_site_fract_y
 _atom_site_fract_z
 _atom_site_occupancy
  Ce  Ce0  1  0.000000  0.250000  0.141911  1
  Y  Y1  1  0.500000  0.750000  0.360216  1
  Pa  Pa2  1  0.000000  0.750000  0.864553  1
  Pa  Pa3  1  0.500000  0.250000  0.631018  1
  Ir  Ir4  1  0.500000  0.750000  0.084698  1
  Ir  Ir5  1  0.000000  0.750000  0.605051  1
  Ir  Ir6  1  0.500000  0.250000  0.891253  1
  Rh  Rh7  1  0.000000  0.250000  0.421301  1
