# generated using pymatgen
data_Ta3Nb(CoSi)4
_symmetry_space_group_name_H-M   'P 1'
_cell_length_a   6.23037924
_cell_length_b   3.66101700
_cell_length_c   7.04084627
_cell_angle_alpha   90.00000000
_cell_angle_beta   89.96815003
_cell_angle_gamma   90.00000000
_symmetry_Int_Tables_number   1
_chemical_formula_structural   Ta3Nb(CoSi)4
_chemical_formula_sum   'Ta3 Nb1 Co4 Si4'
_cell_volume   160.59832944
_cell_formula_units_Z   1
loop_
 _symmetry_equiv_pos_site_id
 _symmetry_equiv_pos_as_xyz
  1  'x, y, z'
loop_
 _atom_site_type_symbol
 _atom_site_label
 _atom_site_symmetry_multiplicity
 _atom_site_fract_x
 _atom_site_fract_y
 _atom_site_fract_z
 _atom_site_occupancy
  Ta  Ta0  1  0.519785  0.250000  0.679861  1
  Ta  Ta1  1  0.979897  0.750000  0.180318  1
  Ta  Ta2  1  0.479785  0.750000  0.320577  1
  Nb  Nb3  1  0.020453  0.250000  0.820715  1
  Co  Co4  1  0.141787  0.250000  0.434589  1
  Co  Co5  1  0.640940  0.250000  0.065053  1
  Co  Co6  1  0.857613  0.750000  0.561646  1
  Co  Co7  1  0.360307  0.750000  0.937030  1
  Si  Si8  1  0.774690  0.250000  0.382753  1
  Si  Si9  1  0.274788  0.250000  0.117182  1
  Si  Si10  1  0.224339  0.750000  0.618101  1
  Si  Si11  1  0.725615  0.750000  0.882176  1
