# generated using pymatgen
data_Sm(ThSe2)3
_symmetry_space_group_name_H-M   'P 1'
_cell_length_a   11.38944956
_cell_length_b   4.08493800
_cell_length_c   11.31266155
_cell_angle_alpha   90.00000000
_cell_angle_beta   90.31004440
_cell_angle_gamma   90.00000000
_symmetry_Int_Tables_number   1
_chemical_formula_structural   Sm(ThSe2)3
_chemical_formula_sum   'Sm2 Th6 Se12'
_cell_volume   526.31608216
_cell_formula_units_Z   2
loop_
 _symmetry_equiv_pos_site_id
 _symmetry_equiv_pos_as_xyz
  1  'x, y, z'
loop_
 _atom_site_type_symbol
 _atom_site_label
 _atom_site_symmetry_multiplicity
 _atom_site_fract_x
 _atom_site_fract_y
 _atom_site_fract_z
 _atom_site_occupancy
  Sm  Sm0  1  0.980628  0.750000  0.812633  1
  Sm  Sm1  1  0.693265  0.250000  0.989189  1
  Th  Th2  1  0.299860  0.750000  0.008580  1
  Th  Th3  1  0.019329  0.250000  0.183973  1
  Th  Th4  1  0.520936  0.250000  0.315169  1
  Th  Th5  1  0.803286  0.750000  0.493867  1
  Th  Th6  1  0.199837  0.250000  0.511810  1
  Th  Th7  1  0.481816  0.750000  0.686473  1
  Se  Se8  1  0.877004  0.750000  0.052780  1
  Se  Se9  1  0.548377  0.750000  0.121868  1
  Se  Se10  1  0.279134  0.250000  0.203977  1
  Se  Se11  1  0.781228  0.250000  0.298695  1
  Se  Se12  1  0.051628  0.750000  0.377697  1
  Se  Se13  1  0.378296  0.750000  0.442258  1
  Se  Se14  1  0.623067  0.250000  0.557857  1
  Se  Se15  1  0.952053  0.250000  0.623140  1
  Se  Se16  1  0.221609  0.750000  0.704637  1
  Se  Se17  1  0.722167  0.750000  0.795722  1
  Se  Se18  1  0.446825  0.250000  0.877427  1
  Se  Se19  1  0.119654  0.250000  0.942249  1
