# generated using pymatgen
data_Dy2Er2LuRu2
_symmetry_space_group_name_H-M   'P 1'
_cell_length_a   6.29184330
_cell_length_b   7.22421055
_cell_length_c   8.41657838
_cell_angle_alpha   96.76996823
_cell_angle_beta   111.94872593
_cell_angle_gamma   89.99999671
_symmetry_Int_Tables_number   1
_chemical_formula_structural   Dy2Er2LuRu2
_chemical_formula_sum   'Dy4 Er4 Lu2 Ru4'
_cell_volume   351.95753876
_cell_formula_units_Z   2
loop_
 _symmetry_equiv_pos_site_id
 _symmetry_equiv_pos_as_xyz
  1  'x, y, z'
loop_
 _atom_site_type_symbol
 _atom_site_label
 _atom_site_symmetry_multiplicity
 _atom_site_fract_x
 _atom_site_fract_y
 _atom_site_fract_z
 _atom_site_occupancy
  Dy  Dy0  1  0.523390  0.083110  0.814079  1
  Dy  Dy1  1  0.476610  0.916890  0.185921  1
  Dy  Dy2  1  0.709311  0.416890  0.185921  1
  Dy  Dy3  1  0.290689  0.583110  0.814079  1
  Er  Er4  1  0.297103  0.313437  0.433087  1
  Er  Er5  1  0.702897  0.686563  0.566913  1
  Er  Er6  1  0.864019  0.186563  0.566913  1
  Er  Er7  1  0.135981  0.813437  0.433087  1
  Lu  Lu8  1  0.078180  0.250000  0.000000  1
  Lu  Lu9  1  0.921820  0.750000  0.000000  1
  Ru  Ru10  1  0.319947  0.575146  0.219305  1
  Ru  Ru11  1  0.680053  0.424854  0.780695  1
  Ru  Ru12  1  0.100643  0.924854  0.780695  1
  Ru  Ru13  1  0.899357  0.075146  0.219305  1
