# generated using pymatgen
data_Ta3Al2CuRh6
_symmetry_space_group_name_H-M   'P 1'
_cell_length_a   4.05029600
_cell_length_b   7.18984100
_cell_length_c   12.26610600
_cell_angle_alpha   90.00008188
_cell_angle_beta   90.00060042
_cell_angle_gamma   89.99994780
_symmetry_Int_Tables_number   1
_chemical_formula_structural   Ta3Al2CuRh6
_chemical_formula_sum   'Ta6 Al4 Cu2 Rh12'
_cell_volume   357.20107954
_cell_formula_units_Z   2
loop_
 _symmetry_equiv_pos_site_id
 _symmetry_equiv_pos_as_xyz
  1  'x, y, z'
loop_
 _atom_site_type_symbol
 _atom_site_label
 _atom_site_symmetry_multiplicity
 _atom_site_fract_x
 _atom_site_fract_y
 _atom_site_fract_z
 _atom_site_occupancy
  Ta  Ta0  1  0.000001  0.499995  0.989721  1
  Ta  Ta1  1  0.499949  0.000011  0.168203  1
  Ta  Ta2  1  0.999957  0.499988  0.331805  1
  Ta  Ta3  1  0.499994  0.000005  0.510262  1
  Ta  Ta4  1  0.000046  0.499997  0.677192  1
  Ta  Ta5  1  0.500045  0.000004  0.822797  1
  Al  Al6  1  0.999992  0.999978  0.998639  1
  Al  Al7  1  0.499953  0.500014  0.161206  1
  Al  Al8  1  0.999924  0.999983  0.338777  1
  Al  Al9  1  0.499998  0.500019  0.501367  1
  Cu  Cu10  1  0.000054  0.000014  0.662927  1
  Cu  Cu11  1  0.500058  0.499989  0.837054  1
  Rh  Rh12  1  0.500000  0.240415  0.000082  1
  Rh  Rh13  1  0.500001  0.759579  0.000082  1
  Rh  Rh14  1  0.999961  0.251854  0.166139  1
  Rh  Rh15  1  0.999961  0.748149  0.166140  1
  Rh  Rh16  1  0.499958  0.248149  0.333881  1
  Rh  Rh17  1  0.499958  0.751842  0.333878  1
  Rh  Rh18  1  0.000002  0.259579  0.499927  1
  Rh  Rh19  1  0.000000  0.740427  0.499926  1
  Rh  Rh20  1  0.500047  0.257548  0.666098  1
  Rh  Rh21  1  0.500046  0.742456  0.666100  1
  Rh  Rh22  1  0.000045  0.242442  0.833900  1
  Rh  Rh23  1  0.000044  0.757557  0.833897  1
