# generated using pymatgen
data_ErNb8MoN12
_symmetry_space_group_name_H-M   'P 1'
_cell_length_a   5.25428405
_cell_length_b   5.24937430
_cell_length_c   10.55600500
_cell_angle_alpha   90.05771738
_cell_angle_beta   90.00776406
_cell_angle_gamma   120.06047789
_symmetry_Int_Tables_number   1
_chemical_formula_structural   ErNb8MoN12
_chemical_formula_sum   'Er1 Nb8 Mo1 N12'
_cell_volume   251.99155070
_cell_formula_units_Z   1
loop_
 _symmetry_equiv_pos_site_id
 _symmetry_equiv_pos_as_xyz
  1  'x, y, z'
loop_
 _atom_site_type_symbol
 _atom_site_label
 _atom_site_symmetry_multiplicity
 _atom_site_fract_x
 _atom_site_fract_y
 _atom_site_fract_z
 _atom_site_occupancy
  Er  Er0  1  0.666477  0.333312  0.998112  1
  Nb  Nb1  1  0.324661  0.999237  0.745989  1
  Nb  Nb2  1  0.997430  0.323460  0.745923  1
  Nb  Nb3  1  0.327617  0.325228  0.254358  1
  Nb  Nb4  1  0.677058  0.003465  0.254335  1
  Nb  Nb5  1  0.999106  0.674715  0.254190  1
  Nb  Nb6  1  0.332278  0.666708  0.005454  1
  Nb  Nb7  1  0.334284  0.666589  0.497603  1
  Nb  Nb8  1  0.665878  0.334722  0.499002  1
  Mo  Mo9  1  0.673236  0.671507  0.745322  1
  N  N10  1  0.664268  0.664324  0.380335  1
  N  N11  1  0.338033  0.001030  0.380263  1
  N  N12  1  0.000673  0.338121  0.380292  1
  N  N13  1  0.340543  0.340565  0.622177  1
  N  N14  1  0.659575  0.997276  0.621612  1
  N  N15  1  0.997065  0.659698  0.621903  1
  N  N16  1  0.335332  0.350130  0.868877  1
  N  N17  1  0.651880  0.981598  0.869036  1
  N  N18  1  0.012787  0.666238  0.869040  1
  N  N19  1  0.653521  0.667687  0.128412  1
  N  N20  1  0.334209  0.987422  0.128898  1
  N  N21  1  0.014091  0.346968  0.128868  1
