# generated using pymatgen
data_Co4Si2W6C
_symmetry_space_group_name_H-M   'P 1'
_cell_length_a   7.72909335
_cell_length_b   7.72909244
_cell_length_c   7.72909300
_cell_angle_alpha   59.99999331
_cell_angle_beta   59.99999721
_cell_angle_gamma   59.99999424
_symmetry_Int_Tables_number   1
_chemical_formula_structural   Co4Si2W6C
_chemical_formula_sum   'Co8 Si4 W12 C2'
_cell_volume   326.49049253
_cell_formula_units_Z   2
loop_
 _symmetry_equiv_pos_site_id
 _symmetry_equiv_pos_as_xyz
  1  'x, y, z'
loop_
 _atom_site_type_symbol
 _atom_site_label
 _atom_site_symmetry_multiplicity
 _atom_site_fract_x
 _atom_site_fract_y
 _atom_site_fract_z
 _atom_site_occupancy
  Co  Co0  1  0.418386  0.418386  0.744843  1
  Co  Co1  1  0.418386  0.744843  0.418386  1
  Co  Co2  1  0.744843  0.418386  0.418386  1
  Co  Co3  1  0.418386  0.418386  0.418386  1
  Co  Co4  1  0.831614  0.831614  0.505157  1
  Co  Co5  1  0.831614  0.505157  0.831614  1
  Co  Co6  1  0.505157  0.831614  0.831614  1
  Co  Co7  1  0.831614  0.831614  0.831614  1
  Si  Si8  1  0.625000  0.625000  0.125000  1
  Si  Si9  1  0.625000  0.125000  0.625000  1
  Si  Si10  1  0.125000  0.625000  0.625000  1
  Si  Si11  1  0.625000  0.625000  0.625000  1
  W  W12  1  0.052966  0.052966  0.447034  1
  W  W13  1  0.447034  0.052966  0.447034  1
  W  W14  1  0.052966  0.447034  0.447034  1
  W  W15  1  0.447034  0.447034  0.052966  1
  W  W16  1  0.052966  0.447034  0.052966  1
  W  W17  1  0.447034  0.052966  0.052966  1
  W  W18  1  0.197034  0.197034  0.802966  1
  W  W19  1  0.802966  0.197034  0.802966  1
  W  W20  1  0.197034  0.802966  0.802966  1
  W  W21  1  0.802966  0.802966  0.197034  1
  W  W22  1  0.197034  0.802966  0.197034  1
  W  W23  1  0.802966  0.197034  0.197034  1
  C  C24  1  0.250000  0.250000  0.250000  1
  C  C25  1  0.000000  0.000000  0.000000  1
