# generated using pymatgen
data_Sc4TiAl(B2Ru5)2
_symmetry_space_group_name_H-M   'P 1'
_cell_length_a   9.41516800
_cell_length_b   9.41516800
_cell_length_c   3.02884000
_cell_angle_alpha   90.00000000
_cell_angle_beta   90.00000000
_cell_angle_gamma   90.00000000
_symmetry_Int_Tables_number   1
_chemical_formula_structural   Sc4TiAl(B2Ru5)2
_chemical_formula_sum   'Sc4 Ti1 Al1 B4 Ru10'
_cell_volume   268.49269841
_cell_formula_units_Z   1
loop_
 _symmetry_equiv_pos_site_id
 _symmetry_equiv_pos_as_xyz
  1  'x, y, z'
loop_
 _atom_site_type_symbol
 _atom_site_label
 _atom_site_symmetry_multiplicity
 _atom_site_fract_x
 _atom_site_fract_y
 _atom_site_fract_z
 _atom_site_occupancy
  Sc  Sc0  1  0.672948  0.175235  0.000000  1
  Sc  Sc1  1  0.327052  0.824765  0.000000  1
  Sc  Sc2  1  0.175235  0.327052  0.000000  1
  Sc  Sc3  1  0.824765  0.672948  0.000000  1
  Ti  Ti4  1  0.000000  0.000000  0.000000  1
  Al  Al5  1  0.500000  0.500000  0.000000  1
  B  B6  1  0.126386  0.621889  0.000000  1
  B  B7  1  0.873614  0.378111  0.000000  1
  B  B8  1  0.621889  0.873614  0.000000  1
  B  B9  1  0.378111  0.126386  0.000000  1
  Ru  Ru10  1  0.214685  0.072276  0.500000  1
  Ru  Ru11  1  0.785315  0.927724  0.500000  1
  Ru  Ru12  1  0.072276  0.785315  0.500000  1
  Ru  Ru13  1  0.714761  0.429024  0.500000  1
  Ru  Ru14  1  0.927724  0.214685  0.500000  1
  Ru  Ru15  1  0.285239  0.570976  0.500000  1
  Ru  Ru16  1  0.570976  0.714761  0.500000  1
  Ru  Ru17  1  0.429024  0.285239  0.500000  1
  Ru  Ru18  1  0.500000  0.000000  0.500000  1
  Ru  Ru19  1  0.000000  0.500000  0.500000  1
