# generated using pymatgen
data_MnNb6Ga4CoN2
_symmetry_space_group_name_H-M   'P 1'
_cell_length_a   8.21228373
_cell_length_b   8.23274227
_cell_length_c   8.21228431
_cell_angle_alpha   59.91755669
_cell_angle_beta   59.85123553
_cell_angle_gamma   59.91755890
_symmetry_Int_Tables_number   1
_chemical_formula_structural   MnNb6Ga4CoN2
_chemical_formula_sum   'Mn2 Nb12 Ga8 Co2 N4'
_cell_volume   391.67486602
_cell_formula_units_Z   2
loop_
 _symmetry_equiv_pos_site_id
 _symmetry_equiv_pos_as_xyz
  1  'x, y, z'
loop_
 _atom_site_type_symbol
 _atom_site_label
 _atom_site_symmetry_multiplicity
 _atom_site_fract_x
 _atom_site_fract_y
 _atom_site_fract_z
 _atom_site_occupancy
  Mn  Mn0  1  0.625000  0.125000  0.625000  1
  Mn  Mn1  1  0.625000  0.625000  0.625000  1
  Nb  Nb2  1  0.805120  0.805495  0.196182  1
  Nb  Nb3  1  0.196182  0.193203  0.805120  1
  Nb  Nb4  1  0.803654  0.196346  0.803654  1
  Nb  Nb5  1  0.192365  0.807635  0.192365  1
  Nb  Nb6  1  0.196182  0.805495  0.805120  1
  Nb  Nb7  1  0.805120  0.193203  0.196182  1
  Nb  Nb8  1  0.444880  0.444505  0.053818  1
  Nb  Nb9  1  0.053818  0.056797  0.444880  1
  Nb  Nb10  1  0.446346  0.053654  0.446346  1
  Nb  Nb11  1  0.057635  0.442365  0.057635  1
  Nb  Nb12  1  0.053818  0.444505  0.444880  1
  Nb  Nb13  1  0.444880  0.056797  0.053818  1
  Ga  Ga14  1  0.752826  0.418211  0.410755  1
  Ga  Ga15  1  0.413391  0.753563  0.413391  1
  Ga  Ga16  1  0.410755  0.418211  0.752826  1
  Ga  Ga17  1  0.413391  0.419657  0.413391  1
  Ga  Ga18  1  0.497174  0.831789  0.839245  1
  Ga  Ga19  1  0.836609  0.496437  0.836609  1
  Ga  Ga20  1  0.839245  0.831789  0.497174  1
  Ga  Ga21  1  0.836609  0.830343  0.836609  1
  Co  Co22  1  0.125000  0.625000  0.625000  1
  Co  Co23  1  0.625000  0.625000  0.125000  1
  N  N24  1  0.625000  0.125000  0.125000  1
  N  N25  1  0.125000  0.625000  0.125000  1
  N  N26  1  0.125000  0.125000  0.625000  1
  N  N27  1  0.125000  0.125000  0.125000  1
