# generated using pymatgen
data_YEr2Tm5(ReB6)4
_symmetry_space_group_name_H-M   'P 1'
_cell_length_a   3.65092500
_cell_length_b   9.11954601
_cell_length_c   11.49297601
_cell_angle_alpha   89.99538612
_cell_angle_beta   89.99994186
_cell_angle_gamma   89.99981124
_symmetry_Int_Tables_number   1
_chemical_formula_structural   YEr2Tm5(ReB6)4
_chemical_formula_sum   'Y1 Er2 Tm5 Re4 B24'
_cell_volume   382.65608944
_cell_formula_units_Z   1
loop_
 _symmetry_equiv_pos_site_id
 _symmetry_equiv_pos_as_xyz
  1  'x, y, z'
loop_
 _atom_site_type_symbol
 _atom_site_label
 _atom_site_symmetry_multiplicity
 _atom_site_fract_x
 _atom_site_fract_y
 _atom_site_fract_z
 _atom_site_occupancy
  Y  Y0  1  0.999991  0.323031  0.413896  1
  Er  Er1  1  0.000009  0.676716  0.586209  1
  Er  Er2  1  0.000013  0.823302  0.086087  1
  Tm  Tm3  1  0.000002  0.176608  0.913868  1
  Tm  Tm4  1  0.000002  0.943211  0.370182  1
  Tm  Tm5  1  0.000001  0.056641  0.629919  1
  Tm  Tm6  1  0.999998  0.443294  0.129512  1
  Tm  Tm7  1  0.000000  0.556724  0.870384  1
  Re  Re8  1  0.000004  0.639414  0.320325  1
  Re  Re9  1  0.000005  0.360993  0.680120  1
  Re  Re10  1  0.999993  0.138636  0.178888  1
  Re  Re11  1  0.999997  0.861305  0.820644  1
  B  B12  1  0.499999  0.553709  0.433110  1
  B  B13  1  0.499999  0.446957  0.567376  1
  B  B14  1  0.499997  0.053229  0.066567  1
  B  B15  1  0.499997  0.947008  0.933156  1
  B  B16  1  0.499995  0.750108  0.418944  1
  B  B17  1  0.500001  0.249882  0.581770  1
  B  B18  1  0.500000  0.249938  0.080633  1
  B  B19  1  0.499999  0.750121  0.918925  1
  B  B20  1  0.500001  0.792831  0.265159  1
  B  B21  1  0.500001  0.207077  0.735122  1
  B  B22  1  0.499994  0.292578  0.234169  1
  B  B23  1  0.500000  0.707273  0.765305  1
  B  B24  1  0.500001  0.630655  0.184826  1
  B  B25  1  0.500001  0.369244  0.815322  1
  B  B26  1  0.499999  0.130176  0.314615  1
  B  B27  1  0.500002  0.869478  0.685050  1
  B  B28  1  0.499999  0.981533  0.211984  1
  B  B29  1  0.500002  0.018634  0.788044  1
  B  B30  1  0.499999  0.482067  0.287470  1
  B  B31  1  0.500002  0.518436  0.712365  1
  B  B32  1  0.500000  0.599401  0.027690  1
  B  B33  1  0.500001  0.400326  0.972167  1
  B  B34  1  0.500000  0.098763  0.472456  1
  B  B35  1  0.499995  0.900699  0.527740  1
