# generated using pymatgen
data_Zn22FePd2
_symmetry_space_group_name_H-M   'P 1'
_cell_length_a   7.77619383
_cell_length_b   7.77619469
_cell_length_c   7.79898237
_cell_angle_alpha   72.06675351
_cell_angle_beta   72.06675215
_cell_angle_gamma   57.97630507
_symmetry_Int_Tables_number   1
_chemical_formula_structural   Zn22FePd2
_chemical_formula_sum   'Zn22 Fe1 Pd2'
_cell_volume   374.24389934
_cell_formula_units_Z   1
loop_
 _symmetry_equiv_pos_site_id
 _symmetry_equiv_pos_as_xyz
  1  'x, y, z'
loop_
 _atom_site_type_symbol
 _atom_site_label
 _atom_site_symmetry_multiplicity
 _atom_site_fract_x
 _atom_site_fract_y
 _atom_site_fract_z
 _atom_site_occupancy
  Zn  Zn0  1  0.335173  0.745487  0.317569  1
  Zn  Zn1  1  0.664827  0.254513  0.682431  1
  Zn  Zn2  1  0.254513  0.664827  0.682431  1
  Zn  Zn3  1  0.745487  0.335173  0.317569  1
  Zn  Zn4  1  0.683132  0.316868  0.000000  1
  Zn  Zn5  1  0.316868  0.683132  0.000000  1
  Zn  Zn6  1  0.832975  0.832975  0.777868  1
  Zn  Zn7  1  0.167025  0.167025  0.222132  1
  Zn  Zn8  1  0.977076  0.977076  0.175984  1
  Zn  Zn9  1  0.022924  0.022924  0.824016  1
  Zn  Zn10  1  0.352310  0.352310  0.277235  1
  Zn  Zn11  1  0.647690  0.647690  0.722765  1
  Zn  Zn12  1  0.686218  0.686218  0.380221  1
  Zn  Zn13  1  0.313782  0.313782  0.619779  1
  Zn  Zn14  1  0.662323  0.022208  0.462614  1
  Zn  Zn15  1  0.337677  0.977792  0.537386  1
  Zn  Zn16  1  0.977792  0.337677  0.537386  1
  Zn  Zn17  1  0.022208  0.662323  0.462614  1
  Zn  Zn18  1  0.624075  0.997861  0.105820  1
  Zn  Zn19  1  0.375925  0.002139  0.894180  1
  Zn  Zn20  1  0.002139  0.375925  0.894180  1
  Zn  Zn21  1  0.997861  0.624075  0.105820  1
  Fe  Fe22  1  0.000000  0.000000  0.500000  1
  Pd  Pd23  1  0.656643  0.656643  0.057628  1
  Pd  Pd24  1  0.343357  0.343357  0.942372  1
