# generated using pymatgen
data_Tb3Er7In8(AgPt)2
_symmetry_space_group_name_H-M   'P 1'
_cell_length_a   3.62212200
_cell_length_b   8.17177616
_cell_length_c   18.40766217
_cell_angle_alpha   90.00359658
_cell_angle_beta   90.00000000
_cell_angle_gamma   90.00000000
_symmetry_Int_Tables_number   1
_chemical_formula_structural   Tb3Er7In8(AgPt)2
_chemical_formula_sum   'Tb3 Er7 In8 Ag2 Pt2'
_cell_volume   544.85152502
_cell_formula_units_Z   1
loop_
 _symmetry_equiv_pos_site_id
 _symmetry_equiv_pos_as_xyz
  1  'x, y, z'
loop_
 _atom_site_type_symbol
 _atom_site_label
 _atom_site_symmetry_multiplicity
 _atom_site_fract_x
 _atom_site_fract_y
 _atom_site_fract_z
 _atom_site_occupancy
  Tb  Tb0  1  0.000000  0.121503  0.422565  1
  Tb  Tb1  1  0.000000  0.000146  0.999872  1
  Tb  Tb2  1  0.000000  0.499803  0.500096  1
  Er  Er3  1  0.000000  0.878356  0.578819  1
  Er  Er4  1  0.000000  0.382303  0.916251  1
  Er  Er5  1  0.000000  0.617789  0.083541  1
  Er  Er6  1  0.000000  0.256854  0.214404  1
  Er  Er7  1  0.000000  0.743248  0.785522  1
  Er  Er8  1  0.000000  0.275981  0.721232  1
  Er  Er9  1  0.000000  0.723981  0.278683  1
  In  In10  1  0.500000  0.416471  0.351048  1
  In  In11  1  0.500000  0.584637  0.648605  1
  In  In12  1  0.500000  0.076851  0.850891  1
  In  In13  1  0.500000  0.922618  0.148630  1
  In  In14  1  0.500000  0.294516  0.064655  1
  In  In15  1  0.500000  0.705595  0.935166  1
  In  In16  1  0.500000  0.208475  0.571429  1
  In  In17  1  0.500000  0.790353  0.429583  1
  Ag  Ag18  1  0.500000  0.026894  0.300652  1
  Ag  Ag19  1  0.500000  0.972291  0.698560  1
  Pt  Pt20  1  0.500000  0.473247  0.804760  1
  Pt  Pt21  1  0.500000  0.528089  0.195035  1
