# generated using pymatgen
data_Pr3In4Te
_symmetry_space_group_name_H-M   'P 1'
_cell_length_a   8.66563901
_cell_length_b   8.66563947
_cell_length_c   8.66564060
_cell_angle_alpha   119.43678460
_cell_angle_beta   119.43678825
_cell_angle_gamma   90.97831880
_symmetry_Int_Tables_number   1
_chemical_formula_structural   Pr3In4Te
_chemical_formula_sum   'Pr6 In8 Te2'
_cell_volume   463.98060655
_cell_formula_units_Z   2
loop_
 _symmetry_equiv_pos_site_id
 _symmetry_equiv_pos_as_xyz
  1  'x, y, z'
loop_
 _atom_site_type_symbol
 _atom_site_label
 _atom_site_symmetry_multiplicity
 _atom_site_fract_x
 _atom_site_fract_y
 _atom_site_fract_z
 _atom_site_occupancy
  Pr  Pr0  1  0.750000  0.750000  0.000000  1
  Pr  Pr1  1  0.250000  0.250000  0.000000  1
  Pr  Pr2  1  0.659874  0.159874  0.819748  1
  Pr  Pr3  1  0.340126  0.840126  0.180252  1
  Pr  Pr4  1  0.159874  0.340126  0.500000  1
  Pr  Pr5  1  0.840126  0.659874  0.500000  1
  In  In6  1  0.332220  0.832220  0.790629  1
  In  In7  1  0.667780  0.167780  0.209371  1
  In  In8  1  0.041590  0.541590  0.209371  1
  In  In9  1  0.832220  0.041590  0.500000  1
  In  In10  1  0.458410  0.667780  0.500000  1
  In  In11  1  0.958410  0.458410  0.790629  1
  In  In12  1  0.167780  0.958410  0.500000  1
  In  In13  1  0.541590  0.332220  0.500000  1
  Te  Te14  1  0.500000  0.500000  0.000000  1
  Te  Te15  1  0.000000  0.000000  0.000000  1
