# generated using pymatgen
data_TbHo6Th3Sn8
_symmetry_space_group_name_H-M   'P 1'
_cell_length_a   8.09899800
_cell_length_b   8.20053600
_cell_length_c   15.49755000
_cell_angle_alpha   89.99945719
_cell_angle_beta   90.00000000
_cell_angle_gamma   90.00000000
_symmetry_Int_Tables_number   1
_chemical_formula_structural   TbHo6Th3Sn8
_chemical_formula_sum   'Tb2 Ho12 Th6 Sn16'
_cell_volume   1029.28721275
_cell_formula_units_Z   2
loop_
 _symmetry_equiv_pos_site_id
 _symmetry_equiv_pos_as_xyz
  1  'x, y, z'
loop_
 _atom_site_type_symbol
 _atom_site_label
 _atom_site_symmetry_multiplicity
 _atom_site_fract_x
 _atom_site_fract_y
 _atom_site_fract_z
 _atom_site_occupancy
  Tb  Tb0  1  0.522241  0.322753  0.900512  1
  Tb  Tb1  1  0.022241  0.177247  0.599488  1
  Ho  Ho2  1  0.358257  0.835716  0.875685  1
  Ho  Ho3  1  0.858257  0.664284  0.624315  1
  Ho  Ho4  1  0.638297  0.164868  0.376891  1
  Ho  Ho5  1  0.138297  0.335132  0.123109  1
  Ho  Ho6  1  0.640663  0.163939  0.123148  1
  Ho  Ho7  1  0.140663  0.336061  0.376852  1
  Ho  Ho8  1  0.360905  0.838241  0.624621  1
  Ho  Ho9  1  0.860905  0.661759  0.875379  1
  Ho  Ho10  1  0.190003  0.499953  0.749920  1
  Ho  Ho11  1  0.690003  0.000047  0.750080  1
  Ho  Ho12  1  0.810510  0.501335  0.249857  1
  Ho  Ho13  1  0.310510  0.998665  0.250143  1
  Th  Th14  1  0.481759  0.679196  0.404006  1
  Th  Th15  1  0.981759  0.820804  0.095994  1
  Th  Th16  1  0.482890  0.679038  0.096428  1
  Th  Th17  1  0.982890  0.820962  0.403572  1
  Th  Th18  1  0.515231  0.321926  0.595374  1
  Th  Th19  1  0.015231  0.178074  0.904626  1
  Sn  Sn20  1  0.300040  0.037408  0.042272  1
  Sn  Sn21  1  0.800040  0.462592  0.457728  1
  Sn  Sn22  1  0.704364  0.964793  0.542507  1
  Sn  Sn23  1  0.204364  0.535207  0.957493  1
  Sn  Sn24  1  0.697109  0.958998  0.958261  1
  Sn  Sn25  1  0.197109  0.541002  0.541739  1
  Sn  Sn26  1  0.297816  0.039907  0.459310  1
  Sn  Sn27  1  0.797816  0.460093  0.040690  1
  Sn  Sn28  1  0.556308  0.620508  0.749415  1
  Sn  Sn29  1  0.056308  0.879492  0.750585  1
  Sn  Sn30  1  0.442918  0.377436  0.249716  1
  Sn  Sn31  1  0.942918  0.122564  0.250284  1
  Sn  Sn32  1  0.324525  0.146825  0.751755  1
  Sn  Sn33  1  0.824525  0.353175  0.748245  1
  Sn  Sn34  1  0.676165  0.857948  0.250185  1
  Sn  Sn35  1  0.176165  0.642052  0.249815  1
