# generated using pymatgen
data_Li4PaCu9As7
_symmetry_space_group_name_H-M   'P 1'
_cell_length_a   9.81140100
_cell_length_b   9.81140254
_cell_length_c   3.95487400
_cell_angle_alpha   90.00000000
_cell_angle_beta   90.00000000
_cell_angle_gamma   119.99999819
_symmetry_Int_Tables_number   1
_chemical_formula_structural   Li4PaCu9As7
_chemical_formula_sum   'Li4 Pa1 Cu9 As7'
_cell_volume   329.70490753
_cell_formula_units_Z   1
loop_
 _symmetry_equiv_pos_site_id
 _symmetry_equiv_pos_as_xyz
  1  'x, y, z'
loop_
 _atom_site_type_symbol
 _atom_site_label
 _atom_site_symmetry_multiplicity
 _atom_site_fract_x
 _atom_site_fract_y
 _atom_site_fract_z
 _atom_site_occupancy
  Li  Li0  1  0.884941  0.788541  0.500000  1
  Li  Li1  1  0.903600  0.115059  0.500000  1
  Li  Li2  1  0.211459  0.096400  0.500000  1
  Li  Li3  1  0.666667  0.333333  0.500000  1
  Pa  Pa4  1  0.333333  0.666667  0.000000  1
  Cu  Cu5  1  0.716040  0.879290  0.000000  1
  Cu  Cu6  1  0.163250  0.283960  0.000000  1
  Cu  Cu7  1  0.120710  0.836750  0.000000  1
  Cu  Cu8  1  0.626675  0.575434  0.000000  1
  Cu  Cu9  1  0.948761  0.373325  0.000000  1
  Cu  Cu10  1  0.424566  0.051239  0.000000  1
  Cu  Cu11  1  0.579934  0.969849  0.500000  1
  Cu  Cu12  1  0.389914  0.420066  0.500000  1
  Cu  Cu13  1  0.030151  0.610086  0.500000  1
  As  As14  1  0.574787  0.708936  0.500000  1
  As  As15  1  0.134151  0.425213  0.500000  1
  As  As16  1  0.291064  0.865849  0.500000  1
  As  As17  1  0.000000  0.000000  0.000000  1
  As  As18  1  0.873463  0.575114  0.000000  1
  As  As19  1  0.701651  0.126537  0.000000  1
  As  As20  1  0.424886  0.298349  0.000000  1
