# generated using pymatgen
data_K3EuPa2F14
_symmetry_space_group_name_H-M   'P 1'
_cell_length_a   7.59840426
_cell_length_b   7.58650395
_cell_length_c   8.07170500
_cell_angle_alpha   58.64358136
_cell_angle_beta   58.57836951
_cell_angle_gamma   52.42632817
_symmetry_Int_Tables_number   1
_chemical_formula_structural   K3EuPa2F14
_chemical_formula_sum   'K3 Eu1 Pa2 F14'
_cell_volume   300.26872819
_cell_formula_units_Z   1
loop_
 _symmetry_equiv_pos_site_id
 _symmetry_equiv_pos_as_xyz
  1  'x, y, z'
loop_
 _atom_site_type_symbol
 _atom_site_label
 _atom_site_symmetry_multiplicity
 _atom_site_fract_x
 _atom_site_fract_y
 _atom_site_fract_z
 _atom_site_occupancy
  K  K0  1  0.338587  0.331593  0.740169  1
  K  K1  1  0.317934  0.331584  0.249867  1
  K  K2  1  0.670138  0.679120  0.247327  1
  Eu  Eu3  1  0.687011  0.684872  0.730509  1
  Pa  Pa4  1  0.014240  0.985034  0.749656  1
  Pa  Pa5  1  0.986983  0.019269  0.240736  1
  F  F6  1  0.045956  0.791571  0.074760  1
  F  F7  1  0.217987  0.928484  0.433088  1
  F  F8  1  0.926688  0.245540  0.915439  1
  F  F9  1  0.779870  0.058581  0.573217  1
  F  F10  1  0.873527  0.368036  0.563230  1
  F  F11  1  0.651468  0.110086  0.947755  1
  F  F12  1  0.090693  0.649829  0.461742  1
  F  F13  1  0.365861  0.865218  0.038390  1
  F  F14  1  0.925588  0.697755  0.853310  1
  F  F15  1  0.303869  0.060826  0.650697  1
  F  F16  1  0.081269  0.287179  0.137533  1
  F  F17  1  0.699931  0.915583  0.379037  1
  F  F18  1  0.373479  0.642518  0.763999  1
  F  F19  1  0.648924  0.347325  0.249536  1
