# generated using pymatgen
data_La2Si7(MoPt3)3
_symmetry_space_group_name_H-M   'P 1'
_cell_length_a   9.94013200
_cell_length_b   9.94012992
_cell_length_c   4.00379300
_cell_angle_alpha   90.00000000
_cell_angle_beta   90.00000000
_cell_angle_gamma   120.00000028
_symmetry_Int_Tables_number   1
_chemical_formula_structural   La2Si7(MoPt3)3
_chemical_formula_sum   'La2 Si7 Mo3 Pt9'
_cell_volume   342.59929005
_cell_formula_units_Z   1
loop_
 _symmetry_equiv_pos_site_id
 _symmetry_equiv_pos_as_xyz
  1  'x, y, z'
loop_
 _atom_site_type_symbol
 _atom_site_label
 _atom_site_symmetry_multiplicity
 _atom_site_fract_x
 _atom_site_fract_y
 _atom_site_fract_z
 _atom_site_occupancy
  La  La0  1  0.000000  0.000000  0.000000  1
  La  La1  1  0.333333  0.666667  0.500000  1
  Si  Si2  1  0.268503  0.225970  0.500000  1
  Si  Si3  1  0.774030  0.042535  0.500000  1
  Si  Si4  1  0.957465  0.731497  0.500000  1
  Si  Si5  1  0.555885  0.626593  0.000000  1
  Si  Si6  1  0.373407  0.929291  0.000000  1
  Si  Si7  1  0.070709  0.444115  0.000000  1
  Si  Si8  1  0.666667  0.333333  0.000000  1
  Mo  Mo9  1  0.878640  0.450671  0.500000  1
  Mo  Mo10  1  0.572031  0.121360  0.500000  1
  Mo  Mo11  1  0.549329  0.427969  0.500000  1
  Pt  Pt12  1  0.228048  0.947333  0.500000  1
  Pt  Pt13  1  0.052667  0.280716  0.500000  1
  Pt  Pt14  1  0.719284  0.771952  0.500000  1
  Pt  Pt15  1  0.299738  0.405009  0.000000  1
  Pt  Pt16  1  0.594991  0.894729  0.000000  1
  Pt  Pt17  1  0.105271  0.700262  0.000000  1
  Pt  Pt18  1  0.389216  0.178900  0.000000  1
  Pt  Pt19  1  0.821100  0.210317  0.000000  1
  Pt  Pt20  1  0.789683  0.610784  0.000000  1
