# generated using pymatgen
data_Sc3Al7Fe3Si5
_symmetry_space_group_name_H-M   'P 1'
_cell_length_a   8.29600800
_cell_length_b   8.29600828
_cell_length_c   8.87624700
_cell_angle_alpha   90.00000000
_cell_angle_beta   90.00000000
_cell_angle_gamma   119.99999889
_symmetry_Int_Tables_number   1
_chemical_formula_structural   Sc3Al7Fe3Si5
_chemical_formula_sum   'Sc6 Al14 Fe6 Si10'
_cell_volume   529.05199255
_cell_formula_units_Z   2
loop_
 _symmetry_equiv_pos_site_id
 _symmetry_equiv_pos_as_xyz
  1  'x, y, z'
loop_
 _atom_site_type_symbol
 _atom_site_label
 _atom_site_symmetry_multiplicity
 _atom_site_fract_x
 _atom_site_fract_y
 _atom_site_fract_z
 _atom_site_occupancy
  Sc  Sc0  1  0.198509  0.801491  0.250000  1
  Sc  Sc1  1  0.198509  0.397017  0.250000  1
  Sc  Sc2  1  0.602983  0.801491  0.250000  1
  Sc  Sc3  1  0.801491  0.198509  0.750000  1
  Sc  Sc4  1  0.801491  0.602983  0.750000  1
  Sc  Sc5  1  0.397017  0.198509  0.750000  1
  Al  Al6  1  0.160651  0.839349  0.922629  1
  Al  Al7  1  0.160651  0.321303  0.922629  1
  Al  Al8  1  0.678697  0.839349  0.922629  1
  Al  Al9  1  0.839349  0.160651  0.077371  1
  Al  Al10  1  0.839349  0.678697  0.077371  1
  Al  Al11  1  0.321303  0.160651  0.077371  1
  Al  Al12  1  0.839349  0.160651  0.422629  1
  Al  Al13  1  0.839349  0.678697  0.422629  1
  Al  Al14  1  0.321303  0.160651  0.422629  1
  Al  Al15  1  0.160651  0.839349  0.577371  1
  Al  Al16  1  0.160651  0.321303  0.577371  1
  Al  Al17  1  0.678697  0.839349  0.577371  1
  Al  Al18  1  0.000000  0.000000  0.250000  1
  Al  Al19  1  0.000000  0.000000  0.750000  1
  Fe  Fe20  1  0.500000  0.500000  0.500000  1
  Fe  Fe21  1  0.500000  0.000000  0.500000  1
  Fe  Fe22  1  0.000000  0.500000  0.500000  1
  Fe  Fe23  1  0.500000  0.500000  0.000000  1
  Fe  Fe24  1  0.500000  0.000000  0.000000  1
  Fe  Fe25  1  0.000000  0.500000  0.000000  1
  Si  Si26  1  0.560515  0.439485  0.250000  1
  Si  Si27  1  0.560515  0.121030  0.250000  1
  Si  Si28  1  0.878970  0.439485  0.250000  1
  Si  Si29  1  0.439485  0.560515  0.750000  1
  Si  Si30  1  0.439485  0.878970  0.750000  1
  Si  Si31  1  0.121030  0.560515  0.750000  1
  Si  Si32  1  0.333333  0.666667  0.460514  1
  Si  Si33  1  0.666667  0.333333  0.539486  1
  Si  Si34  1  0.666667  0.333333  0.960514  1
  Si  Si35  1  0.333333  0.666667  0.039486  1
