# generated using pymatgen
data_Ba11(SnSb2)6
_symmetry_space_group_name_H-M   'P 1'
_cell_length_a   17.65512896
_cell_length_b   17.65512846
_cell_length_c   13.76496345
_cell_angle_alpha   66.68640788
_cell_angle_beta   66.68640811
_cell_angle_gamma   17.10222982
_symmetry_Int_Tables_number   1
_chemical_formula_structural   Ba11(SnSb2)6
_chemical_formula_sum   'Ba11 Sn6 Sb12'
_cell_volume   1156.31029780
_cell_formula_units_Z   1
loop_
 _symmetry_equiv_pos_site_id
 _symmetry_equiv_pos_as_xyz
  1  'x, y, z'
loop_
 _atom_site_type_symbol
 _atom_site_label
 _atom_site_symmetry_multiplicity
 _atom_site_fract_x
 _atom_site_fract_y
 _atom_site_fract_z
 _atom_site_occupancy
  Ba  Ba0  1  0.983129  0.983129  0.683613  1
  Ba  Ba1  1  0.016871  0.016871  0.316387  1
  Ba  Ba2  1  0.886638  0.886638  0.536496  1
  Ba  Ba3  1  0.113362  0.113362  0.463504  1
  Ba  Ba4  1  0.871960  0.871960  0.042739  1
  Ba  Ba5  1  0.128040  0.128040  0.957261  1
  Ba  Ba6  1  0.800590  0.800590  0.367244  1
  Ba  Ba7  1  0.199410  0.199410  0.632756  1
  Ba  Ba8  1  0.717711  0.717711  0.155066  1
  Ba  Ba9  1  0.282289  0.282289  0.844934  1
  Ba  Ba10  1  0.000000  0.000000  0.000000  1
  Sn  Sn11  1  0.449341  0.449341  0.238948  1
  Sn  Sn12  1  0.398379  0.398379  0.775280  1
  Sn  Sn13  1  0.601621  0.601621  0.224720  1
  Sn  Sn14  1  0.550659  0.550659  0.761052  1
  Sn  Sn15  1  0.228734  0.228734  0.356715  1
  Sn  Sn16  1  0.771266  0.771266  0.643285  1
  Sb  Sb17  1  0.542333  0.542333  0.109509  1
  Sb  Sb18  1  0.457667  0.457667  0.890491  1
  Sb  Sb19  1  0.544539  0.544539  0.467785  1
  Sb  Sb20  1  0.455461  0.455461  0.532215  1
  Sb  Sb21  1  0.292186  0.292186  0.141240  1
  Sb  Sb22  1  0.707814  0.707814  0.858760  1
  Sb  Sb23  1  0.307412  0.307412  0.568981  1
  Sb  Sb24  1  0.692588  0.692588  0.431019  1
  Sb  Sb25  1  0.863040  0.863040  0.807542  1
  Sb  Sb26  1  0.083130  0.083130  0.747938  1
  Sb  Sb27  1  0.916870  0.916870  0.252062  1
  Sb  Sb28  1  0.136960  0.136960  0.192458  1
