# generated using pymatgen
data_CeTh3Mg2Si3Ge
_symmetry_space_group_name_H-M   'P 1'
_cell_length_a   7.30488127
_cell_length_b   7.30358226
_cell_length_c   4.41042800
_cell_angle_alpha   90.00000000
_cell_angle_beta   90.00000000
_cell_angle_gamma   90.11631340
_symmetry_Int_Tables_number   1
_chemical_formula_structural   CeTh3Mg2Si3Ge
_chemical_formula_sum   'Ce1 Th3 Mg2 Si3 Ge1'
_cell_volume   235.30379335
_cell_formula_units_Z   1
loop_
 _symmetry_equiv_pos_site_id
 _symmetry_equiv_pos_as_xyz
  1  'x, y, z'
loop_
 _atom_site_type_symbol
 _atom_site_label
 _atom_site_symmetry_multiplicity
 _atom_site_fract_x
 _atom_site_fract_y
 _atom_site_fract_z
 _atom_site_occupancy
  Ce  Ce0  1  0.320722  0.817022  0.500000  1
  Th  Th1  1  0.681947  0.178742  0.500000  1
  Th  Th2  1  0.176537  0.324481  0.500000  1
  Th  Th3  1  0.821301  0.678718  0.500000  1
  Mg  Mg4  1  0.999407  0.997753  0.000000  1
  Mg  Mg5  1  0.499991  0.503594  0.000000  1
  Si  Si6  1  0.882396  0.382679  0.000000  1
  Si  Si7  1  0.620311  0.879026  0.000000  1
  Si  Si8  1  0.118375  0.619143  0.000000  1
  Ge  Ge9  1  0.379013  0.118841  0.000000  1
