# generated using pymatgen
data_Er4Lu16Bi5Sb7
_symmetry_space_group_name_H-M   'P 1'
_cell_length_a   8.02876110
_cell_length_b   9.27083905
_cell_length_c   11.70773026
_cell_angle_alpha   90.05363532
_cell_angle_beta   89.91795027
_cell_angle_gamma   90.00887738
_symmetry_Int_Tables_number   1
_chemical_formula_structural   Er4Lu16Bi5Sb7
_chemical_formula_sum   'Er4 Lu16 Bi5 Sb7'
_cell_volume   871.44432021
_cell_formula_units_Z   1
loop_
 _symmetry_equiv_pos_site_id
 _symmetry_equiv_pos_as_xyz
  1  'x, y, z'
loop_
 _atom_site_type_symbol
 _atom_site_label
 _atom_site_symmetry_multiplicity
 _atom_site_fract_x
 _atom_site_fract_y
 _atom_site_fract_z
 _atom_site_occupancy
  Er  Er0  1  0.314431  0.251142  0.217196  1
  Er  Er1  1  0.814655  0.248861  0.282796  1
  Er  Er2  1  0.682652  0.747960  0.782353  1
  Er  Er3  1  0.187034  0.746722  0.716461  1
  Lu  Lu4  1  0.352640  0.750613  0.216253  1
  Lu  Lu5  1  0.852828  0.749387  0.283915  1
  Lu  Lu6  1  0.644564  0.253019  0.783322  1
  Lu  Lu7  1  0.150436  0.252288  0.715094  1
  Lu  Lu8  1  0.690643  0.564849  0.059327  1
  Lu  Lu9  1  0.191001  0.934816  0.440841  1
  Lu  Lu10  1  0.310979  0.065824  0.941562  1
  Lu  Lu11  1  0.808909  0.435098  0.559108  1
  Lu  Lu12  1  0.311641  0.435479  0.940890  1
  Lu  Lu13  1  0.809692  0.065036  0.557141  1
  Lu  Lu14  1  0.687806  0.934906  0.060969  1
  Lu  Lu15  1  0.189022  0.564607  0.440543  1
  Lu  Lu16  1  0.474271  0.249943  0.489207  1
  Lu  Lu17  1  0.975598  0.252339  0.012392  1
  Lu  Lu18  1  0.525101  0.749712  0.510497  1
  Lu  Lu19  1  0.026080  0.747980  0.990756  1
  Bi  Bi20  1  0.934570  0.004539  0.825625  1
  Bi  Bi21  1  0.434521  0.004291  0.674990  1
  Bi  Bi22  1  0.934352  0.495409  0.825289  1
  Bi  Bi23  1  0.565681  0.504355  0.325231  1
  Bi  Bi24  1  0.065633  0.995634  0.174631  1
  Sb  Sb25  1  0.403843  0.750329  0.959627  1
  Sb  Sb26  1  0.904076  0.750035  0.540789  1
  Sb  Sb27  1  0.596772  0.249940  0.040584  1
  Sb  Sb28  1  0.095687  0.249838  0.459144  1
  Sb  Sb29  1  0.564573  0.994885  0.327396  1
  Sb  Sb30  1  0.064993  0.505089  0.173780  1
  Sb  Sb31  1  0.435318  0.495075  0.672290  1
