# generated using pymatgen
data_Ho2ErGaSn3Ir2
_symmetry_space_group_name_H-M   'P 1'
_cell_length_a   7.41311304
_cell_length_b   7.41668744
_cell_length_c   4.10200600
_cell_angle_alpha   90.00000000
_cell_angle_beta   90.00000000
_cell_angle_gamma   119.99622750
_symmetry_Int_Tables_number   1
_chemical_formula_structural   Ho2ErGaSn3Ir2
_chemical_formula_sum   'Ho2 Er1 Ga1 Sn3 Ir2'
_cell_volume   195.32329006
_cell_formula_units_Z   1
loop_
 _symmetry_equiv_pos_site_id
 _symmetry_equiv_pos_as_xyz
  1  'x, y, z'
loop_
 _atom_site_type_symbol
 _atom_site_label
 _atom_site_symmetry_multiplicity
 _atom_site_fract_x
 _atom_site_fract_y
 _atom_site_fract_z
 _atom_site_occupancy
  Ho  Ho0  1  0.396595  0.410207  0.500000  1
  Ho  Ho1  1  0.589828  0.986427  0.500000  1
  Er  Er2  1  0.013813  0.603731  0.500000  1
  Ga  Ga3  1  0.666906  0.333496  0.000000  1
  Sn  Sn4  1  0.742940  0.747628  0.000000  1
  Sn  Sn5  1  0.252256  0.995042  0.000000  1
  Sn  Sn6  1  0.004750  0.257233  0.000000  1
  Ir  Ir7  1  0.332915  0.666556  0.000000  1
  Ir  Ir8  1  0.999998  0.999679  0.500000  1
