# generated using pymatgen
data_Hf5Al12GaSi4Ir7
_symmetry_space_group_name_H-M   'P 1'
_cell_length_a   8.64096622
_cell_length_b   8.69771436
_cell_length_c   8.69771384
_cell_angle_alpha   59.48747889
_cell_angle_beta   59.83699380
_cell_angle_gamma   59.83700212
_symmetry_Int_Tables_number   1
_chemical_formula_structural   Hf5Al12GaSi4Ir7
_chemical_formula_sum   'Hf5 Al12 Ga1 Si4 Ir7'
_cell_volume   459.28361054
_cell_formula_units_Z   1
loop_
 _symmetry_equiv_pos_site_id
 _symmetry_equiv_pos_as_xyz
  1  'x, y, z'
loop_
 _atom_site_type_symbol
 _atom_site_label
 _atom_site_symmetry_multiplicity
 _atom_site_fract_x
 _atom_site_fract_y
 _atom_site_fract_z
 _atom_site_occupancy
  Hf  Hf0  1  0.322166  0.678243  0.678243  1
  Hf  Hf1  1  0.294355  0.703284  0.294902  1
  Hf  Hf2  1  0.705152  0.296871  0.708781  1
  Hf  Hf3  1  0.294355  0.294902  0.703284  1
  Hf  Hf4  1  0.705152  0.708781  0.296871  1
  Al  Al5  1  0.666737  0.630943  0.042183  1
  Al  Al6  1  0.666737  0.042183  0.630943  1
  Al  Al7  1  0.953756  0.335979  0.335979  1
  Al  Al8  1  0.012395  0.656077  0.656077  1
  Al  Al9  1  0.116885  0.119199  0.119199  1
  Al  Al10  1  0.883654  0.872966  0.872966  1
  Al  Al11  1  0.124376  0.118246  0.626357  1
  Al  Al12  1  0.124376  0.626357  0.118246  1
  Al  Al13  1  0.881629  0.888309  0.352391  1
  Al  Al14  1  0.881629  0.352391  0.888309  1
  Al  Al15  1  0.641629  0.122259  0.122259  1
  Al  Al16  1  0.374156  0.873951  0.873951  1
  Ga  Ga17  1  0.566096  0.437148  0.437148  1
  Si  Si18  1  0.366771  0.341992  0.341992  1
  Si  Si19  1  0.664962  0.652775  0.652775  1
  Si  Si20  1  0.351387  0.334634  0.961769  1
  Si  Si21  1  0.351387  0.961769  0.334634  1
  Ir  Ir22  1  0.502333  0.998992  0.998992  1
  Ir  Ir23  1  0.004651  0.491893  0.491893  1
  Ir  Ir24  1  0.019728  0.494493  0.986373  1
  Ir  Ir25  1  0.497483  0.993434  0.494495  1
  Ir  Ir26  1  0.019728  0.986373  0.494493  1
  Ir  Ir27  1  0.497483  0.494495  0.993434  1
  Ir  Ir28  1  0.008851  0.991063  0.991063  1
