# generated using pymatgen
data_LaTb2Al7Cu2
_symmetry_space_group_name_H-M   'P 1'
_cell_length_a   9.19044295
_cell_length_b   9.19044358
_cell_length_c   9.19044327
_cell_angle_alpha   35.12928790
_cell_angle_beta   35.12929522
_cell_angle_gamma   35.12928827
_symmetry_Int_Tables_number   1
_chemical_formula_structural   LaTb2Al7Cu2
_chemical_formula_sum   'La1 Tb2 Al7 Cu2'
_cell_volume   229.54824599
_cell_formula_units_Z   1
loop_
 _symmetry_equiv_pos_site_id
 _symmetry_equiv_pos_as_xyz
  1  'x, y, z'
loop_
 _atom_site_type_symbol
 _atom_site_label
 _atom_site_symmetry_multiplicity
 _atom_site_fract_x
 _atom_site_fract_y
 _atom_site_fract_z
 _atom_site_occupancy
  La  La0  1  0.000000  0.000000  0.000000  1
  Tb  Tb1  1  0.857731  0.857731  0.857731  1
  Tb  Tb2  1  0.142269  0.142269  0.142269  1
  Al  Al3  1  0.417183  0.417183  0.926705  1
  Al  Al4  1  0.926705  0.417183  0.417183  1
  Al  Al5  1  0.417183  0.926705  0.417183  1
  Al  Al6  1  0.500000  0.500000  0.500000  1
  Al  Al7  1  0.582817  0.073295  0.582817  1
  Al  Al8  1  0.073295  0.582817  0.582817  1
  Al  Al9  1  0.582817  0.582817  0.073295  1
  Cu  Cu10  1  0.664485  0.664485  0.664485  1
  Cu  Cu11  1  0.335515  0.335515  0.335515  1
