# generated using pymatgen
data_PrDy2BiO7
_symmetry_space_group_name_H-M   'P 1'
_cell_length_a   6.63397902
_cell_length_b   6.63397910
_cell_length_c   7.79281900
_cell_angle_alpha   90.00000000
_cell_angle_beta   90.00000000
_cell_angle_gamma   109.24213793
_symmetry_Int_Tables_number   1
_chemical_formula_structural   PrDy2BiO7
_chemical_formula_sum   'Pr2 Dy4 Bi2 O14'
_cell_volume   323.79976937
_cell_formula_units_Z   2
loop_
 _symmetry_equiv_pos_site_id
 _symmetry_equiv_pos_as_xyz
  1  'x, y, z'
loop_
 _atom_site_type_symbol
 _atom_site_label
 _atom_site_symmetry_multiplicity
 _atom_site_fract_x
 _atom_site_fract_y
 _atom_site_fract_z
 _atom_site_occupancy
  Pr  Pr0  1  0.502032  0.502032  0.250000  1
  Pr  Pr1  1  0.497968  0.497968  0.750000  1
  Dy  Dy2  1  0.997297  0.469100  0.498495  1
  Dy  Dy3  1  0.530900  0.002703  0.501505  1
  Dy  Dy4  1  0.002703  0.530900  0.998495  1
  Dy  Dy5  1  0.469100  0.997297  0.001505  1
  Bi  Bi6  1  0.999521  0.999521  0.250000  1
  Bi  Bi7  1  0.000479  0.000479  0.750000  1
  O  O8  1  0.075331  0.333507  0.218410  1
  O  O9  1  0.666493  0.924669  0.781590  1
  O  O10  1  0.924669  0.666493  0.718410  1
  O  O11  1  0.333507  0.075331  0.281590  1
  O  O12  1  0.664701  0.921598  0.221171  1
  O  O13  1  0.078402  0.335299  0.778829  1
  O  O14  1  0.335299  0.078402  0.721171  1
  O  O15  1  0.921598  0.664701  0.278829  1
  O  O16  1  0.361256  0.638744  0.500000  1
  O  O17  1  0.638744  0.361256  0.000000  1
  O  O18  1  0.357485  0.642515  0.000000  1
  O  O19  1  0.642515  0.357485  0.500000  1
  O  O20  1  0.915341  0.084659  0.500000  1
  O  O21  1  0.084659  0.915341  0.000000  1
