# generated using pymatgen
data_ErTh2Ir9
_symmetry_space_group_name_H-M   'P 1'
_cell_length_a   9.38951749
_cell_length_b   9.38951738
_cell_length_c   9.38951832
_cell_angle_alpha   33.10459200
_cell_angle_beta   33.10459274
_cell_angle_gamma   33.10459070
_symmetry_Int_Tables_number   1
_chemical_formula_structural   ErTh2Ir9
_chemical_formula_sum   'Er1 Th2 Ir9'
_cell_volume   219.78887418
_cell_formula_units_Z   1
loop_
 _symmetry_equiv_pos_site_id
 _symmetry_equiv_pos_as_xyz
  1  'x, y, z'
loop_
 _atom_site_type_symbol
 _atom_site_label
 _atom_site_symmetry_multiplicity
 _atom_site_fract_x
 _atom_site_fract_y
 _atom_site_fract_z
 _atom_site_occupancy
  Er  Er0  1  0.138071  0.138071  0.138071  1
  Th  Th1  1  0.001714  0.001714  0.001714  1
  Th  Th2  1  0.859878  0.859878  0.859878  1
  Ir  Ir3  1  0.499482  0.499482  0.499482  1
  Ir  Ir4  1  0.666873  0.666873  0.666873  1
  Ir  Ir5  1  0.333143  0.333143  0.333143  1
  Ir  Ir6  1  0.417653  0.918393  0.417653  1
  Ir  Ir7  1  0.417653  0.417653  0.918393  1
  Ir  Ir8  1  0.918393  0.417653  0.417653  1
  Ir  Ir9  1  0.582477  0.082183  0.582477  1
  Ir  Ir10  1  0.582477  0.582477  0.082183  1
  Ir  Ir11  1  0.082183  0.582477  0.582477  1
