# generated using pymatgen
data_DyY2Sc(Co4P3)2
_symmetry_space_group_name_H-M   'P 1'
_cell_length_a   3.72483100
_cell_length_b   10.66352200
_cell_length_c   12.36388200
_cell_angle_alpha   90.00000000
_cell_angle_beta   90.00000000
_cell_angle_gamma   90.00000000
_symmetry_Int_Tables_number   1
_chemical_formula_structural   DyY2Sc(Co4P3)2
_chemical_formula_sum   'Dy2 Y4 Sc2 Co16 P12'
_cell_volume   491.09113434
_cell_formula_units_Z   2
loop_
 _symmetry_equiv_pos_site_id
 _symmetry_equiv_pos_as_xyz
  1  'x, y, z'
loop_
 _atom_site_type_symbol
 _atom_site_label
 _atom_site_symmetry_multiplicity
 _atom_site_fract_x
 _atom_site_fract_y
 _atom_site_fract_z
 _atom_site_occupancy
  Dy  Dy0  1  0.000000  0.677663  0.794281  1
  Dy  Dy1  1  0.000000  0.322337  0.794281  1
  Y  Y2  1  0.000000  0.500000  0.527397  1
  Y  Y3  1  0.500000  0.000000  0.472642  1
  Y  Y4  1  0.500000  0.822088  0.205646  1
  Y  Y5  1  0.500000  0.177912  0.205646  1
  Sc  Sc6  1  0.500000  0.500000  0.157187  1
  Sc  Sc7  1  0.000000  0.000000  0.842885  1
  Co  Co8  1  0.500000  0.500000  0.705530  1
  Co  Co9  1  0.000000  0.000000  0.294769  1
  Co  Co10  1  0.000000  0.500000  0.987507  1
  Co  Co11  1  0.500000  0.000000  0.012160  1
  Co  Co12  1  0.500000  0.331259  0.994427  1
  Co  Co13  1  0.500000  0.668741  0.994427  1
  Co  Co14  1  0.000000  0.168837  0.005223  1
  Co  Co15  1  0.000000  0.831163  0.005223  1
  Co  Co16  1  0.500000  0.295563  0.433043  1
  Co  Co17  1  0.500000  0.704437  0.433043  1
  Co  Co18  1  0.000000  0.204553  0.567192  1
  Co  Co19  1  0.000000  0.795447  0.567192  1
  Co  Co20  1  0.500000  0.877953  0.702898  1
  Co  Co21  1  0.500000  0.122047  0.702898  1
  Co  Co22  1  0.000000  0.621896  0.297305  1
  Co  Co23  1  0.000000  0.378104  0.297305  1
  P  P24  1  0.500000  0.500000  0.885661  1
  P  P25  1  0.000000  0.000000  0.114219  1
  P  P26  1  0.500000  0.500000  0.359652  1
  P  P27  1  0.000000  0.000000  0.640523  1
  P  P28  1  0.500000  0.309325  0.615680  1
  P  P29  1  0.500000  0.690675  0.615680  1
  P  P30  1  0.000000  0.190684  0.384588  1
  P  P31  1  0.000000  0.809316  0.384588  1
  P  P32  1  0.500000  0.839412  0.892816  1
  P  P33  1  0.500000  0.160588  0.892816  1
  P  P34  1  0.000000  0.660309  0.106836  1
  P  P35  1  0.000000  0.339691  0.106836  1
