# generated using pymatgen
data_YHfZr2(Al3Co)6
_symmetry_space_group_name_H-M   'P 1'
_cell_length_a   7.29935012
_cell_length_b   7.29120525
_cell_length_c   9.09781200
_cell_angle_alpha   90.00000000
_cell_angle_beta   90.00000000
_cell_angle_gamma   119.42593594
_symmetry_Int_Tables_number   1
_chemical_formula_structural   YHfZr2(Al3Co)6
_chemical_formula_sum   'Y1 Hf1 Zr2 Al18 Co6'
_cell_volume   421.72990438
_cell_formula_units_Z   1
loop_
 _symmetry_equiv_pos_site_id
 _symmetry_equiv_pos_as_xyz
  1  'x, y, z'
loop_
 _atom_site_type_symbol
 _atom_site_label
 _atom_site_symmetry_multiplicity
 _atom_site_fract_x
 _atom_site_fract_y
 _atom_site_fract_z
 _atom_site_occupancy
  Y  Y0  1  0.328236  0.008001  0.750000  1
  Hf  Hf1  1  0.673256  0.992998  0.250000  1
  Zr  Zr2  1  0.992748  0.672228  0.250000  1
  Zr  Zr3  1  0.006220  0.328116  0.750000  1
  Al  Al4  1  0.117342  0.118452  0.250000  1
  Al  Al5  1  0.875258  0.879576  0.750000  1
  Al  Al6  1  0.330225  0.332423  0.542809  1
  Al  Al7  1  0.669967  0.670030  0.051065  1
  Al  Al8  1  0.330225  0.332423  0.957191  1
  Al  Al9  1  0.669967  0.670030  0.448935  1
  Al  Al10  1  0.338596  0.560557  0.250000  1
  Al  Al11  1  0.666828  0.446169  0.750000  1
  Al  Al12  1  0.561932  0.339202  0.250000  1
  Al  Al13  1  0.439844  0.654962  0.750000  1
  Al  Al14  1  0.993986  0.334558  0.074323  1
  Al  Al15  1  0.002732  0.662797  0.569627  1
  Al  Al16  1  0.335837  0.995089  0.422823  1
  Al  Al17  1  0.667520  0.004712  0.930270  1
  Al  Al18  1  0.002732  0.662797  0.930373  1
  Al  Al19  1  0.993986  0.334558  0.425677  1
  Al  Al20  1  0.667520  0.004712  0.569730  1
  Al  Al21  1  0.335837  0.995089  0.077177  1
  Co  Co22  1  0.997827  0.998923  0.002441  1
  Co  Co23  1  0.997827  0.998923  0.497559  1
  Co  Co24  1  0.672274  0.328524  0.001852  1
  Co  Co25  1  0.329503  0.672815  0.497456  1
  Co  Co26  1  0.329503  0.672815  0.002544  1
  Co  Co27  1  0.672274  0.328524  0.498148  1
