# generated using pymatgen
data_Ac2PdN2
_symmetry_space_group_name_H-M   'P 1'
_cell_length_a   3.88264505
_cell_length_b   3.88263381
_cell_length_c   7.13663413
_cell_angle_alpha   105.75922864
_cell_angle_beta   105.78463348
_cell_angle_gamma   90.00000459
_symmetry_Int_Tables_number   1
_chemical_formula_structural   Ac2PdN2
_chemical_formula_sum   'Ac2 Pd1 N2'
_cell_volume   99.31811484
_cell_formula_units_Z   1
loop_
 _symmetry_equiv_pos_site_id
 _symmetry_equiv_pos_as_xyz
  1  'x, y, z'
loop_
 _atom_site_type_symbol
 _atom_site_label
 _atom_site_symmetry_multiplicity
 _atom_site_fract_x
 _atom_site_fract_y
 _atom_site_fract_z
 _atom_site_occupancy
  Ac  Ac0  1  0.148023  0.148247  0.796046  1
  Ac  Ac1  1  0.851977  0.851753  0.203954  1
  Pd  Pd2  1  0.500000  0.500000  0.500000  1
  N  N3  1  0.664095  0.663787  0.828188  1
  N  N4  1  0.335905  0.336213  0.171812  1
