# generated using pymatgen
data_La11YSi3AsBr12
_symmetry_space_group_name_H-M   'P 1'
_cell_length_a   10.63373238
_cell_length_b   10.60991980
_cell_length_c   10.63373337
_cell_angle_alpha   109.60771342
_cell_angle_beta   109.48031724
_cell_angle_gamma   109.60770796
_symmetry_Int_Tables_number   1
_chemical_formula_structural   La11YSi3AsBr12
_chemical_formula_sum   'La11 Y1 Si3 As1 Br12'
_cell_volume   920.32249283
_cell_formula_units_Z   1
loop_
 _symmetry_equiv_pos_site_id
 _symmetry_equiv_pos_as_xyz
  1  'x, y, z'
loop_
 _atom_site_type_symbol
 _atom_site_label
 _atom_site_symmetry_multiplicity
 _atom_site_fract_x
 _atom_site_fract_y
 _atom_site_fract_z
 _atom_site_occupancy
  La  La0  1  0.749589  0.237990  0.259040  1
  La  La1  1  0.240960  0.262010  0.750411  1
  La  La2  1  0.479569  0.490591  0.238528  1
  La  La3  1  0.261472  0.009409  0.020431  1
  La  La4  1  0.240219  0.480062  0.490464  1
  La  La5  1  0.009536  0.019938  0.259781  1
  La  La6  1  0.011760  0.490037  0.750041  1
  La  La7  1  0.491069  0.237958  0.477915  1
  La  La8  1  0.749959  0.009963  0.488240  1
  La  La9  1  0.022085  0.262042  0.008931  1
  La  La10  1  0.260609  0.750000  0.239391  1
  Y  Y11  1  0.482461  0.750000  0.017539  1
  Si  Si12  1  0.000908  0.250000  0.499092  1
  Si  Si13  1  0.252731  0.502354  0.000512  1
  Si  Si14  1  0.499488  0.997646  0.247269  1
  As  As15  1  0.250398  0.250000  0.249602  1
  Br  Br16  1  0.995948  0.990845  0.744938  1
  Br  Br17  1  0.743618  0.744434  0.236607  1
  Br  Br18  1  0.991313  0.744938  0.994748  1
  Br  Br19  1  0.249974  0.995478  0.503971  1
  Br  Br20  1  0.737620  0.985685  0.991683  1
  Br  Br21  1  0.504839  0.250000  0.995161  1
  Br  Br22  1  0.745819  0.250000  0.754181  1
  Br  Br23  1  0.505252  0.755062  0.508687  1
  Br  Br24  1  0.755062  0.509155  0.504052  1
  Br  Br25  1  0.263393  0.755566  0.756382  1
  Br  Br26  1  0.508317  0.514315  0.762380  1
  Br  Br27  1  0.996029  0.504522  0.250026  1
