# generated using pymatgen
data_Cs2U3GeO12
_symmetry_space_group_name_H-M   'P 1'
_cell_length_a   7.51107810
_cell_length_b   7.51107767
_cell_length_c   7.51107791
_cell_angle_alpha   63.78593987
_cell_angle_beta   63.78594118
_cell_angle_gamma   63.78593876
_symmetry_Int_Tables_number   1
_chemical_formula_structural   Cs2U3GeO12
_chemical_formula_sum   'Cs2 U3 Ge1 O12'
_cell_volume   324.66200456
_cell_formula_units_Z   1
loop_
 _symmetry_equiv_pos_site_id
 _symmetry_equiv_pos_as_xyz
  1  'x, y, z'
loop_
 _atom_site_type_symbol
 _atom_site_label
 _atom_site_symmetry_multiplicity
 _atom_site_fract_x
 _atom_site_fract_y
 _atom_site_fract_z
 _atom_site_occupancy
  Cs  Cs0  1  0.373119  0.373119  0.373119  1
  Cs  Cs1  1  0.626881  0.626881  0.626881  1
  U  U2  1  0.500000  0.000000  0.000000  1
  U  U3  1  0.000000  0.000000  0.500000  1
  U  U4  1  0.000000  0.500000  0.000000  1
  Ge  Ge5  1  0.000000  0.000000  0.000000  1
  O  O6  1  0.939283  0.320739  0.320739  1
  O  O7  1  0.291452  0.946283  0.946283  1
  O  O8  1  0.320739  0.320739  0.939283  1
  O  O9  1  0.946283  0.946283  0.291452  1
  O  O10  1  0.946283  0.291452  0.946283  1
  O  O11  1  0.320739  0.939283  0.320739  1
  O  O12  1  0.060717  0.679261  0.679261  1
  O  O13  1  0.708548  0.053717  0.053717  1
  O  O14  1  0.679261  0.679261  0.060717  1
  O  O15  1  0.053717  0.053717  0.708548  1
  O  O16  1  0.053717  0.708548  0.053717  1
  O  O17  1  0.679261  0.060717  0.679261  1
