# generated using pymatgen
data_NaSr3TcO6
_symmetry_space_group_name_H-M   'P 1'
_cell_length_a   6.84787361
_cell_length_b   6.84787348
_cell_length_c   6.84787326
_cell_angle_alpha   90.98063085
_cell_angle_beta   90.98063042
_cell_angle_gamma   90.98063132
_symmetry_Int_Tables_number   1
_chemical_formula_structural   NaSr3TcO6
_chemical_formula_sum   'Na2 Sr6 Tc2 O12'
_cell_volume   320.97714226
_cell_formula_units_Z   2
loop_
 _symmetry_equiv_pos_site_id
 _symmetry_equiv_pos_as_xyz
  1  'x, y, z'
loop_
 _atom_site_type_symbol
 _atom_site_label
 _atom_site_symmetry_multiplicity
 _atom_site_fract_x
 _atom_site_fract_y
 _atom_site_fract_z
 _atom_site_occupancy
  Na  Na0  1  0.750000  0.750000  0.750000  1
  Na  Na1  1  0.250000  0.250000  0.250000  1
  Sr  Sr2  1  0.750000  0.104771  0.395229  1
  Sr  Sr3  1  0.395229  0.750000  0.104771  1
  Sr  Sr4  1  0.104771  0.395229  0.750000  1
  Sr  Sr5  1  0.250000  0.895229  0.604771  1
  Sr  Sr6  1  0.604771  0.250000  0.895229  1
  Sr  Sr7  1  0.895229  0.604771  0.250000  1
  Tc  Tc8  1  0.000000  0.000000  0.000000  1
  Tc  Tc9  1  0.500000  0.500000  0.500000  1
  O  O10  1  0.926211  0.054796  0.721692  1
  O  O11  1  0.721692  0.926211  0.054796  1
  O  O12  1  0.054796  0.721692  0.926211  1
  O  O13  1  0.573789  0.778308  0.445204  1
  O  O14  1  0.445204  0.573789  0.778308  1
  O  O15  1  0.778308  0.445204  0.573789  1
  O  O16  1  0.073789  0.945204  0.278308  1
  O  O17  1  0.278308  0.073789  0.945204  1
  O  O18  1  0.945204  0.278308  0.073789  1
  O  O19  1  0.426211  0.221692  0.554796  1
  O  O20  1  0.221692  0.554796  0.426211  1
  O  O21  1  0.554796  0.426211  0.221692  1
