# generated using pymatgen
data_Pm4Pt3Pb
_symmetry_space_group_name_H-M   'P 1'
_cell_length_a   7.60437434
_cell_length_b   5.99877355
_cell_length_c   4.52307300
_cell_angle_alpha   90.00000000
_cell_angle_beta   90.00000000
_cell_angle_gamma   88.73943025
_symmetry_Int_Tables_number   1
_chemical_formula_structural   Pm4Pt3Pb
_chemical_formula_sum   'Pm4 Pt3 Pb1'
_cell_volume   206.27872312
_cell_formula_units_Z   1
loop_
 _symmetry_equiv_pos_site_id
 _symmetry_equiv_pos_as_xyz
  1  'x, y, z'
loop_
 _atom_site_type_symbol
 _atom_site_label
 _atom_site_symmetry_multiplicity
 _atom_site_fract_x
 _atom_site_fract_y
 _atom_site_fract_z
 _atom_site_occupancy
  Pm  Pm0  1  0.120189  0.494343  0.000000  1
  Pm  Pm1  1  0.572545  0.744011  0.000000  1
  Pm  Pm2  1  0.236400  0.023650  0.499999  1
  Pm  Pm3  1  0.727637  0.227624  0.499999  1
  Pt  Pt4  1  0.459677  0.221104  0.000000  1
  Pt  Pt5  1  0.963940  0.035918  0.000000  1
  Pt  Pt6  1  0.377162  0.532607  0.499999  1
  Pb  Pb7  1  0.875782  0.720744  0.499999  1
