# generated using pymatgen
data_TbEr2Th(InCu2)2
_symmetry_space_group_name_H-M   'P 1'
_cell_length_a   7.61045837
_cell_length_b   7.60868318
_cell_length_c   3.72445000
_cell_angle_alpha   90.00000000
_cell_angle_beta   90.00000000
_cell_angle_gamma   90.85588560
_symmetry_Int_Tables_number   1
_chemical_formula_structural   TbEr2Th(InCu2)2
_chemical_formula_sum   'Tb1 Er2 Th1 In2 Cu4'
_cell_volume   215.64232552
_cell_formula_units_Z   1
loop_
 _symmetry_equiv_pos_site_id
 _symmetry_equiv_pos_as_xyz
  1  'x, y, z'
loop_
 _atom_site_type_symbol
 _atom_site_label
 _atom_site_symmetry_multiplicity
 _atom_site_fract_x
 _atom_site_fract_y
 _atom_site_fract_z
 _atom_site_occupancy
  Tb  Tb0  1  0.173916  0.327434  0.500000  1
  Er  Er1  1  0.325347  0.825244  0.500000  1
  Er  Er2  1  0.827516  0.673927  0.500000  1
  Th  Th3  1  0.674282  0.174136  0.500000  1
  In  In4  1  0.494391  0.507010  0.000000  1
  In  In5  1  0.006301  0.993287  0.000000  1
  Cu  Cu6  1  0.121366  0.622494  0.000000  1
  Cu  Cu7  1  0.883596  0.384991  0.000000  1
  Cu  Cu8  1  0.617951  0.874593  0.000000  1
  Cu  Cu9  1  0.375333  0.116883  0.000000  1
