# generated using pymatgen
data_Sr5Ca2TaSi2N9
_symmetry_space_group_name_H-M   'P 1'
_cell_length_a   10.34047900
_cell_length_b   6.32222445
_cell_length_c   9.33185190
_cell_angle_alpha   90.28653913
_cell_angle_beta   90.00000000
_cell_angle_gamma   90.00000000
_symmetry_Int_Tables_number   1
_chemical_formula_structural   Sr5Ca2TaSi2N9
_chemical_formula_sum   'Sr10 Ca4 Ta2 Si4 N18'
_cell_volume   610.06059490
_cell_formula_units_Z   2
loop_
 _symmetry_equiv_pos_site_id
 _symmetry_equiv_pos_as_xyz
  1  'x, y, z'
loop_
 _atom_site_type_symbol
 _atom_site_label
 _atom_site_symmetry_multiplicity
 _atom_site_fract_x
 _atom_site_fract_y
 _atom_site_fract_z
 _atom_site_occupancy
  Sr  Sr0  1  0.945098  0.427401  0.160728  1
  Sr  Sr1  1  0.078937  0.245358  0.492581  1
  Sr  Sr2  1  0.445098  0.572599  0.839272  1
  Sr  Sr3  1  0.578937  0.754642  0.507419  1
  Sr  Sr4  1  0.582311  0.071223  0.835045  1
  Sr  Sr5  1  0.922007  0.068993  0.830873  1
  Sr  Sr6  1  0.422007  0.931007  0.169127  1
  Sr  Sr7  1  0.419147  0.248232  0.491241  1
  Sr  Sr8  1  0.082311  0.928777  0.164955  1
  Sr  Sr9  1  0.919147  0.751768  0.508759  1
  Ca  Ca10  1  0.250797  0.104225  0.795284  1
  Ca  Ca11  1  0.066516  0.567504  0.832494  1
  Ca  Ca12  1  0.750797  0.895775  0.204716  1
  Ca  Ca13  1  0.566516  0.432496  0.167506  1
  Ta  Ta14  1  0.747601  0.282942  0.432767  1
  Ta  Ta15  1  0.247601  0.717058  0.567233  1
  Si  Si16  1  0.249551  0.327723  0.061853  1
  Si  Si17  1  0.750029  0.457680  0.719814  1
  Si  Si18  1  0.749551  0.672277  0.938147  1
  Si  Si19  1  0.250029  0.542320  0.280186  1
  N  N20  1  0.393684  0.234486  0.983202  1
  N  N21  1  0.242238  0.259730  0.251784  1
  N  N22  1  0.892002  0.115536  0.342188  1
  N  N23  1  0.618455  0.359475  0.623164  1
  N  N24  1  0.747514  0.547362  0.330961  1
  N  N25  1  0.248317  0.611453  0.092001  1
  N  N26  1  0.884601  0.370050  0.625897  1
  N  N27  1  0.384601  0.629950  0.374103  1
  N  N28  1  0.748317  0.388547  0.907999  1
  N  N29  1  0.103488  0.873728  0.666974  1
  N  N30  1  0.742238  0.740270  0.748216  1
  N  N31  1  0.118455  0.640525  0.376836  1
  N  N32  1  0.607706  0.758895  0.026201  1
  N  N33  1  0.247514  0.452638  0.669039  1
  N  N34  1  0.392002  0.884464  0.657812  1
  N  N35  1  0.603488  0.126272  0.333026  1
  N  N36  1  0.107706  0.241105  0.973799  1
  N  N37  1  0.893684  0.765514  0.016798  1
