# generated using pymatgen
data_NdEr4(In2Pd)2
_symmetry_space_group_name_H-M   'P 1'
_cell_length_a   3.62783800
_cell_length_b   8.18040900
_cell_length_c   18.29247100
_cell_angle_alpha   90.00000000
_cell_angle_beta   90.00000000
_cell_angle_gamma   90.00000000
_symmetry_Int_Tables_number   1
_chemical_formula_structural   NdEr4(In2Pd)2
_chemical_formula_sum   'Nd2 Er8 In8 Pd4'
_cell_volume   542.86929522
_cell_formula_units_Z   2
loop_
 _symmetry_equiv_pos_site_id
 _symmetry_equiv_pos_as_xyz
  1  'x, y, z'
loop_
 _atom_site_type_symbol
 _atom_site_label
 _atom_site_symmetry_multiplicity
 _atom_site_fract_x
 _atom_site_fract_y
 _atom_site_fract_z
 _atom_site_occupancy
  Nd  Nd0  1  0.000000  0.500000  0.500000  1
  Nd  Nd1  1  0.000000  0.000000  0.000000  1
  Er  Er2  1  0.000000  0.738485  0.281011  1
  Er  Er3  1  0.000000  0.261515  0.718989  1
  Er  Er4  1  0.000000  0.761515  0.781011  1
  Er  Er5  1  0.000000  0.238485  0.218989  1
  Er  Er6  1  0.000000  0.619277  0.084133  1
  Er  Er7  1  0.000000  0.380723  0.915867  1
  Er  Er8  1  0.000000  0.880723  0.584133  1
  Er  Er9  1  0.000000  0.119277  0.415867  1
  In  In10  1  0.500000  0.701692  0.931056  1
  In  In11  1  0.500000  0.298308  0.068944  1
  In  In12  1  0.500000  0.798308  0.431056  1
  In  In13  1  0.500000  0.201692  0.568944  1
  In  In14  1  0.500000  0.583033  0.653051  1
  In  In15  1  0.500000  0.416967  0.346949  1
  In  In16  1  0.500000  0.916967  0.153051  1
  In  In17  1  0.500000  0.083033  0.846949  1
  Pd  Pd18  1  0.500000  0.523271  0.195598  1
  Pd  Pd19  1  0.500000  0.476729  0.804402  1
  Pd  Pd20  1  0.500000  0.976729  0.695598  1
  Pd  Pd21  1  0.500000  0.023271  0.304402  1
