# generated using pymatgen
data_Hf6Zn5PdN2
_symmetry_space_group_name_H-M   'P 1'
_cell_length_a   8.50106057
_cell_length_b   8.50106079
_cell_length_c   8.53383040
_cell_angle_alpha   60.12694482
_cell_angle_beta   60.12694230
_cell_angle_gamma   60.00000162
_symmetry_Int_Tables_number   1
_chemical_formula_structural   Hf6Zn5PdN2
_chemical_formula_sum   'Hf12 Zn10 Pd2 N4'
_cell_volume   436.92398980
_cell_formula_units_Z   2
loop_
 _symmetry_equiv_pos_site_id
 _symmetry_equiv_pos_as_xyz
  1  'x, y, z'
loop_
 _atom_site_type_symbol
 _atom_site_label
 _atom_site_symmetry_multiplicity
 _atom_site_fract_x
 _atom_site_fract_y
 _atom_site_fract_z
 _atom_site_occupancy
  Hf  Hf0  1  0.815118  0.190081  0.179682  1
  Hf  Hf1  1  0.190081  0.815118  0.179682  1
  Hf  Hf2  1  0.815118  0.815118  0.179682  1
  Hf  Hf3  1  0.188617  0.809888  0.812878  1
  Hf  Hf4  1  0.809888  0.188617  0.812878  1
  Hf  Hf5  1  0.188617  0.188617  0.812878  1
  Hf  Hf6  1  0.435874  0.059238  0.069014  1
  Hf  Hf7  1  0.059238  0.435874  0.069014  1
  Hf  Hf8  1  0.435874  0.435874  0.069014  1
  Hf  Hf9  1  0.064135  0.435836  0.435893  1
  Hf  Hf10  1  0.435836  0.064135  0.435893  1
  Hf  Hf11  1  0.064135  0.064135  0.435893  1
  Zn  Zn12  1  0.417413  0.417413  0.420114  1
  Zn  Zn13  1  0.745060  0.417413  0.420114  1
  Zn  Zn14  1  0.417413  0.745060  0.420114  1
  Zn  Zn15  1  0.834119  0.834119  0.497644  1
  Zn  Zn16  1  0.832969  0.832969  0.831594  1
  Zn  Zn17  1  0.502469  0.832969  0.831594  1
  Zn  Zn18  1  0.832969  0.502469  0.831594  1
  Zn  Zn19  1  0.627762  0.627762  0.622068  1
  Zn  Zn20  1  0.122409  0.627762  0.622068  1
  Zn  Zn21  1  0.627762  0.122409  0.622068  1
  Pd  Pd22  1  0.413307  0.413307  0.760078  1
  Pd  Pd23  1  0.624733  0.624733  0.125800  1
  N  N24  1  0.124542  0.124542  0.626374  1
  N  N25  1  0.124930  0.124930  0.125457  1
  N  N26  1  0.624683  0.124930  0.125457  1
  N  N27  1  0.124930  0.624683  0.125457  1
