# generated using pymatgen
data_Tb4TmTh3(CdRu)2
_symmetry_space_group_name_H-M   'P 1'
_cell_length_a   9.65923975
_cell_length_b   9.76278971
_cell_length_c   9.76803484
_cell_angle_alpha   59.28197815
_cell_angle_beta   60.33195408
_cell_angle_gamma   60.38604584
_symmetry_Int_Tables_number   1
_chemical_formula_structural   Tb4TmTh3(CdRu)2
_chemical_formula_sum   'Tb8 Tm2 Th6 Cd4 Ru4'
_cell_volume   651.18925838
_cell_formula_units_Z   2
loop_
 _symmetry_equiv_pos_site_id
 _symmetry_equiv_pos_as_xyz
  1  'x, y, z'
loop_
 _atom_site_type_symbol
 _atom_site_label
 _atom_site_symmetry_multiplicity
 _atom_site_fract_x
 _atom_site_fract_y
 _atom_site_fract_z
 _atom_site_occupancy
  Tb  Tb0  1  0.439703  0.439703  0.060297  1
  Tb  Tb1  1  0.060297  0.060297  0.439703  1
  Tb  Tb2  1  0.184152  0.815848  0.815848  1
  Tb  Tb3  1  0.815848  0.184152  0.184152  1
  Tb  Tb4  1  0.811581  0.188419  0.811581  1
  Tb  Tb5  1  0.188419  0.811581  0.188419  1
  Tb  Tb6  1  0.811764  0.811764  0.188236  1
  Tb  Tb7  1  0.188236  0.188236  0.811764  1
  Tm  Tm8  1  0.440700  0.059300  0.440700  1
  Tm  Tm9  1  0.059300  0.440700  0.059300  1
  Th  Th10  1  0.592176  0.602175  0.600376  1
  Th  Th11  1  0.602175  0.592176  0.205276  1
  Th  Th12  1  0.600376  0.205276  0.592176  1
  Th  Th13  1  0.205276  0.600376  0.602175  1
  Th  Th14  1  0.065676  0.434324  0.434324  1
  Th  Th15  1  0.434324  0.065676  0.065676  1
  Cd  Cd16  1  0.833484  0.829828  0.830498  1
  Cd  Cd17  1  0.829828  0.833484  0.506190  1
  Cd  Cd18  1  0.830498  0.506190  0.833484  1
  Cd  Cd19  1  0.506190  0.830498  0.829828  1
  Ru  Ru20  1  0.378470  0.396742  0.399878  1
  Ru  Ru21  1  0.396742  0.378470  0.824911  1
  Ru  Ru22  1  0.399878  0.824911  0.378470  1
  Ru  Ru23  1  0.824911  0.399878  0.396742  1
