# generated using pymatgen
data_HfZn2Rh3
_symmetry_space_group_name_H-M   'P 1'
_cell_length_a   7.63113300
_cell_length_b   7.63113322
_cell_length_c   5.34612400
_cell_angle_alpha   90.00000000
_cell_angle_beta   90.00000000
_cell_angle_gamma   120.00000339
_symmetry_Int_Tables_number   1
_chemical_formula_structural   HfZn2Rh3
_chemical_formula_sum   'Hf3 Zn6 Rh9'
_cell_volume   269.61726723
_cell_formula_units_Z   3
loop_
 _symmetry_equiv_pos_site_id
 _symmetry_equiv_pos_as_xyz
  1  'x, y, z'
loop_
 _atom_site_type_symbol
 _atom_site_label
 _atom_site_symmetry_multiplicity
 _atom_site_fract_x
 _atom_site_fract_y
 _atom_site_fract_z
 _atom_site_occupancy
  Hf  Hf0  1  0.333420  0.000000  0.892122  1
  Hf  Hf1  1  0.000000  0.333420  0.892122  1
  Hf  Hf2  1  0.666580  0.666580  0.892122  1
  Zn  Zn3  1  0.667017  0.000000  0.223516  1
  Zn  Zn4  1  0.332982  0.332983  0.223516  1
  Zn  Zn5  1  0.000000  0.667017  0.223516  1
  Zn  Zn6  1  0.000000  0.000000  0.559787  1
  Zn  Zn7  1  0.666666  0.333333  0.561216  1
  Zn  Zn8  1  0.333334  0.666667  0.561216  1
  Rh  Rh9  1  0.000000  0.000000  0.069698  1
  Rh  Rh10  1  0.666666  0.333333  0.071198  1
  Rh  Rh11  1  0.333334  0.666667  0.071198  1
  Rh  Rh12  1  0.333813  0.000000  0.392041  1
  Rh  Rh13  1  0.000000  0.333813  0.392041  1
  Rh  Rh14  1  0.666188  0.666187  0.392041  1
  Rh  Rh15  1  0.666801  0.000000  0.713503  1
  Rh  Rh16  1  0.333200  0.333200  0.713503  1
  Rh  Rh17  1  0.000000  0.666800  0.713503  1
