# generated using pymatgen
data_Ho8MgAlPd2
_symmetry_space_group_name_H-M   'P 1'
_cell_length_a   9.63824775
_cell_length_b   9.63824845
_cell_length_c   9.60284300
_cell_angle_alpha   60.12143849
_cell_angle_beta   60.12143611
_cell_angle_gamma   60.31837312
_symmetry_Int_Tables_number   1
_chemical_formula_structural   Ho8MgAlPd2
_chemical_formula_sum   'Ho16 Mg2 Al2 Pd4'
_cell_volume   633.45194267
_cell_formula_units_Z   2
loop_
 _symmetry_equiv_pos_site_id
 _symmetry_equiv_pos_as_xyz
  1  'x, y, z'
loop_
 _atom_site_type_symbol
 _atom_site_label
 _atom_site_symmetry_multiplicity
 _atom_site_fract_x
 _atom_site_fract_y
 _atom_site_fract_z
 _atom_site_occupancy
  Ho  Ho0  1  0.352811  0.352811  0.348763  1
  Ho  Ho1  1  0.352811  0.352811  0.945615  1
  Ho  Ho2  1  0.358387  0.935572  0.353022  1
  Ho  Ho3  1  0.935572  0.358387  0.353022  1
  Ho  Ho4  1  0.808413  0.192244  0.190929  1
  Ho  Ho5  1  0.192244  0.808413  0.808415  1
  Ho  Ho6  1  0.192244  0.808413  0.190929  1
  Ho  Ho7  1  0.808413  0.192244  0.808415  1
  Ho  Ho8  1  0.187674  0.187674  0.812326  1
  Ho  Ho9  1  0.805175  0.805175  0.194825  1
  Ho  Ho10  1  0.930394  0.566201  0.566747  1
  Ho  Ho11  1  0.566201  0.930394  0.936658  1
  Ho  Ho12  1  0.566201  0.930394  0.566747  1
  Ho  Ho13  1  0.930394  0.566201  0.936658  1
  Ho  Ho14  1  0.567303  0.567303  0.932697  1
  Ho  Ho15  1  0.935055  0.935055  0.564945  1
  Mg  Mg16  1  0.578571  0.268185  0.576622  1
  Mg  Mg17  1  0.268185  0.578571  0.576622  1
  Al  Al18  1  0.582744  0.582744  0.577433  1
  Al  Al19  1  0.582744  0.582744  0.257076  1
  Pd  Pd20  1  0.143715  0.143715  0.146511  1
  Pd  Pd21  1  0.143715  0.143715  0.566061  1
  Pd  Pd22  1  0.140692  0.570342  0.144483  1
  Pd  Pd23  1  0.570342  0.140692  0.144483  1
