# generated using pymatgen
data_Zn11Pt2
_symmetry_space_group_name_H-M   'P 1'
_cell_length_a   7.93532918
_cell_length_b   7.93532913
_cell_length_c   7.93533000
_cell_angle_alpha   109.47122285
_cell_angle_beta   109.47122273
_cell_angle_gamma   109.47121866
_symmetry_Int_Tables_number   1
_chemical_formula_structural   Zn11Pt2
_chemical_formula_sum   'Zn22 Pt4'
_cell_volume   384.65641569
_cell_formula_units_Z   2
loop_
 _symmetry_equiv_pos_site_id
 _symmetry_equiv_pos_as_xyz
  1  'x, y, z'
loop_
 _atom_site_type_symbol
 _atom_site_label
 _atom_site_symmetry_multiplicity
 _atom_site_fract_x
 _atom_site_fract_y
 _atom_site_fract_z
 _atom_site_occupancy
  Zn  Zn0  1  0.727103  0.376407  0.727103  1
  Zn  Zn1  1  0.623593  0.350695  0.350695  1
  Zn  Zn2  1  0.350695  0.350695  0.623593  1
  Zn  Zn3  1  0.649305  0.272897  0.000000  1
  Zn  Zn4  1  0.216342  0.216342  0.216342  1
  Zn  Zn5  1  0.000000  0.000000  0.783658  1
  Zn  Zn6  1  0.783658  0.000000  0.000000  1
  Zn  Zn7  1  0.000000  0.783658  0.000000  1
  Zn  Zn8  1  0.359185  0.359185  0.000000  1
  Zn  Zn9  1  0.000000  0.640815  0.640815  1
  Zn  Zn10  1  0.000000  0.359185  0.359185  1
  Zn  Zn11  1  0.359185  0.000000  0.359185  1
  Zn  Zn12  1  0.640815  0.000000  0.640815  1
  Zn  Zn13  1  0.640815  0.640815  0.000000  1
  Zn  Zn14  1  0.350695  0.623593  0.350695  1
  Zn  Zn15  1  0.272897  0.000000  0.649305  1
  Zn  Zn16  1  0.649305  0.000000  0.272897  1
  Zn  Zn17  1  0.272897  0.649305  0.000000  1
  Zn  Zn18  1  0.727103  0.727103  0.376407  1
  Zn  Zn19  1  0.376407  0.727103  0.727103  1
  Zn  Zn20  1  0.000000  0.649305  0.272897  1
  Zn  Zn21  1  0.000000  0.272897  0.649305  1
  Pt  Pt22  1  0.000000  0.345464  0.000000  1
  Pt  Pt23  1  0.345464  0.000000  0.000000  1
  Pt  Pt24  1  0.000000  0.000000  0.345464  1
  Pt  Pt25  1  0.654536  0.654536  0.654536  1
