# generated using pymatgen
data_Tm2MnCo5P4
_symmetry_space_group_name_H-M   'P 1'
_cell_length_a   3.67862700
_cell_length_b   10.51946700
_cell_length_c   12.08940800
_cell_angle_alpha   90.00000000
_cell_angle_beta   90.00000000
_cell_angle_gamma   90.00000000
_symmetry_Int_Tables_number   1
_chemical_formula_structural   Tm2MnCo5P4
_chemical_formula_sum   'Tm6 Mn3 Co15 P12'
_cell_volume   467.82618282
_cell_formula_units_Z   3
loop_
 _symmetry_equiv_pos_site_id
 _symmetry_equiv_pos_as_xyz
  1  'x, y, z'
loop_
 _atom_site_type_symbol
 _atom_site_label
 _atom_site_symmetry_multiplicity
 _atom_site_fract_x
 _atom_site_fract_y
 _atom_site_fract_z
 _atom_site_occupancy
  Tm  Tm0  1  0.000000  0.500000  0.523658  1
  Tm  Tm1  1  0.500000  0.000000  0.476487  1
  Tm  Tm2  1  0.500000  0.818280  0.204678  1
  Tm  Tm3  1  0.500000  0.181720  0.204678  1
  Tm  Tm4  1  0.000000  0.680333  0.795873  1
  Tm  Tm5  1  0.000000  0.319667  0.795873  1
  Mn  Mn6  1  0.500000  0.500000  0.156502  1
  Mn  Mn7  1  0.000000  0.000000  0.840973  1
  Mn  Mn8  1  0.000000  0.500000  0.988240  1
  Co  Co9  1  0.500000  0.500000  0.699056  1
  Co  Co10  1  0.000000  0.000000  0.298574  1
  Co  Co11  1  0.500000  0.000000  0.013899  1
  Co  Co12  1  0.500000  0.330520  0.993741  1
  Co  Co13  1  0.500000  0.669480  0.993741  1
  Co  Co14  1  0.000000  0.165487  0.006127  1
  Co  Co15  1  0.000000  0.834513  0.006127  1
  Co  Co16  1  0.500000  0.296224  0.430739  1
  Co  Co17  1  0.500000  0.703776  0.430739  1
  Co  Co18  1  0.000000  0.203456  0.569801  1
  Co  Co19  1  0.000000  0.796544  0.569801  1
  Co  Co20  1  0.500000  0.879117  0.708903  1
  Co  Co21  1  0.500000  0.120883  0.708903  1
  Co  Co22  1  0.000000  0.621714  0.291761  1
  Co  Co23  1  0.000000  0.378286  0.291761  1
  P  P24  1  0.500000  0.500000  0.881381  1
  P  P25  1  0.000000  0.000000  0.118653  1
  P  P26  1  0.500000  0.500000  0.345876  1
  P  P27  1  0.000000  0.000000  0.653616  1
  P  P28  1  0.500000  0.311728  0.616873  1
  P  P29  1  0.500000  0.688272  0.616873  1
  P  P30  1  0.000000  0.187848  0.383483  1
  P  P31  1  0.000000  0.812152  0.383483  1
  P  P32  1  0.500000  0.846768  0.892274  1
  P  P33  1  0.500000  0.153232  0.892274  1
  P  P34  1  0.000000  0.654178  0.107289  1
  P  P35  1  0.000000  0.345822  0.107289  1
