# generated using pymatgen
data_GdTm3(WO6)2
_symmetry_space_group_name_H-M   'P 1'
_cell_length_a   5.37582900
_cell_length_b   7.66911392
_cell_length_c   11.42860165
_cell_angle_alpha   75.28234299
_cell_angle_beta   90.00000000
_cell_angle_gamma   90.00000000
_symmetry_Int_Tables_number   1
_chemical_formula_structural   GdTm3(WO6)2
_chemical_formula_sum   'Gd2 Tm6 W4 O24'
_cell_volume   455.71707942
_cell_formula_units_Z   2
loop_
 _symmetry_equiv_pos_site_id
 _symmetry_equiv_pos_as_xyz
  1  'x, y, z'
loop_
 _atom_site_type_symbol
 _atom_site_label
 _atom_site_symmetry_multiplicity
 _atom_site_fract_x
 _atom_site_fract_y
 _atom_site_fract_z
 _atom_site_occupancy
  Gd  Gd0  1  0.685349  0.500000  0.750000  1
  Gd  Gd1  1  0.314651  0.500000  0.250000  1
  Tm  Tm2  1  0.740383  0.000000  0.750000  1
  Tm  Tm3  1  0.259617  0.000000  0.250000  1
  Tm  Tm4  1  0.186252  0.797404  0.577908  1
  Tm  Tm5  1  0.813748  0.797404  0.077908  1
  Tm  Tm6  1  0.186252  0.202596  0.922092  1
  Tm  Tm7  1  0.813748  0.202596  0.422092  1
  W  W8  1  0.254554  0.725213  0.885453  1
  W  W9  1  0.745446  0.725213  0.385453  1
  W  W10  1  0.254554  0.274787  0.614547  1
  W  W11  1  0.745446  0.274787  0.114547  1
  O  O12  1  0.039304  0.941617  0.895660  1
  O  O13  1  0.534210  0.848781  0.930837  1
  O  O14  1  0.960696  0.941617  0.395660  1
  O  O15  1  0.459530  0.793694  0.726339  1
  O  O16  1  0.465790  0.848781  0.430837  1
  O  O17  1  0.984603  0.715647  0.769228  1
  O  O18  1  0.540470  0.793694  0.226339  1
  O  O19  1  0.856122  0.637324  0.548091  1
  O  O20  1  0.355974  0.488801  0.888103  1
  O  O21  1  0.015397  0.715647  0.269228  1
  O  O22  1  0.355974  0.511199  0.611897  1
  O  O23  1  0.856122  0.362676  0.951909  1
  O  O24  1  0.143878  0.637324  0.048091  1
  O  O25  1  0.644026  0.488801  0.388103  1
  O  O26  1  0.984603  0.284353  0.730772  1
  O  O27  1  0.644026  0.511199  0.111897  1
  O  O28  1  0.143878  0.362676  0.451909  1
  O  O29  1  0.459530  0.206306  0.773661  1
  O  O30  1  0.015397  0.284353  0.230772  1
  O  O31  1  0.534210  0.151219  0.569163  1
  O  O32  1  0.540470  0.206306  0.273661  1
  O  O33  1  0.039304  0.058383  0.604340  1
  O  O34  1  0.465790  0.151219  0.069163  1
  O  O35  1  0.960696  0.058383  0.104340  1
