# generated using pymatgen
data_La2Nd(BiRh)3
_symmetry_space_group_name_H-M   'P 1'
_cell_length_a   7.82386376
_cell_length_b   7.82386452
_cell_length_c   4.17594300
_cell_angle_alpha   90.00000000
_cell_angle_beta   90.00000000
_cell_angle_gamma   120.03139351
_symmetry_Int_Tables_number   1
_chemical_formula_structural   La2Nd(BiRh)3
_chemical_formula_sum   'La2 Nd1 Bi3 Rh3'
_cell_volume   221.30453924
_cell_formula_units_Z   1
loop_
 _symmetry_equiv_pos_site_id
 _symmetry_equiv_pos_as_xyz
  1  'x, y, z'
loop_
 _atom_site_type_symbol
 _atom_site_label
 _atom_site_symmetry_multiplicity
 _atom_site_fract_x
 _atom_site_fract_y
 _atom_site_fract_z
 _atom_site_occupancy
  La  La0  1  0.593567  0.999065  0.000000  1
  La  La1  1  0.999065  0.593567  0.000000  1
  Nd  Nd2  1  0.402821  0.402821  0.000000  1
  Bi  Bi3  1  0.259456  0.001462  0.500000  1
  Bi  Bi4  1  0.001462  0.259456  0.500000  1
  Bi  Bi5  1  0.738927  0.738927  0.500000  1
  Rh  Rh6  1  0.333327  0.667394  0.500000  1
  Rh  Rh7  1  0.667394  0.333327  0.500000  1
  Rh  Rh8  1  0.003985  0.003985  0.000000  1
