# generated using pymatgen
data_La19In(Bi2Ru)4
_symmetry_space_group_name_H-M   'P 1'
_cell_length_a   8.52472790
_cell_length_b   9.28690800
_cell_length_c   13.00228700
_cell_angle_alpha   90.00000000
_cell_angle_beta   89.79626205
_cell_angle_gamma   90.00000000
_symmetry_Int_Tables_number   1
_chemical_formula_structural   La19In(Bi2Ru)4
_chemical_formula_sum   'La19 In1 Bi8 Ru4'
_cell_volume   1029.36327809
_cell_formula_units_Z   1
loop_
 _symmetry_equiv_pos_site_id
 _symmetry_equiv_pos_as_xyz
  1  'x, y, z'
loop_
 _atom_site_type_symbol
 _atom_site_label
 _atom_site_symmetry_multiplicity
 _atom_site_fract_x
 _atom_site_fract_y
 _atom_site_fract_z
 _atom_site_occupancy
  La  La0  1  0.844706  0.750000  0.806021  1
  La  La1  1  0.140737  0.250000  0.192850  1
  La  La2  1  0.350040  0.250000  0.703008  1
  La  La3  1  0.650200  0.750000  0.289236  1
  La  La4  1  0.388381  0.750000  0.694252  1
  La  La5  1  0.624069  0.250000  0.303941  1
  La  La6  1  0.887933  0.250000  0.811659  1
  La  La7  1  0.127127  0.750000  0.194851  1
  La  La8  1  0.933601  0.750000  0.504129  1
  La  La9  1  0.050331  0.250000  0.496754  1
  La  La10  1  0.448446  0.250000  0.995911  1
  La  La11  1  0.680435  0.039087  0.563445  1
  La  La12  1  0.319228  0.967135  0.439135  1
  La  La13  1  0.192884  0.957730  0.936627  1
  La  La14  1  0.319228  0.532865  0.439135  1
  La  La15  1  0.806849  0.019605  0.063049  1
  La  La16  1  0.680435  0.460913  0.563445  1
  La  La17  1  0.806849  0.480395  0.063049  1
  La  La18  1  0.192884  0.542270  0.936627  1
  In  In19  1  0.529843  0.750000  0.997879  1
  Bi  Bi20  1  0.581198  0.487364  0.826032  1
  Bi  Bi21  1  0.423822  0.502620  0.177662  1
  Bi  Bi22  1  0.074505  0.509188  0.674106  1
  Bi  Bi23  1  0.423822  0.997380  0.177662  1
  Bi  Bi24  1  0.927546  0.494205  0.324626  1
  Bi  Bi25  1  0.581198  0.012636  0.826032  1
  Bi  Bi26  1  0.927546  0.005795  0.324626  1
  Bi  Bi27  1  0.074505  0.990812  0.674106  1
  Ru  Ru28  1  0.576570  0.750000  0.512830  1
  Ru  Ru29  1  0.418263  0.250000  0.487892  1
  Ru  Ru30  1  0.085001  0.250000  0.985406  1
  Ru  Ru31  1  0.931822  0.750000  0.014014  1
