# generated using pymatgen
data_Yb14HoPa5Pt16
_symmetry_space_group_name_H-M   'P 1'
_cell_length_a   7.53607602
_cell_length_b   7.63948684
_cell_length_c   14.56873896
_cell_angle_alpha   90.13602416
_cell_angle_beta   89.88531579
_cell_angle_gamma   90.14764748
_symmetry_Int_Tables_number   1
_chemical_formula_structural   Yb14HoPa5Pt16
_chemical_formula_sum   'Yb14 Ho1 Pa5 Pt16'
_cell_volume   838.74103135
_cell_formula_units_Z   1
loop_
 _symmetry_equiv_pos_site_id
 _symmetry_equiv_pos_as_xyz
  1  'x, y, z'
loop_
 _atom_site_type_symbol
 _atom_site_label
 _atom_site_symmetry_multiplicity
 _atom_site_fract_x
 _atom_site_fract_y
 _atom_site_fract_z
 _atom_site_occupancy
  Yb  Yb0  1  0.646032  0.161805  0.879445  1
  Yb  Yb1  1  0.147404  0.335688  0.620872  1
  Yb  Yb2  1  0.494983  0.676016  0.598989  1
  Yb  Yb3  1  0.991686  0.827484  0.900162  1
  Yb  Yb4  1  0.504635  0.319578  0.091131  1
  Yb  Yb5  1  0.003703  0.178912  0.409312  1
  Yb  Yb6  1  0.502377  0.320024  0.409043  1
  Yb  Yb7  1  0.001148  0.179522  0.092981  1
  Yb  Yb8  1  0.498409  0.683627  0.900131  1
  Yb  Yb9  1  0.992555  0.818098  0.599566  1
  Yb  Yb10  1  0.806213  0.508951  0.747741  1
  Yb  Yb11  1  0.312777  0.989559  0.750025  1
  Yb  Yb12  1  0.198400  0.475909  0.250185  1
  Yb  Yb13  1  0.699771  0.022585  0.249696  1
  Ho  Ho14  1  0.648848  0.156039  0.622927  1
  Pa  Pa15  1  0.152729  0.346803  0.877305  1
  Pa  Pa16  1  0.350503  0.843166  0.120358  1
  Pa  Pa17  1  0.850337  0.657747  0.378879  1
  Pa  Pa18  1  0.352913  0.841285  0.378805  1
  Pa  Pa19  1  0.854394  0.656696  0.120215  1
  Pt  Pt20  1  0.687587  0.947040  0.455106  1
  Pt  Pt21  1  0.195229  0.553037  0.039473  1
  Pt  Pt22  1  0.297274  0.053126  0.964429  1
  Pt  Pt23  1  0.803762  0.457244  0.534765  1
  Pt  Pt24  1  0.313030  0.028363  0.537623  1
  Pt  Pt25  1  0.820720  0.465612  0.959041  1
  Pt  Pt26  1  0.679041  0.943109  0.045492  1
  Pt  Pt27  1  0.180595  0.555591  0.455217  1
  Pt  Pt28  1  0.442861  0.364425  0.749548  1
  Pt  Pt29  1  0.953481  0.136826  0.759745  1
  Pt  Pt30  1  0.550905  0.643992  0.249253  1
  Pt  Pt31  1  0.052811  0.853121  0.249363  1
  Pt  Pt32  1  0.691427  0.870236  0.746705  1
  Pt  Pt33  1  0.178284  0.629241  0.755230  1
  Pt  Pt34  1  0.322584  0.118403  0.250822  1
  Pt  Pt35  1  0.820593  0.381139  0.250418  1
