# generated using pymatgen
data_Y7Co2Sn23Ru4
_symmetry_space_group_name_H-M   'P 1'
_cell_length_a   9.80790108
_cell_length_b   9.80790210
_cell_length_c   10.09093153
_cell_angle_alpha   90.03189154
_cell_angle_beta   89.96810992
_cell_angle_gamma   119.78849529
_symmetry_Int_Tables_number   1
_chemical_formula_structural   Y7Co2Sn23Ru4
_chemical_formula_sum   'Y7 Co2 Sn23 Ru4'
_cell_volume   842.43355320
_cell_formula_units_Z   1
loop_
 _symmetry_equiv_pos_site_id
 _symmetry_equiv_pos_as_xyz
  1  'x, y, z'
loop_
 _atom_site_type_symbol
 _atom_site_label
 _atom_site_symmetry_multiplicity
 _atom_site_fract_x
 _atom_site_fract_y
 _atom_site_fract_z
 _atom_site_occupancy
  Y  Y0  1  0.996579  0.003421  0.992110  1
  Y  Y1  1  0.038855  0.518665  0.305843  1
  Y  Y2  1  0.481335  0.961145  0.305843  1
  Y  Y3  1  0.481110  0.518890  0.306205  1
  Y  Y4  1  0.963522  0.482067  0.694952  1
  Y  Y5  1  0.517933  0.036478  0.694952  1
  Y  Y6  1  0.518884  0.481116  0.694154  1
  Co  Co7  1  0.338948  0.169243  0.199424  1
  Co  Co8  1  0.830757  0.661052  0.199424  1
  Sn  Sn9  1  0.000161  0.999839  0.497635  1
  Sn  Sn10  1  0.116193  0.883807  0.269723  1
  Sn  Sn11  1  0.765663  0.877246  0.270989  1
  Sn  Sn12  1  0.122754  0.234337  0.270989  1
  Sn  Sn13  1  0.882269  0.117731  0.725170  1
  Sn  Sn14  1  0.236480  0.118140  0.726687  1
  Sn  Sn15  1  0.881860  0.763520  0.726687  1
  Sn  Sn16  1  0.347555  0.002898  0.004210  1
  Sn  Sn17  1  0.653793  0.650217  0.003935  1
  Sn  Sn18  1  0.998641  0.349830  0.000489  1
  Sn  Sn19  1  0.349783  0.346207  0.003935  1
  Sn  Sn20  1  0.997102  0.652445  0.004210  1
  Sn  Sn21  1  0.650170  0.001359  0.000489  1
  Sn  Sn22  1  0.783081  0.565856  0.452641  1
  Sn  Sn23  1  0.780405  0.219595  0.459206  1
  Sn  Sn24  1  0.434144  0.216919  0.452641  1
  Sn  Sn25  1  0.219607  0.438369  0.542499  1
  Sn  Sn26  1  0.219194  0.780806  0.542173  1
  Sn  Sn27  1  0.561631  0.780393  0.542499  1
  Sn  Sn28  1  0.665619  0.334381  0.183216  1
  Sn  Sn29  1  0.333201  0.666799  0.818413  1
  Sn  Sn30  1  0.667110  0.332890  0.880769  1
  Sn  Sn31  1  0.333610  0.666390  0.121375  1
  Ru  Ru32  1  0.168318  0.831682  0.801651  1
  Ru  Ru33  1  0.662349  0.830559  0.801721  1
  Ru  Ru34  1  0.169441  0.337651  0.801721  1
  Ru  Ru35  1  0.831944  0.168056  0.201423  1
