# generated using pymatgen
data_HoZr3(Si3Ni5)4
_symmetry_space_group_name_H-M   'P 1'
_cell_length_a   3.73403000
_cell_length_b   6.64192978
_cell_length_c   18.44996275
_cell_angle_alpha   90.12871995
_cell_angle_beta   90.00000000
_cell_angle_gamma   90.00000000
_symmetry_Int_Tables_number   1
_chemical_formula_structural   HoZr3(Si3Ni5)4
_chemical_formula_sum   'Ho1 Zr3 Si12 Ni20'
_cell_volume   457.57941639
_cell_formula_units_Z   1
loop_
 _symmetry_equiv_pos_site_id
 _symmetry_equiv_pos_as_xyz
  1  'x, y, z'
loop_
 _atom_site_type_symbol
 _atom_site_label
 _atom_site_symmetry_multiplicity
 _atom_site_fract_x
 _atom_site_fract_y
 _atom_site_fract_z
 _atom_site_occupancy
  Ho  Ho0  1  0.250000  0.877585  0.142724  1
  Zr  Zr1  1  0.250000  0.621285  0.642906  1
  Zr  Zr2  1  0.750000  0.379652  0.358080  1
  Zr  Zr3  1  0.750000  0.119480  0.856003  1
  Si  Si4  1  0.250000  0.852824  0.922777  1
  Si  Si5  1  0.750000  0.157436  0.074837  1
  Si  Si6  1  0.750000  0.351796  0.577385  1
  Si  Si7  1  0.250000  0.647640  0.424588  1
  Si  Si8  1  0.750000  0.622330  0.759894  1
  Si  Si9  1  0.250000  0.377365  0.241198  1
  Si  Si10  1  0.250000  0.406065  0.910945  1
  Si  Si11  1  0.750000  0.583148  0.084000  1
  Si  Si12  1  0.750000  0.906220  0.586184  1
  Si  Si13  1  0.250000  0.094259  0.415867  1
  Si  Si14  1  0.250000  0.121771  0.738918  1
  Si  Si15  1  0.750000  0.876856  0.263429  1
  Ni  Ni16  1  0.250000  0.133699  0.993290  1
  Ni  Ni17  1  0.750000  0.380435  0.982536  1
  Ni  Ni18  1  0.750000  0.120522  0.487812  1
  Ni  Ni19  1  0.250000  0.615856  0.010803  1
  Ni  Ni20  1  0.250000  0.359752  0.116097  1
  Ni  Ni21  1  0.750000  0.645602  0.884314  1
  Ni  Ni22  1  0.750000  0.856662  0.387387  1
  Ni  Ni23  1  0.250000  0.142653  0.614693  1
  Ni  Ni24  1  0.250000  0.070828  0.295593  1
  Ni  Ni25  1  0.750000  0.929434  0.706772  1
  Ni  Ni26  1  0.750000  0.568413  0.206930  1
  Ni  Ni27  1  0.250000  0.430197  0.791093  1
  Ni  Ni28  1  0.750000  0.629637  0.506223  1
  Ni  Ni29  1  0.250000  0.370245  0.495946  1
  Ni  Ni30  1  0.250000  0.817687  0.798729  1
  Ni  Ni31  1  0.750000  0.184507  0.201915  1
  Ni  Ni32  1  0.750000  0.317106  0.700365  1
  Ni  Ni33  1  0.250000  0.681311  0.301437  1
  Ni  Ni34  1  0.250000  0.880037  0.513816  1
  Ni  Ni35  1  0.750000  0.869705  0.004509  1
