# generated using pymatgen
data_Nd3HoFe4(P3Rh4)4
_symmetry_space_group_name_H-M   'P 1'
_cell_length_a   3.88300600
_cell_length_b   10.81121988
_cell_length_c   12.49395810
_cell_angle_alpha   90.08221805
_cell_angle_beta   90.00000000
_cell_angle_gamma   90.00000000
_symmetry_Int_Tables_number   1
_chemical_formula_structural   Nd3HoFe4(P3Rh4)4
_chemical_formula_sum   'Nd3 Ho1 Fe4 P12 Rh16'
_cell_volume   524.49621683
_cell_formula_units_Z   1
loop_
 _symmetry_equiv_pos_site_id
 _symmetry_equiv_pos_as_xyz
  1  'x, y, z'
loop_
 _atom_site_type_symbol
 _atom_site_label
 _atom_site_symmetry_multiplicity
 _atom_site_fract_x
 _atom_site_fract_y
 _atom_site_fract_z
 _atom_site_occupancy
  Nd  Nd0  1  0.250000  0.583307  0.708973  1
  Nd  Nd1  1  0.250000  0.917737  0.209013  1
  Nd  Nd2  1  0.750000  0.416980  0.290860  1
  Ho  Ho3  1  0.750000  0.082591  0.791244  1
  Fe  Fe4  1  0.250000  0.460793  0.932617  1
  Fe  Fe5  1  0.250000  0.037698  0.435842  1
  Fe  Fe6  1  0.750000  0.537272  0.065276  1
  Fe  Fe7  1  0.750000  0.963997  0.568744  1
  P  P8  1  0.250000  0.429754  0.103686  1
  P  P9  1  0.250000  0.069717  0.607273  1
  P  P10  1  0.750000  0.568754  0.894618  1
  P  P11  1  0.750000  0.930581  0.397277  1
  P  P12  1  0.250000  0.270669  0.868780  1
  P  P13  1  0.250000  0.226028  0.372066  1
  P  P14  1  0.750000  0.726811  0.128021  1
  P  P15  1  0.750000  0.774182  0.628734  1
  P  P16  1  0.250000  0.603600  0.390145  1
  P  P17  1  0.250000  0.899147  0.888959  1
  P  P18  1  0.750000  0.397273  0.609681  1
  P  P19  1  0.750000  0.103761  0.110403  1
  Rh  Rh20  1  0.250000  0.717062  0.990058  1
  Rh  Rh21  1  0.250000  0.783871  0.492414  1
  Rh  Rh22  1  0.750000  0.283289  0.008261  1
  Rh  Rh23  1  0.750000  0.216316  0.509778  1
  Rh  Rh24  1  0.250000  0.408156  0.482909  1
  Rh  Rh25  1  0.250000  0.092113  0.976948  1
  Rh  Rh26  1  0.750000  0.591867  0.517656  1
  Rh  Rh27  1  0.750000  0.909596  0.017438  1
  Rh  Rh28  1  0.250000  0.227358  0.173741  1
  Rh  Rh29  1  0.250000  0.267488  0.675639  1
  Rh  Rh30  1  0.750000  0.771195  0.825311  1
  Rh  Rh31  1  0.750000  0.729669  0.325605  1
  Rh  Rh32  1  0.250000  0.883852  0.701713  1
  Rh  Rh33  1  0.250000  0.619250  0.199154  1
  Rh  Rh34  1  0.750000  0.119082  0.301535  1
  Rh  Rh35  1  0.750000  0.379180  0.799628  1
