# generated using pymatgen
data_Ta6Nb2Co7Si14Pd
_symmetry_space_group_name_H-M   'P 1'
_cell_length_a   9.28054083
_cell_length_b   9.29799558
_cell_length_c   9.24277231
_cell_angle_alpha   94.27766272
_cell_angle_beta   94.17727704
_cell_angle_gamma   148.57272481
_symmetry_Int_Tables_number   1
_chemical_formula_structural   Ta6Nb2Co7Si14Pd
_chemical_formula_sum   'Ta6 Nb2 Co7 Si14 Pd1'
_cell_volume   400.16059722
_cell_formula_units_Z   1
loop_
 _symmetry_equiv_pos_site_id
 _symmetry_equiv_pos_as_xyz
  1  'x, y, z'
loop_
 _atom_site_type_symbol
 _atom_site_label
 _atom_site_symmetry_multiplicity
 _atom_site_fract_x
 _atom_site_fract_y
 _atom_site_fract_z
 _atom_site_occupancy
  Ta  Ta0  1  0.311410  0.498323  0.809621  1
  Ta  Ta1  1  0.691173  0.503286  0.191553  1
  Ta  Ta2  1  0.500387  0.688270  0.191560  1
  Ta  Ta3  1  0.498216  0.311299  0.809628  1
  Ta  Ta4  1  0.133838  0.133838  0.267677  1
  Ta  Ta5  1  0.866800  0.866800  0.733599  1
  Nb  Nb6  1  0.134063  0.870280  0.002253  1
  Nb  Nb7  1  0.868187  0.131973  0.002253  1
  Co  Co8  1  0.104620  0.604627  0.209238  1
  Co  Co9  1  0.898072  0.095603  0.494586  1
  Co  Co10  1  0.596516  0.398974  0.494582  1
  Co  Co11  1  0.598877  0.098880  0.197757  1
  Co  Co12  1  0.897772  0.397779  0.795547  1
  Co  Co13  1  0.104642  0.899725  0.503399  1
  Co  Co14  1  0.398759  0.603680  0.503401  1
  Si  Si15  1  0.291099  0.291096  0.582178  1
  Si  Si16  1  0.708407  0.708409  0.416823  1
  Si  Si17  1  0.277982  0.690009  0.005779  1
  Si  Si18  1  0.727799  0.315769  0.005778  1
  Si  Si19  1  0.064608  0.466147  0.585811  1
  Si  Si20  1  0.903930  0.499130  0.406908  1
  Si  Si21  1  0.502985  0.907787  0.406915  1
  Si  Si22  1  0.521191  0.119653  0.585819  1
  Si  Si23  1  0.249636  0.249311  0.000686  1
  Si  Si24  1  0.751045  0.751372  0.000685  1
  Si  Si25  1  0.298714  0.001851  0.296397  1
  Si  Si26  1  0.721905  0.010757  0.702493  1
  Si  Si27  1  0.980593  0.691741  0.702490  1
  Si  Si28  1  0.997682  0.294547  0.296398  1
  Pd  Pd29  1  0.399090  0.899083  0.798185  1
