# generated using pymatgen
data_PrMg2PaNi8
_symmetry_space_group_name_H-M   'P 1'
_cell_length_a   4.99686000
_cell_length_b   4.99689494
_cell_length_c   8.68855700
_cell_angle_alpha   73.28792462
_cell_angle_beta   90.00040132
_cell_angle_gamma   119.99983573
_symmetry_Int_Tables_number   1
_chemical_formula_structural   PrMg2PaNi8
_chemical_formula_sum   'Pr1 Mg2 Pa1 Ni8'
_cell_volume   177.21873997
_cell_formula_units_Z   1
loop_
 _symmetry_equiv_pos_site_id
 _symmetry_equiv_pos_as_xyz
  1  'x, y, z'
loop_
 _atom_site_type_symbol
 _atom_site_label
 _atom_site_symmetry_multiplicity
 _atom_site_fract_x
 _atom_site_fract_y
 _atom_site_fract_z
 _atom_site_occupancy
  Pr  Pr0  1  0.500952  0.001904  0.497137  1
  Mg  Mg1  1  0.873728  0.747465  0.378487  1
  Mg  Mg2  1  0.376825  0.753656  0.869309  1
  Pa  Pa3  1  0.999778  0.999558  0.000681  1
  Ni  Ni4  1  0.436462  0.384983  0.178728  1
  Ni  Ni5  1  0.934669  0.366466  0.698839  1
  Ni  Ni6  1  0.436449  0.872923  0.178745  1
  Ni  Ni7  1  0.934697  0.869385  0.699055  1
  Ni  Ni8  1  0.188502  0.377002  0.434469  1
  Ni  Ni9  1  0.687603  0.375210  0.936992  1
  Ni  Ni10  1  0.948525  0.384979  0.178725  1
  Ni  Ni11  1  0.431810  0.366470  0.698833  1
