# generated using pymatgen
data_YTm4Co19(Si2P)4
_symmetry_space_group_name_H-M   'P 1'
_cell_length_a   12.08436505
_cell_length_b   12.08057345
_cell_length_c   3.67689400
_cell_angle_alpha   90.00000000
_cell_angle_beta   90.00000000
_cell_angle_gamma   119.95597702
_symmetry_Int_Tables_number   1
_chemical_formula_structural   YTm4Co19(Si2P)4
_chemical_formula_sum   'Y1 Tm4 Co19 Si8 P4'
_cell_volume   465.06709436
_cell_formula_units_Z   1
loop_
 _symmetry_equiv_pos_site_id
 _symmetry_equiv_pos_as_xyz
  1  'x, y, z'
loop_
 _atom_site_type_symbol
 _atom_site_label
 _atom_site_symmetry_multiplicity
 _atom_site_fract_x
 _atom_site_fract_y
 _atom_site_fract_z
 _atom_site_occupancy
  Y  Y0  1  0.667383  0.332336  0.500000  1
  Tm  Tm1  1  0.332919  0.666006  0.500000  1
  Tm  Tm2  1  0.000949  0.183222  0.000000  1
  Tm  Tm3  1  0.816259  0.817164  0.000000  1
  Tm  Tm4  1  0.184160  0.999962  0.000000  1
  Co  Co5  1  0.628089  0.825521  0.500000  1
  Co  Co6  1  0.175815  0.803144  0.500000  1
  Co  Co7  1  0.196181  0.371444  0.500000  1
  Co  Co8  1  0.372910  0.195987  0.500000  1
  Co  Co9  1  0.824956  0.628970  0.500000  1
  Co  Co10  1  0.798609  0.174766  0.500000  1
  Co  Co11  1  0.999643  0.556376  0.500000  1
  Co  Co12  1  0.442336  0.442958  0.500000  1
  Co  Co13  1  0.554503  0.996664  0.500000  1
  Co  Co14  1  0.520921  0.645915  0.000000  1
  Co  Co15  1  0.353934  0.875040  0.000000  1
  Co  Co16  1  0.123554  0.477867  0.000000  1
  Co  Co17  1  0.484822  0.123712  0.000000  1
  Co  Co18  1  0.645265  0.522108  0.000000  1
  Co  Co19  1  0.874995  0.352657  0.000000  1
  Co  Co20  1  0.000696  0.723941  0.000000  1
  Co  Co21  1  0.276808  0.276471  0.000000  1
  Co  Co22  1  0.721582  0.003847  0.000000  1
  Co  Co23  1  0.999190  0.000165  0.500000  1
  Si  Si24  1  0.999817  0.367852  0.500000  1
  Si  Si25  1  0.631357  0.631979  0.500000  1
  Si  Si26  1  0.368464  0.999915  0.500000  1
  Si  Si27  1  0.521132  0.839951  0.000000  1
  Si  Si28  1  0.159057  0.680380  0.000000  1
  Si  Si29  1  0.318450  0.477967  0.000000  1
  Si  Si30  1  0.477784  0.318347  0.000000  1
  Si  Si31  1  0.841580  0.523136  0.000000  1
  P  P32  1  0.685535  0.163721  0.000000  1
  P  P33  1  0.000380  0.820645  0.500000  1
  P  P34  1  0.180341  0.179285  0.500000  1
  P  P35  1  0.819623  0.000579  0.500000  1
