# generated using pymatgen
data_LiDy6Y10Cd3Pt4
_symmetry_space_group_name_H-M   'P 1'
_cell_length_a   9.70645550
_cell_length_b   9.71884235
_cell_length_c   9.71884383
_cell_angle_alpha   59.84160980
_cell_angle_beta   59.94288433
_cell_angle_gamma   59.94288175
_symmetry_Int_Tables_number   1
_chemical_formula_structural   LiDy6Y10Cd3Pt4
_chemical_formula_sum   'Li1 Dy6 Y10 Cd3 Pt4'
_cell_volume   646.96035566
_cell_formula_units_Z   1
loop_
 _symmetry_equiv_pos_site_id
 _symmetry_equiv_pos_as_xyz
  1  'x, y, z'
loop_
 _atom_site_type_symbol
 _atom_site_label
 _atom_site_symmetry_multiplicity
 _atom_site_fract_x
 _atom_site_fract_y
 _atom_site_fract_z
 _atom_site_occupancy
  Li  Li0  1  0.571900  0.571294  0.571294  1
  Dy  Dy1  1  0.350773  0.351073  0.351073  1
  Dy  Dy2  1  0.352206  0.351922  0.944840  1
  Dy  Dy3  1  0.352206  0.944840  0.351922  1
  Dy  Dy4  1  0.944851  0.352185  0.352185  1
  Dy  Dy5  1  0.809904  0.191968  0.191968  1
  Dy  Dy6  1  0.188145  0.812579  0.812579  1
  Y  Y7  1  0.192144  0.809594  0.192275  1
  Y  Y8  1  0.812243  0.188114  0.812253  1
  Y  Y9  1  0.192144  0.192275  0.809594  1
  Y  Y10  1  0.812243  0.812253  0.188114  1
  Y  Y11  1  0.936208  0.564981  0.564981  1
  Y  Y12  1  0.563538  0.936242  0.936242  1
  Y  Y13  1  0.564466  0.936998  0.564548  1
  Y  Y14  1  0.936612  0.563328  0.936479  1
  Y  Y15  1  0.564466  0.564548  0.936998  1
  Y  Y16  1  0.936612  0.936479  0.563328  1
  Cd  Cd17  1  0.582170  0.582416  0.253746  1
  Cd  Cd18  1  0.582170  0.253746  0.582416  1
  Cd  Cd19  1  0.253776  0.582025  0.582025  1
  Pt  Pt20  1  0.142983  0.145104  0.145104  1
  Pt  Pt21  1  0.144048  0.141874  0.570118  1
  Pt  Pt22  1  0.144048  0.570118  0.141874  1
  Pt  Pt23  1  0.570144  0.144043  0.144043  1
