# generated using pymatgen
data_YbTl(PO3)3
_symmetry_space_group_name_H-M   'P 1'
_cell_length_a   6.84208900
_cell_length_b   6.84208971
_cell_length_c   10.12070400
_cell_angle_alpha   90.00000000
_cell_angle_beta   90.00000000
_cell_angle_gamma   119.99999172
_symmetry_Int_Tables_number   1
_chemical_formula_structural   YbTl(PO3)3
_chemical_formula_sum   'Yb2 Tl2 P6 O18'
_cell_volume   410.31639888
_cell_formula_units_Z   2
loop_
 _symmetry_equiv_pos_site_id
 _symmetry_equiv_pos_as_xyz
  1  'x, y, z'
loop_
 _atom_site_type_symbol
 _atom_site_label
 _atom_site_symmetry_multiplicity
 _atom_site_fract_x
 _atom_site_fract_y
 _atom_site_fract_z
 _atom_site_occupancy
  Yb  Yb0  1  0.666667  0.333332  0.000000  1
  Yb  Yb1  1  0.666667  0.333332  0.500000  1
  Tl  Tl2  1  0.000000  0.000000  0.000000  1
  Tl  Tl3  1  0.000000  0.000000  0.500000  1
  P  P4  1  0.063269  0.438987  0.250000  1
  P  P5  1  0.561014  0.624282  0.250000  1
  P  P6  1  0.375719  0.936732  0.250000  1
  P  P7  1  0.375718  0.438986  0.749999  1
  P  P8  1  0.063268  0.624281  0.749999  1
  P  P9  1  0.561013  0.936731  0.749999  1
  O  O10  1  0.392149  0.055797  0.123209  1
  O  O11  1  0.944203  0.336352  0.123209  1
  O  O12  1  0.663649  0.607850  0.123209  1
  O  O13  1  0.297144  0.437233  0.250000  1
  O  O14  1  0.140088  0.702856  0.250000  1
  O  O15  1  0.562769  0.859912  0.250000  1
  O  O16  1  0.392149  0.055797  0.376790  1
  O  O17  1  0.944203  0.336352  0.376790  1
  O  O18  1  0.663649  0.607850  0.376790  1
  O  O19  1  0.663648  0.055797  0.623209  1
  O  O20  1  0.392150  0.336351  0.623209  1
  O  O21  1  0.944203  0.607851  0.623209  1
  O  O22  1  0.140088  0.437231  0.749999  1
  O  O23  1  0.562767  0.702856  0.749999  1
  O  O24  1  0.297144  0.859912  0.749999  1
  O  O25  1  0.663648  0.055797  0.876790  1
  O  O26  1  0.392150  0.336351  0.876790  1
  O  O27  1  0.944203  0.607851  0.876790  1
