# generated using pymatgen
data_Tb3MnCo7NiP6
_symmetry_space_group_name_H-M   'P 1'
_cell_length_a   3.71181300
_cell_length_b   10.54826700
_cell_length_c   12.23020500
_cell_angle_alpha   90.00000000
_cell_angle_beta   90.00000000
_cell_angle_gamma   90.00000000
_symmetry_Int_Tables_number   1
_chemical_formula_structural   Tb3MnCo7NiP6
_chemical_formula_sum   'Tb6 Mn2 Co14 Ni2 P12'
_cell_volume   478.85159609
_cell_formula_units_Z   2
loop_
 _symmetry_equiv_pos_site_id
 _symmetry_equiv_pos_as_xyz
  1  'x, y, z'
loop_
 _atom_site_type_symbol
 _atom_site_label
 _atom_site_symmetry_multiplicity
 _atom_site_fract_x
 _atom_site_fract_y
 _atom_site_fract_z
 _atom_site_occupancy
  Tb  Tb0  1  0.000000  0.500000  0.520175  1
  Tb  Tb1  1  0.500000  0.000000  0.479825  1
  Tb  Tb2  1  0.500000  0.816262  0.204510  1
  Tb  Tb3  1  0.500000  0.183738  0.204510  1
  Tb  Tb4  1  0.000000  0.683738  0.795490  1
  Tb  Tb5  1  0.000000  0.316262  0.795490  1
  Mn  Mn6  1  0.500000  0.500000  0.157400  1
  Mn  Mn7  1  0.000000  0.000000  0.842600  1
  Co  Co8  1  0.000000  0.500000  0.985704  1
  Co  Co9  1  0.500000  0.000000  0.014296  1
  Co  Co10  1  0.500000  0.333289  0.994184  1
  Co  Co11  1  0.500000  0.666711  0.994184  1
  Co  Co12  1  0.000000  0.166711  0.005816  1
  Co  Co13  1  0.000000  0.833289  0.005816  1
  Co  Co14  1  0.500000  0.297326  0.430673  1
  Co  Co15  1  0.500000  0.702674  0.430673  1
  Co  Co16  1  0.000000  0.202674  0.569327  1
  Co  Co17  1  0.000000  0.797326  0.569327  1
  Co  Co18  1  0.500000  0.879273  0.710138  1
  Co  Co19  1  0.500000  0.120727  0.710138  1
  Co  Co20  1  0.000000  0.620727  0.289862  1
  Co  Co21  1  0.000000  0.379273  0.289862  1
  Ni  Ni22  1  0.500000  0.500000  0.702166  1
  Ni  Ni23  1  0.000000  0.000000  0.297834  1
  P  P24  1  0.500000  0.500000  0.883698  1
  P  P25  1  0.000000  0.000000  0.116302  1
  P  P26  1  0.500000  0.500000  0.343424  1
  P  P27  1  0.000000  0.000000  0.656576  1
  P  P28  1  0.500000  0.309164  0.615145  1
  P  P29  1  0.500000  0.690836  0.615145  1
  P  P30  1  0.000000  0.190836  0.384855  1
  P  P31  1  0.000000  0.809164  0.384855  1
  P  P32  1  0.500000  0.847520  0.893862  1
  P  P33  1  0.500000  0.152480  0.893862  1
  P  P34  1  0.000000  0.652480  0.106138  1
  P  P35  1  0.000000  0.347520  0.106138  1
