# generated using pymatgen
data_Tb3Lu9OsRu3
_symmetry_space_group_name_H-M   'P 1'
_cell_length_a   7.31864373
_cell_length_b   8.88185400
_cell_length_c   6.20900374
_cell_angle_alpha   90.00000000
_cell_angle_beta   89.98496702
_cell_angle_gamma   90.00000000
_symmetry_Int_Tables_number   1
_chemical_formula_structural   Tb3Lu9OsRu3
_chemical_formula_sum   'Tb3 Lu9 Os1 Ru3'
_cell_volume   403.60463285
_cell_formula_units_Z   1
loop_
 _symmetry_equiv_pos_site_id
 _symmetry_equiv_pos_as_xyz
  1  'x, y, z'
loop_
 _atom_site_type_symbol
 _atom_site_label
 _atom_site_symmetry_multiplicity
 _atom_site_fract_x
 _atom_site_fract_y
 _atom_site_fract_z
 _atom_site_occupancy
  Tb  Tb0  1  0.539700  0.250000  0.872511  1
  Tb  Tb1  1  0.040043  0.250000  0.628153  1
  Tb  Tb2  1  0.460360  0.750000  0.127331  1
  Lu  Lu3  1  0.675598  0.061701  0.336307  1
  Lu  Lu4  1  0.173379  0.437627  0.165599  1
  Lu  Lu5  1  0.324919  0.563722  0.664135  1
  Lu  Lu6  1  0.825373  0.935470  0.832873  1
  Lu  Lu7  1  0.324919  0.936278  0.664135  1
  Lu  Lu8  1  0.825373  0.564530  0.832873  1
  Lu  Lu9  1  0.675598  0.438299  0.336307  1
  Lu  Lu10  1  0.173379  0.062373  0.165599  1
  Lu  Lu11  1  0.960675  0.750000  0.371331  1
  Os  Os12  1  0.619336  0.750000  0.542114  1
  Ru  Ru13  1  0.883572  0.250000  0.042427  1
  Ru  Ru14  1  0.382355  0.250000  0.456801  1
  Ru  Ru15  1  0.115419  0.750000  0.961505  1
