# generated using pymatgen
data_Sm3Gd(SO6)2
_symmetry_space_group_name_H-M   'P 1'
_cell_length_a   8.20795227
_cell_length_b   13.19543500
_cell_length_c   4.22914666
_cell_angle_alpha   90.00000000
_cell_angle_beta   89.93615488
_cell_angle_gamma   90.00000000
_symmetry_Int_Tables_number   1
_chemical_formula_structural   Sm3Gd(SO6)2
_chemical_formula_sum   'Sm6 Gd2 S4 O24'
_cell_volume   458.04802013
_cell_formula_units_Z   2
loop_
 _symmetry_equiv_pos_site_id
 _symmetry_equiv_pos_as_xyz
  1  'x, y, z'
loop_
 _atom_site_type_symbol
 _atom_site_label
 _atom_site_symmetry_multiplicity
 _atom_site_fract_x
 _atom_site_fract_y
 _atom_site_fract_z
 _atom_site_occupancy
  Sm  Sm0  1  0.124931  0.581001  0.257658  1
  Sm  Sm1  1  0.124931  0.918999  0.257658  1
  Sm  Sm2  1  0.874749  0.079673  0.742349  1
  Sm  Sm3  1  0.874749  0.420326  0.742349  1
  Sm  Sm4  1  0.375341  0.079664  0.757789  1
  Sm  Sm5  1  0.375341  0.420335  0.757789  1
  Gd  Gd6  1  0.624900  0.579234  0.243550  1
  Gd  Gd7  1  0.624900  0.920766  0.243550  1
  S  S8  1  0.123966  0.250000  0.194263  1
  S  S9  1  0.624051  0.250000  0.304915  1
  S  S10  1  0.376382  0.750000  0.694437  1
  S  S11  1  0.875640  0.750000  0.805909  1
  O  O12  1  0.727555  0.750000  0.013355  1
  O  O13  1  0.022806  0.750000  0.016345  1
  O  O14  1  0.624006  0.157291  0.107779  1
  O  O15  1  0.624006  0.342709  0.107779  1
  O  O16  1  0.873144  0.003200  0.234304  1
  O  O17  1  0.873144  0.496799  0.234304  1
  O  O18  1  0.376487  0.003257  0.265916  1
  O  O19  1  0.376487  0.496742  0.265916  1
  O  O20  1  0.123858  0.157200  0.391072  1
  O  O21  1  0.123858  0.342800  0.391072  1
  O  O22  1  0.523171  0.750000  0.483872  1
  O  O23  1  0.227981  0.750000  0.486891  1
  O  O24  1  0.772138  0.250000  0.512476  1
  O  O25  1  0.477047  0.250000  0.515524  1
  O  O26  1  0.876569  0.657323  0.608856  1
  O  O27  1  0.876569  0.842677  0.608856  1
  O  O28  1  0.625129  0.505065  0.733994  1
  O  O29  1  0.625129  0.994935  0.733994  1
  O  O30  1  0.125108  0.503938  0.766077  1
  O  O31  1  0.125108  0.996062  0.766077  1
  O  O32  1  0.375717  0.657304  0.891378  1
  O  O33  1  0.375717  0.842696  0.891378  1
  O  O34  1  0.977049  0.250000  0.983906  1
  O  O35  1  0.272343  0.250000  0.986674  1
