# generated using pymatgen
data_Rb2Mg(PSe3)2
_symmetry_space_group_name_H-M   'P 1'
_cell_length_a   12.86641300
_cell_length_b   6.54659769
_cell_length_c   10.00744057
_cell_angle_alpha   53.73884807
_cell_angle_beta   90.00000000
_cell_angle_gamma   90.00000000
_symmetry_Int_Tables_number   1
_chemical_formula_structural   Rb2Mg(PSe3)2
_chemical_formula_sum   'Rb4 Mg2 P4 Se12'
_cell_volume   679.68660012
_cell_formula_units_Z   2
loop_
 _symmetry_equiv_pos_site_id
 _symmetry_equiv_pos_as_xyz
  1  'x, y, z'
loop_
 _atom_site_type_symbol
 _atom_site_label
 _atom_site_symmetry_multiplicity
 _atom_site_fract_x
 _atom_site_fract_y
 _atom_site_fract_z
 _atom_site_occupancy
  Rb  Rb0  1  0.671155  0.221348  0.528500  1
  Rb  Rb1  1  0.171155  0.778652  0.971500  1
  Rb  Rb2  1  0.328845  0.778652  0.471500  1
  Rb  Rb3  1  0.828845  0.221348  0.028500  1
  Mg  Mg4  1  0.000000  0.500000  0.500000  1
  Mg  Mg5  1  0.500000  0.500000  0.000000  1
  P  P6  1  0.039688  0.158617  0.380876  1
  P  P7  1  0.539688  0.841383  0.119124  1
  P  P8  1  0.960312  0.841383  0.619124  1
  P  P9  1  0.460312  0.158617  0.880876  1
  Se  Se10  1  0.172822  0.273055  0.461280  1
  Se  Se11  1  0.672822  0.726945  0.038720  1
  Se  Se12  1  0.827178  0.726945  0.538720  1
  Se  Se13  1  0.327178  0.273055  0.961280  1
  Se  Se14  1  0.924761  0.468605  0.252459  1
  Se  Se15  1  0.424761  0.531395  0.247541  1
  Se  Se16  1  0.075239  0.531395  0.747541  1
  Se  Se17  1  0.575239  0.468605  0.752459  1
  Se  Se18  1  0.079402  0.982862  0.256394  1
  Se  Se19  1  0.579402  0.017138  0.243606  1
  Se  Se20  1  0.920598  0.017138  0.743606  1
  Se  Se21  1  0.420598  0.982862  0.756394  1
