# generated using pymatgen
data_Ac3MgAu5
_symmetry_space_group_name_H-M   'P 1'
_cell_length_a   8.40954278
_cell_length_b   8.40954235
_cell_length_c   8.40954287
_cell_angle_alpha   66.39506983
_cell_angle_beta   66.39507179
_cell_angle_gamma   66.39505824
_symmetry_Int_Tables_number   1
_chemical_formula_structural   Ac3MgAu5
_chemical_formula_sum   'Ac6 Mg2 Au10'
_cell_volume   478.51769710
_cell_formula_units_Z   2
loop_
 _symmetry_equiv_pos_site_id
 _symmetry_equiv_pos_as_xyz
  1  'x, y, z'
loop_
 _atom_site_type_symbol
 _atom_site_label
 _atom_site_symmetry_multiplicity
 _atom_site_fract_x
 _atom_site_fract_y
 _atom_site_fract_z
 _atom_site_occupancy
  Ac  Ac0  1  0.889920  0.190477  0.625091  1
  Ac  Ac1  1  0.625091  0.889920  0.190477  1
  Ac  Ac2  1  0.190477  0.625091  0.889920  1
  Ac  Ac3  1  0.110080  0.809523  0.374909  1
  Ac  Ac4  1  0.374909  0.110080  0.809523  1
  Ac  Ac5  1  0.809523  0.374909  0.110080  1
  Mg  Mg6  1  0.651981  0.651981  0.651981  1
  Mg  Mg7  1  0.348019  0.348019  0.348019  1
  Au  Au8  1  0.000000  0.000000  0.000000  1
  Au  Au9  1  0.500000  0.500000  0.500000  1
  Au  Au10  1  0.795104  0.795104  0.795104  1
  Au  Au11  1  0.204896  0.204896  0.204896  1
  Au  Au12  1  0.944179  0.546316  0.321493  1
  Au  Au13  1  0.321493  0.944179  0.546316  1
  Au  Au14  1  0.546316  0.321493  0.944179  1
  Au  Au15  1  0.055821  0.453684  0.678507  1
  Au  Au16  1  0.678507  0.055821  0.453684  1
  Au  Au17  1  0.453684  0.678507  0.055821  1
