# generated using pymatgen
data_Sm2VReH18
_symmetry_space_group_name_H-M   'P 1'
_cell_length_a   4.70831200
_cell_length_b   4.70831267
_cell_length_c   8.86632000
_cell_angle_alpha   90.00000000
_cell_angle_beta   90.00000000
_cell_angle_gamma   120.00000933
_symmetry_Int_Tables_number   1
_chemical_formula_structural   Sm2VReH18
_chemical_formula_sum   'Sm2 V1 Re1 H18'
_cell_volume   170.21762339
_cell_formula_units_Z   1
loop_
 _symmetry_equiv_pos_site_id
 _symmetry_equiv_pos_as_xyz
  1  'x, y, z'
loop_
 _atom_site_type_symbol
 _atom_site_label
 _atom_site_symmetry_multiplicity
 _atom_site_fract_x
 _atom_site_fract_y
 _atom_site_fract_z
 _atom_site_occupancy
  Sm  Sm0  1  0.000000  0.000000  0.030169  1
  Sm  Sm1  1  0.000000  0.000000  0.469831  1
  V  V2  1  0.333333  0.666667  0.250000  1
  Re  Re3  1  0.666667  0.333333  0.750000  1
  H  H4  1  0.482475  0.517525  0.388039  1
  H  H5  1  0.482475  0.964949  0.388039  1
  H  H6  1  0.035051  0.517525  0.388039  1
  H  H7  1  0.965470  0.482735  0.885948  1
  H  H8  1  0.131573  0.263147  0.250000  1
  H  H9  1  0.870297  0.129703  0.750000  1
  H  H10  1  0.259406  0.129703  0.750000  1
  H  H11  1  0.736853  0.868427  0.250000  1
  H  H12  1  0.131573  0.868427  0.250000  1
  H  H13  1  0.870297  0.740594  0.750000  1
  H  H14  1  0.482475  0.964949  0.111961  1
  H  H15  1  0.517265  0.482735  0.614052  1
  H  H16  1  0.965470  0.482735  0.614052  1
  H  H17  1  0.035051  0.517525  0.111961  1
  H  H18  1  0.482475  0.517525  0.111961  1
  H  H19  1  0.517265  0.034530  0.885948  1
  H  H20  1  0.517265  0.482735  0.885948  1
  H  H21  1  0.517265  0.034530  0.614052  1
