# generated using pymatgen
data_Dy4Er3TmSb20
_symmetry_space_group_name_H-M   'P 1'
_cell_length_a   4.24162800
_cell_length_b   13.15293307
_cell_length_c   14.63699758
_cell_angle_alpha   77.74125435
_cell_angle_beta   90.00000000
_cell_angle_gamma   90.00000000
_symmetry_Int_Tables_number   1
_chemical_formula_structural   Dy4Er3TmSb20
_chemical_formula_sum   'Dy4 Er3 Tm1 Sb20'
_cell_volume   797.97644605
_cell_formula_units_Z   1
loop_
 _symmetry_equiv_pos_site_id
 _symmetry_equiv_pos_as_xyz
  1  'x, y, z'
loop_
 _atom_site_type_symbol
 _atom_site_label
 _atom_site_symmetry_multiplicity
 _atom_site_fract_x
 _atom_site_fract_y
 _atom_site_fract_z
 _atom_site_occupancy
  Dy  Dy0  1  0.250000  0.669391  0.577084  1
  Dy  Dy1  1  0.750000  0.330598  0.423022  1
  Dy  Dy2  1  0.250000  0.952730  0.359827  1
  Dy  Dy3  1  0.750000  0.047360  0.640172  1
  Er  Er4  1  0.750000  0.605249  0.228014  1
  Er  Er5  1  0.250000  0.662237  0.855803  1
  Er  Er6  1  0.750000  0.337572  0.144048  1
  Tm  Tm7  1  0.250000  0.394810  0.771938  1
  Sb  Sb8  1  0.250000  0.143636  0.780115  1
  Sb  Sb9  1  0.750000  0.856584  0.219949  1
  Sb  Sb10  1  0.250000  0.142861  0.482758  1
  Sb  Sb11  1  0.750000  0.857196  0.517246  1
  Sb  Sb12  1  0.250000  0.153663  0.171858  1
  Sb  Sb13  1  0.750000  0.846307  0.828141  1
  Sb  Sb14  1  0.250000  0.420388  0.975580  1
  Sb  Sb15  1  0.750000  0.579601  0.024076  1
  Sb  Sb16  1  0.750000  0.030090  0.906659  1
  Sb  Sb17  1  0.250000  0.970013  0.093328  1
  Sb  Sb18  1  0.750000  0.139218  0.321809  1
  Sb  Sb19  1  0.250000  0.860837  0.678230  1
  Sb  Sb20  1  0.750000  0.279688  0.938409  1
  Sb  Sb21  1  0.250000  0.720372  0.061357  1
  Sb  Sb22  1  0.750000  0.287408  0.654202  1
  Sb  Sb23  1  0.250000  0.712719  0.345975  1
  Sb  Sb24  1  0.750000  0.575157  0.735997  1
  Sb  Sb25  1  0.250000  0.424307  0.264149  1
  Sb  Sb26  1  0.750000  0.574174  0.446454  1
  Sb  Sb27  1  0.250000  0.425833  0.553801  1
