# generated using pymatgen
data_Ce2NpS3
_symmetry_space_group_name_H-M   'P 1'
_cell_length_a   3.98978900
_cell_length_b   3.98978907
_cell_length_c   9.70692800
_cell_angle_alpha   90.00000000
_cell_angle_beta   90.00000000
_cell_angle_gamma   119.99999112
_symmetry_Int_Tables_number   1
_chemical_formula_structural   Ce2NpS3
_chemical_formula_sum   'Ce2 Np1 S3'
_cell_volume   133.81732490
_cell_formula_units_Z   1
loop_
 _symmetry_equiv_pos_site_id
 _symmetry_equiv_pos_as_xyz
  1  'x, y, z'
loop_
 _atom_site_type_symbol
 _atom_site_label
 _atom_site_symmetry_multiplicity
 _atom_site_fract_x
 _atom_site_fract_y
 _atom_site_fract_z
 _atom_site_occupancy
  Ce  Ce0  1  0.333333  0.666667  0.671912  1
  Ce  Ce1  1  0.666667  0.333333  0.328088  1
  Np  Np2  1  0.000000  0.000000  0.000000  1
  S  S3  1  0.333333  0.666667  0.157346  1
  S  S4  1  0.666667  0.333333  0.842654  1
  S  S5  1  0.000000  0.000000  0.500000  1
