# generated using pymatgen
data_PrTm3V(ReN4)3
_symmetry_space_group_name_H-M   'P 1'
_cell_length_a   7.25314785
_cell_length_b   7.33118208
_cell_length_c   6.19503748
_cell_angle_alpha   73.64145086
_cell_angle_beta   74.65265015
_cell_angle_gamma   83.08451064
_symmetry_Int_Tables_number   1
_chemical_formula_structural   PrTm3V(ReN4)3
_chemical_formula_sum   'Pr1 Tm3 V1 Re3 N12'
_cell_volume   304.43405806
_cell_formula_units_Z   1
loop_
 _symmetry_equiv_pos_site_id
 _symmetry_equiv_pos_as_xyz
  1  'x, y, z'
loop_
 _atom_site_type_symbol
 _atom_site_label
 _atom_site_symmetry_multiplicity
 _atom_site_fract_x
 _atom_site_fract_y
 _atom_site_fract_z
 _atom_site_occupancy
  Pr  Pr0  1  0.309719  0.706775  0.750953  1
  Tm  Tm1  1  0.904803  0.087962  0.757727  1
  Tm  Tm2  1  0.083821  0.909467  0.254382  1
  Tm  Tm3  1  0.698155  0.277824  0.252791  1
  V  V4  1  0.621123  0.802110  0.260628  1
  Re  Re5  1  0.195759  0.377472  0.236230  1
  Re  Re6  1  0.380781  0.203507  0.735738  1
  Re  Re7  1  0.797582  0.620027  0.771521  1
  N  N8  1  0.648056  0.635671  0.056821  1
  N  N9  1  0.385616  0.877976  0.325128  1
  N  N10  1  0.357339  0.341616  0.439081  1
  N  N11  1  0.120588  0.625706  0.173054  1
  N  N12  1  0.995267  0.219060  0.341331  1
  N  N13  1  0.780190  0.997448  0.149413  1
  N  N14  1  0.213198  0.012517  0.851442  1
  N  N15  1  0.631274  0.125643  0.652542  1
  N  N16  1  0.350661  0.352621  0.947165  1
  N  N17  1  0.884842  0.377623  0.833389  1
  N  N18  1  0.650900  0.659959  0.554395  1
  N  N19  1  0.990324  0.789018  0.656271  1
