# generated using pymatgen
data_Dy6Er6InCo5
_symmetry_space_group_name_H-M   'P 1'
_cell_length_a   8.24672415
_cell_length_b   8.24043187
_cell_length_c   8.24043195
_cell_angle_alpha   110.91162743
_cell_angle_beta   110.68678565
_cell_angle_gamma   106.81741338
_symmetry_Int_Tables_number   1
_chemical_formula_structural   Dy6Er6InCo5
_chemical_formula_sum   'Dy6 Er6 In1 Co5'
_cell_volume   430.55402104
_cell_formula_units_Z   1
loop_
 _symmetry_equiv_pos_site_id
 _symmetry_equiv_pos_as_xyz
  1  'x, y, z'
loop_
 _atom_site_type_symbol
 _atom_site_label
 _atom_site_symmetry_multiplicity
 _atom_site_fract_x
 _atom_site_fract_y
 _atom_site_fract_z
 _atom_site_occupancy
  Dy  Dy0  1  0.289421  0.185553  0.476246  1
  Dy  Dy1  1  0.710579  0.814447  0.523754  1
  Dy  Dy2  1  0.289421  0.813176  0.103868  1
  Dy  Dy3  1  0.710579  0.186824  0.896132  1
  Dy  Dy4  1  0.619368  0.314142  0.305227  1
  Dy  Dy5  1  0.380632  0.685858  0.694773  1
  Er  Er6  1  0.008063  0.314284  0.693778  1
  Er  Er7  1  0.991937  0.685716  0.306222  1
  Er  Er8  1  0.210102  0.402329  0.191013  1
  Er  Er9  1  0.789898  0.597671  0.808987  1
  Er  Er10  1  0.210102  0.019090  0.807774  1
  Er  Er11  1  0.789898  0.980910  0.192226  1
  In  In12  1  0.500000  0.500000  0.000000  1
  Co  Co13  1  0.000000  0.377767  0.377767  1
  Co  Co14  1  0.000000  0.622233  0.622233  1
  Co  Co15  1  0.386978  0.887508  0.499470  1
  Co  Co16  1  0.613022  0.112492  0.500530  1
  Co  Co17  1  0.000000  0.000000  0.000000  1
