# generated using pymatgen
data_YEr7Co17Si10Ir
_symmetry_space_group_name_H-M   'P 1'
_cell_length_a   5.21712426
_cell_length_b   5.21712334
_cell_length_c   21.96939703
_cell_angle_alpha   89.89048807
_cell_angle_beta   90.10951242
_cell_angle_gamma   120.43166263
_symmetry_Int_Tables_number   1
_chemical_formula_structural   YEr7Co17Si10Ir
_chemical_formula_sum   'Y1 Er7 Co17 Si10 Ir1'
_cell_volume   515.58996995
_cell_formula_units_Z   1
loop_
 _symmetry_equiv_pos_site_id
 _symmetry_equiv_pos_as_xyz
  1  'x, y, z'
loop_
 _atom_site_type_symbol
 _atom_site_label
 _atom_site_symmetry_multiplicity
 _atom_site_fract_x
 _atom_site_fract_y
 _atom_site_fract_z
 _atom_site_occupancy
  Y  Y0  1  0.332874  0.667126  0.826607  1
  Er  Er1  1  0.332274  0.667726  0.530159  1
  Er  Er2  1  0.665156  0.334844  0.474050  1
  Er  Er3  1  0.666651  0.333349  0.027622  1
  Er  Er4  1  0.333369  0.666631  0.972262  1
  Er  Er5  1  0.331948  0.668052  0.675746  1
  Er  Er6  1  0.668804  0.331196  0.325339  1
  Er  Er7  1  0.667552  0.332448  0.173596  1
  Co  Co8  1  0.167041  0.333265  0.086628  1
  Co  Co9  1  0.832598  0.666277  0.912919  1
  Co  Co10  1  0.666735  0.832959  0.086628  1
  Co  Co11  1  0.831219  0.667842  0.588981  1
  Co  Co12  1  0.333723  0.167402  0.912919  1
  Co  Co13  1  0.166411  0.330790  0.412861  1
  Co  Co14  1  0.167029  0.832971  0.086476  1
  Co  Co15  1  0.332158  0.168781  0.588981  1
  Co  Co16  1  0.833106  0.166894  0.912378  1
  Co  Co17  1  0.669210  0.833589  0.412861  1
  Co  Co18  1  0.831033  0.168967  0.589534  1
  Co  Co19  1  0.168769  0.333114  0.247205  1
  Co  Co20  1  0.832201  0.666347  0.750631  1
  Co  Co21  1  0.666886  0.831231  0.247205  1
  Co  Co22  1  0.333653  0.167799  0.750631  1
  Co  Co23  1  0.168555  0.831445  0.249565  1
  Co  Co24  1  0.832191  0.167809  0.750744  1
  Si  Si25  1  0.999491  0.000509  0.999641  1
  Si  Si26  1  0.996404  0.003596  0.502644  1
  Si  Si27  1  0.332640  0.667360  0.166329  1
  Si  Si28  1  0.665420  0.334580  0.832550  1
  Si  Si29  1  0.665149  0.334851  0.669127  1
  Si  Si30  1  0.345508  0.654492  0.328962  1
  Si  Si31  1  0.002207  0.997793  0.166850  1
  Si  Si32  1  0.000524  0.999476  0.832152  1
  Si  Si33  1  0.998897  0.001103  0.669460  1
  Si  Si34  1  0.992471  0.007529  0.328642  1
  Ir  Ir35  1  0.170142  0.829858  0.411116  1
