# generated using pymatgen
data_Hf6InCoTe
_symmetry_space_group_name_H-M   'P 1'
_cell_length_a   7.88501700
_cell_length_b   7.88501672
_cell_length_c   3.47756100
_cell_angle_alpha   90.00000000
_cell_angle_beta   90.00000000
_cell_angle_gamma   119.99999697
_symmetry_Int_Tables_number   1
_chemical_formula_structural   Hf6InCoTe
_chemical_formula_sum   'Hf6 In1 Co1 Te1'
_cell_volume   187.24518317
_cell_formula_units_Z   1
loop_
 _symmetry_equiv_pos_site_id
 _symmetry_equiv_pos_as_xyz
  1  'x, y, z'
loop_
 _atom_site_type_symbol
 _atom_site_label
 _atom_site_symmetry_multiplicity
 _atom_site_fract_x
 _atom_site_fract_y
 _atom_site_fract_z
 _atom_site_occupancy
  Hf  Hf0  1  0.236777  0.996207  0.500000  1
  Hf  Hf1  1  0.003793  0.240568  0.500000  1
  Hf  Hf2  1  0.759432  0.763223  0.500000  1
  Hf  Hf3  1  0.610839  0.007223  0.000000  1
  Hf  Hf4  1  0.992777  0.603616  0.000000  1
  Hf  Hf5  1  0.396384  0.389161  0.000000  1
  In  In6  1  0.333333  0.666667  0.500000  1
  Co  Co7  1  0.000000  0.000000  0.000000  1
  Te  Te8  1  0.666667  0.333333  0.500000  1
