# generated using pymatgen
data_PrPa(NbN2)2
_symmetry_space_group_name_H-M   'P 1'
_cell_length_a   3.36807000
_cell_length_b   5.81550762
_cell_length_c   11.06490523
_cell_angle_alpha   90.12476315
_cell_angle_beta   90.00000000
_cell_angle_gamma   90.00000000
_symmetry_Int_Tables_number   1
_chemical_formula_structural   PrPa(NbN2)2
_chemical_formula_sum   'Pr2 Pa2 Nb4 N8'
_cell_volume   216.72819169
_cell_formula_units_Z   2
loop_
 _symmetry_equiv_pos_site_id
 _symmetry_equiv_pos_as_xyz
  1  'x, y, z'
loop_
 _atom_site_type_symbol
 _atom_site_label
 _atom_site_symmetry_multiplicity
 _atom_site_fract_x
 _atom_site_fract_y
 _atom_site_fract_z
 _atom_site_occupancy
  Pr  Pr0  1  0.250000  0.579858  0.856709  1
  Pr  Pr1  1  0.750000  0.420142  0.143291  1
  Pa  Pa2  1  0.750000  0.920981  0.356695  1
  Pa  Pa3  1  0.250000  0.079019  0.643305  1
  Nb  Nb4  1  0.250000  0.923731  0.098244  1
  Nb  Nb5  1  0.750000  0.076269  0.901756  1
  Nb  Nb6  1  0.750000  0.576099  0.595070  1
  Nb  Nb7  1  0.250000  0.423901  0.404930  1
  N  N8  1  0.250000  0.673838  0.259069  1
  N  N9  1  0.750000  0.326162  0.740931  1
  N  N10  1  0.750000  0.851698  0.736890  1
  N  N11  1  0.250000  0.148302  0.263110  1
  N  N12  1  0.250000  0.766337  0.507568  1
  N  N13  1  0.750000  0.233663  0.492432  1
  N  N14  1  0.750000  0.759964  0.009210  1
  N  N15  1  0.250000  0.240036  0.990790  1
