# generated using pymatgen
data_Dy4Tc6OsRu
_symmetry_space_group_name_H-M   'P 1'
_cell_length_a   5.27456300
_cell_length_b   5.27456364
_cell_length_c   9.17177700
_cell_angle_alpha   90.00000000
_cell_angle_beta   90.00000000
_cell_angle_gamma   120.00000227
_symmetry_Int_Tables_number   1
_chemical_formula_structural   Dy4Tc6OsRu
_chemical_formula_sum   'Dy4 Tc6 Os1 Ru1'
_cell_volume   220.98211665
_cell_formula_units_Z   1
loop_
 _symmetry_equiv_pos_site_id
 _symmetry_equiv_pos_as_xyz
  1  'x, y, z'
loop_
 _atom_site_type_symbol
 _atom_site_label
 _atom_site_symmetry_multiplicity
 _atom_site_fract_x
 _atom_site_fract_y
 _atom_site_fract_z
 _atom_site_occupancy
  Dy  Dy0  1  0.333333  0.666667  0.437017  1
  Dy  Dy1  1  0.666667  0.333333  0.562983  1
  Dy  Dy2  1  0.666667  0.333333  0.936535  1
  Dy  Dy3  1  0.333333  0.666667  0.063465  1
  Tc  Tc4  1  0.829157  0.170843  0.249227  1
  Tc  Tc5  1  0.829157  0.658314  0.249227  1
  Tc  Tc6  1  0.341686  0.170843  0.249227  1
  Tc  Tc7  1  0.170843  0.829157  0.750773  1
  Tc  Tc8  1  0.170843  0.341686  0.750773  1
  Tc  Tc9  1  0.658314  0.829157  0.750773  1
  Os  Os10  1  0.000000  0.000000  0.000000  1
  Ru  Ru11  1  0.000000  0.000000  0.500000  1
