# generated using pymatgen
data_Yb8Si6Ni7Pd
_symmetry_space_group_name_H-M   'P 1'
_cell_length_a   10.21527333
_cell_length_b   10.23040704
_cell_length_c   7.50269719
_cell_angle_alpha   70.41053355
_cell_angle_beta   69.99140175
_cell_angle_gamma   31.56177069
_symmetry_Int_Tables_number   1
_chemical_formula_structural   Yb8Si6Ni7Pd
_chemical_formula_sum   'Yb8 Si6 Ni7 Pd1'
_cell_volume   384.10243293
_cell_formula_units_Z   1
loop_
 _symmetry_equiv_pos_site_id
 _symmetry_equiv_pos_as_xyz
  1  'x, y, z'
loop_
 _atom_site_type_symbol
 _atom_site_label
 _atom_site_symmetry_multiplicity
 _atom_site_fract_x
 _atom_site_fract_y
 _atom_site_fract_z
 _atom_site_occupancy
  Yb  Yb0  1  0.922176  0.206220  0.332949  1
  Yb  Yb1  1  0.077053  0.792036  0.665884  1
  Yb  Yb2  1  0.788711  0.080159  0.171558  1
  Yb  Yb3  1  0.445805  0.217177  0.902956  1
  Yb  Yb4  1  0.787433  0.553602  0.592292  1
  Yb  Yb5  1  0.215403  0.442273  0.409504  1
  Yb  Yb6  1  0.206993  0.921488  0.834898  1
  Yb  Yb7  1  0.551297  0.791000  0.086574  1
  Si  Si8  1  0.311458  0.030594  0.439096  1
  Si  Si9  1  0.383782  0.616006  0.250509  1
  Si  Si10  1  0.044622  0.304569  0.919872  1
  Si  Si11  1  0.699802  0.950018  0.571271  1
  Si  Si12  1  0.946182  0.714472  0.063711  1
  Si  Si13  1  0.615856  0.384341  0.749708  1
  Ni  Ni14  1  0.571335  0.306982  0.527408  1
  Ni  Ni15  1  0.695032  0.426310  0.971489  1
  Ni  Ni16  1  0.305009  0.574153  0.027472  1
  Ni  Ni17  1  0.429920  0.690950  0.473894  1
  Ni  Ni18  1  0.640862  0.918110  0.325267  1
  Ni  Ni19  1  0.921767  0.640276  0.821119  1
  Ni  Ni20  1  0.366046  0.072729  0.676587  1
  Pd  Pd21  1  0.073457  0.366535  0.185982  1
