# generated using pymatgen
data_Nb6V6Ga9Ge
_symmetry_space_group_name_H-M   'P 1'
_cell_length_a   8.74688331
_cell_length_b   8.74688274
_cell_length_c   5.24391500
_cell_angle_alpha   90.00000000
_cell_angle_beta   90.00000000
_cell_angle_gamma   120.35217589
_symmetry_Int_Tables_number   1
_chemical_formula_structural   Nb6V6Ga9Ge
_chemical_formula_sum   'Nb6 V6 Ga9 Ge1'
_cell_volume   346.21090355
_cell_formula_units_Z   1
loop_
 _symmetry_equiv_pos_site_id
 _symmetry_equiv_pos_as_xyz
  1  'x, y, z'
loop_
 _atom_site_type_symbol
 _atom_site_label
 _atom_site_symmetry_multiplicity
 _atom_site_fract_x
 _atom_site_fract_y
 _atom_site_fract_z
 _atom_site_occupancy
  Nb  Nb0  1  0.692857  0.847193  0.250000  1
  Nb  Nb1  1  0.845948  0.154052  0.750000  1
  Nb  Nb2  1  0.154428  0.845572  0.250000  1
  Nb  Nb3  1  0.846083  0.691018  0.750000  1
  Nb  Nb4  1  0.308982  0.153917  0.750000  1
  Nb  Nb5  1  0.152807  0.307143  0.250000  1
  V  V6  1  0.501778  0.001747  0.000015  1
  V  V7  1  0.998253  0.498222  0.000015  1
  V  V8  1  0.501778  0.001747  0.499985  1
  V  V9  1  0.499909  0.500091  0.000157  1
  V  V10  1  0.998253  0.498222  0.499985  1
  V  V11  1  0.499909  0.500091  0.499843  1
  Ga  Ga12  1  0.000740  0.999260  0.998969  1
  Ga  Ga13  1  0.214018  0.428275  0.750000  1
  Ga  Ga14  1  0.571725  0.785982  0.750000  1
  Ga  Ga15  1  0.785841  0.573569  0.250000  1
  Ga  Ga16  1  0.000740  0.999260  0.501031  1
  Ga  Ga17  1  0.426431  0.214159  0.250000  1
  Ga  Ga18  1  0.214545  0.785455  0.750000  1
  Ga  Ga19  1  0.665389  0.334611  0.750000  1
  Ga  Ga20  1  0.333058  0.666942  0.250000  1
  Ge  Ge21  1  0.786525  0.213475  0.250000  1
