# generated using pymatgen
data_Li4AlZnAu6
_symmetry_space_group_name_H-M   'P 1'
_cell_length_a   4.48649000
_cell_length_b   4.48649109
_cell_length_c   10.87628800
_cell_angle_alpha   90.00000000
_cell_angle_beta   90.00000000
_cell_angle_gamma   120.00000668
_symmetry_Int_Tables_number   1
_chemical_formula_structural   Li4AlZnAu6
_chemical_formula_sum   'Li4 Al1 Zn1 Au6'
_cell_volume   189.59409879
_cell_formula_units_Z   1
loop_
 _symmetry_equiv_pos_site_id
 _symmetry_equiv_pos_as_xyz
  1  'x, y, z'
loop_
 _atom_site_type_symbol
 _atom_site_label
 _atom_site_symmetry_multiplicity
 _atom_site_fract_x
 _atom_site_fract_y
 _atom_site_fract_z
 _atom_site_occupancy
  Li  Li0  1  0.000000  0.000000  0.497921  1
  Li  Li1  1  0.333333  0.666667  0.166592  1
  Li  Li2  1  0.666667  0.333333  0.834956  1
  Li  Li3  1  0.000000  0.000000  0.999118  1
  Al  Al4  1  0.333333  0.666667  0.668883  1
  Zn  Zn5  1  0.666667  0.333333  0.332291  1
  Au  Au6  1  0.333333  0.666667  0.423380  1
  Au  Au7  1  0.666667  0.333333  0.083509  1
  Au  Au8  1  0.000000  0.000000  0.743884  1
  Au  Au9  1  0.000000  0.000000  0.249873  1
  Au  Au10  1  0.333333  0.666667  0.913126  1
  Au  Au11  1  0.666667  0.333333  0.586467  1
