# generated using pymatgen
data_Ca8La2IrRu
_symmetry_space_group_name_H-M   'P 1'
_cell_length_a   6.86132000
_cell_length_b   7.55666500
_cell_length_c   16.39967500
_cell_angle_alpha   90.00000000
_cell_angle_beta   90.00000000
_cell_angle_gamma   90.00000000
_symmetry_Int_Tables_number   1
_chemical_formula_structural   Ca8La2IrRu
_chemical_formula_sum   'Ca16 La4 Ir2 Ru2'
_cell_volume   850.30177502
_cell_formula_units_Z   2
loop_
 _symmetry_equiv_pos_site_id
 _symmetry_equiv_pos_as_xyz
  1  'x, y, z'
loop_
 _atom_site_type_symbol
 _atom_site_label
 _atom_site_symmetry_multiplicity
 _atom_site_fract_x
 _atom_site_fract_y
 _atom_site_fract_z
 _atom_site_occupancy
  Ca  Ca0  1  0.855234  0.191898  0.559419  1
  Ca  Ca1  1  0.825870  0.461995  0.145641  1
  Ca  Ca2  1  0.176837  0.537373  0.645763  1
  Ca  Ca3  1  0.356138  0.307955  0.060892  1
  Ca  Ca4  1  0.825870  0.461995  0.354359  1
  Ca  Ca5  1  0.323163  0.037373  0.854237  1
  Ca  Ca6  1  0.143862  0.807955  0.060892  1
  Ca  Ca7  1  0.644766  0.691898  0.559419  1
  Ca  Ca8  1  0.674130  0.961995  0.354359  1
  Ca  Ca9  1  0.644766  0.691898  0.940581  1
  Ca  Ca10  1  0.323163  0.037373  0.645763  1
  Ca  Ca11  1  0.143862  0.807955  0.439108  1
  Ca  Ca12  1  0.176837  0.537373  0.854237  1
  Ca  Ca13  1  0.356138  0.307955  0.439108  1
  Ca  Ca14  1  0.674130  0.961995  0.145641  1
  Ca  Ca15  1  0.855234  0.191898  0.940581  1
  La  La16  1  0.163663  0.087064  0.250000  1
  La  La17  1  0.835866  0.922822  0.750000  1
  La  La18  1  0.336337  0.587064  0.250000  1
  La  La19  1  0.664134  0.422822  0.750000  1
  Ir  Ir20  1  0.521890  0.266850  0.250000  1
  Ir  Ir21  1  0.978110  0.766850  0.250000  1
  Ru  Ru22  1  0.992858  0.224823  0.750000  1
  Ru  Ru23  1  0.507142  0.724823  0.750000  1
