# generated using pymatgen
data_Tm2LuNb3(B2Ru5)2
_symmetry_space_group_name_H-M   'P 1'
_cell_length_a   9.56600789
_cell_length_b   9.56600768
_cell_length_c   3.11765100
_cell_angle_alpha   90.00000000
_cell_angle_beta   90.00000000
_cell_angle_gamma   89.66655638
_symmetry_Int_Tables_number   1
_chemical_formula_structural   Tm2LuNb3(B2Ru5)2
_chemical_formula_sum   'Tm2 Lu1 Nb3 B4 Ru10'
_cell_volume   285.28675066
_cell_formula_units_Z   1
loop_
 _symmetry_equiv_pos_site_id
 _symmetry_equiv_pos_as_xyz
  1  'x, y, z'
loop_
 _atom_site_type_symbol
 _atom_site_label
 _atom_site_symmetry_multiplicity
 _atom_site_fract_x
 _atom_site_fract_y
 _atom_site_fract_z
 _atom_site_occupancy
  Tm  Tm0  1  0.325092  0.324379  0.000000  1
  Tm  Tm1  1  0.675621  0.674908  0.000000  1
  Lu  Lu2  1  0.174298  0.825702  0.000000  1
  Nb  Nb3  1  0.496220  0.997777  0.000000  1
  Nb  Nb4  1  0.002223  0.503780  0.000000  1
  Nb  Nb5  1  0.824661  0.175339  0.000000  1
  B  B6  1  0.623610  0.376390  0.000000  1
  B  B7  1  0.380576  0.619424  0.000000  1
  B  B8  1  0.119477  0.123251  0.000000  1
  B  B9  1  0.876749  0.880523  0.000000  1
  Ru  Ru10  1  0.503744  0.496256  0.500000  1
  Ru  Ru11  1  0.991859  0.008141  0.500000  1
  Ru  Ru12  1  0.583337  0.213516  0.500000  1
  Ru  Ru13  1  0.429513  0.780443  0.500000  1
  Ru  Ru14  1  0.060487  0.280599  0.500000  1
  Ru  Ru15  1  0.929111  0.722020  0.500000  1
  Ru  Ru16  1  0.277980  0.070889  0.500000  1
  Ru  Ru17  1  0.719401  0.939513  0.500000  1
  Ru  Ru18  1  0.219557  0.570487  0.500000  1
  Ru  Ru19  1  0.786484  0.416663  0.500000  1
