# generated using pymatgen
data_Dy16Er4Si15Ir
_symmetry_space_group_name_H-M   'P 1'
_cell_length_a   7.42408833
_cell_length_b   7.66855029
_cell_length_c   14.58774303
_cell_angle_alpha   89.77235402
_cell_angle_beta   89.70932254
_cell_angle_gamma   90.20867896
_symmetry_Int_Tables_number   1
_chemical_formula_structural   Dy16Er4Si15Ir
_chemical_formula_sum   'Dy16 Er4 Si15 Ir1'
_cell_volume   830.48649674
_cell_formula_units_Z   1
loop_
 _symmetry_equiv_pos_site_id
 _symmetry_equiv_pos_as_xyz
  1  'x, y, z'
loop_
 _atom_site_type_symbol
 _atom_site_label
 _atom_site_symmetry_multiplicity
 _atom_site_fract_x
 _atom_site_fract_y
 _atom_site_fract_z
 _atom_site_occupancy
  Dy  Dy0  1  0.972890  0.814439  0.097024  1
  Dy  Dy1  1  0.471209  0.682729  0.401351  1
  Dy  Dy2  1  0.530985  0.324157  0.901368  1
  Dy  Dy3  1  0.029534  0.184627  0.599436  1
  Dy  Dy4  1  0.027653  0.187009  0.902430  1
  Dy  Dy5  1  0.530012  0.318014  0.598763  1
  Dy  Dy6  1  0.475447  0.680920  0.098609  1
  Dy  Dy7  1  0.970156  0.817064  0.400634  1
  Dy  Dy8  1  0.684272  0.811437  0.882597  1
  Dy  Dy9  1  0.178751  0.681761  0.621761  1
  Dy  Dy10  1  0.817492  0.332901  0.118906  1
  Dy  Dy11  1  0.316261  0.178210  0.376021  1
  Dy  Dy12  1  0.320341  0.178645  0.123564  1
  Dy  Dy13  1  0.819299  0.319048  0.377158  1
  Dy  Dy14  1  0.175673  0.675595  0.878432  1
  Dy  Dy15  1  0.682709  0.818899  0.622435  1
  Er  Er16  1  0.648441  0.992647  0.248498  1
  Er  Er17  1  0.148147  0.511063  0.247649  1
  Er  Er18  1  0.847656  0.488186  0.758852  1
  Er  Er19  1  0.352708  0.010712  0.752555  1
  Si  Si20  1  0.764520  0.629552  0.252111  1
  Si  Si21  1  0.266162  0.872016  0.250710  1
  Si  Si22  1  0.732950  0.123865  0.748267  1
  Si  Si23  1  0.235645  0.373255  0.746399  1
  Si  Si24  1  0.019393  0.104816  0.249070  1
  Si  Si25  1  0.522188  0.396876  0.251356  1
  Si  Si26  1  0.472132  0.606013  0.746107  1
  Si  Si27  1  0.977616  0.898527  0.748157  1
  Si  Si28  1  0.354274  0.972068  0.539835  1
  Si  Si29  1  0.645774  0.026794  0.042365  1
  Si  Si30  1  0.147386  0.470467  0.459926  1
  Si  Si31  1  0.155323  0.472510  0.041474  1
  Si  Si32  1  0.643855  0.028344  0.459476  1
  Si  Si33  1  0.353507  0.969400  0.961270  1
  Si  Si34  1  0.854371  0.528729  0.538873  1
  Ir  Ir35  1  0.855271  0.518703  0.956560  1
