# generated using pymatgen
data_LuPuB8
_symmetry_space_group_name_H-M   'P 1'
_cell_length_a   7.07373600
_cell_length_b   7.08109000
_cell_length_c   3.99816800
_cell_angle_alpha   90.00000000
_cell_angle_beta   90.00000000
_cell_angle_gamma   90.00000000
_symmetry_Int_Tables_number   1
_chemical_formula_structural   LuPuB8
_chemical_formula_sum   'Lu2 Pu2 B16'
_cell_volume   200.26728057
_cell_formula_units_Z   2
loop_
 _symmetry_equiv_pos_site_id
 _symmetry_equiv_pos_as_xyz
  1  'x, y, z'
loop_
 _atom_site_type_symbol
 _atom_site_label
 _atom_site_symmetry_multiplicity
 _atom_site_fract_x
 _atom_site_fract_y
 _atom_site_fract_z
 _atom_site_occupancy
  Lu  Lu0  1  0.183174  0.682594  0.000000  1
  Lu  Lu1  1  0.683174  0.817406  0.000000  1
  Pu  Pu2  1  0.313809  0.186896  0.000000  1
  Pu  Pu3  1  0.813809  0.313104  0.000000  1
  B  B4  1  0.323132  0.463915  0.500000  1
  B  B5  1  0.677294  0.540334  0.500000  1
  B  B6  1  0.538294  0.325359  0.500000  1
  B  B7  1  0.461914  0.679053  0.500000  1
  B  B8  1  0.000138  0.996073  0.201075  1
  B  B9  1  0.500138  0.503927  0.798925  1
  B  B10  1  0.000138  0.996073  0.798925  1
  B  B11  1  0.500138  0.503927  0.201075  1
  B  B12  1  0.587623  0.087588  0.500000  1
  B  B13  1  0.087623  0.412412  0.500000  1
  B  B14  1  0.914486  0.585815  0.500000  1
  B  B15  1  0.414486  0.914185  0.500000  1
  B  B16  1  0.038294  0.174641  0.500000  1
  B  B17  1  0.177294  0.959666  0.500000  1
  B  B18  1  0.823132  0.036085  0.500000  1
  B  B19  1  0.961914  0.820947  0.500000  1
