# generated using pymatgen
data_Li8Al3SnPt4
_symmetry_space_group_name_H-M   'P 1'
_cell_length_a   6.13421501
_cell_length_b   6.13417300
_cell_length_c   6.13429801
_cell_angle_alpha   90.00177460
_cell_angle_beta   90.00048568
_cell_angle_gamma   89.99960773
_symmetry_Int_Tables_number   1
_chemical_formula_structural   Li8Al3SnPt4
_chemical_formula_sum   'Li8 Al3 Sn1 Pt4'
_cell_volume   230.82342721
_cell_formula_units_Z   1
loop_
 _symmetry_equiv_pos_site_id
 _symmetry_equiv_pos_as_xyz
  1  'x, y, z'
loop_
 _atom_site_type_symbol
 _atom_site_label
 _atom_site_symmetry_multiplicity
 _atom_site_fract_x
 _atom_site_fract_y
 _atom_site_fract_z
 _atom_site_occupancy
  Li  Li0  1  0.242688  0.757333  0.242665  1
  Li  Li1  1  0.757336  0.242686  0.242664  1
  Li  Li2  1  0.242565  0.242570  0.757435  1
  Li  Li3  1  0.999943  0.999977  0.000039  1
  Li  Li4  1  0.000015  0.499989  0.499990  1
  Li  Li5  1  0.757336  0.757332  0.757313  1
  Li  Li6  1  0.500034  0.000045  0.499990  1
  Li  Li7  1  0.500032  0.499988  0.999972  1
  Al  Al8  1  0.999998  0.999999  0.499977  1
  Al  Al9  1  0.999999  0.500020  0.000000  1
  Al  Al10  1  0.500020  0.999999  0.000001  1
  Sn  Sn11  1  0.500023  0.500045  0.499982  1
  Pt  Pt12  1  0.241775  0.241774  0.241759  1
  Pt  Pt13  1  0.758235  0.241773  0.758220  1
  Pt  Pt14  1  0.758234  0.758232  0.241765  1
  Pt  Pt15  1  0.241768  0.758240  0.758225  1
