# generated using pymatgen
data_Pr20Ga5Si6As
_symmetry_space_group_name_H-M   'P 1'
_cell_length_a   7.89968454
_cell_length_b   7.89968398
_cell_length_c   14.45296100
_cell_angle_alpha   89.96425761
_cell_angle_beta   90.03574239
_cell_angle_gamma   89.96533884
_symmetry_Int_Tables_number   1
_chemical_formula_structural   Pr20Ga5Si6As
_chemical_formula_sum   'Pr20 Ga5 Si6 As1'
_cell_volume   901.93668001
_cell_formula_units_Z   1
loop_
 _symmetry_equiv_pos_site_id
 _symmetry_equiv_pos_as_xyz
  1  'x, y, z'
loop_
 _atom_site_type_symbol
 _atom_site_label
 _atom_site_symmetry_multiplicity
 _atom_site_fract_x
 _atom_site_fract_y
 _atom_site_fract_z
 _atom_site_occupancy
  Pr  Pr0  1  0.814998  0.833543  0.608043  1
  Pr  Pr1  1  0.188432  0.834290  0.106529  1
  Pr  Pr2  1  0.167399  0.812415  0.392652  1
  Pr  Pr3  1  0.001125  0.499414  0.724802  1
  Pr  Pr4  1  0.834290  0.188432  0.393471  1
  Pr  Pr5  1  0.682475  0.662669  0.393447  1
  Pr  Pr6  1  0.664837  0.313948  0.607872  1
  Pr  Pr7  1  0.333705  0.685177  0.607993  1
  Pr  Pr8  1  0.998678  0.499620  0.222909  1
  Pr  Pr9  1  0.662669  0.682475  0.106553  1
  Pr  Pr10  1  0.685177  0.333705  0.892007  1
  Pr  Pr11  1  0.833543  0.814998  0.891957  1
  Pr  Pr12  1  0.317608  0.338669  0.394883  1
  Pr  Pr13  1  0.184710  0.164904  0.607107  1
  Pr  Pr14  1  0.812415  0.167399  0.107348  1
  Pr  Pr15  1  0.313948  0.664837  0.892128  1
  Pr  Pr16  1  0.338669  0.317608  0.105117  1
  Pr  Pr17  1  0.499620  0.998678  0.277091  1
  Pr  Pr18  1  0.164904  0.184710  0.892893  1
  Pr  Pr19  1  0.499414  0.001125  0.775198  1
  Ga  Ga20  1  0.998086  0.499995  0.504349  1
  Ga  Ga21  1  0.499519  0.999097  0.496648  1
  Ga  Ga22  1  0.499995  0.998086  0.995651  1
  Ga  Ga23  1  0.125391  0.125391  0.250000  1
  Ga  Ga24  1  0.999097  0.499519  0.003352  1
  Si  Si25  1  0.615381  0.385624  0.250436  1
  Si  Si26  1  0.114013  0.885901  0.750012  1
  Si  Si27  1  0.385545  0.385545  0.750000  1
  Si  Si28  1  0.385624  0.615381  0.249564  1
  Si  Si29  1  0.614236  0.614236  0.750000  1
  Si  Si30  1  0.885901  0.114013  0.749988  1
  As  As31  1  0.878596  0.878596  0.250000  1
