# generated using pymatgen
data_Y6ErSn23Os6
_symmetry_space_group_name_H-M   'P 1'
_cell_length_a   9.88323642
_cell_length_b   9.87323796
_cell_length_c   10.12616023
_cell_angle_alpha   89.99339268
_cell_angle_beta   90.06892924
_cell_angle_gamma   119.94978670
_symmetry_Int_Tables_number   1
_chemical_formula_structural   Y6ErSn23Os6
_chemical_formula_sum   'Y6 Er1 Sn23 Os6'
_cell_volume   856.15689005
_cell_formula_units_Z   1
loop_
 _symmetry_equiv_pos_site_id
 _symmetry_equiv_pos_as_xyz
  1  'x, y, z'
loop_
 _atom_site_type_symbol
 _atom_site_label
 _atom_site_symmetry_multiplicity
 _atom_site_fract_x
 _atom_site_fract_y
 _atom_site_fract_z
 _atom_site_occupancy
  Y  Y0  1  0.485908  0.514032  0.301623  1
  Y  Y1  1  0.513992  0.485965  0.698389  1
  Y  Y2  1  0.485921  0.971911  0.301572  1
  Y  Y3  1  0.513978  0.027986  0.698439  1
  Y  Y4  1  0.028062  0.514037  0.301548  1
  Y  Y5  1  0.999934  0.999965  0.000008  1
  Er  Er6  1  0.973856  0.486929  0.699275  1
  Sn  Sn7  1  0.117638  0.882499  0.276895  1
  Sn  Sn8  1  0.882134  0.117740  0.722893  1
  Sn  Sn9  1  0.117679  0.235163  0.276909  1
  Sn  Sn10  1  0.882078  0.764362  0.722882  1
  Sn  Sn11  1  0.764844  0.882397  0.277032  1
  Sn  Sn12  1  0.235000  0.117530  0.723040  1
  Sn  Sn13  1  0.779586  0.220879  0.464093  1
  Sn  Sn14  1  0.220281  0.778962  0.536409  1
  Sn  Sn15  1  0.779563  0.558770  0.464082  1
  Sn  Sn16  1  0.220331  0.441273  0.536401  1
  Sn  Sn17  1  0.441033  0.220557  0.463785  1
  Sn  Sn18  1  0.558882  0.779388  0.536217  1
  Sn  Sn19  1  0.349516  0.999838  0.999771  1
  Sn  Sn20  1  0.650312  0.000015  0.000027  1
  Sn  Sn21  1  0.999791  0.349751  0.000047  1
  Sn  Sn22  1  0.999798  0.650036  0.000018  1
  Sn  Sn23  1  0.650327  0.650315  0.000014  1
  Sn  Sn24  1  0.349493  0.349654  0.999787  1
  Sn  Sn25  1  0.333400  0.666676  0.131894  1
  Sn  Sn26  1  0.667834  0.333942  0.867369  1
  Sn  Sn27  1  0.333436  0.666716  0.828209  1
  Sn  Sn28  1  0.666600  0.333314  0.171784  1
  Sn  Sn29  1  0.999976  0.999987  0.500072  1
  Os  Os30  1  0.829723  0.170272  0.202303  1
  Os  Os31  1  0.169655  0.828627  0.797458  1
  Os  Os32  1  0.829716  0.659434  0.202293  1
  Os  Os33  1  0.169660  0.341046  0.797458  1
  Os  Os34  1  0.340624  0.170313  0.202281  1
  Os  Os35  1  0.659441  0.829717  0.797723  1
