# generated using pymatgen
data_Zr8Sc14Os5Ru3
_symmetry_space_group_name_H-M   'P 1'
_cell_length_a   9.50441707
_cell_length_b   9.50441720
_cell_length_c   9.50537900
_cell_angle_alpha   59.99665591
_cell_angle_beta   59.99665546
_cell_angle_gamma   60.01909834
_symmetry_Int_Tables_number   1
_chemical_formula_structural   Zr8Sc14Os5Ru3
_chemical_formula_sum   'Zr8 Sc14 Os5 Ru3'
_cell_volume   607.22004618
_cell_formula_units_Z   1
loop_
 _symmetry_equiv_pos_site_id
 _symmetry_equiv_pos_as_xyz
  1  'x, y, z'
loop_
 _atom_site_type_symbol
 _atom_site_label
 _atom_site_symmetry_multiplicity
 _atom_site_fract_x
 _atom_site_fract_y
 _atom_site_fract_z
 _atom_site_occupancy
  Zr  Zr0  1  0.842185  0.842185  0.842624  1
  Zr  Zr1  1  0.527193  0.157572  0.157617  1
  Zr  Zr2  1  0.157815  0.157815  0.526994  1
  Zr  Zr3  1  0.157572  0.527193  0.157617  1
  Zr  Zr4  1  0.842185  0.842185  0.473006  1
  Zr  Zr5  1  0.842428  0.472807  0.842383  1
  Zr  Zr6  1  0.472807  0.842428  0.842383  1
  Zr  Zr7  1  0.157815  0.157815  0.157376  1
  Sc  Sc8  1  0.199146  0.800854  0.198214  1
  Sc  Sc9  1  0.199146  0.800854  0.801786  1
  Sc  Sc10  1  0.800854  0.199146  0.198214  1
  Sc  Sc11  1  0.800725  0.800725  0.199275  1
  Sc  Sc12  1  0.199275  0.199275  0.800725  1
  Sc  Sc13  1  0.800854  0.199146  0.801786  1
  Sc  Sc14  1  0.383386  0.383386  0.383778  1
  Sc  Sc15  1  0.150691  0.615340  0.616985  1
  Sc  Sc16  1  0.615340  0.150691  0.616985  1
  Sc  Sc17  1  0.616614  0.616614  0.150553  1
  Sc  Sc18  1  0.384660  0.849309  0.383015  1
  Sc  Sc19  1  0.383386  0.383386  0.849447  1
  Sc  Sc20  1  0.849309  0.384660  0.383015  1
  Sc  Sc21  1  0.616614  0.616614  0.616222  1
  Os  Os22  1  0.500000  0.500000  0.000000  1
  Os  Os23  1  0.500000  0.000000  0.500000  1
  Os  Os24  1  0.000000  0.500000  0.500000  1
  Os  Os25  1  0.500000  0.000000  0.000000  1
  Os  Os26  1  0.000000  0.500000  0.000000  1
  Ru  Ru27  1  0.000000  0.000000  0.500000  1
  Ru  Ru28  1  0.500000  0.500000  0.500000  1
  Ru  Ru29  1  0.000000  0.000000  0.000000  1
