# generated using pymatgen
data_AcCd9Ag2
_symmetry_space_group_name_H-M   'P 1'
_cell_length_a   9.33843251
_cell_length_b   9.33828135
_cell_length_c   9.33843157
_cell_angle_alpha   99.66474164
_cell_angle_beta   99.66383979
_cell_angle_gamma   131.62582396
_symmetry_Int_Tables_number   1
_chemical_formula_structural   AcCd9Ag2
_chemical_formula_sum   'Ac2 Cd18 Ag4'
_cell_volume   555.28753200
_cell_formula_units_Z   2
loop_
 _symmetry_equiv_pos_site_id
 _symmetry_equiv_pos_as_xyz
  1  'x, y, z'
loop_
 _atom_site_type_symbol
 _atom_site_label
 _atom_site_symmetry_multiplicity
 _atom_site_fract_x
 _atom_site_fract_y
 _atom_site_fract_z
 _atom_site_occupancy
  Ac  Ac0  1  0.500033  0.500027  0.999994  1
  Ac  Ac1  1  0.749967  0.249973  0.500006  1
  Cd  Cd2  1  0.994086  0.316810  0.918959  1
  Cd  Cd3  1  0.566796  0.147844  0.822729  1
  Cd  Cd4  1  0.994069  0.075111  0.677269  1
  Cd  Cd5  1  0.566804  0.744065  0.418962  1
  Cd  Cd6  1  0.924887  0.602156  0.918953  1
  Cd  Cd7  1  0.924899  0.005935  0.322739  1
  Cd  Cd8  1  0.852148  0.433190  0.177275  1
  Cd  Cd9  1  0.255931  0.674889  0.822731  1
  Cd  Cd10  1  0.249998  0.750010  0.500012  1
  Cd  Cd11  1  0.683196  0.005935  0.081038  1
  Cd  Cd12  1  0.000002  0.999990  0.999988  1
  Cd  Cd13  1  0.683204  0.602156  0.677271  1
  Cd  Cd14  1  0.397844  0.075111  0.081044  1
  Cd  Cd15  1  0.255914  0.433190  0.581041  1
  Cd  Cd16  1  0.325101  0.744065  0.177261  1
  Cd  Cd17  1  0.325113  0.147844  0.581047  1
  Cd  Cd18  1  0.852156  0.674889  0.418956  1
  Cd  Cd19  1  0.397852  0.316810  0.322725  1
  Ag  Ag20  1  0.125000  0.875000  0.750000  1
  Ag  Ag21  1  0.625000  0.875000  0.750000  1
  Ag  Ag22  1  0.125000  0.875000  0.250000  1
  Ag  Ag23  1  0.125000  0.375000  0.250000  1
