# generated using pymatgen
data_Dy4Tm(AlBi)2
_symmetry_space_group_name_H-M   'P 1'
_cell_length_a   8.85415100
_cell_length_b   8.85415166
_cell_length_c   8.07926500
_cell_angle_alpha   90.00000000
_cell_angle_beta   90.00000000
_cell_angle_gamma   125.69702474
_symmetry_Int_Tables_number   1
_chemical_formula_structural   Dy4Tm(AlBi)2
_chemical_formula_sum   'Dy8 Tm2 Al4 Bi4'
_cell_volume   514.37830087
_cell_formula_units_Z   2
loop_
 _symmetry_equiv_pos_site_id
 _symmetry_equiv_pos_as_xyz
  1  'x, y, z'
loop_
 _atom_site_type_symbol
 _atom_site_label
 _atom_site_symmetry_multiplicity
 _atom_site_fract_x
 _atom_site_fract_y
 _atom_site_fract_z
 _atom_site_occupancy
  Dy  Dy0  1  0.040442  0.299764  0.331576  1
  Dy  Dy1  1  0.959558  0.700236  0.668424  1
  Dy  Dy2  1  0.459558  0.200236  0.831576  1
  Dy  Dy3  1  0.799764  0.540442  0.168424  1
  Dy  Dy4  1  0.540442  0.799764  0.168424  1
  Dy  Dy5  1  0.200236  0.459558  0.831576  1
  Dy  Dy6  1  0.700236  0.959558  0.668424  1
  Dy  Dy7  1  0.299764  0.040442  0.331576  1
  Tm  Tm8  1  0.000000  0.000000  0.000000  1
  Tm  Tm9  1  0.500000  0.500000  0.500000  1
  Al  Al10  1  0.377260  0.377260  0.122400  1
  Al  Al11  1  0.622740  0.622740  0.877600  1
  Al  Al12  1  0.122740  0.122740  0.622400  1
  Al  Al13  1  0.877260  0.877260  0.377600  1
  Bi  Bi14  1  0.794438  0.205562  0.000000  1
  Bi  Bi15  1  0.205562  0.794438  0.000000  1
  Bi  Bi16  1  0.705562  0.294438  0.500000  1
  Bi  Bi17  1  0.294438  0.705562  0.500000  1
