# generated using pymatgen
data_Ac2(B2Ir3)3
_symmetry_space_group_name_H-M   'P 1'
_cell_length_a   5.78269405
_cell_length_b   5.78260453
_cell_length_c   8.63961800
_cell_angle_alpha   89.99550250
_cell_angle_beta   90.00900477
_cell_angle_gamma   120.00052358
_symmetry_Int_Tables_number   1
_chemical_formula_structural   Ac2(B2Ir3)3
_chemical_formula_sum   'Ac2 B6 Ir9'
_cell_volume   250.19382299
_cell_formula_units_Z   1
loop_
 _symmetry_equiv_pos_site_id
 _symmetry_equiv_pos_as_xyz
  1  'x, y, z'
loop_
 _atom_site_type_symbol
 _atom_site_label
 _atom_site_symmetry_multiplicity
 _atom_site_fract_x
 _atom_site_fract_y
 _atom_site_fract_z
 _atom_site_occupancy
  Ac  Ac0  1  0.000005  0.000000  0.294219  1
  Ac  Ac1  1  0.999980  0.000000  0.705802  1
  B  B2  1  0.333325  0.666670  0.000002  1
  B  B3  1  0.666655  0.333330  0.000002  1
  B  B4  1  0.333321  0.666657  0.331930  1
  B  B5  1  0.666664  0.333343  0.331930  1
  B  B6  1  0.666680  0.333350  0.668060  1
  B  B7  1  0.333329  0.666650  0.668060  1
  Ir  Ir8  1  0.499989  0.000000  0.162188  1
  Ir  Ir9  1  0.499997  0.499990  0.162171  1
  Ir  Ir10  1  0.000007  0.500010  0.162171  1
  Ir  Ir11  1  0.499989  0.000000  0.837819  1
  Ir  Ir12  1  0.499987  0.499998  0.837809  1
  Ir  Ir13  1  0.999990  0.500002  0.837809  1
  Ir  Ir14  1  0.500006  0.000000  0.500004  1
  Ir  Ir15  1  0.499993  0.500011  0.500012  1
  Ir  Ir16  1  0.999981  0.499989  0.500012  1
