# generated using pymatgen
data_Th6Cd15Ag8Ge
_symmetry_space_group_name_H-M   'P 1'
_cell_length_a   9.86338290
_cell_length_b   9.86338091
_cell_length_c   9.86338300
_cell_angle_alpha   60.00000305
_cell_angle_beta   60.00000974
_cell_angle_gamma   60.00000367
_symmetry_Int_Tables_number   1
_chemical_formula_structural   Th6Cd15Ag8Ge
_chemical_formula_sum   'Th6 Cd15 Ag8 Ge1'
_cell_volume   678.51999753
_cell_formula_units_Z   1
loop_
 _symmetry_equiv_pos_site_id
 _symmetry_equiv_pos_as_xyz
  1  'x, y, z'
loop_
 _atom_site_type_symbol
 _atom_site_label
 _atom_site_symmetry_multiplicity
 _atom_site_fract_x
 _atom_site_fract_y
 _atom_site_fract_z
 _atom_site_occupancy
  Th  Th0  1  0.714254  0.285746  0.285746  1
  Th  Th1  1  0.285746  0.714254  0.714254  1
  Th  Th2  1  0.285746  0.714254  0.285746  1
  Th  Th3  1  0.714254  0.285746  0.714254  1
  Th  Th4  1  0.285746  0.285746  0.714254  1
  Th  Th5  1  0.714254  0.714254  0.285746  1
  Cd  Cd6  1  0.500000  0.000000  0.000000  1
  Cd  Cd7  1  0.000000  0.500000  0.500000  1
  Cd  Cd8  1  0.000000  0.500000  0.000000  1
  Cd  Cd9  1  0.500000  0.000000  0.500000  1
  Cd  Cd10  1  0.000000  0.000000  0.500000  1
  Cd  Cd11  1  0.500000  0.500000  0.000000  1
  Cd  Cd12  1  0.332238  0.332238  0.332238  1
  Cd  Cd13  1  0.667762  0.667762  0.667762  1
  Cd  Cd14  1  0.332238  0.332238  0.003288  1
  Cd  Cd15  1  0.332238  0.003288  0.332238  1
  Cd  Cd16  1  0.667762  0.667762  0.996712  1
  Cd  Cd17  1  0.667762  0.996712  0.667762  1
  Cd  Cd18  1  0.003288  0.332238  0.332238  1
  Cd  Cd19  1  0.996712  0.667762  0.667762  1
  Cd  Cd20  1  0.000000  0.000000  0.000000  1
  Ag  Ag21  1  0.119605  0.119605  0.119605  1
  Ag  Ag22  1  0.880395  0.880395  0.880395  1
  Ag  Ag23  1  0.119605  0.119605  0.641188  1
  Ag  Ag24  1  0.119605  0.641188  0.119605  1
  Ag  Ag25  1  0.880395  0.880395  0.358812  1
  Ag  Ag26  1  0.880395  0.358812  0.880395  1
  Ag  Ag27  1  0.641188  0.119605  0.119605  1
  Ag  Ag28  1  0.358812  0.880395  0.880395  1
  Ge  Ge29  1  0.500000  0.500000  0.500000  1
