# generated using pymatgen
data_Dy12Y8Ir7Rh5
_symmetry_space_group_name_H-M   'P 1'
_cell_length_a   10.90915252
_cell_length_b   10.90921360
_cell_length_c   6.40060003
_cell_angle_alpha   89.98649127
_cell_angle_beta   89.97947017
_cell_angle_gamma   89.92941967
_symmetry_Int_Tables_number   1
_chemical_formula_structural   Dy12Y8Ir7Rh5
_chemical_formula_sum   'Dy12 Y8 Ir7 Rh5'
_cell_volume   761.73652192
_cell_formula_units_Z   1
loop_
 _symmetry_equiv_pos_site_id
 _symmetry_equiv_pos_as_xyz
  1  'x, y, z'
loop_
 _atom_site_type_symbol
 _atom_site_label
 _atom_site_symmetry_multiplicity
 _atom_site_fract_x
 _atom_site_fract_y
 _atom_site_fract_z
 _atom_site_occupancy
  Dy  Dy0  1  0.209224  0.410929  0.618769  1
  Dy  Dy1  1  0.209049  0.589535  0.118979  1
  Dy  Dy2  1  0.790702  0.412590  0.119236  1
  Dy  Dy3  1  0.791127  0.589267  0.619278  1
  Dy  Dy4  1  0.911074  0.709327  0.118643  1
  Dy  Dy5  1  0.911393  0.291635  0.620179  1
  Dy  Dy6  1  0.089080  0.708951  0.619351  1
  Dy  Dy7  1  0.090978  0.291696  0.118656  1
  Dy  Dy8  1  0.999762  0.999797  0.499865  1
  Dy  Dy9  1  0.000193  0.000199  0.000235  1
  Dy  Dy10  1  0.499875  0.499652  0.999830  1
  Dy  Dy11  1  0.500350  0.500095  0.500228  1
  Y  Y12  1  0.289647  0.089231  0.380800  1
  Y  Y13  1  0.290032  0.910617  0.880000  1
  Y  Y14  1  0.709392  0.088864  0.879206  1
  Y  Y15  1  0.709334  0.908753  0.380699  1
  Y  Y16  1  0.589355  0.789761  0.880645  1
  Y  Y17  1  0.587755  0.210318  0.380079  1
  Y  Y18  1  0.410157  0.789924  0.380404  1
  Y  Y19  1  0.410399  0.209879  0.880090  1
  Ir  Ir20  1  0.847414  0.846331  0.750693  1
  Ir  Ir21  1  0.151724  0.154511  0.750566  1
  Ir  Ir22  1  0.152586  0.845454  0.250607  1
  Ir  Ir23  1  0.655252  0.346698  0.750626  1
  Ir  Ir24  1  0.654767  0.652081  0.250187  1
  Ir  Ir25  1  0.345870  0.347199  0.250903  1
  Ir  Ir26  1  0.345479  0.652555  0.750568  1
  Rh  Rh27  1  0.847509  0.154873  0.250877  1
  Rh  Rh28  1  0.500585  0.000231  0.125976  1
  Rh  Rh29  1  0.500414  0.000187  0.625238  1
  Rh  Rh30  1  0.999782  0.499554  0.874702  1
  Rh  Rh31  1  0.999741  0.499303  0.373883  1
