# generated using pymatgen
data_Ho2Ta2TiSi4
_symmetry_space_group_name_H-M   'P 1'
_cell_length_a   7.03895077
_cell_length_b   7.03514017
_cell_length_c   12.95858146
_cell_angle_alpha   89.97682884
_cell_angle_beta   90.08056969
_cell_angle_gamma   90.00939596
_symmetry_Int_Tables_number   1
_chemical_formula_structural   Ho2Ta2TiSi4
_chemical_formula_sum   'Ho8 Ta8 Ti4 Si16'
_cell_volume   641.70832684
_cell_formula_units_Z   4
loop_
 _symmetry_equiv_pos_site_id
 _symmetry_equiv_pos_as_xyz
  1  'x, y, z'
loop_
 _atom_site_type_symbol
 _atom_site_label
 _atom_site_symmetry_multiplicity
 _atom_site_fract_x
 _atom_site_fract_y
 _atom_site_fract_z
 _atom_site_occupancy
  Ho  Ho0  1  0.341343  0.002803  0.466537  1
  Ho  Ho1  1  0.498017  0.841195  0.717192  1
  Ho  Ho2  1  0.501474  0.157855  0.217113  1
  Ho  Ho3  1  0.841588  0.498340  0.283097  1
  Ho  Ho4  1  0.157683  0.502089  0.782856  1
  Ho  Ho5  1  0.658512  0.996928  0.967247  1
  Ho  Ho6  1  0.002588  0.341093  0.533009  1
  Ho  Ho7  1  0.996957  0.659697  0.032894  1
  Ta  Ta8  1  0.328900  0.328655  0.999919  1
  Ta  Ta9  1  0.174051  0.825640  0.250280  1
  Ta  Ta10  1  0.826653  0.174007  0.750054  1
  Ta  Ta11  1  0.152245  0.008257  0.874581  1
  Ta  Ta12  1  0.493308  0.652258  0.123893  1
  Ta  Ta13  1  0.506362  0.347464  0.625053  1
  Ta  Ta14  1  0.651868  0.492874  0.875666  1
  Ta  Ta15  1  0.348223  0.506962  0.375297  1
  Ti  Ti16  1  0.669753  0.669275  0.499908  1
  Ti  Ti17  1  0.848174  0.992190  0.374504  1
  Ti  Ti18  1  0.007788  0.152592  0.125201  1
  Ti  Ti19  1  0.992267  0.846984  0.625555  1
  Si  Si20  1  0.202234  0.132279  0.682420  1
  Si  Si21  1  0.365128  0.704566  0.932079  1
  Si  Si22  1  0.635800  0.296385  0.433078  1
  Si  Si23  1  0.704922  0.363904  0.068078  1
  Si  Si24  1  0.296412  0.635942  0.566684  1
  Si  Si25  1  0.799177  0.867655  0.184362  1
  Si  Si26  1  0.131671  0.201289  0.316544  1
  Si  Si27  1  0.865213  0.798020  0.816260  1
  Si  Si28  1  0.292839  0.954126  0.064910  1
  Si  Si29  1  0.548910  0.794752  0.315403  1
  Si  Si30  1  0.453640  0.205216  0.813427  1
  Si  Si31  1  0.795055  0.548599  0.684189  1
  Si  Si32  1  0.204316  0.452099  0.185983  1
  Si  Si33  1  0.708454  0.045357  0.563139  1
  Si  Si34  1  0.953403  0.294546  0.936896  1
  Si  Si35  1  0.045072  0.708112  0.436694  1
