# generated using pymatgen
data_Sm3Lu2In3Br
_symmetry_space_group_name_H-M   'P 1'
_cell_length_a   9.30462300
_cell_length_b   9.30462384
_cell_length_c   6.69056600
_cell_angle_alpha   90.00000000
_cell_angle_beta   90.00000000
_cell_angle_gamma   120.00000766
_symmetry_Int_Tables_number   1
_chemical_formula_structural   Sm3Lu2In3Br
_chemical_formula_sum   'Sm6 Lu4 In6 Br2'
_cell_volume   501.63872969
_cell_formula_units_Z   2
loop_
 _symmetry_equiv_pos_site_id
 _symmetry_equiv_pos_as_xyz
  1  'x, y, z'
loop_
 _atom_site_type_symbol
 _atom_site_label
 _atom_site_symmetry_multiplicity
 _atom_site_fract_x
 _atom_site_fract_y
 _atom_site_fract_z
 _atom_site_occupancy
  Sm  Sm0  1  0.731914  0.731914  0.250000  1
  Sm  Sm1  1  0.000000  0.731914  0.750000  1
  Sm  Sm2  1  0.731914  0.000000  0.750000  1
  Sm  Sm3  1  0.268086  0.268086  0.750000  1
  Sm  Sm4  1  0.000000  0.268086  0.250000  1
  Sm  Sm5  1  0.268086  0.000000  0.250000  1
  Lu  Lu6  1  0.333333  0.666667  0.500000  1
  Lu  Lu7  1  0.666667  0.333333  0.500000  1
  Lu  Lu8  1  0.333333  0.666667  0.000000  1
  Lu  Lu9  1  0.666667  0.333333  0.000000  1
  In  In10  1  0.394706  0.000000  0.750000  1
  In  In11  1  0.000000  0.605294  0.250000  1
  In  In12  1  0.605294  0.000000  0.250000  1
  In  In13  1  0.000000  0.394706  0.750000  1
  In  In14  1  0.394706  0.394706  0.250000  1
  In  In15  1  0.605294  0.605294  0.750000  1
  Br  Br16  1  0.000000  0.000000  0.500000  1
  Br  Br17  1  0.000000  0.000000  0.000000  1
