# generated using pymatgen
data_K3SrNb4O12
_symmetry_space_group_name_H-M   'P 1'
_cell_length_a   8.12300700
_cell_length_b   5.74804461
_cell_length_c   5.74821557
_cell_angle_alpha   90.06872723
_cell_angle_beta   90.00000000
_cell_angle_gamma   90.00000000
_symmetry_Int_Tables_number   1
_chemical_formula_structural   K3SrNb4O12
_chemical_formula_sum   'K3 Sr1 Nb4 O12'
_cell_volume   268.39207723
_cell_formula_units_Z   1
loop_
 _symmetry_equiv_pos_site_id
 _symmetry_equiv_pos_as_xyz
  1  'x, y, z'
loop_
 _atom_site_type_symbol
 _atom_site_label
 _atom_site_symmetry_multiplicity
 _atom_site_fract_x
 _atom_site_fract_y
 _atom_site_fract_z
 _atom_site_occupancy
  K  K0  1  0.000000  0.000721  0.000611  1
  K  K1  1  0.500000  0.499980  0.499929  1
  K  K2  1  0.500000  0.999222  0.998652  1
  Sr  Sr3  1  0.000000  0.501749  0.503358  1
  Nb  Nb4  1  0.251227  0.999943  0.499949  1
  Nb  Nb5  1  0.748780  0.500229  0.000360  1
  Nb  Nb6  1  0.748773  0.999943  0.499949  1
  Nb  Nb7  1  0.251220  0.500229  0.000360  1
  O  O8  1  0.247278  0.749782  0.249820  1
  O  O9  1  0.752946  0.742876  0.742958  1
  O  O10  1  0.757688  0.250585  0.749135  1
  O  O11  1  0.241621  0.257567  0.257468  1
  O  O12  1  0.242312  0.250585  0.749135  1
  O  O13  1  0.758379  0.257567  0.257468  1
  O  O14  1  0.752722  0.749782  0.249820  1
  O  O15  1  0.247054  0.742876  0.742958  1
  O  O16  1  0.000000  0.992474  0.499840  1
  O  O17  1  0.000000  0.504730  0.998795  1
  O  O18  1  0.500000  0.004012  0.499194  1
  O  O19  1  0.500000  0.495146  0.000242  1
