# generated using pymatgen
data_Nd4Al2CoNiI2
_symmetry_space_group_name_H-M   'P 1'
_cell_length_a   4.26811000
_cell_length_b   4.26810891
_cell_length_c   17.33363800
_cell_angle_alpha   90.00000000
_cell_angle_beta   90.00000000
_cell_angle_gamma   119.99999298
_symmetry_Int_Tables_number   1
_chemical_formula_structural   Nd4Al2CoNiI2
_chemical_formula_sum   'Nd4 Al2 Co1 Ni1 I2'
_cell_volume   273.45853386
_cell_formula_units_Z   1
loop_
 _symmetry_equiv_pos_site_id
 _symmetry_equiv_pos_as_xyz
  1  'x, y, z'
loop_
 _atom_site_type_symbol
 _atom_site_label
 _atom_site_symmetry_multiplicity
 _atom_site_fract_x
 _atom_site_fract_y
 _atom_site_fract_z
 _atom_site_occupancy
  Nd  Nd0  1  0.000000  0.000000  0.107828  1
  Nd  Nd1  1  0.000000  0.000000  0.895138  1
  Nd  Nd2  1  0.000000  0.000000  0.603318  1
  Nd  Nd3  1  0.000000  0.000000  0.394233  1
  Al  Al4  1  0.666667  0.333333  0.497598  1
  Al  Al5  1  0.666667  0.333333  0.002129  1
  Co  Co6  1  0.333333  0.666667  0.997964  1
  Ni  Ni7  1  0.333333  0.666667  0.501770  1
  I  I8  1  0.333333  0.666667  0.251856  1
  I  I9  1  0.666667  0.333333  0.748167  1
