# generated using pymatgen
data_Sr2Li2Ni15
_symmetry_space_group_name_H-M   'P 1'
_cell_length_a   6.34180333
_cell_length_b   6.34180274
_cell_length_c   6.34180355
_cell_angle_alpha   83.80538144
_cell_angle_beta   83.80539177
_cell_angle_gamma   83.80538449
_symmetry_Int_Tables_number   1
_chemical_formula_structural   Sr2Li2Ni15
_chemical_formula_sum   'Sr2 Li2 Ni15'
_cell_volume   250.88929296
_cell_formula_units_Z   1
loop_
 _symmetry_equiv_pos_site_id
 _symmetry_equiv_pos_as_xyz
  1  'x, y, z'
loop_
 _atom_site_type_symbol
 _atom_site_label
 _atom_site_symmetry_multiplicity
 _atom_site_fract_x
 _atom_site_fract_y
 _atom_site_fract_z
 _atom_site_occupancy
  Sr  Sr0  1  0.656419  0.656419  0.656419  1
  Sr  Sr1  1  0.343581  0.343581  0.343581  1
  Li  Li2  1  0.904565  0.904565  0.904565  1
  Li  Li3  1  0.095435  0.095435  0.095435  1
  Ni  Ni4  1  0.000000  0.000000  0.500000  1
  Ni  Ni5  1  0.500000  0.000000  0.000000  1
  Ni  Ni6  1  0.000000  0.500000  0.000000  1
  Ni  Ni7  1  0.707438  0.292562  0.000000  1
  Ni  Ni8  1  0.000000  0.707438  0.292562  1
  Ni  Ni9  1  0.292562  0.000000  0.707438  1
  Ni  Ni10  1  0.000000  0.292562  0.707438  1
  Ni  Ni11  1  0.707438  0.000000  0.292562  1
  Ni  Ni12  1  0.292562  0.707438  0.000000  1
  Ni  Ni13  1  0.340976  0.340976  0.847032  1
  Ni  Ni14  1  0.847032  0.340976  0.340976  1
  Ni  Ni15  1  0.340976  0.847032  0.340976  1
  Ni  Ni16  1  0.659024  0.659024  0.152968  1
  Ni  Ni17  1  0.152968  0.659024  0.659024  1
  Ni  Ni18  1  0.659024  0.152968  0.659024  1
