# generated using pymatgen
data_Ho6Tm6Co4BiOs
_symmetry_space_group_name_H-M   'P 1'
_cell_length_a   8.26159835
_cell_length_b   8.25257499
_cell_length_c   8.25249028
_cell_angle_alpha   110.54658894
_cell_angle_beta   111.32164863
_cell_angle_gamma   106.54161956
_symmetry_Int_Tables_number   1
_chemical_formula_structural   Ho6Tm6Co4BiOs
_chemical_formula_sum   'Ho6 Tm6 Co4 Bi1 Os1'
_cell_volume   432.50453571
_cell_formula_units_Z   1
loop_
 _symmetry_equiv_pos_site_id
 _symmetry_equiv_pos_as_xyz
  1  'x, y, z'
loop_
 _atom_site_type_symbol
 _atom_site_label
 _atom_site_symmetry_multiplicity
 _atom_site_fract_x
 _atom_site_fract_y
 _atom_site_fract_z
 _atom_site_occupancy
  Ho  Ho0  1  0.278598  0.180670  0.460859  1
  Ho  Ho1  1  0.721402  0.819330  0.539141  1
  Ho  Ho2  1  0.278596  0.817743  0.097924  1
  Ho  Ho3  1  0.721404  0.182257  0.902076  1
  Ho  Ho4  1  0.620500  0.311516  0.308988  1
  Ho  Ho5  1  0.379500  0.688484  0.691012  1
  Tm  Tm6  1  0.002129  0.311703  0.690433  1
  Tm  Tm7  1  0.997871  0.688297  0.309567  1
  Tm  Tm8  1  0.214856  0.412106  0.196118  1
  Tm  Tm9  1  0.785144  0.587894  0.803882  1
  Tm  Tm10  1  0.214845  0.018734  0.802739  1
  Tm  Tm11  1  0.785155  0.981266  0.197261  1
  Co  Co12  1  0.999998  0.374568  0.374566  1
  Co  Co13  1  0.000002  0.625432  0.625434  1
  Co  Co14  1  0.388277  0.888745  0.499535  1
  Co  Co15  1  0.611723  0.111255  0.500465  1
  Bi  Bi16  1  0.500000  0.500000  0.000000  1
  Os  Os17  1  0.000000  0.000000  0.000000  1
