# generated using pymatgen
data_Ba2Li2Si2Bi
_symmetry_space_group_name_H-M   'P 1'
_cell_length_a   10.67213019
_cell_length_b   10.67212989
_cell_length_c   7.33272800
_cell_angle_alpha   90.00000000
_cell_angle_beta   90.00000000
_cell_angle_gamma   152.76858223
_symmetry_Int_Tables_number   1
_chemical_formula_structural   Ba2Li2Si2Bi
_chemical_formula_sum   'Ba4 Li4 Si4 Bi2'
_cell_volume   382.15549373
_cell_formula_units_Z   2
loop_
 _symmetry_equiv_pos_site_id
 _symmetry_equiv_pos_as_xyz
  1  'x, y, z'
loop_
 _atom_site_type_symbol
 _atom_site_label
 _atom_site_symmetry_multiplicity
 _atom_site_fract_x
 _atom_site_fract_y
 _atom_site_fract_z
 _atom_site_occupancy
  Ba  Ba0  1  0.551354  0.448646  0.750000  1
  Ba  Ba1  1  0.448646  0.551354  0.250000  1
  Ba  Ba2  1  0.346096  0.653904  0.750000  1
  Ba  Ba3  1  0.653904  0.346096  0.250000  1
  Li  Li4  1  0.817555  0.182445  0.444967  1
  Li  Li5  1  0.182445  0.817555  0.555033  1
  Li  Li6  1  0.817555  0.182445  0.055033  1
  Li  Li7  1  0.182445  0.817555  0.944967  1
  Si  Si8  1  0.949818  0.050182  0.914374  1
  Si  Si9  1  0.050182  0.949818  0.085626  1
  Si  Si10  1  0.949818  0.050182  0.585626  1
  Si  Si11  1  0.050182  0.949818  0.414374  1
  Bi  Bi12  1  0.720186  0.279814  0.750000  1
  Bi  Bi13  1  0.279814  0.720186  0.250000  1
