# generated using pymatgen
data_La10Mg3AlIr6
_symmetry_space_group_name_H-M   'P 1'
_cell_length_a   8.79805226
_cell_length_b   8.80813580
_cell_length_c   8.79805291
_cell_angle_alpha   109.49444657
_cell_angle_beta   109.44798486
_cell_angle_gamma   109.49444103
_symmetry_Int_Tables_number   1
_chemical_formula_structural   La10Mg3AlIr6
_chemical_formula_sum   'La10 Mg3 Al1 Ir6'
_cell_volume   524.69953599
_cell_formula_units_Z   1
loop_
 _symmetry_equiv_pos_site_id
 _symmetry_equiv_pos_as_xyz
  1  'x, y, z'
loop_
 _atom_site_type_symbol
 _atom_site_label
 _atom_site_symmetry_multiplicity
 _atom_site_fract_x
 _atom_site_fract_y
 _atom_site_fract_z
 _atom_site_occupancy
  La  La0  1  0.244731  0.680455  0.433491  1
  La  La1  1  0.750835  0.821383  0.075331  1
  La  La2  1  0.424670  0.246050  0.675503  1
  La  La3  1  0.688759  0.435725  0.255269  1
  La  La4  1  0.066510  0.746965  0.811241  1
  La  La5  1  0.824497  0.070548  0.749165  1
  La  La6  1  0.206306  0.205222  0.203235  1
  La  La7  1  0.496931  0.998915  0.293694  1
  La  La8  1  0.296765  0.501988  0.003070  1
  La  La9  1  0.000000  0.285770  0.500001  1
  Mg  Mg10  1  0.500309  0.001083  0.908269  1
  Mg  Mg11  1  0.591731  0.592814  0.592039  1
  Mg  Mg12  1  0.907961  0.500775  0.999692  1
  Al  Al13  1  0.000000  0.904352  0.500001  1
  Ir  Ir14  1  0.237557  0.122450  0.861113  1
  Ir  Ir15  1  0.748487  0.367701  0.615344  1
  Ir  Ir16  1  0.884655  0.252359  0.133142  1
  Ir  Ir17  1  0.123557  0.884894  0.262445  1
  Ir  Ir18  1  0.638886  0.761337  0.376442  1
  Ir  Ir19  1  0.366857  0.619214  0.751513  1
