# generated using pymatgen
data_Yb4LuSi12Ir19
_symmetry_space_group_name_H-M   'P 1'
_cell_length_a   12.79301100
_cell_length_b   12.79301263
_cell_length_c   3.99766000
_cell_angle_alpha   90.00000000
_cell_angle_beta   90.00000000
_cell_angle_gamma   120.00167885
_symmetry_Int_Tables_number   1
_chemical_formula_structural   Yb4LuSi12Ir19
_chemical_formula_sum   'Yb4 Lu1 Si12 Ir19'
_cell_volume   566.59761371
_cell_formula_units_Z   1
loop_
 _symmetry_equiv_pos_site_id
 _symmetry_equiv_pos_as_xyz
  1  'x, y, z'
loop_
 _atom_site_type_symbol
 _atom_site_label
 _atom_site_symmetry_multiplicity
 _atom_site_fract_x
 _atom_site_fract_y
 _atom_site_fract_z
 _atom_site_occupancy
  Yb  Yb0  1  0.333483  0.666633  0.000000  1
  Yb  Yb1  1  0.666633  0.333483  0.000000  1
  Yb  Yb2  1  0.817803  0.999841  0.500000  1
  Yb  Yb3  1  0.999841  0.817803  0.500000  1
  Lu  Lu4  1  0.179832  0.179832  0.500000  1
  Si  Si5  1  0.818178  0.818178  0.000000  1
  Si  Si6  1  0.182034  0.999842  0.000000  1
  Si  Si7  1  0.999842  0.182034  0.000000  1
  Si  Si8  1  0.312426  0.832429  0.500000  1
  Si  Si9  1  0.167755  0.481017  0.500000  1
  Si  Si10  1  0.519687  0.687415  0.500000  1
  Si  Si11  1  0.832429  0.312426  0.500000  1
  Si  Si12  1  0.481017  0.167755  0.500000  1
  Si  Si13  1  0.687415  0.519687  0.500000  1
  Si  Si14  1  0.368044  0.368044  0.000000  1
  Si  Si15  1  0.631480  0.999907  0.000000  1
  Si  Si16  1  0.999907  0.631480  0.000000  1
  Ir  Ir17  1  0.194385  0.816512  0.000000  1
  Ir  Ir18  1  0.183286  0.376204  0.000000  1
  Ir  Ir19  1  0.621726  0.805471  0.000000  1
  Ir  Ir20  1  0.816512  0.194385  0.000000  1
  Ir  Ir21  1  0.376204  0.183286  0.000000  1
  Ir  Ir22  1  0.805471  0.621726  0.000000  1
  Ir  Ir23  1  0.717220  0.717220  0.500000  1
  Ir  Ir24  1  0.283058  0.001127  0.500000  1
  Ir  Ir25  1  0.001127  0.283058  0.500000  1
  Ir  Ir26  1  0.126286  0.639763  0.500000  1
  Ir  Ir27  1  0.360211  0.486676  0.500000  1
  Ir  Ir28  1  0.513016  0.873763  0.500000  1
  Ir  Ir29  1  0.639763  0.126286  0.500000  1
  Ir  Ir30  1  0.486676  0.360211  0.500000  1
  Ir  Ir31  1  0.873763  0.513016  0.500000  1
  Ir  Ir32  1  0.552086  0.552086  0.000000  1
  Ir  Ir33  1  0.447941  0.001075  0.000000  1
  Ir  Ir34  1  0.001075  0.447941  0.000000  1
  Ir  Ir35  1  0.002388  0.002388  0.000000  1
