# generated using pymatgen
data_Pr2Co9Mo3P7
_symmetry_space_group_name_H-M   'P 1'
_cell_length_a   3.75324000
_cell_length_b   9.15652899
_cell_length_c   9.15652800
_cell_angle_alpha   119.99999643
_cell_angle_beta   90.00000000
_cell_angle_gamma   90.00000000
_symmetry_Int_Tables_number   1
_chemical_formula_structural   Pr2Co9Mo3P7
_chemical_formula_sum   'Pr2 Co9 Mo3 P7'
_cell_volume   272.52019181
_cell_formula_units_Z   1
loop_
 _symmetry_equiv_pos_site_id
 _symmetry_equiv_pos_as_xyz
  1  'x, y, z'
loop_
 _atom_site_type_symbol
 _atom_site_label
 _atom_site_symmetry_multiplicity
 _atom_site_fract_x
 _atom_site_fract_y
 _atom_site_fract_z
 _atom_site_occupancy
  Pr  Pr0  1  0.000000  0.666667  0.333333  1
  Pr  Pr1  1  0.500000  0.333333  0.666667  1
  Co  Co2  1  0.000000  0.570066  0.940717  1
  Co  Co3  1  0.000000  0.370651  0.429934  1
  Co  Co4  1  0.000000  0.059283  0.629349  1
  Co  Co5  1  0.000000  0.878307  0.155904  1
  Co  Co6  1  0.000000  0.277597  0.121693  1
  Co  Co7  1  0.000000  0.844096  0.722403  1
  Co  Co8  1  0.500000  0.949252  0.383534  1
  Co  Co9  1  0.500000  0.434281  0.050748  1
  Co  Co10  1  0.500000  0.616466  0.565719  1
  Mo  Mo11  1  0.500000  0.780952  0.901929  1
  Mo  Mo12  1  0.500000  0.120977  0.219048  1
  Mo  Mo13  1  0.500000  0.098071  0.879023  1
  P  P14  1  0.000000  0.000000  0.000000  1
  P  P15  1  0.500000  0.707511  0.112664  1
  P  P16  1  0.500000  0.405154  0.292489  1
  P  P17  1  0.500000  0.887336  0.594846  1
  P  P18  1  0.000000  0.591518  0.696759  1
  P  P19  1  0.000000  0.105242  0.408482  1
  P  P20  1  0.000000  0.303241  0.894758  1
