# generated using pymatgen
data_K2RbVTe4
_symmetry_space_group_name_H-M   'P 1'
_cell_length_a   10.46014100
_cell_length_b   10.48538700
_cell_length_c   11.70042200
_cell_angle_alpha   90.00000000
_cell_angle_beta   90.00000000
_cell_angle_gamma   90.00000000
_symmetry_Int_Tables_number   1
_chemical_formula_structural   K2RbVTe4
_chemical_formula_sum   'K8 Rb4 V4 Te16'
_cell_volume   1283.28621396
_cell_formula_units_Z   4
loop_
 _symmetry_equiv_pos_site_id
 _symmetry_equiv_pos_as_xyz
  1  'x, y, z'
loop_
 _atom_site_type_symbol
 _atom_site_label
 _atom_site_symmetry_multiplicity
 _atom_site_fract_x
 _atom_site_fract_y
 _atom_site_fract_z
 _atom_site_occupancy
  K  K0  1  0.052961  0.202104  0.047866  1
  K  K1  1  0.947039  0.797896  0.547866  1
  K  K2  1  0.552961  0.297896  0.452134  1
  K  K3  1  0.447039  0.702104  0.952134  1
  K  K4  1  0.552961  0.297896  0.047866  1
  K  K5  1  0.052961  0.202104  0.452134  1
  K  K6  1  0.447039  0.702104  0.547866  1
  K  K7  1  0.947039  0.797896  0.952134  1
  Rb  Rb8  1  0.134323  0.409418  0.750000  1
  Rb  Rb9  1  0.365677  0.909418  0.250000  1
  Rb  Rb10  1  0.634323  0.090582  0.750000  1
  Rb  Rb11  1  0.865677  0.590582  0.250000  1
  V  V12  1  0.785790  0.013781  0.250000  1
  V  V13  1  0.714210  0.513781  0.750000  1
  V  V14  1  0.285790  0.486219  0.250000  1
  V  V15  1  0.214210  0.986219  0.750000  1
  Te  Te16  1  0.332653  0.053091  0.926256  1
  Te  Te17  1  0.195377  0.747450  0.750000  1
  Te  Te18  1  0.304623  0.247450  0.250000  1
  Te  Te19  1  0.695377  0.752550  0.750000  1
  Te  Te20  1  0.804623  0.252550  0.250000  1
  Te  Te21  1  0.992571  0.081733  0.750000  1
  Te  Te22  1  0.507429  0.581733  0.250000  1
  Te  Te23  1  0.492571  0.418267  0.750000  1
  Te  Te24  1  0.007429  0.918267  0.250000  1
  Te  Te25  1  0.667347  0.946909  0.426256  1
  Te  Te26  1  0.832653  0.446909  0.573744  1
  Te  Te27  1  0.167347  0.553091  0.073744  1
  Te  Te28  1  0.667347  0.946909  0.073744  1
  Te  Te29  1  0.332653  0.053091  0.573744  1
  Te  Te30  1  0.167347  0.553091  0.426256  1
  Te  Te31  1  0.832653  0.446909  0.926256  1
