# generated using pymatgen
data_Ho6Tm2Lu8Cd3AgIr4
_symmetry_space_group_name_H-M   'P 1'
_cell_length_a   9.50278573
_cell_length_b   9.50278629
_cell_length_c   9.50113965
_cell_angle_alpha   59.69551919
_cell_angle_beta   59.69551809
_cell_angle_gamma   59.68452703
_symmetry_Int_Tables_number   1
_chemical_formula_structural   Ho6Tm2Lu8Cd3AgIr4
_chemical_formula_sum   'Ho6 Tm2 Lu8 Cd3 Ag1 Ir4'
_cell_volume   602.43738086
_cell_formula_units_Z   1
loop_
 _symmetry_equiv_pos_site_id
 _symmetry_equiv_pos_as_xyz
  1  'x, y, z'
loop_
 _atom_site_type_symbol
 _atom_site_label
 _atom_site_symmetry_multiplicity
 _atom_site_fract_x
 _atom_site_fract_y
 _atom_site_fract_z
 _atom_site_occupancy
  Ho  Ho0  1  0.187400  0.810062  0.809847  1
  Ho  Ho1  1  0.810531  0.187457  0.187480  1
  Ho  Ho2  1  0.810062  0.187400  0.809847  1
  Ho  Ho3  1  0.187457  0.810531  0.187480  1
  Ho  Ho4  1  0.810208  0.810208  0.186867  1
  Ho  Ho5  1  0.187627  0.187627  0.810260  1
  Tm  Tm6  1  0.600390  0.600390  0.600277  1
  Tm  Tm7  1  0.600105  0.600105  0.202438  1
  Lu  Lu8  1  0.599659  0.203347  0.599694  1
  Lu  Lu9  1  0.203347  0.599659  0.599694  1
  Lu  Lu10  1  0.061733  0.437954  0.437890  1
  Lu  Lu11  1  0.435907  0.061412  0.061120  1
  Lu  Lu12  1  0.437954  0.061733  0.437890  1
  Lu  Lu13  1  0.061412  0.435907  0.061120  1
  Lu  Lu14  1  0.437670  0.437670  0.062106  1
  Lu  Lu15  1  0.061126  0.061126  0.436147  1
  Cd  Cd16  1  0.831507  0.831507  0.509811  1
  Cd  Cd17  1  0.831576  0.509863  0.831197  1
  Cd  Cd18  1  0.509863  0.831576  0.831197  1
  Ag  Ag19  1  0.832345  0.832345  0.831958  1
  Ir  Ir20  1  0.391563  0.391563  0.393233  1
  Ir  Ir21  1  0.392677  0.392677  0.825301  1
  Ir  Ir22  1  0.391940  0.825939  0.393571  1
  Ir  Ir23  1  0.825939  0.391940  0.393571  1
