# generated using pymatgen
data_Nd2Al4GaAu3
_symmetry_space_group_name_H-M   'P 1'
_cell_length_a   4.37224500
_cell_length_b   4.37224500
_cell_length_c   10.68474200
_cell_angle_alpha   90.00000000
_cell_angle_beta   90.00000000
_cell_angle_gamma   90.00000000
_symmetry_Int_Tables_number   1
_chemical_formula_structural   Nd2Al4GaAu3
_chemical_formula_sum   'Nd2 Al4 Ga1 Au3'
_cell_volume   204.25515188
_cell_formula_units_Z   1
loop_
 _symmetry_equiv_pos_site_id
 _symmetry_equiv_pos_as_xyz
  1  'x, y, z'
loop_
 _atom_site_type_symbol
 _atom_site_label
 _atom_site_symmetry_multiplicity
 _atom_site_fract_x
 _atom_site_fract_y
 _atom_site_fract_z
 _atom_site_occupancy
  Nd  Nd0  1  0.000000  0.500000  0.247375  1
  Nd  Nd1  1  0.500000  0.000000  0.752625  1
  Al  Al2  1  0.000000  0.000000  0.500000  1
  Al  Al3  1  0.500000  0.500000  0.500000  1
  Al  Al4  1  0.000000  0.500000  0.862091  1
  Al  Al5  1  0.500000  0.000000  0.137909  1
  Ga  Ga6  1  0.000000  0.000000  0.000000  1
  Au  Au7  1  0.500000  0.500000  0.000000  1
  Au  Au8  1  0.000000  0.500000  0.629812  1
  Au  Au9  1  0.500000  0.000000  0.370188  1
