# generated using pymatgen
data_DyY18Lu(Cd3Ru)2
_symmetry_space_group_name_H-M   'P 1'
_cell_length_a   9.62975254
_cell_length_b   9.62975180
_cell_length_c   9.87515772
_cell_angle_alpha   90.03798813
_cell_angle_beta   89.96201142
_cell_angle_gamma   120.00534335
_symmetry_Int_Tables_number   1
_chemical_formula_structural   DyY18Lu(Cd3Ru)2
_chemical_formula_sum   'Dy1 Y18 Lu1 Cd6 Ru2'
_cell_volume   793.01495891
_cell_formula_units_Z   1
loop_
 _symmetry_equiv_pos_site_id
 _symmetry_equiv_pos_as_xyz
  1  'x, y, z'
loop_
 _atom_site_type_symbol
 _atom_site_label
 _atom_site_symmetry_multiplicity
 _atom_site_fract_x
 _atom_site_fract_y
 _atom_site_fract_z
 _atom_site_occupancy
  Dy  Dy0  1  0.209549  0.790451  0.439461  1
  Y  Y1  1  0.999975  0.000025  0.000077  1
  Y  Y2  1  0.209052  0.418086  0.440223  1
  Y  Y3  1  0.581914  0.790948  0.440223  1
  Y  Y4  1  0.790870  0.209130  0.559892  1
  Y  Y5  1  0.791068  0.581723  0.559860  1
  Y  Y6  1  0.418277  0.208932  0.559860  1
  Y  Y7  1  0.790090  0.209910  0.940101  1
  Y  Y8  1  0.790221  0.580261  0.940175  1
  Y  Y9  1  0.419739  0.209779  0.940175  1
  Y  Y10  1  0.209744  0.790256  0.059824  1
  Y  Y11  1  0.210016  0.419991  0.059924  1
  Y  Y12  1  0.580009  0.789984  0.059924  1
  Y  Y13  1  0.541340  0.458660  0.250251  1
  Y  Y14  1  0.541106  0.082300  0.250321  1
  Y  Y15  1  0.917700  0.458894  0.250321  1
  Y  Y16  1  0.458813  0.541187  0.749801  1
  Y  Y17  1  0.458611  0.917347  0.749556  1
  Y  Y18  1  0.082653  0.541389  0.749556  1
  Lu  Lu19  1  0.000240  0.999760  0.499874  1
  Cd  Cd20  1  0.886028  0.113972  0.251787  1
  Cd  Cd21  1  0.885955  0.772012  0.251579  1
  Cd  Cd22  1  0.227988  0.114045  0.251579  1
  Cd  Cd23  1  0.113985  0.886015  0.748354  1
  Cd  Cd24  1  0.114020  0.227985  0.748295  1
  Cd  Cd25  1  0.772015  0.885980  0.748295  1
  Ru  Ru26  1  0.332442  0.667558  0.251050  1
  Ru  Ru27  1  0.666579  0.333421  0.749661  1
