# generated using pymatgen
data_Tm8Si16MoW11
_symmetry_space_group_name_H-M   'P 1'
_cell_length_a   6.72712139
_cell_length_b   6.91020454
_cell_length_c   12.85240963
_cell_angle_alpha   89.95185739
_cell_angle_beta   90.02430033
_cell_angle_gamma   89.93204179
_symmetry_Int_Tables_number   1
_chemical_formula_structural   Tm8Si16MoW11
_chemical_formula_sum   'Tm8 Si16 Mo1 W11'
_cell_volume   597.45366273
_cell_formula_units_Z   1
loop_
 _symmetry_equiv_pos_site_id
 _symmetry_equiv_pos_as_xyz
  1  'x, y, z'
loop_
 _atom_site_type_symbol
 _atom_site_label
 _atom_site_symmetry_multiplicity
 _atom_site_fract_x
 _atom_site_fract_y
 _atom_site_fract_z
 _atom_site_occupancy
  Tm  Tm0  1  0.997166  0.168623  0.093306  1
  Tm  Tm1  1  0.003702  0.831754  0.906502  1
  Tm  Tm2  1  0.503139  0.667565  0.906675  1
  Tm  Tm3  1  0.003375  0.831301  0.592955  1
  Tm  Tm4  1  0.497424  0.331265  0.093203  1
  Tm  Tm5  1  0.996784  0.168973  0.407225  1
  Tm  Tm6  1  0.496228  0.331161  0.406915  1
  Tm  Tm7  1  0.503648  0.668683  0.592841  1
  Si  Si8  1  0.033246  0.127136  0.750026  1
  Si  Si9  1  0.967623  0.872625  0.249294  1
  Si  Si10  1  0.465772  0.628545  0.250162  1
  Si  Si11  1  0.533158  0.372092  0.749625  1
  Si  Si12  1  0.300591  0.863866  0.749799  1
  Si  Si13  1  0.700416  0.136154  0.250459  1
  Si  Si14  1  0.199575  0.365366  0.249883  1
  Si  Si15  1  0.800159  0.635560  0.749996  1
  Si  Si16  1  0.162453  0.459082  0.546405  1
  Si  Si17  1  0.836535  0.541320  0.453756  1
  Si  Si18  1  0.337643  0.958378  0.453778  1
  Si  Si19  1  0.838672  0.541287  0.047059  1
  Si  Si20  1  0.662566  0.041481  0.546493  1
  Si  Si21  1  0.160890  0.458861  0.952903  1
  Si  Si22  1  0.661729  0.040255  0.953450  1
  Si  Si23  1  0.338659  0.958265  0.046996  1
  Mo  Mo24  1  0.170687  0.663120  0.124145  1
  W  W25  1  0.164608  0.500824  0.749249  1
  W  W26  1  0.834470  0.498931  0.251062  1
  W  W27  1  0.336154  0.001426  0.250660  1
  W  W28  1  0.664678  0.998448  0.749774  1
  W  W29  1  0.329388  0.162152  0.625043  1
  W  W30  1  0.670914  0.838349  0.375259  1
  W  W31  1  0.168651  0.663972  0.374133  1
  W  W32  1  0.670612  0.836961  0.125549  1
  W  W33  1  0.830131  0.336883  0.625459  1
  W  W34  1  0.329594  0.162977  0.874787  1
  W  W35  1  0.828959  0.336360  0.875173  1
