# generated using pymatgen
data_Nd3Mg3CuHgIr
_symmetry_space_group_name_H-M   'P 1'
_cell_length_a   7.95322500
_cell_length_b   7.95322708
_cell_length_c   3.95295900
_cell_angle_alpha   90.00000000
_cell_angle_beta   90.00000000
_cell_angle_gamma   119.99999553
_symmetry_Int_Tables_number   1
_chemical_formula_structural   Nd3Mg3CuHgIr
_chemical_formula_sum   'Nd3 Mg3 Cu1 Hg1 Ir1'
_cell_volume   216.54073795
_cell_formula_units_Z   1
loop_
 _symmetry_equiv_pos_site_id
 _symmetry_equiv_pos_as_xyz
  1  'x, y, z'
loop_
 _atom_site_type_symbol
 _atom_site_label
 _atom_site_symmetry_multiplicity
 _atom_site_fract_x
 _atom_site_fract_y
 _atom_site_fract_z
 _atom_site_occupancy
  Nd  Nd0  1  0.603219  0.028928  0.000000  1
  Nd  Nd1  1  0.971072  0.574291  0.000000  1
  Nd  Nd2  1  0.425709  0.396781  0.000000  1
  Mg  Mg3  1  0.241339  0.999486  0.500000  1
  Mg  Mg4  1  0.000514  0.241852  0.500000  1
  Mg  Mg5  1  0.758148  0.758661  0.500000  1
  Cu  Cu6  1  0.000000  0.000000  0.000000  1
  Hg  Hg7  1  0.333333  0.666667  0.500000  1
  Ir  Ir8  1  0.666667  0.333333  0.500000  1
