# generated using pymatgen
data_Ti6Be2Si(GeOs2)3
_symmetry_space_group_name_H-M   'P 1'
_cell_length_a   7.43901836
_cell_length_b   7.43856801
_cell_length_c   7.43899098
_cell_angle_alpha   126.24698532
_cell_angle_beta   129.42537197
_cell_angle_gamma   76.91960517
_symmetry_Int_Tables_number   1
_chemical_formula_structural   Ti6Be2Si(GeOs2)3
_chemical_formula_sum   'Ti6 Be2 Si1 Ge3 Os6'
_cell_volume   248.97658526
_cell_formula_units_Z   1
loop_
 _symmetry_equiv_pos_site_id
 _symmetry_equiv_pos_as_xyz
  1  'x, y, z'
loop_
 _atom_site_type_symbol
 _atom_site_label
 _atom_site_symmetry_multiplicity
 _atom_site_fract_x
 _atom_site_fract_y
 _atom_site_fract_z
 _atom_site_occupancy
  Ti  Ti0  1  0.445295  0.394108  0.445681  1
  Ti  Ti1  1  0.553352  0.006152  0.950287  1
  Ti  Ti2  1  0.055879  0.006145  0.452762  1
  Ti  Ti3  1  0.948401  0.394074  0.948786  1
  Ti  Ti4  1  0.249994  0.609358  0.862376  1
  Ti  Ti5  1  0.747157  0.609528  0.359396  1
  Be  Be6  1  0.250362  0.003263  0.253355  1
  Be  Be7  1  0.749767  0.003127  0.752904  1
  Si  Si8  1  0.333351  0.336605  0.003340  1
  Ge  Ge9  1  0.166433  0.669873  0.503585  1
  Ge  Ge10  1  0.833247  0.336760  0.503378  1
  Ge  Ge11  1  0.666815  0.669678  0.002722  1
  Os  Os12  1  0.999989  0.249510  0.249526  1
  Os  Os13  1  0.497013  0.248841  0.751826  1
  Os  Os14  1  0.376667  0.751612  0.374846  1
  Os  Os15  1  0.623064  0.003636  0.380678  1
  Os  Os16  1  0.877323  0.757167  0.879966  1
  Os  Os17  1  0.125889  0.008566  0.882588  1
