# generated using pymatgen
data_La2TeP
_symmetry_space_group_name_H-M   'P 1'
_cell_length_a   7.82585857
_cell_length_b   7.82585845
_cell_length_c   7.82585783
_cell_angle_alpha   32.39187801
_cell_angle_beta   32.39188299
_cell_angle_gamma   32.39187750
_symmetry_Int_Tables_number   1
_chemical_formula_structural   La2TeP
_chemical_formula_sum   'La2 Te1 P1'
_cell_volume   122.28540641
_cell_formula_units_Z   1
loop_
 _symmetry_equiv_pos_site_id
 _symmetry_equiv_pos_as_xyz
  1  'x, y, z'
loop_
 _atom_site_type_symbol
 _atom_site_label
 _atom_site_symmetry_multiplicity
 _atom_site_fract_x
 _atom_site_fract_y
 _atom_site_fract_z
 _atom_site_occupancy
  La  La0  1  0.261097  0.261097  0.261097  1
  La  La1  1  0.738903  0.738903  0.738903  1
  Te  Te2  1  0.500000  0.500000  0.500000  1
  P  P3  1  0.000000  0.000000  0.000000  1
