# generated using pymatgen
data_Pa3Cr(Co4P3)2
_symmetry_space_group_name_H-M   'P 1'
_cell_length_a   3.75606900
_cell_length_b   10.45118100
_cell_length_c   12.24055800
_cell_angle_alpha   90.00000000
_cell_angle_beta   90.00000000
_cell_angle_gamma   90.00000000
_symmetry_Int_Tables_number   1
_chemical_formula_structural   Pa3Cr(Co4P3)2
_chemical_formula_sum   'Pa6 Cr2 Co16 P12'
_cell_volume   480.50747377
_cell_formula_units_Z   2
loop_
 _symmetry_equiv_pos_site_id
 _symmetry_equiv_pos_as_xyz
  1  'x, y, z'
loop_
 _atom_site_type_symbol
 _atom_site_label
 _atom_site_symmetry_multiplicity
 _atom_site_fract_x
 _atom_site_fract_y
 _atom_site_fract_z
 _atom_site_occupancy
  Pa  Pa0  1  0.000000  0.500000  0.522746  1
  Pa  Pa1  1  0.500000  0.000000  0.477254  1
  Pa  Pa2  1  0.500000  0.817345  0.207607  1
  Pa  Pa3  1  0.500000  0.182655  0.207607  1
  Pa  Pa4  1  0.000000  0.682655  0.792393  1
  Pa  Pa5  1  0.000000  0.317345  0.792393  1
  Cr  Cr6  1  0.500000  0.500000  0.152663  1
  Cr  Cr7  1  0.000000  0.000000  0.847337  1
  Co  Co8  1  0.500000  0.500000  0.699789  1
  Co  Co9  1  0.000000  0.000000  0.300211  1
  Co  Co10  1  0.000000  0.500000  0.981333  1
  Co  Co11  1  0.500000  0.000000  0.018667  1
  Co  Co12  1  0.500000  0.332220  0.991271  1
  Co  Co13  1  0.500000  0.667780  0.991271  1
  Co  Co14  1  0.000000  0.167780  0.008729  1
  Co  Co15  1  0.000000  0.832220  0.008729  1
  Co  Co16  1  0.500000  0.303849  0.428929  1
  Co  Co17  1  0.500000  0.696151  0.428929  1
  Co  Co18  1  0.000000  0.196151  0.571071  1
  Co  Co19  1  0.000000  0.803849  0.571071  1
  Co  Co20  1  0.500000  0.877807  0.714055  1
  Co  Co21  1  0.500000  0.122193  0.714055  1
  Co  Co22  1  0.000000  0.622193  0.285945  1
  Co  Co23  1  0.000000  0.377807  0.285945  1
  P  P24  1  0.500000  0.500000  0.881272  1
  P  P25  1  0.000000  0.000000  0.118728  1
  P  P26  1  0.500000  0.500000  0.338207  1
  P  P27  1  0.000000  0.000000  0.661793  1
  P  P28  1  0.500000  0.308750  0.612802  1
  P  P29  1  0.500000  0.691250  0.612802  1
  P  P30  1  0.000000  0.191250  0.387198  1
  P  P31  1  0.000000  0.808750  0.387198  1
  P  P32  1  0.500000  0.850036  0.895887  1
  P  P33  1  0.500000  0.149964  0.895887  1
  P  P34  1  0.000000  0.649964  0.104113  1
  P  P35  1  0.000000  0.350036  0.104113  1
