# generated using pymatgen
data_Th3Cd5Ir
_symmetry_space_group_name_H-M   'P 1'
_cell_length_a   8.16950900
_cell_length_b   8.16951020
_cell_length_c   3.98047900
_cell_angle_alpha   90.00000000
_cell_angle_beta   90.00000000
_cell_angle_gamma   119.99999111
_symmetry_Int_Tables_number   1
_chemical_formula_structural   Th3Cd5Ir
_chemical_formula_sum   'Th3 Cd5 Ir1'
_cell_volume   230.06893510
_cell_formula_units_Z   1
loop_
 _symmetry_equiv_pos_site_id
 _symmetry_equiv_pos_as_xyz
  1  'x, y, z'
loop_
 _atom_site_type_symbol
 _atom_site_label
 _atom_site_symmetry_multiplicity
 _atom_site_fract_x
 _atom_site_fract_y
 _atom_site_fract_z
 _atom_site_occupancy
  Th  Th0  1  0.427793  0.036849  0.000000  1
  Th  Th1  1  0.609056  0.572207  0.000000  1
  Th  Th2  1  0.963151  0.390944  0.000000  1
  Cd  Cd3  1  0.728349  0.986323  0.500000  1
  Cd  Cd4  1  0.257974  0.271651  0.500000  1
  Cd  Cd5  1  0.013677  0.742026  0.500000  1
  Cd  Cd6  1  0.333333  0.666667  0.500000  1
  Cd  Cd7  1  0.000000  0.000000  0.000000  1
  Ir  Ir8  1  0.666667  0.333333  0.500000  1
