# generated using pymatgen
data_DyCr2(BiO4)3
_symmetry_space_group_name_H-M   'P 1'
_cell_length_a   10.21091896
_cell_length_b   10.21091810
_cell_length_c   5.54421202
_cell_angle_alpha   78.71449140
_cell_angle_beta   78.71449170
_cell_angle_gamma   71.13885182
_symmetry_Int_Tables_number   1
_chemical_formula_structural   DyCr2(BiO4)3
_chemical_formula_sum   'Dy2 Cr4 Bi6 O24'
_cell_volume   530.94905474
_cell_formula_units_Z   2
loop_
 _symmetry_equiv_pos_site_id
 _symmetry_equiv_pos_as_xyz
  1  'x, y, z'
loop_
 _atom_site_type_symbol
 _atom_site_label
 _atom_site_symmetry_multiplicity
 _atom_site_fract_x
 _atom_site_fract_y
 _atom_site_fract_z
 _atom_site_occupancy
  Dy  Dy0  1  0.095043  0.904957  0.750000  1
  Dy  Dy1  1  0.904957  0.095043  0.250000  1
  Cr  Cr2  1  0.538376  0.799029  0.556699  1
  Cr  Cr3  1  0.461624  0.200971  0.443301  1
  Cr  Cr4  1  0.200971  0.461624  0.943301  1
  Cr  Cr5  1  0.799029  0.538376  0.056699  1
  Bi  Bi6  1  0.721332  0.950369  0.931305  1
  Bi  Bi7  1  0.278668  0.049631  0.068695  1
  Bi  Bi8  1  0.049631  0.278668  0.568695  1
  Bi  Bi9  1  0.950369  0.721332  0.431305  1
  Bi  Bi10  1  0.666082  0.333918  0.750000  1
  Bi  Bi11  1  0.333918  0.666082  0.250000  1
  O  O12  1  0.550937  0.641922  0.704369  1
  O  O13  1  0.449063  0.358078  0.295631  1
  O  O14  1  0.358078  0.449063  0.795631  1
  O  O15  1  0.641922  0.550937  0.204369  1
  O  O16  1  0.885996  0.930352  0.593208  1
  O  O17  1  0.114004  0.069648  0.406792  1
  O  O18  1  0.069648  0.114004  0.906792  1
  O  O19  1  0.930352  0.885996  0.093208  1
  O  O20  1  0.596700  0.160004  0.617551  1
  O  O21  1  0.403300  0.839996  0.382449  1
  O  O22  1  0.839996  0.403300  0.882449  1
  O  O23  1  0.160004  0.596700  0.117551  1
  O  O24  1  0.310708  0.195183  0.627865  1
  O  O25  1  0.689292  0.804817  0.372135  1
  O  O26  1  0.804817  0.689292  0.872135  1
  O  O27  1  0.195183  0.310708  0.127865  1
  O  O28  1  0.743616  0.151735  0.005075  1
  O  O29  1  0.256384  0.848265  0.994925  1
  O  O30  1  0.848265  0.256384  0.494925  1
  O  O31  1  0.151735  0.743616  0.505075  1
  O  O32  1  0.507040  0.908128  0.761574  1
  O  O33  1  0.492960  0.091872  0.238426  1
  O  O34  1  0.091872  0.492960  0.738426  1
  O  O35  1  0.908128  0.507040  0.261574  1
