# generated using pymatgen
data_Dy14Ho2MgHg3Rh4
_symmetry_space_group_name_H-M   'P 1'
_cell_length_a   9.62823796
_cell_length_b   9.59372692
_cell_length_c   9.60481900
_cell_angle_alpha   59.96174304
_cell_angle_beta   60.08042451
_cell_angle_gamma   60.02891711
_symmetry_Int_Tables_number   1
_chemical_formula_structural   Dy14Ho2MgHg3Rh4
_chemical_formula_sum   'Dy14 Ho2 Mg1 Hg3 Rh4'
_cell_volume   627.68338626
_cell_formula_units_Z   1
loop_
 _symmetry_equiv_pos_site_id
 _symmetry_equiv_pos_as_xyz
  1  'x, y, z'
loop_
 _atom_site_type_symbol
 _atom_site_label
 _atom_site_symmetry_multiplicity
 _atom_site_fract_x
 _atom_site_fract_y
 _atom_site_fract_z
 _atom_site_occupancy
  Dy  Dy0  1  0.808599  0.190132  0.191159  1
  Dy  Dy1  1  0.185814  0.811884  0.812883  1
  Dy  Dy2  1  0.185814  0.811884  0.189419  1
  Dy  Dy3  1  0.808599  0.190132  0.810111  1
  Dy  Dy4  1  0.186888  0.188479  0.812316  1
  Dy  Dy5  1  0.808187  0.809587  0.191114  1
  Dy  Dy6  1  0.935847  0.563061  0.563379  1
  Dy  Dy7  1  0.561968  0.937299  0.935998  1
  Dy  Dy8  1  0.561968  0.937299  0.564734  1
  Dy  Dy9  1  0.935847  0.563061  0.937713  1
  Dy  Dy10  1  0.562798  0.564668  0.936267  1
  Dy  Dy11  1  0.935306  0.938349  0.563172  1
  Dy  Dy12  1  0.350629  0.348240  0.346956  1
  Dy  Dy13  1  0.350629  0.348240  0.954174  1
  Ho  Ho14  1  0.352304  0.953003  0.347347  1
  Ho  Ho15  1  0.941900  0.353112  0.352494  1
  Mg  Mg16  1  0.283222  0.572991  0.571894  1
  Hg  Hg17  1  0.582382  0.586508  0.586427  1
  Hg  Hg18  1  0.582382  0.586508  0.244683  1
  Hg  Hg19  1  0.582689  0.243291  0.587010  1
  Rh  Rh20  1  0.140936  0.143946  0.143545  1
  Rh  Rh21  1  0.140936  0.143946  0.571573  1
  Rh  Rh22  1  0.141052  0.571865  0.143542  1
  Rh  Rh23  1  0.573305  0.142517  0.142089  1
