# generated using pymatgen
data_Y2HoEr7Cd3Ru
_symmetry_space_group_name_H-M   'P 1'
_cell_length_a   9.53782557
_cell_length_b   9.56354259
_cell_length_c   9.78423000
_cell_angle_alpha   90.00000000
_cell_angle_beta   90.00000000
_cell_angle_gamma   120.08922919
_symmetry_Int_Tables_number   1
_chemical_formula_structural   Y2HoEr7Cd3Ru
_chemical_formula_sum   'Y4 Ho2 Er14 Cd6 Ru2'
_cell_volume   772.20794507
_cell_formula_units_Z   2
loop_
 _symmetry_equiv_pos_site_id
 _symmetry_equiv_pos_as_xyz
  1  'x, y, z'
loop_
 _atom_site_type_symbol
 _atom_site_label
 _atom_site_symmetry_multiplicity
 _atom_site_fract_x
 _atom_site_fract_y
 _atom_site_fract_z
 _atom_site_occupancy
  Y  Y0  1  0.917438  0.458720  0.250000  1
  Y  Y1  1  0.459488  0.540479  0.750000  1
  Y  Y2  1  0.459488  0.919008  0.750000  1
  Y  Y3  1  0.080626  0.540312  0.750000  1
  Ho  Ho4  1  0.540092  0.459321  0.250000  1
  Ho  Ho5  1  0.540092  0.080772  0.250000  1
  Er  Er6  1  0.000320  0.000160  0.500097  1
  Er  Er7  1  0.000320  0.000160  0.999903  1
  Er  Er8  1  0.210195  0.790469  0.439871  1
  Er  Er9  1  0.210195  0.419728  0.439871  1
  Er  Er10  1  0.580386  0.790194  0.439854  1
  Er  Er11  1  0.789648  0.209476  0.559610  1
  Er  Er12  1  0.789648  0.580170  0.559610  1
  Er  Er13  1  0.420357  0.210177  0.559119  1
  Er  Er14  1  0.789648  0.209476  0.940390  1
  Er  Er15  1  0.789648  0.580170  0.940390  1
  Er  Er16  1  0.420357  0.210177  0.940881  1
  Er  Er17  1  0.210195  0.790469  0.060129  1
  Er  Er18  1  0.210195  0.419728  0.060129  1
  Er  Er19  1  0.580386  0.790194  0.060146  1
  Cd  Cd20  1  0.885805  0.114162  0.250000  1
  Cd  Cd21  1  0.885805  0.771644  0.250000  1
  Cd  Cd22  1  0.228911  0.114456  0.250000  1
  Cd  Cd23  1  0.114229  0.885583  0.750000  1
  Cd  Cd24  1  0.114229  0.228645  0.750000  1
  Cd  Cd25  1  0.771559  0.885779  0.750000  1
  Ru  Ru26  1  0.334017  0.667009  0.250000  1
  Ru  Ru27  1  0.666721  0.333360  0.750000  1
