# generated using pymatgen
data_TbDy9Ho6(In3Co)2
_symmetry_space_group_name_H-M   'P 1'
_cell_length_a   10.39257815
_cell_length_b   10.37828739
_cell_length_c   7.02677001
_cell_angle_alpha   89.99473097
_cell_angle_beta   90.00550162
_cell_angle_gamma   120.02666423
_symmetry_Int_Tables_number   1
_chemical_formula_structural   TbDy9Ho6(In3Co)2
_chemical_formula_sum   'Tb1 Dy9 Ho6 In6 Co2'
_cell_volume   656.17338092
_cell_formula_units_Z   1
loop_
 _symmetry_equiv_pos_site_id
 _symmetry_equiv_pos_as_xyz
  1  'x, y, z'
loop_
 _atom_site_type_symbol
 _atom_site_label
 _atom_site_symmetry_multiplicity
 _atom_site_fract_x
 _atom_site_fract_y
 _atom_site_fract_z
 _atom_site_occupancy
  Tb  Tb0  1  0.535406  0.070699  0.503914  1
  Dy  Dy1  1  0.929074  0.464317  0.504691  1
  Dy  Dy2  1  0.535248  0.464341  0.504677  1
  Dy  Dy3  1  0.464640  0.929342  0.004921  1
  Dy  Dy4  1  0.070770  0.535171  0.005199  1
  Dy  Dy5  1  0.464360  0.535152  0.005199  1
  Dy  Dy6  1  0.178108  0.356124  0.712475  1
  Dy  Dy7  1  0.644089  0.821832  0.712643  1
  Dy  Dy8  1  0.177744  0.821849  0.712652  1
  Dy  Dy9  1  0.822021  0.644109  0.212673  1
  Ho  Ho10  1  0.356020  0.178173  0.211838  1
  Ho  Ho11  1  0.822140  0.178144  0.211837  1
  Ho  Ho12  1  0.666715  0.333367  0.897058  1
  Ho  Ho13  1  0.333227  0.666529  0.396197  1
  Ho  Ho14  1  0.000200  0.000427  0.492988  1
  Ho  Ho15  1  0.000149  0.000260  0.993864  1
  In  In16  1  0.836993  0.674002  0.752344  1
  In  In17  1  0.325784  0.163006  0.752768  1
  In  In18  1  0.837303  0.163016  0.752702  1
  In  In19  1  0.162668  0.325271  0.251996  1
  In  In20  1  0.674442  0.837536  0.251968  1
  In  In21  1  0.163031  0.837568  0.251933  1
  Co  Co22  1  0.666584  0.333172  0.280503  1
  Co  Co23  1  0.333286  0.666595  0.781003  1
