# generated using pymatgen
data_RuPt3Pb4O13
_symmetry_space_group_name_H-M   'P 1'
_cell_length_a   7.38149944
_cell_length_b   7.38634266
_cell_length_c   7.38634400
_cell_angle_alpha   60.00000297
_cell_angle_beta   59.97829597
_cell_angle_gamma   59.97828298
_symmetry_Int_Tables_number   1
_chemical_formula_structural   RuPt3Pb4O13
_chemical_formula_sum   'Ru1 Pt3 Pb4 O13'
_cell_volume   284.67281142
_cell_formula_units_Z   1
loop_
 _symmetry_equiv_pos_site_id
 _symmetry_equiv_pos_as_xyz
  1  'x, y, z'
loop_
 _atom_site_type_symbol
 _atom_site_label
 _atom_site_symmetry_multiplicity
 _atom_site_fract_x
 _atom_site_fract_y
 _atom_site_fract_z
 _atom_site_occupancy
  Ru  Ru0  1  0.374402  0.875199  0.875199  1
  Pt  Pt1  1  0.873503  0.376994  0.874751  1
  Pt  Pt2  1  0.873503  0.874751  0.376994  1
  Pt  Pt3  1  0.873503  0.874751  0.874751  1
  Pb  Pb4  1  0.891327  0.369558  0.369558  1
  Pb  Pb5  1  0.375386  0.372418  0.372418  1
  Pb  Pb6  1  0.375386  0.372418  0.879780  1
  Pb  Pb7  1  0.375386  0.879780  0.372418  1
  O  O8  1  0.204144  0.798672  0.798672  1
  O  O9  1  0.204144  0.798672  0.198511  1
  O  O10  1  0.545686  0.949639  0.949639  1
  O  O11  1  0.545686  0.949639  0.555036  1
  O  O12  1  0.953964  0.952993  0.546521  1
  O  O13  1  0.790671  0.795321  0.207004  1
  O  O14  1  0.545686  0.555036  0.949639  1
  O  O15  1  0.790671  0.207004  0.795321  1
  O  O16  1  0.790671  0.207004  0.207004  1
  O  O17  1  0.953964  0.546521  0.952993  1
  O  O18  1  0.953964  0.546521  0.546521  1
  O  O19  1  0.204144  0.198511  0.798672  1
  O  O20  1  0.504208  0.498598  0.498598  1
