# generated using pymatgen
data_TbDy(Y2Ru)4
_symmetry_space_group_name_H-M   'P 1'
_cell_length_a   8.51361929
_cell_length_b   8.51361890
_cell_length_c   7.30233637
_cell_angle_alpha   83.18772735
_cell_angle_beta   83.18772708
_cell_angle_gamma   44.16572519
_symmetry_Int_Tables_number   1
_chemical_formula_structural   TbDy(Y2Ru)4
_chemical_formula_sum   'Tb1 Dy1 Y8 Ru4'
_cell_volume   365.73875241
_cell_formula_units_Z   1
loop_
 _symmetry_equiv_pos_site_id
 _symmetry_equiv_pos_as_xyz
  1  'x, y, z'
loop_
 _atom_site_type_symbol
 _atom_site_label
 _atom_site_symmetry_multiplicity
 _atom_site_fract_x
 _atom_site_fract_y
 _atom_site_fract_z
 _atom_site_occupancy
  Tb  Tb0  1  0.577616  0.422384  0.750000  1
  Dy  Dy1  1  0.422848  0.577152  0.250000  1
  Y  Y2  1  0.207907  0.979024  0.584872  1
  Y  Y3  1  0.020976  0.792093  0.915128  1
  Y  Y4  1  0.206158  0.359098  0.314265  1
  Y  Y5  1  0.640902  0.793842  0.185735  1
  Y  Y6  1  0.793830  0.641119  0.685593  1
  Y  Y7  1  0.358881  0.206170  0.814407  1
  Y  Y8  1  0.979250  0.207668  0.085187  1
  Y  Y9  1  0.792332  0.020750  0.414813  1
  Ru  Ru10  1  0.177361  0.603226  0.574297  1
  Ru  Ru11  1  0.396774  0.822639  0.925703  1
  Ru  Ru12  1  0.822367  0.397201  0.425291  1
  Ru  Ru13  1  0.602799  0.177633  0.074709  1
