# generated using pymatgen
data_Y3Er3Th2(ZnCo)2
_symmetry_space_group_name_H-M   'P 1'
_cell_length_a   9.42036973
_cell_length_b   9.42036942
_cell_length_c   9.42037100
_cell_angle_alpha   60.00000498
_cell_angle_beta   60.00000608
_cell_angle_gamma   60.00000701
_symmetry_Int_Tables_number   1
_chemical_formula_structural   Y3Er3Th2(ZnCo)2
_chemical_formula_sum   'Y6 Er6 Th4 Zn4 Co4'
_cell_volume   591.13809888
_cell_formula_units_Z   2
loop_
 _symmetry_equiv_pos_site_id
 _symmetry_equiv_pos_as_xyz
  1  'x, y, z'
loop_
 _atom_site_type_symbol
 _atom_site_label
 _atom_site_symmetry_multiplicity
 _atom_site_fract_x
 _atom_site_fract_y
 _atom_site_fract_z
 _atom_site_occupancy
  Y  Y0  1  0.936236  0.563764  0.563764  1
  Y  Y1  1  0.563764  0.936236  0.936236  1
  Y  Y2  1  0.563764  0.936236  0.563764  1
  Y  Y3  1  0.936236  0.563764  0.936236  1
  Y  Y4  1  0.563764  0.563764  0.936236  1
  Y  Y5  1  0.936236  0.936236  0.563764  1
  Er  Er6  1  0.811928  0.188072  0.188072  1
  Er  Er7  1  0.188072  0.811928  0.811928  1
  Er  Er8  1  0.188072  0.811928  0.188072  1
  Er  Er9  1  0.811928  0.188072  0.811928  1
  Er  Er10  1  0.188072  0.188072  0.811928  1
  Er  Er11  1  0.811928  0.811928  0.188072  1
  Th  Th12  1  0.349162  0.349162  0.349162  1
  Th  Th13  1  0.349162  0.349162  0.952515  1
  Th  Th14  1  0.349162  0.952515  0.349162  1
  Th  Th15  1  0.952515  0.349162  0.349162  1
  Zn  Zn16  1  0.579518  0.579518  0.579518  1
  Zn  Zn17  1  0.579518  0.579518  0.261445  1
  Zn  Zn18  1  0.579518  0.261445  0.579518  1
  Zn  Zn19  1  0.261445  0.579518  0.579518  1
  Co  Co20  1  0.144428  0.144428  0.144428  1
  Co  Co21  1  0.144428  0.144428  0.566715  1
  Co  Co22  1  0.144428  0.566715  0.144428  1
  Co  Co23  1  0.566715  0.144428  0.144428  1
