# generated using pymatgen
data_LiH6F7
_symmetry_space_group_name_H-M   'P 1'
_cell_length_a   3.16930147
_cell_length_b   6.88456792
_cell_length_c   7.13706985
_cell_angle_alpha   70.09977521
_cell_angle_beta   82.99444557
_cell_angle_gamma   85.07535365
_symmetry_Int_Tables_number   1
_chemical_formula_structural   LiH6F7
_chemical_formula_sum   'Li1 H6 F7'
_cell_volume   145.16956121
_cell_formula_units_Z   1
loop_
 _symmetry_equiv_pos_site_id
 _symmetry_equiv_pos_as_xyz
  1  'x, y, z'
loop_
 _atom_site_type_symbol
 _atom_site_label
 _atom_site_symmetry_multiplicity
 _atom_site_fract_x
 _atom_site_fract_y
 _atom_site_fract_z
 _atom_site_occupancy
  Li  Li0  1  0.615465  0.868710  0.393551  1
  H  H1  1  0.078943  0.403782  0.938084  1
  H  H2  1  0.159166  0.919846  0.053814  1
  H  H3  1  0.529340  0.473316  0.564998  1
  H  H4  1  0.243447  0.172993  0.793262  1
  H  H5  1  0.729812  0.284281  0.244043  1
  H  H6  1  0.103368  0.897163  0.699572  1
  F  F7  1  0.583055  0.178318  0.353956  1
  F  F8  1  0.170010  0.988810  0.842991  1
  F  F9  1  0.149553  0.900884  0.198946  1
  F  F10  1  0.083180  0.831988  0.596485  1
  F  F11  1  0.687879  0.565084  0.449389  1
  F  F12  1  0.301973  0.332396  0.770010  1
  F  F13  1  0.928182  0.447538  0.046164  1
