# generated using pymatgen
data_TbTmTh(Co3P2)3
_symmetry_space_group_name_H-M   'P 1'
_cell_length_a   3.73401300
_cell_length_b   10.55099100
_cell_length_c   12.22341600
_cell_angle_alpha   90.00000000
_cell_angle_beta   90.00000000
_cell_angle_gamma   90.00000000
_symmetry_Int_Tables_number   1
_chemical_formula_structural   TbTmTh(Co3P2)3
_chemical_formula_sum   'Tb2 Tm2 Th2 Co18 P12'
_cell_volume   481.57249093
_cell_formula_units_Z   2
loop_
 _symmetry_equiv_pos_site_id
 _symmetry_equiv_pos_as_xyz
  1  'x, y, z'
loop_
 _atom_site_type_symbol
 _atom_site_label
 _atom_site_symmetry_multiplicity
 _atom_site_fract_x
 _atom_site_fract_y
 _atom_site_fract_z
 _atom_site_occupancy
  Tb  Tb0  1  0.000000  0.684158  0.796064  1
  Tb  Tb1  1  0.000000  0.315842  0.796064  1
  Tm  Tm2  1  0.500000  0.816141  0.204047  1
  Tm  Tm3  1  0.500000  0.183859  0.204047  1
  Th  Th4  1  0.000000  0.500000  0.524749  1
  Th  Th5  1  0.500000  0.000000  0.474554  1
  Co  Co6  1  0.500000  0.500000  0.156179  1
  Co  Co7  1  0.000000  0.000000  0.844080  1
  Co  Co8  1  0.500000  0.500000  0.702893  1
  Co  Co9  1  0.000000  0.000000  0.296020  1
  Co  Co10  1  0.000000  0.500000  0.986878  1
  Co  Co11  1  0.500000  0.000000  0.015309  1
  Co  Co12  1  0.500000  0.333035  0.995766  1
  Co  Co13  1  0.500000  0.666965  0.995766  1
  Co  Co14  1  0.000000  0.165986  0.006248  1
  Co  Co15  1  0.000000  0.834014  0.006248  1
  Co  Co16  1  0.500000  0.298832  0.428560  1
  Co  Co17  1  0.500000  0.701168  0.428560  1
  Co  Co18  1  0.000000  0.200684  0.569950  1
  Co  Co19  1  0.000000  0.799316  0.569950  1
  Co  Co20  1  0.500000  0.880520  0.712907  1
  Co  Co21  1  0.500000  0.119480  0.712907  1
  Co  Co22  1  0.000000  0.620414  0.286350  1
  Co  Co23  1  0.000000  0.379586  0.286350  1
  P  P24  1  0.500000  0.500000  0.883193  1
  P  P25  1  0.000000  0.000000  0.118671  1
  P  P26  1  0.500000  0.500000  0.338453  1
  P  P27  1  0.000000  0.000000  0.661291  1
  P  P28  1  0.500000  0.305340  0.617752  1
  P  P29  1  0.500000  0.694660  0.617752  1
  P  P30  1  0.000000  0.193838  0.380154  1
  P  P31  1  0.000000  0.806162  0.380154  1
  P  P32  1  0.500000  0.847426  0.895512  1
  P  P33  1  0.500000  0.152574  0.895512  1
  P  P34  1  0.000000  0.654233  0.105557  1
  P  P35  1  0.000000  0.345767  0.105557  1
