# generated using pymatgen
data_Lu3In3Te2WO18
_symmetry_space_group_name_H-M   'P 1'
_cell_length_a   9.02063700
_cell_length_b   9.02063792
_cell_length_c   5.01816400
_cell_angle_alpha   90.00000000
_cell_angle_beta   90.00000000
_cell_angle_gamma   120.00000762
_symmetry_Int_Tables_number   1
_chemical_formula_structural   Lu3In3Te2WO18
_chemical_formula_sum   'Lu3 In3 Te2 W1 O18'
_cell_volume   353.63065603
_cell_formula_units_Z   1
loop_
 _symmetry_equiv_pos_site_id
 _symmetry_equiv_pos_as_xyz
  1  'x, y, z'
loop_
 _atom_site_type_symbol
 _atom_site_label
 _atom_site_symmetry_multiplicity
 _atom_site_fract_x
 _atom_site_fract_y
 _atom_site_fract_z
 _atom_site_occupancy
  Lu  Lu0  1  0.627826  0.000000  0.000000  1
  Lu  Lu1  1  0.000000  0.627826  0.000000  1
  Lu  Lu2  1  0.372174  0.372174  0.000000  1
  In  In3  1  0.292463  0.000000  0.500000  1
  In  In4  1  0.000000  0.292463  0.500000  1
  In  In5  1  0.707537  0.707537  0.500000  1
  Te  Te6  1  0.333333  0.666667  0.505768  1
  Te  Te7  1  0.666667  0.333333  0.494232  1
  W  W8  1  0.000000  0.000000  0.000000  1
  O  O9  1  0.087534  0.880848  0.784167  1
  O  O10  1  0.119152  0.206686  0.784167  1
  O  O11  1  0.793314  0.912466  0.784167  1
  O  O12  1  0.206686  0.119152  0.215833  1
  O  O13  1  0.912466  0.793314  0.215833  1
  O  O14  1  0.880848  0.087534  0.215833  1
  O  O15  1  0.458886  0.588601  0.726454  1
  O  O16  1  0.411399  0.870284  0.726454  1
  O  O17  1  0.129716  0.541114  0.726454  1
  O  O18  1  0.870284  0.411399  0.273546  1
  O  O19  1  0.541114  0.129716  0.273546  1
  O  O20  1  0.588601  0.458886  0.273546  1
  O  O21  1  0.221683  0.761573  0.284597  1
  O  O22  1  0.238427  0.460109  0.284597  1
  O  O23  1  0.539891  0.778317  0.284597  1
  O  O24  1  0.460109  0.238427  0.715403  1
  O  O25  1  0.778317  0.539891  0.715403  1
  O  O26  1  0.761573  0.221683  0.715403  1
