# generated using pymatgen
data_Ho10IrOs2Rh3
_symmetry_space_group_name_H-M   'P 1'
_cell_length_a   10.82268706
_cell_length_b   10.82280500
_cell_length_c   6.37700404
_cell_angle_alpha   90.00000000
_cell_angle_beta   90.01248447
_cell_angle_gamma   90.00000000
_symmetry_Int_Tables_number   1
_chemical_formula_structural   Ho10IrOs2Rh3
_chemical_formula_sum   'Ho20 Ir2 Os4 Rh6'
_cell_volume   746.95014580
_cell_formula_units_Z   2
loop_
 _symmetry_equiv_pos_site_id
 _symmetry_equiv_pos_as_xyz
  1  'x, y, z'
loop_
 _atom_site_type_symbol
 _atom_site_label
 _atom_site_symmetry_multiplicity
 _atom_site_fract_x
 _atom_site_fract_y
 _atom_site_fract_z
 _atom_site_occupancy
  Ho  Ho0  1  0.294464  0.086972  0.376155  1
  Ho  Ho1  1  0.294464  0.913028  0.876155  1
  Ho  Ho2  1  0.705537  0.086017  0.876141  1
  Ho  Ho3  1  0.705537  0.913983  0.376141  1
  Ho  Ho4  1  0.584929  0.794010  0.876189  1
  Ho  Ho5  1  0.584929  0.205990  0.376189  1
  Ho  Ho6  1  0.413398  0.793915  0.377182  1
  Ho  Ho7  1  0.413398  0.206085  0.877182  1
  Ho  Ho8  1  0.206705  0.414630  0.623040  1
  Ho  Ho9  1  0.206705  0.585370  0.123040  1
  Ho  Ho10  1  0.794642  0.413801  0.123593  1
  Ho  Ho11  1  0.794642  0.586199  0.623593  1
  Ho  Ho12  1  0.914051  0.705601  0.123625  1
  Ho  Ho13  1  0.914051  0.294399  0.623625  1
  Ho  Ho14  1  0.087081  0.705467  0.624081  1
  Ho  Ho15  1  0.087081  0.294533  0.124081  1
  Ho  Ho16  1  0.999964  0.000005  0.500001  1
  Ho  Ho17  1  0.999964  0.999995  0.000001  1
  Ho  Ho18  1  0.499524  0.500075  0.999990  1
  Ho  Ho19  1  0.499524  0.499925  0.499990  1
  Ir  Ir20  1  0.347954  0.347558  0.249911  1
  Ir  Ir21  1  0.347954  0.652442  0.749911  1
  Os  Os22  1  0.500506  0.999938  0.122979  1
  Os  Os23  1  0.500506  0.000062  0.622979  1
  Os  Os24  1  0.999145  0.499970  0.877044  1
  Os  Os25  1  0.999145  0.500030  0.377044  1
  Rh  Rh26  1  0.848071  0.151904  0.249916  1
  Rh  Rh27  1  0.848071  0.848096  0.749916  1
  Rh  Rh28  1  0.151613  0.151616  0.750073  1
  Rh  Rh29  1  0.151613  0.848384  0.250073  1
  Rh  Rh30  1  0.652417  0.347960  0.750080  1
  Rh  Rh31  1  0.652417  0.652040  0.250080  1
