# generated using pymatgen
data_HoTm3Co18(CuP6)2
_symmetry_space_group_name_H-M   'P 1'
_cell_length_a   3.65763100
_cell_length_b   10.24536980
_cell_length_c   11.77505693
_cell_angle_alpha   89.95466021
_cell_angle_beta   90.00000000
_cell_angle_gamma   90.00000000
_symmetry_Int_Tables_number   1
_chemical_formula_structural   HoTm3Co18(CuP6)2
_chemical_formula_sum   'Ho1 Tm3 Co18 Cu2 P12'
_cell_volume   441.25578025
_cell_formula_units_Z   1
loop_
 _symmetry_equiv_pos_site_id
 _symmetry_equiv_pos_as_xyz
  1  'x, y, z'
loop_
 _atom_site_type_symbol
 _atom_site_label
 _atom_site_symmetry_multiplicity
 _atom_site_fract_x
 _atom_site_fract_y
 _atom_site_fract_z
 _atom_site_occupancy
  Ho  Ho0  1  0.750000  0.081332  0.796863  1
  Tm  Tm1  1  0.250000  0.578789  0.701757  1
  Tm  Tm2  1  0.250000  0.921087  0.201842  1
  Tm  Tm3  1  0.750000  0.419021  0.297098  1
  Co  Co4  1  0.750000  0.286889  0.008436  1
  Co  Co5  1  0.750000  0.213277  0.508326  1
  Co  Co6  1  0.250000  0.405274  0.486310  1
  Co  Co7  1  0.250000  0.094750  0.987268  1
  Co  Co8  1  0.750000  0.592179  0.516005  1
  Co  Co9  1  0.750000  0.907477  0.016245  1
  Co  Co10  1  0.250000  0.223326  0.175612  1
  Co  Co11  1  0.250000  0.277403  0.675201  1
  Co  Co12  1  0.750000  0.777582  0.826038  1
  Co  Co13  1  0.750000  0.722189  0.325966  1
  Co  Co14  1  0.250000  0.881322  0.698936  1
  Co  Co15  1  0.250000  0.618048  0.199352  1
  Co  Co16  1  0.750000  0.120344  0.299577  1
  Co  Co17  1  0.750000  0.380295  0.799720  1
  Co  Co18  1  0.250000  0.465170  0.931304  1
  Co  Co19  1  0.250000  0.035190  0.430699  1
  Co  Co20  1  0.750000  0.534618  0.066911  1
  Co  Co21  1  0.750000  0.965138  0.566190  1
  Cu  Cu22  1  0.250000  0.709534  0.990771  1
  Cu  Cu23  1  0.250000  0.789466  0.490795  1
  P  P24  1  0.250000  0.420638  0.112601  1
  P  P25  1  0.250000  0.079528  0.611692  1
  P  P26  1  0.750000  0.576229  0.883323  1
  P  P27  1  0.750000  0.923827  0.383015  1
  P  P28  1  0.250000  0.268588  0.868064  1
  P  P29  1  0.250000  0.232343  0.367623  1
  P  P30  1  0.750000  0.731074  0.138871  1
  P  P31  1  0.750000  0.768814  0.638836  1
  P  P32  1  0.250000  0.598713  0.391401  1
  P  P33  1  0.250000  0.900528  0.891828  1
  P  P34  1  0.750000  0.396837  0.607742  1
  P  P35  1  0.750000  0.103182  0.107785  1
