# generated using pymatgen
data_Pr8Sc12Ga3Si12Ge
_symmetry_space_group_name_H-M   'P 1'
_cell_length_a   7.29629401
_cell_length_b   7.57830441
_cell_length_c   14.38651900
_cell_angle_alpha   89.98270841
_cell_angle_beta   90.06372587
_cell_angle_gamma   90.18335857
_symmetry_Int_Tables_number   1
_chemical_formula_structural   Pr8Sc12Ga3Si12Ge
_chemical_formula_sum   'Pr8 Sc12 Ga3 Si12 Ge1'
_cell_volume   795.47692036
_cell_formula_units_Z   1
loop_
 _symmetry_equiv_pos_site_id
 _symmetry_equiv_pos_as_xyz
  1  'x, y, z'
loop_
 _atom_site_type_symbol
 _atom_site_label
 _atom_site_symmetry_multiplicity
 _atom_site_fract_x
 _atom_site_fract_y
 _atom_site_fract_z
 _atom_site_occupancy
  Pr  Pr0  1  0.011948  0.171834  0.401620  1
  Pr  Pr1  1  0.513727  0.326398  0.400995  1
  Pr  Pr2  1  0.489267  0.670921  0.900637  1
  Pr  Pr3  1  0.490790  0.674218  0.597596  1
  Pr  Pr4  1  0.985653  0.828095  0.597831  1
  Pr  Pr5  1  0.986858  0.828331  0.899993  1
  Pr  Pr6  1  0.510463  0.326003  0.099359  1
  Pr  Pr7  1  0.010675  0.173873  0.099318  1
  Sc  Sc8  1  0.332408  0.175009  0.625842  1
  Sc  Sc9  1  0.669994  0.824114  0.374919  1
  Sc  Sc10  1  0.663460  0.003530  0.749695  1
  Sc  Sc11  1  0.172059  0.676965  0.374256  1
  Sc  Sc12  1  0.829914  0.322612  0.873530  1
  Sc  Sc13  1  0.826316  0.324305  0.625091  1
  Sc  Sc14  1  0.838870  0.501906  0.252128  1
  Sc  Sc15  1  0.338702  0.997576  0.251779  1
  Sc  Sc16  1  0.329941  0.177725  0.873664  1
  Sc  Sc17  1  0.170411  0.673730  0.126664  1
  Sc  Sc18  1  0.670603  0.826406  0.126558  1
  Sc  Sc19  1  0.159123  0.495400  0.751385  1
  Ga  Ga20  1  0.155320  0.459879  0.539504  1
  Ga  Ga21  1  0.845241  0.540971  0.038988  1
  Ga  Ga22  1  0.345032  0.959212  0.039020  1
  Si  Si23  1  0.466062  0.624999  0.250492  1
  Si  Si24  1  0.031675  0.129394  0.749732  1
  Si  Si25  1  0.533430  0.376048  0.749273  1
  Si  Si26  1  0.965776  0.874867  0.250613  1
  Si  Si27  1  0.711936  0.117161  0.250683  1
  Si  Si28  1  0.152837  0.460934  0.959866  1
  Si  Si29  1  0.650438  0.037927  0.538835  1
  Si  Si30  1  0.349285  0.962259  0.460779  1
  Si  Si31  1  0.847592  0.539306  0.460181  1
  Si  Si32  1  0.789149  0.617646  0.749638  1
  Si  Si33  1  0.211893  0.382549  0.250864  1
  Si  Si34  1  0.652395  0.039504  0.959365  1
  Ge  Ge35  1  0.290760  0.878391  0.749307  1
