# generated using pymatgen
data_In2BPtRh5
_symmetry_space_group_name_H-M   'P 1'
_cell_length_a   5.78580379
_cell_length_b   5.73690608
_cell_length_c   5.73690618
_cell_angle_alpha   60.56470412
_cell_angle_beta   59.71765007
_cell_angle_gamma   59.71765781
_symmetry_Int_Tables_number   1
_chemical_formula_structural   In2BPtRh5
_chemical_formula_sum   'In2 B1 Pt1 Rh5'
_cell_volume   134.62960853
_cell_formula_units_Z   1
loop_
 _symmetry_equiv_pos_site_id
 _symmetry_equiv_pos_as_xyz
  1  'x, y, z'
loop_
 _atom_site_type_symbol
 _atom_site_label
 _atom_site_symmetry_multiplicity
 _atom_site_fract_x
 _atom_site_fract_y
 _atom_site_fract_z
 _atom_site_occupancy
  In  In0  1  0.249696  0.250304  0.250304  1
  In  In1  1  0.749696  0.750304  0.750304  1
  B  B2  1  0.503735  0.496263  0.496263  1
  Pt  Pt3  1  0.239785  0.760214  0.760214  1
  Rh  Rh4  1  0.243964  0.756035  0.245039  1
  Rh  Rh5  1  0.754960  0.756035  0.245039  1
  Rh  Rh6  1  0.759237  0.240762  0.240762  1
  Rh  Rh7  1  0.243964  0.245039  0.756035  1
  Rh  Rh8  1  0.754960  0.245039  0.756035  1
