# generated using pymatgen
data_Dy4Tm3Lu(ReB6)4
_symmetry_space_group_name_H-M   'P 1'
_cell_length_a   3.65319200
_cell_length_b   9.12471400
_cell_length_c   11.50896100
_cell_angle_alpha   90.00226034
_cell_angle_beta   90.00000000
_cell_angle_gamma   90.00000000
_symmetry_Int_Tables_number   1
_chemical_formula_structural   Dy4Tm3Lu(ReB6)4
_chemical_formula_sum   'Dy4 Tm3 Lu1 Re4 B24'
_cell_volume   383.64352895
_cell_formula_units_Z   1
loop_
 _symmetry_equiv_pos_site_id
 _symmetry_equiv_pos_as_xyz
  1  'x, y, z'
loop_
 _atom_site_type_symbol
 _atom_site_label
 _atom_site_symmetry_multiplicity
 _atom_site_fract_x
 _atom_site_fract_y
 _atom_site_fract_z
 _atom_site_occupancy
  Dy  Dy0  1  0.000000  0.323269  0.414009  1
  Dy  Dy1  1  0.000000  0.676765  0.586159  1
  Dy  Dy2  1  0.000000  0.823059  0.085944  1
  Dy  Dy3  1  0.000000  0.176821  0.913909  1
  Tm  Tm4  1  0.000000  0.943439  0.370165  1
  Tm  Tm5  1  0.000000  0.056502  0.630058  1
  Tm  Tm6  1  0.000000  0.443622  0.129497  1
  Lu  Lu7  1  0.000000  0.556649  0.869897  1
  Re  Re8  1  0.000000  0.639129  0.320050  1
  Re  Re9  1  0.000000  0.361175  0.680254  1
  Re  Re10  1  0.000000  0.139267  0.179740  1
  Re  Re11  1  0.000000  0.860290  0.820225  1
  B  B12  1  0.500000  0.553597  0.432684  1
  B  B13  1  0.500000  0.446490  0.567530  1
  B  B14  1  0.500000  0.053540  0.067256  1
  B  B15  1  0.500000  0.946041  0.932600  1
  B  B16  1  0.500000  0.750257  0.418328  1
  B  B17  1  0.500000  0.249845  0.581774  1
  B  B18  1  0.500000  0.250403  0.081563  1
  B  B19  1  0.500000  0.749064  0.918287  1
  B  B20  1  0.500000  0.792850  0.265278  1
  B  B21  1  0.500000  0.207378  0.734847  1
  B  B22  1  0.500000  0.292977  0.234637  1
  B  B23  1  0.500000  0.706717  0.765497  1
  B  B24  1  0.500000  0.630453  0.184966  1
  B  B25  1  0.500000  0.370048  0.815218  1
  B  B26  1  0.500000  0.130539  0.314935  1
  B  B27  1  0.500000  0.869256  0.685275  1
  B  B28  1  0.500000  0.982150  0.212415  1
  B  B29  1  0.500000  0.017586  0.787685  1
  B  B30  1  0.500000  0.482159  0.287518  1
  B  B31  1  0.500000  0.518079  0.712793  1
  B  B32  1  0.500000  0.598507  0.026738  1
  B  B33  1  0.500000  0.402072  0.972143  1
  B  B34  1  0.500000  0.098798  0.472639  1
  B  B35  1  0.500000  0.901207  0.527485  1
