# generated using pymatgen
data_Hf6Ga6PdRh5
_symmetry_space_group_name_H-M   'P 1'
_cell_length_a   7.19595600
_cell_length_b   7.19595539
_cell_length_c   6.85020200
_cell_angle_alpha   90.00000000
_cell_angle_beta   90.00000000
_cell_angle_gamma   120.00000279
_symmetry_Int_Tables_number   1
_chemical_formula_structural   Hf6Ga6PdRh5
_chemical_formula_sum   'Hf6 Ga6 Pd1 Rh5'
_cell_volume   307.19274835
_cell_formula_units_Z   1
loop_
 _symmetry_equiv_pos_site_id
 _symmetry_equiv_pos_as_xyz
  1  'x, y, z'
loop_
 _atom_site_type_symbol
 _atom_site_label
 _atom_site_symmetry_multiplicity
 _atom_site_fract_x
 _atom_site_fract_y
 _atom_site_fract_z
 _atom_site_occupancy
  Hf  Hf0  1  0.606843  0.601693  0.250000  1
  Hf  Hf1  1  0.005455  0.410252  0.750000  1
  Hf  Hf2  1  0.398307  0.005150  0.250000  1
  Hf  Hf3  1  0.994850  0.393157  0.250000  1
  Hf  Hf4  1  0.404797  0.994545  0.750000  1
  Hf  Hf5  1  0.589748  0.595203  0.750000  1
  Ga  Ga6  1  0.268435  0.268530  0.497971  1
  Ga  Ga7  1  0.731470  0.999905  0.497971  1
  Ga  Ga8  1  0.000095  0.731565  0.497971  1
  Ga  Ga9  1  0.731470  0.999905  0.002029  1
  Ga  Ga10  1  0.268435  0.268530  0.002029  1
  Ga  Ga11  1  0.000095  0.731565  0.002029  1
  Pd  Pd12  1  0.000000  0.000000  0.750000  1
  Rh  Rh13  1  0.333333  0.666667  0.493283  1
  Rh  Rh14  1  0.000000  0.000000  0.250000  1
  Rh  Rh15  1  0.333333  0.666667  0.006717  1
  Rh  Rh16  1  0.666667  0.333333  0.506212  1
  Rh  Rh17  1  0.666667  0.333333  0.993788  1
