# generated using pymatgen
data_Tb3Al10Si2Os3Ru
_symmetry_space_group_name_H-M   'P 1'
_cell_length_a   8.71021300
_cell_length_b   8.71021385
_cell_length_c   9.64685000
_cell_angle_alpha   90.00000000
_cell_angle_beta   90.00000000
_cell_angle_gamma   119.99999298
_symmetry_Int_Tables_number   1
_chemical_formula_structural   Tb3Al10Si2Os3Ru
_chemical_formula_sum   'Tb6 Al20 Si4 Os6 Ru2'
_cell_volume   633.83144515
_cell_formula_units_Z   2
loop_
 _symmetry_equiv_pos_site_id
 _symmetry_equiv_pos_as_xyz
  1  'x, y, z'
loop_
 _atom_site_type_symbol
 _atom_site_label
 _atom_site_symmetry_multiplicity
 _atom_site_fract_x
 _atom_site_fract_y
 _atom_site_fract_z
 _atom_site_occupancy
  Tb  Tb0  1  0.194868  0.389734  0.250000  1
  Tb  Tb1  1  0.805132  0.610266  0.750000  1
  Tb  Tb2  1  0.610266  0.805132  0.250000  1
  Tb  Tb3  1  0.389734  0.194868  0.750000  1
  Tb  Tb4  1  0.194868  0.805132  0.250000  1
  Tb  Tb5  1  0.805132  0.194868  0.750000  1
  Al  Al6  1  0.164787  0.329573  0.576908  1
  Al  Al7  1  0.835213  0.670427  0.423092  1
  Al  Al8  1  0.670427  0.835213  0.576908  1
  Al  Al9  1  0.835213  0.670427  0.076908  1
  Al  Al10  1  0.329573  0.164787  0.423092  1
  Al  Al11  1  0.164787  0.329573  0.923092  1
  Al  Al12  1  0.164787  0.835213  0.576908  1
  Al  Al13  1  0.329573  0.164787  0.076908  1
  Al  Al14  1  0.835213  0.164787  0.423092  1
  Al  Al15  1  0.670427  0.835213  0.923092  1
  Al  Al16  1  0.835213  0.164787  0.076908  1
  Al  Al17  1  0.164787  0.835213  0.923092  1
  Al  Al18  1  0.563785  0.127569  0.250000  1
  Al  Al19  1  0.436215  0.872431  0.750000  1
  Al  Al20  1  0.872431  0.436215  0.250000  1
  Al  Al21  1  0.127569  0.563785  0.750000  1
  Al  Al22  1  0.563785  0.436215  0.250000  1
  Al  Al23  1  0.436215  0.563785  0.750000  1
  Al  Al24  1  0.000000  0.000000  0.250000  1
  Al  Al25  1  0.000000  0.000000  0.750000  1
  Si  Si26  1  0.333333  0.666667  0.036370  1
  Si  Si27  1  0.666667  0.333333  0.963630  1
  Si  Si28  1  0.666667  0.333333  0.536370  1
  Si  Si29  1  0.333333  0.666667  0.463630  1
  Os  Os30  1  0.500000  0.000000  0.000000  1
  Os  Os31  1  0.000000  0.500000  0.000000  1
  Os  Os32  1  0.500000  0.000000  0.500000  1
  Os  Os33  1  0.500000  0.500000  0.000000  1
  Os  Os34  1  0.000000  0.500000  0.500000  1
  Os  Os35  1  0.500000  0.500000  0.500000  1
  Ru  Ru36  1  0.000000  0.000000  0.000000  1
  Ru  Ru37  1  0.000000  0.000000  0.500000  1
