# generated using pymatgen
data_UPa3(BeB4)4
_symmetry_space_group_name_H-M   'P 1'
_cell_length_a   6.71990127
_cell_length_b   6.71989640
_cell_length_c   6.71990431
_cell_angle_alpha   113.59271082
_cell_angle_beta   113.59291954
_cell_angle_gamma   101.50958248
_symmetry_Int_Tables_number   1
_chemical_formula_structural   UPa3(BeB4)4
_chemical_formula_sum   'U1 Pa3 Be4 B16'
_cell_volume   230.28059874
_cell_formula_units_Z   1
loop_
 _symmetry_equiv_pos_site_id
 _symmetry_equiv_pos_as_xyz
  1  'x, y, z'
loop_
 _atom_site_type_symbol
 _atom_site_label
 _atom_site_symmetry_multiplicity
 _atom_site_fract_x
 _atom_site_fract_y
 _atom_site_fract_z
 _atom_site_occupancy
  U  U0  1  0.250004  0.750004  0.500000  1
  Pa  Pa1  1  0.199438  0.199437  0.999999  1
  Pa  Pa2  1  0.800563  0.800562  0.999997  1
  Pa  Pa3  1  0.749997  0.249998  0.500000  1
  Be  Be4  1  0.499160  0.279259  0.780099  1
  Be  Be5  1  0.499158  0.719061  0.219903  1
  Be  Be6  1  0.720745  0.500840  0.219904  1
  Be  Be7  1  0.280937  0.500840  0.780096  1
  B  B8  1  0.113874  0.282926  0.395791  1
  B  B9  1  0.887133  0.718083  0.604208  1
  B  B10  1  0.887134  0.282926  0.169052  1
  B  B11  1  0.113876  0.718083  0.830950  1
  B  B12  1  0.717073  0.886124  0.604208  1
  B  B13  1  0.281917  0.112867  0.395792  1
  B  B14  1  0.717075  0.112867  0.830950  1
  B  B15  1  0.281917  0.886124  0.169051  1
  B  B16  1  0.424112  0.425668  0.540884  1
  B  B17  1  0.884785  0.883229  0.459117  1
  B  B18  1  0.574332  0.115216  0.998445  1
  B  B19  1  0.116771  0.575887  0.001555  1
  B  B20  1  0.574332  0.575887  0.459116  1
  B  B21  1  0.116771  0.115216  0.540884  1
  B  B22  1  0.884784  0.425668  0.001556  1
  B  B23  1  0.424112  0.883229  0.998444  1
