# generated using pymatgen
data_K2PuO3
_symmetry_space_group_name_H-M   'P 1'
_cell_length_a   6.20748200
_cell_length_b   6.20748667
_cell_length_c   12.59987700
_cell_angle_alpha   90.00033256
_cell_angle_beta   90.00027032
_cell_angle_gamma   119.99991961
_symmetry_Int_Tables_number   1
_chemical_formula_structural   K2PuO3
_chemical_formula_sum   'K8 Pu4 O12'
_cell_volume   420.46374421
_cell_formula_units_Z   4
loop_
 _symmetry_equiv_pos_site_id
 _symmetry_equiv_pos_as_xyz
  1  'x, y, z'
loop_
 _atom_site_type_symbol
 _atom_site_label
 _atom_site_symmetry_multiplicity
 _atom_site_fract_x
 _atom_site_fract_y
 _atom_site_fract_z
 _atom_site_occupancy
  K  K0  1  0.999984  0.999985  0.000008  1
  K  K1  1  0.315880  0.315988  0.250019  1
  K  K2  1  0.684018  0.999893  0.250016  1
  K  K3  1  0.000111  0.684127  0.250016  1
  K  K4  1  0.999992  0.999992  0.499947  1
  K  K5  1  0.684020  0.684132  0.749989  1
  K  K6  1  0.315864  0.999885  0.749988  1
  K  K7  1  0.000109  0.315977  0.749986  1
  Pu  Pu8  1  0.666653  0.333337  0.000016  1
  Pu  Pu9  1  0.333343  0.666659  0.000017  1
  Pu  Pu10  1  0.666667  0.333347  0.500017  1
  Pu  Pu11  1  0.333349  0.666667  0.500016  1
  O  O12  1  0.609167  0.609193  0.096229  1
  O  O13  1  0.390789  0.999965  0.096231  1
  O  O14  1  0.000018  0.390816  0.096231  1
  O  O15  1  0.609223  0.609257  0.403684  1
  O  O16  1  0.390765  0.999975  0.403684  1
  O  O17  1  0.000045  0.390799  0.403684  1
  O  O18  1  0.390777  0.390813  0.596312  1
  O  O19  1  0.609209  0.999975  0.596315  1
  O  O20  1  0.000045  0.609244  0.596314  1
  O  O21  1  0.390782  0.390808  0.903767  1
  O  O22  1  0.609174  0.999966  0.903767  1
  O  O23  1  0.000018  0.609200  0.903767  1
