# generated using pymatgen
data_Y9Lu7(ScBi3)4
_symmetry_space_group_name_H-M   'P 1'
_cell_length_a   8.09760345
_cell_length_b   9.34400093
_cell_length_c   11.96891300
_cell_angle_alpha   90.02311698
_cell_angle_beta   89.92225985
_cell_angle_gamma   90.03907879
_symmetry_Int_Tables_number   1
_chemical_formula_structural   Y9Lu7(ScBi3)4
_chemical_formula_sum   'Y9 Lu7 Sc4 Bi12'
_cell_volume   905.61488564
_cell_formula_units_Z   1
loop_
 _symmetry_equiv_pos_site_id
 _symmetry_equiv_pos_as_xyz
  1  'x, y, z'
loop_
 _atom_site_type_symbol
 _atom_site_label
 _atom_site_symmetry_multiplicity
 _atom_site_fract_x
 _atom_site_fract_y
 _atom_site_fract_z
 _atom_site_occupancy
  Y  Y0  1  0.355346  0.250471  0.284464  1
  Y  Y1  1  0.645976  0.750316  0.715849  1
  Y  Y2  1  0.146837  0.751520  0.783644  1
  Y  Y3  1  0.853138  0.251076  0.216701  1
  Y  Y4  1  0.184427  0.250571  0.779834  1
  Y  Y5  1  0.816659  0.750181  0.220030  1
  Y  Y6  1  0.315365  0.750527  0.279868  1
  Y  Y7  1  0.684244  0.250550  0.719489  1
  Y  Y8  1  0.193242  0.062716  0.058949  1
  Lu  Lu9  1  0.806326  0.931966  0.941586  1
  Lu  Lu10  1  0.306061  0.932702  0.557981  1
  Lu  Lu11  1  0.803712  0.566553  0.940835  1
  Lu  Lu12  1  0.694141  0.067835  0.441842  1
  Lu  Lu13  1  0.194907  0.430848  0.059037  1
  Lu  Lu14  1  0.694519  0.432838  0.442222  1
  Lu  Lu15  1  0.305497  0.567685  0.558192  1
  Sc  Sc16  1  0.022075  0.250360  0.512099  1
  Sc  Sc17  1  0.977658  0.750773  0.488378  1
  Sc  Sc18  1  0.477139  0.750625  0.012081  1
  Sc  Sc19  1  0.523644  0.250406  0.987866  1
  Bi  Bi20  1  0.399419  0.250225  0.543442  1
  Bi  Bi21  1  0.600233  0.750191  0.456521  1
  Bi  Bi22  1  0.098373  0.743995  0.042172  1
  Bi  Bi23  1  0.899626  0.250514  0.956669  1
  Bi  Bi24  1  0.065322  0.004866  0.332993  1
  Bi  Bi25  1  0.933834  0.996229  0.666794  1
  Bi  Bi26  1  0.434848  0.996428  0.832191  1
  Bi  Bi27  1  0.934378  0.505110  0.667409  1
  Bi  Bi28  1  0.567371  0.004545  0.167245  1
  Bi  Bi29  1  0.065960  0.496092  0.333508  1
  Bi  Bi30  1  0.565683  0.496521  0.167247  1
  Bi  Bi31  1  0.434039  0.504769  0.832865  1
