# generated using pymatgen
data_Tb5Y(MnB7)2
_symmetry_space_group_name_H-M   'P 1'
_cell_length_a   8.09982225
_cell_length_b   8.09982209
_cell_length_c   9.32808200
_cell_angle_alpha   90.00000000
_cell_angle_beta   90.00000000
_cell_angle_gamma   155.41089433
_symmetry_Int_Tables_number   1
_chemical_formula_structural   Tb5Y(MnB7)2
_chemical_formula_sum   'Tb5 Y1 Mn2 B14'
_cell_volume   254.65328624
_cell_formula_units_Z   1
loop_
 _symmetry_equiv_pos_site_id
 _symmetry_equiv_pos_as_xyz
  1  'x, y, z'
loop_
 _atom_site_type_symbol
 _atom_site_label
 _atom_site_symmetry_multiplicity
 _atom_site_fract_x
 _atom_site_fract_y
 _atom_site_fract_z
 _atom_site_occupancy
  Tb  Tb0  1  0.896120  0.103880  0.439377  1
  Tb  Tb1  1  0.103874  0.896126  0.561071  1
  Tb  Tb2  1  0.896120  0.103880  0.060623  1
  Tb  Tb3  1  0.103874  0.896126  0.938929  1
  Tb  Tb4  1  0.240045  0.759955  0.250000  1
  Y  Y5  1  0.760172  0.239828  0.750000  1
  Mn  Mn6  1  0.053436  0.946564  0.250000  1
  Mn  Mn7  1  0.946538  0.053462  0.750000  1
  B  B8  1  0.727445  0.272555  0.468621  1
  B  B9  1  0.272493  0.727507  0.532542  1
  B  B10  1  0.727445  0.272555  0.031379  1
  B  B11  1  0.272493  0.727507  0.967458  1
  B  B12  1  0.629752  0.370248  0.153175  1
  B  B13  1  0.370297  0.629703  0.846694  1
  B  B14  1  0.629752  0.370248  0.346825  1
  B  B15  1  0.370297  0.629703  0.653306  1
  B  B16  1  0.522266  0.477734  0.098602  1
  B  B17  1  0.477722  0.522278  0.901533  1
  B  B18  1  0.522266  0.477734  0.401398  1
  B  B19  1  0.477722  0.522278  0.598467  1
  B  B20  1  0.461346  0.538654  0.250000  1
  B  B21  1  0.538521  0.461479  0.750000  1
