# generated using pymatgen
data_Nd10GaBI15
_symmetry_space_group_name_H-M   'P 1'
_cell_length_a   9.98382329
_cell_length_b   10.77860622
_cell_length_c   11.78689298
_cell_angle_alpha   91.20082682
_cell_angle_beta   114.59899698
_cell_angle_gamma   110.68090235
_symmetry_Int_Tables_number   1
_chemical_formula_structural   Nd10GaBI15
_chemical_formula_sum   'Nd10 Ga1 B1 I15'
_cell_volume   1057.73218127
_cell_formula_units_Z   1
loop_
 _symmetry_equiv_pos_site_id
 _symmetry_equiv_pos_as_xyz
  1  'x, y, z'
loop_
 _atom_site_type_symbol
 _atom_site_label
 _atom_site_symmetry_multiplicity
 _atom_site_fract_x
 _atom_site_fract_y
 _atom_site_fract_z
 _atom_site_occupancy
  Nd  Nd0  1  0.788715  0.399170  0.269036  1
  Nd  Nd1  1  0.193403  0.584468  0.717310  1
  Nd  Nd2  1  0.678627  0.743058  0.817735  1
  Nd  Nd3  1  0.334421  0.250241  0.174163  1
  Nd  Nd4  1  0.527447  0.699456  0.102896  1
  Nd  Nd5  1  0.477304  0.290887  0.914171  1
  Nd  Nd6  1  0.581794  0.043757  0.312716  1
  Nd  Nd7  1  0.412871  0.965448  0.669808  1
  Nd  Nd8  1  0.723123  0.085734  0.055931  1
  Nd  Nd9  1  0.280393  0.937566  0.959771  1
  Ga  Ga10  1  0.468767  0.823726  0.880468  1
  B  B11  1  0.533242  0.180043  0.122577  1
  I  I12  1  0.997996  0.001562  0.001509  1
  I  I13  1  0.638809  0.883665  0.580608  1
  I  I14  1  0.361796  0.118069  0.415743  1
  I  I15  1  0.882169  0.296540  0.528911  1
  I  I16  1  0.112639  0.699567  0.466848  1
  I  I17  1  0.285054  0.760752  0.178920  1
  I  I18  1  0.714510  0.240805  0.822389  1
  I  I19  1  0.059658  0.344308  0.228263  1
  I  I20  1  0.160561  0.057766  0.703063  1
  I  I21  1  0.840206  0.944587  0.298668  1
  I  I22  1  0.228876  0.407908  0.942771  1
  I  I23  1  0.771102  0.588545  0.057190  1
  I  I24  1  0.408623  0.456762  0.659955  1
  I  I25  1  0.592402  0.536999  0.344003  1
  I  I26  1  0.945490  0.658613  0.774577  1
