# generated using pymatgen
data_Ca4VAs(ClO4)2
_symmetry_space_group_name_H-M   'P 1'
_cell_length_a   6.40231400
_cell_length_b   7.19123377
_cell_length_c   11.18681454
_cell_angle_alpha   89.80232637
_cell_angle_beta   90.00000000
_cell_angle_gamma   90.00000000
_symmetry_Int_Tables_number   1
_chemical_formula_structural   Ca4VAs(ClO4)2
_chemical_formula_sum   'Ca8 V2 As2 Cl4 O16'
_cell_volume   515.04387925
_cell_formula_units_Z   2
loop_
 _symmetry_equiv_pos_site_id
 _symmetry_equiv_pos_as_xyz
  1  'x, y, z'
loop_
 _atom_site_type_symbol
 _atom_site_label
 _atom_site_symmetry_multiplicity
 _atom_site_fract_x
 _atom_site_fract_y
 _atom_site_fract_z
 _atom_site_occupancy
  Ca  Ca0  1  0.858084  0.973655  0.249961  1
  Ca  Ca1  1  0.141916  0.473655  0.249961  1
  Ca  Ca2  1  0.376022  0.750000  0.000000  1
  Ca  Ca3  1  0.620488  0.250000  0.500000  1
  Ca  Ca4  1  0.858084  0.526345  0.750039  1
  Ca  Ca5  1  0.141916  0.026345  0.750039  1
  Ca  Ca6  1  0.379512  0.750000  0.500000  1
  Ca  Ca7  1  0.623978  0.250000  0.000000  1
  V  V8  1  0.873538  0.750000  0.500000  1
  V  V9  1  0.126462  0.250000  0.500000  1
  As  As10  1  0.871832  0.750000  0.000000  1
  As  As11  1  0.128168  0.250000  0.000000  1
  Cl  Cl12  1  0.507894  0.804656  0.749443  1
  Cl  Cl13  1  0.492106  0.195344  0.250557  1
  Cl  Cl14  1  0.492106  0.304656  0.749443  1
  Cl  Cl15  1  0.507894  0.695344  0.250557  1
  O  O16  1  0.032970  0.735783  0.123524  1
  O  O17  1  0.292503  0.432835  0.029758  1
  O  O18  1  0.032970  0.764217  0.876476  1
  O  O19  1  0.291191  0.063707  0.529374  1
  O  O20  1  0.967030  0.264217  0.876476  1
  O  O21  1  0.708809  0.563707  0.529374  1
  O  O22  1  0.035111  0.731397  0.375003  1
  O  O23  1  0.291191  0.436293  0.470626  1
  O  O24  1  0.707497  0.932835  0.029758  1
  O  O25  1  0.292503  0.067165  0.970242  1
  O  O26  1  0.708809  0.936293  0.470626  1
  O  O27  1  0.964889  0.231397  0.375003  1
  O  O28  1  0.707497  0.567165  0.970242  1
  O  O29  1  0.964889  0.268603  0.624997  1
  O  O30  1  0.967030  0.235783  0.123524  1
  O  O31  1  0.035111  0.768603  0.624997  1
