# generated using pymatgen
data_ZrSc(Ga3Ni)6
_symmetry_space_group_name_H-M   'P 1'
_cell_length_a   9.98095163
_cell_length_b   9.98095332
_cell_length_c   9.98095300
_cell_angle_alpha   42.43082835
_cell_angle_beta   42.43082623
_cell_angle_gamma   42.43082922
_symmetry_Int_Tables_number   1
_chemical_formula_structural   ZrSc(Ga3Ni)6
_chemical_formula_sum   'Zr1 Sc1 Ga18 Ni6'
_cell_volume   409.78454453
_cell_formula_units_Z   1
loop_
 _symmetry_equiv_pos_site_id
 _symmetry_equiv_pos_as_xyz
  1  'x, y, z'
loop_
 _atom_site_type_symbol
 _atom_site_label
 _atom_site_symmetry_multiplicity
 _atom_site_fract_x
 _atom_site_fract_y
 _atom_site_fract_z
 _atom_site_occupancy
  Zr  Zr0  1  0.167428  0.167428  0.167428  1
  Sc  Sc1  1  0.832686  0.832686  0.832686  1
  Ga  Ga2  1  0.103141  0.437415  0.769952  1
  Ga  Ga3  1  0.437415  0.769952  0.103141  1
  Ga  Ga4  1  0.564740  0.895450  0.229183  1
  Ga  Ga5  1  0.947897  0.947897  0.947897  1
  Ga  Ga6  1  0.051840  0.051840  0.051840  1
  Ga  Ga7  1  0.286504  0.715273  0.498243  1
  Ga  Ga8  1  0.895450  0.229183  0.564740  1
  Ga  Ga9  1  0.386813  0.386813  0.386813  1
  Ga  Ga10  1  0.498243  0.286504  0.715273  1
  Ga  Ga11  1  0.229183  0.564740  0.895450  1
  Ga  Ga12  1  0.717638  0.717638  0.717638  1
  Ga  Ga13  1  0.613625  0.613625  0.613625  1
  Ga  Ga14  1  0.333342  0.000897  0.665828  1
  Ga  Ga15  1  0.715273  0.498243  0.286504  1
  Ga  Ga16  1  0.665828  0.333342  0.000897  1
  Ga  Ga17  1  0.282048  0.282048  0.282048  1
  Ga  Ga18  1  0.000897  0.665828  0.333342  1
  Ga  Ga19  1  0.769952  0.103141  0.437415  1
  Ni  Ni20  1  0.418155  0.079310  0.758924  1
  Ni  Ni21  1  0.580497  0.241684  0.921485  1
  Ni  Ni22  1  0.079310  0.758924  0.418155  1
  Ni  Ni23  1  0.758924  0.418155  0.079310  1
  Ni  Ni24  1  0.921485  0.580497  0.241684  1
  Ni  Ni25  1  0.241684  0.921485  0.580497  1
