# generated using pymatgen
data_Dy3Y2Co12P12Ru7
_symmetry_space_group_name_H-M   'P 1'
_cell_length_a   12.21914622
_cell_length_b   12.21001818
_cell_length_c   3.74888500
_cell_angle_alpha   90.00000000
_cell_angle_beta   90.00000000
_cell_angle_gamma   119.87313299
_symmetry_Int_Tables_number   1
_chemical_formula_structural   Dy3Y2Co12P12Ru7
_chemical_formula_sum   'Dy3 Y2 Co12 P12 Ru7'
_cell_volume   485.00219527
_cell_formula_units_Z   1
loop_
 _symmetry_equiv_pos_site_id
 _symmetry_equiv_pos_as_xyz
  1  'x, y, z'
loop_
 _atom_site_type_symbol
 _atom_site_label
 _atom_site_symmetry_multiplicity
 _atom_site_fract_x
 _atom_site_fract_y
 _atom_site_fract_z
 _atom_site_occupancy
  Dy  Dy0  1  0.337341  0.667395  0.000000  1
  Dy  Dy1  1  0.818804  0.000486  0.500000  1
  Dy  Dy2  1  0.999307  0.818842  0.500000  1
  Y  Y3  1  0.666281  0.332666  0.000000  1
  Y  Y4  1  0.182055  0.182026  0.500000  1
  Co  Co5  1  0.827736  0.196623  0.000000  1
  Co  Co6  1  0.800135  0.630138  0.000000  1
  Co  Co7  1  0.370647  0.171982  0.000000  1
  Co  Co8  1  0.197143  0.826513  0.000000  1
  Co  Co9  1  0.626636  0.805148  0.000000  1
  Co  Co10  1  0.178801  0.373789  0.000000  1
  Co  Co11  1  0.517533  0.870025  0.500000  1
  Co  Co12  1  0.355402  0.485547  0.500000  1
  Co  Co13  1  0.716272  0.719622  0.500000  1
  Co  Co14  1  0.281859  0.998886  0.500000  1
  Co  Co15  1  0.002046  0.282074  0.500000  1
  Co  Co16  1  0.999733  0.999298  0.000000  1
  P  P17  1  0.360395  0.365228  0.000000  1
  P  P18  1  0.636053  0.995492  0.000000  1
  P  P19  1  0.001118  0.637449  0.000000  1
  P  P20  1  0.839223  0.313589  0.500000  1
  P  P21  1  0.683329  0.525100  0.500000  1
  P  P22  1  0.475074  0.161074  0.500000  1
  P  P23  1  0.319628  0.839809  0.500000  1
  P  P24  1  0.521691  0.686715  0.500000  1
  P  P25  1  0.166712  0.475767  0.500000  1
  P  P26  1  0.819975  0.822055  0.000000  1
  P  P27  1  0.178489  0.999393  0.000000  1
  P  P28  1  0.001696  0.179306  0.000000  1
  Ru  Ru29  1  0.548516  0.557373  0.000000  1
  Ru  Ru30  1  0.443787  0.992244  0.000000  1
  Ru  Ru31  1  0.000836  0.444786  0.000000  1
  Ru  Ru32  1  0.644614  0.122651  0.500000  1
  Ru  Ru33  1  0.871686  0.519082  0.500000  1
  Ru  Ru34  1  0.477418  0.355321  0.500000  1
  Ru  Ru35  1  0.132026  0.646511  0.500000  1
