# generated using pymatgen
data_SmEr19Si15Au
_symmetry_space_group_name_H-M   'P 1'
_cell_length_a   7.34936230
_cell_length_b   7.65555211
_cell_length_c   14.55669373
_cell_angle_alpha   89.94654710
_cell_angle_beta   90.01696932
_cell_angle_gamma   90.54187130
_symmetry_Int_Tables_number   1
_chemical_formula_structural   SmEr19Si15Au
_chemical_formula_sum   'Sm1 Er19 Si15 Au1'
_cell_volume   818.97244373
_cell_formula_units_Z   1
loop_
 _symmetry_equiv_pos_site_id
 _symmetry_equiv_pos_as_xyz
  1  'x, y, z'
loop_
 _atom_site_type_symbol
 _atom_site_label
 _atom_site_symmetry_multiplicity
 _atom_site_fract_x
 _atom_site_fract_y
 _atom_site_fract_z
 _atom_site_occupancy
  Sm  Sm0  1  0.020990  0.828760  0.589568  1
  Er  Er1  1  0.529147  0.681127  0.593197  1
  Er  Er2  1  0.317886  0.821212  0.123694  1
  Er  Er3  1  0.815895  0.676918  0.124450  1
  Er  Er4  1  0.858096  0.521041  0.750433  1
  Er  Er5  1  0.471432  0.315403  0.098597  1
  Er  Er6  1  0.024896  0.824545  0.907870  1
  Er  Er7  1  0.472924  0.315715  0.401145  1
  Er  Er8  1  0.647355  0.010005  0.250188  1
  Er  Er9  1  0.528823  0.681979  0.907823  1
  Er  Er10  1  0.682743  0.180351  0.879457  1
  Er  Er11  1  0.185914  0.319255  0.619334  1
  Er  Er12  1  0.184338  0.318271  0.880995  1
  Er  Er13  1  0.815555  0.675526  0.374485  1
  Er  Er14  1  0.318088  0.820853  0.376435  1
  Er  Er15  1  0.347259  0.985852  0.750499  1
  Er  Er16  1  0.681869  0.181446  0.621945  1
  Er  Er17  1  0.147091  0.487003  0.249522  1
  Er  Er18  1  0.970523  0.181585  0.099881  1
  Er  Er19  1  0.969700  0.182497  0.398554  1
  Si  Si20  1  0.652319  0.969629  0.458715  1
  Si  Si21  1  0.358289  0.028013  0.539785  1
  Si  Si22  1  0.020142  0.894100  0.249484  1
  Si  Si23  1  0.733005  0.878732  0.751358  1
  Si  Si24  1  0.265532  0.126540  0.250052  1
  Si  Si25  1  0.852730  0.468493  0.537667  1
  Si  Si26  1  0.484127  0.390810  0.750686  1
  Si  Si27  1  0.145143  0.524358  0.456390  1
  Si  Si28  1  0.145543  0.527031  0.042640  1
  Si  Si29  1  0.975163  0.111003  0.750617  1
  Si  Si30  1  0.764531  0.369724  0.249386  1
  Si  Si31  1  0.353322  0.027125  0.960511  1
  Si  Si32  1  0.853925  0.471824  0.961221  1
  Si  Si33  1  0.649818  0.970735  0.041944  1
  Si  Si34  1  0.517221  0.604179  0.249909  1
  Au  Au35  1  0.238658  0.628358  0.751558  1
