# generated using pymatgen
data_Zr3Ti3Ge2Sb
_symmetry_space_group_name_H-M   'P 1'
_cell_length_a   7.18026700
_cell_length_b   7.18026707
_cell_length_c   3.84981200
_cell_angle_alpha   90.00000000
_cell_angle_beta   90.00000000
_cell_angle_gamma   119.99999506
_symmetry_Int_Tables_number   1
_chemical_formula_structural   Zr3Ti3Ge2Sb
_chemical_formula_sum   'Zr3 Ti3 Ge2 Sb1'
_cell_volume   171.89029912
_cell_formula_units_Z   1
loop_
 _symmetry_equiv_pos_site_id
 _symmetry_equiv_pos_as_xyz
  1  'x, y, z'
loop_
 _atom_site_type_symbol
 _atom_site_label
 _atom_site_symmetry_multiplicity
 _atom_site_fract_x
 _atom_site_fract_y
 _atom_site_fract_z
 _atom_site_occupancy
  Zr  Zr0  1  0.396632  0.987645  0.500000  1
  Zr  Zr1  1  0.012355  0.408988  0.500000  1
  Zr  Zr2  1  0.591012  0.603367  0.500000  1
  Ti  Ti3  1  0.753787  0.991211  0.000000  1
  Ti  Ti4  1  0.237423  0.246212  0.000000  1
  Ti  Ti5  1  0.008789  0.762576  0.000000  1
  Ge  Ge6  1  0.333333  0.666666  0.000000  1
  Ge  Ge7  1  0.000000  0.000000  0.500000  1
  Sb  Sb8  1  0.666666  0.333333  0.000000  1
