# generated using pymatgen
data_Nd3CI5
_symmetry_space_group_name_H-M   'P 1'
_cell_length_a   7.93707920
_cell_length_b   9.71586822
_cell_length_c   9.81406495
_cell_angle_alpha   107.36196902
_cell_angle_beta   96.95201794
_cell_angle_gamma   104.83497941
_symmetry_Int_Tables_number   1
_chemical_formula_structural   Nd3CI5
_chemical_formula_sum   'Nd6 C2 I10'
_cell_volume   682.08255210
_cell_formula_units_Z   2
loop_
 _symmetry_equiv_pos_site_id
 _symmetry_equiv_pos_as_xyz
  1  'x, y, z'
loop_
 _atom_site_type_symbol
 _atom_site_label
 _atom_site_symmetry_multiplicity
 _atom_site_fract_x
 _atom_site_fract_y
 _atom_site_fract_z
 _atom_site_occupancy
  Nd  Nd0  1  0.622889  0.862918  0.817278  1
  Nd  Nd1  1  0.028732  0.734083  0.923091  1
  Nd  Nd2  1  0.106222  0.039239  0.776440  1
  Nd  Nd3  1  0.971268  0.265917  0.076909  1
  Nd  Nd4  1  0.893778  0.960761  0.223560  1
  Nd  Nd5  1  0.377111  0.137082  0.182722  1
  C  C6  1  0.087983  0.030014  0.040947  1
  C  C7  1  0.912017  0.969986  0.959053  1
  I  I8  1  0.184360  0.730747  0.642727  1
  I  I9  1  0.911619  0.631162  0.179660  1
  I  I10  1  0.088381  0.368838  0.820340  1
  I  I11  1  0.743179  0.914197  0.537563  1
  I  I12  1  0.256821  0.085803  0.462437  1
  I  I13  1  0.650262  0.538889  0.724924  1
  I  I14  1  0.456208  0.810177  0.091821  1
  I  I15  1  0.815640  0.269253  0.357273  1
  I  I16  1  0.349738  0.461111  0.275076  1
  I  I17  1  0.543792  0.189823  0.908179  1
