# generated using pymatgen
data_LaGd3(BeSi3)2
_symmetry_space_group_name_H-M   'P 1'
_cell_length_a   7.91433619
_cell_length_b   7.92664890
_cell_length_c   4.21808000
_cell_angle_alpha   90.00000000
_cell_angle_beta   90.00000000
_cell_angle_gamma   120.05147738
_symmetry_Int_Tables_number   1
_chemical_formula_structural   LaGd3(BeSi3)2
_chemical_formula_sum   'La1 Gd3 Be2 Si6'
_cell_volume   229.04670574
_cell_formula_units_Z   1
loop_
 _symmetry_equiv_pos_site_id
 _symmetry_equiv_pos_as_xyz
  1  'x, y, z'
loop_
 _atom_site_type_symbol
 _atom_site_label
 _atom_site_symmetry_multiplicity
 _atom_site_fract_x
 _atom_site_fract_y
 _atom_site_fract_z
 _atom_site_occupancy
  La  La0  1  0.000000  0.500000  0.500000  1
  Gd  Gd1  1  0.000000  0.000000  0.500000  1
  Gd  Gd2  1  0.500000  0.500000  0.500000  1
  Gd  Gd3  1  0.500000  0.000000  0.500000  1
  Be  Be4  1  0.335290  0.667645  0.000000  1
  Be  Be5  1  0.664710  0.332355  0.000000  1
  Si  Si6  1  0.174178  0.342841  0.000000  1
  Si  Si7  1  0.654424  0.827213  0.000000  1
  Si  Si8  1  0.345576  0.172787  0.000000  1
  Si  Si9  1  0.174178  0.831338  0.000000  1
  Si  Si10  1  0.825822  0.657159  0.000000  1
  Si  Si11  1  0.825822  0.168662  0.000000  1
