# generated using pymatgen
data_TbYb7Ti3Tc9Ge16
_symmetry_space_group_name_H-M   'P 1'
_cell_length_a   6.85533953
_cell_length_b   6.97587976
_cell_length_c   13.09474049
_cell_angle_alpha   89.99249941
_cell_angle_beta   90.04313250
_cell_angle_gamma   90.00231471
_symmetry_Int_Tables_number   1
_chemical_formula_structural   TbYb7Ti3Tc9Ge16
_chemical_formula_sum   'Tb1 Yb7 Ti3 Tc9 Ge16'
_cell_volume   626.21681392
_cell_formula_units_Z   1
loop_
 _symmetry_equiv_pos_site_id
 _symmetry_equiv_pos_as_xyz
  1  'x, y, z'
loop_
 _atom_site_type_symbol
 _atom_site_label
 _atom_site_symmetry_multiplicity
 _atom_site_fract_x
 _atom_site_fract_y
 _atom_site_fract_z
 _atom_site_occupancy
  Tb  Tb0  1  0.007097  0.168585  0.092025  1
  Yb  Yb1  1  0.008227  0.172568  0.411140  1
  Yb  Yb2  1  0.509121  0.325375  0.089827  1
  Yb  Yb3  1  0.486624  0.666577  0.590328  1
  Yb  Yb4  1  0.988267  0.831027  0.908869  1
  Yb  Yb5  1  0.990159  0.834618  0.589836  1
  Yb  Yb6  1  0.489960  0.665653  0.908398  1
  Yb  Yb7  1  0.508615  0.334324  0.409674  1
  Ti  Ti8  1  0.841388  0.661645  0.130203  1
  Ti  Ti9  1  0.839012  0.482689  0.749537  1
  Ti  Ti10  1  0.340489  0.836484  0.371958  1
  Tc  Tc11  1  0.324064  0.849605  0.117924  1
  Tc  Tc12  1  0.828794  0.657149  0.377820  1
  Tc  Tc13  1  0.675354  0.157315  0.630134  1
  Tc  Tc14  1  0.169195  0.345794  0.870633  1
  Tc  Tc15  1  0.161927  0.345247  0.633035  1
  Tc  Tc16  1  0.668049  0.154990  0.868494  1
  Tc  Tc17  1  0.331530  0.007825  0.749839  1
  Tc  Tc18  1  0.665387  0.993675  0.249808  1
  Tc  Tc19  1  0.164962  0.502551  0.247983  1
  Ge  Ge20  1  0.336845  0.052828  0.552180  1
  Ge  Ge21  1  0.833631  0.453554  0.951392  1
  Ge  Ge22  1  0.663294  0.948518  0.045387  1
  Ge  Ge23  1  0.163556  0.547778  0.453590  1
  Ge  Ge24  1  0.173367  0.549091  0.046208  1
  Ge  Ge25  1  0.671825  0.951913  0.453337  1
  Ge  Ge26  1  0.832501  0.454872  0.547008  1
  Ge  Ge27  1  0.334184  0.049951  0.948327  1
  Ge  Ge28  1  0.806715  0.359208  0.252503  1
  Ge  Ge29  1  0.311586  0.141780  0.252444  1
  Ge  Ge30  1  0.681743  0.855229  0.748534  1
  Ge  Ge31  1  0.187957  0.650010  0.750399  1
  Ge  Ge32  1  0.032964  0.866028  0.256312  1
  Ge  Ge33  1  0.529491  0.633467  0.243790  1
  Ge  Ge34  1  0.466954  0.367059  0.749186  1
  Ge  Ge35  1  0.975164  0.125017  0.751943  1
