# generated using pymatgen
data_TbGd3(CO)2
_symmetry_space_group_name_H-M   'P 1'
_cell_length_a   6.12947735
_cell_length_b   6.12947762
_cell_length_c   6.12947700
_cell_angle_alpha   132.16664239
_cell_angle_beta   132.17667164
_cell_angle_gamma   69.95805143
_symmetry_Int_Tables_number   1
_chemical_formula_structural   TbGd3(CO)2
_chemical_formula_sum   'Tb1 Gd3 C2 O2'
_cell_volume   124.02362009
_cell_formula_units_Z   1
loop_
 _symmetry_equiv_pos_site_id
 _symmetry_equiv_pos_as_xyz
  1  'x, y, z'
loop_
 _atom_site_type_symbol
 _atom_site_label
 _atom_site_symmetry_multiplicity
 _atom_site_fract_x
 _atom_site_fract_y
 _atom_site_fract_z
 _atom_site_occupancy
  Tb  Tb0  1  0.752236  0.752236  0.000000  1
  Gd  Gd1  1  0.247899  0.247899  0.000000  1
  Gd  Gd2  1  0.997704  0.497704  0.500000  1
  Gd  Gd3  1  0.502349  0.002349  0.500000  1
  C  C4  1  0.999498  0.999498  0.000000  1
  C  C5  1  0.749888  0.249888  0.500000  1
  O  O6  1  0.500431  0.500431  0.000000  1
  O  O7  1  0.249995  0.749995  0.500000  1
