# generated using pymatgen
data_TbEr3Al2(GaRh2)2
_symmetry_space_group_name_H-M   'P 1'
_cell_length_a   4.23913200
_cell_length_b   6.84211488
_cell_length_c   7.86718008
_cell_angle_alpha   90.01189910
_cell_angle_beta   90.00000000
_cell_angle_gamma   90.00000000
_symmetry_Int_Tables_number   1
_chemical_formula_structural   TbEr3Al2(GaRh2)2
_chemical_formula_sum   'Tb1 Er3 Al2 Ga2 Rh4'
_cell_volume   228.18462774
_cell_formula_units_Z   1
loop_
 _symmetry_equiv_pos_site_id
 _symmetry_equiv_pos_as_xyz
  1  'x, y, z'
loop_
 _atom_site_type_symbol
 _atom_site_label
 _atom_site_symmetry_multiplicity
 _atom_site_fract_x
 _atom_site_fract_y
 _atom_site_fract_z
 _atom_site_occupancy
  Tb  Tb0  1  0.750000  0.966966  0.679299  1
  Er  Er1  1  0.250000  0.535136  0.186022  1
  Er  Er2  1  0.750000  0.464712  0.814505  1
  Er  Er3  1  0.250000  0.033411  0.319631  1
  Al  Al4  1  0.250000  0.139620  0.937714  1
  Al  Al5  1  0.750000  0.860776  0.063854  1
  Ga  Ga6  1  0.250000  0.645827  0.564627  1
  Ga  Ga7  1  0.750000  0.353851  0.434626  1
  Rh  Rh8  1  0.750000  0.735641  0.377330  1
  Rh  Rh9  1  0.250000  0.265497  0.621129  1
  Rh  Rh10  1  0.750000  0.234776  0.113645  1
  Rh  Rh11  1  0.250000  0.763787  0.887618  1
