# generated using pymatgen
data_Th3C2Se
_symmetry_space_group_name_H-M   'P 1'
_cell_length_a   3.85030900
_cell_length_b   3.85031013
_cell_length_c   20.37045000
_cell_angle_alpha   90.00000000
_cell_angle_beta   90.00000000
_cell_angle_gamma   119.99998170
_symmetry_Int_Tables_number   1
_chemical_formula_structural   Th3C2Se
_chemical_formula_sum   'Th6 C4 Se2'
_cell_volume   261.53067290
_cell_formula_units_Z   2
loop_
 _symmetry_equiv_pos_site_id
 _symmetry_equiv_pos_as_xyz
  1  'x, y, z'
loop_
 _atom_site_type_symbol
 _atom_site_label
 _atom_site_symmetry_multiplicity
 _atom_site_fract_x
 _atom_site_fract_y
 _atom_site_fract_z
 _atom_site_occupancy
  Th  Th0  1  0.000000  0.000000  0.000000  1
  Th  Th1  1  0.333333  0.666667  0.142631  1
  Th  Th2  1  0.333333  0.666667  0.357369  1
  Th  Th3  1  0.000000  0.000000  0.500000  1
  Th  Th4  1  0.666667  0.333335  0.642631  1
  Th  Th5  1  0.666667  0.333335  0.857369  1
  C  C6  1  0.666667  0.333335  0.081024  1
  C  C7  1  0.666667  0.333335  0.418976  1
  C  C8  1  0.333333  0.666667  0.581024  1
  C  C9  1  0.333333  0.666667  0.918976  1
  Se  Se10  1  0.000000  0.000000  0.250000  1
  Se  Se11  1  0.000000  0.000000  0.750000  1
