# generated using pymatgen
data_LiIn3(FeRh3)2
_symmetry_space_group_name_H-M   'P 1'
_cell_length_a   4.44078300
_cell_length_b   6.25418700
_cell_length_c   13.29033400
_cell_angle_alpha   90.00000000
_cell_angle_beta   89.99967818
_cell_angle_gamma   90.00000000
_symmetry_Int_Tables_number   1
_chemical_formula_structural   LiIn3(FeRh3)2
_chemical_formula_sum   'Li2 In6 Fe4 Rh12'
_cell_volume   369.11892287
_cell_formula_units_Z   2
loop_
 _symmetry_equiv_pos_site_id
 _symmetry_equiv_pos_as_xyz
  1  'x, y, z'
loop_
 _atom_site_type_symbol
 _atom_site_label
 _atom_site_symmetry_multiplicity
 _atom_site_fract_x
 _atom_site_fract_y
 _atom_site_fract_z
 _atom_site_occupancy
  Li  Li0  1  0.000408  0.000000  0.666867  1
  Li  Li1  1  0.500410  0.500000  0.833134  1
  In  In2  1  0.999992  0.500000  0.996274  1
  In  In3  1  0.499808  0.000000  0.166852  1
  In  In4  1  0.999813  0.500000  0.333167  1
  In  In5  1  0.499972  0.000000  0.503696  1
  In  In6  1  0.000114  0.500000  0.670250  1
  In  In7  1  0.500119  0.000000  0.829749  1
  Fe  Fe8  1  0.999989  0.000000  0.996209  1
  Fe  Fe9  1  0.499839  0.500000  0.165156  1
  Fe  Fe10  1  0.999808  0.000000  0.334897  1
  Fe  Fe11  1  0.499993  0.500000  0.503809  1
  Rh  Rh12  1  0.499978  0.247070  0.003056  1
  Rh  Rh13  1  0.499978  0.752931  0.003056  1
  Rh  Rh14  1  0.999833  0.250893  0.166884  1
  Rh  Rh15  1  0.999833  0.749107  0.166884  1
  Rh  Rh16  1  0.499824  0.249092  0.333142  1
  Rh  Rh17  1  0.499824  0.750907  0.333142  1
  Rh  Rh18  1  0.999975  0.252949  0.496933  1
  Rh  Rh19  1  0.999975  0.747049  0.496933  1
  Rh  Rh20  1  0.500129  0.256408  0.664258  1
  Rh  Rh21  1  0.500129  0.743591  0.664258  1
  Rh  Rh22  1  0.000131  0.243593  0.835697  1
  Rh  Rh23  1  0.000131  0.756407  0.835697  1
