# generated using pymatgen
data_Tb3Er9Os4
_symmetry_space_group_name_H-M   'P 1'
_cell_length_a   6.29117695
_cell_length_b   7.36951112
_cell_length_c   8.99541400
_cell_angle_alpha   90.00000000
_cell_angle_beta   90.00000000
_cell_angle_gamma   89.93700910
_symmetry_Int_Tables_number   1
_chemical_formula_structural   Tb3Er9Os4
_chemical_formula_sum   'Tb3 Er9 Os4'
_cell_volume   417.05321379
_cell_formula_units_Z   1
loop_
 _symmetry_equiv_pos_site_id
 _symmetry_equiv_pos_as_xyz
  1  'x, y, z'
loop_
 _atom_site_type_symbol
 _atom_site_label
 _atom_site_symmetry_multiplicity
 _atom_site_fract_x
 _atom_site_fract_y
 _atom_site_fract_z
 _atom_site_occupancy
  Tb  Tb0  1  0.870305  0.538188  0.250000  1
  Tb  Tb1  1  0.629837  0.038173  0.250000  1
  Tb  Tb2  1  0.130160  0.461697  0.750000  1
  Er  Er3  1  0.333187  0.675944  0.062851  1
  Er  Er4  1  0.167312  0.174959  0.437297  1
  Er  Er5  1  0.666691  0.324234  0.563124  1
  Er  Er6  1  0.832293  0.824796  0.936589  1
  Er  Er7  1  0.666691  0.324234  0.936876  1
  Er  Er8  1  0.832293  0.824796  0.563411  1
  Er  Er9  1  0.333187  0.675944  0.437149  1
  Er  Er10  1  0.167312  0.174959  0.062703  1
  Er  Er11  1  0.369673  0.961494  0.750000  1
  Os  Os12  1  0.043188  0.882885  0.250000  1
  Os  Os13  1  0.456834  0.382707  0.250000  1
  Os  Os14  1  0.958461  0.116821  0.750000  1
  Os  Os15  1  0.542575  0.618169  0.750000  1
