# generated using pymatgen
data_Tb4ReIrRu6
_symmetry_space_group_name_H-M   'P 1'
_cell_length_a   5.24220905
_cell_length_b   5.44608971
_cell_length_c   8.98627311
_cell_angle_alpha   90.00000307
_cell_angle_beta   90.01536738
_cell_angle_gamma   121.29510716
_symmetry_Int_Tables_number   1
_chemical_formula_structural   Tb4ReIrRu6
_chemical_formula_sum   'Tb4 Re1 Ir1 Ru6'
_cell_volume   219.22617561
_cell_formula_units_Z   1
loop_
 _symmetry_equiv_pos_site_id
 _symmetry_equiv_pos_as_xyz
  1  'x, y, z'
loop_
 _atom_site_type_symbol
 _atom_site_label
 _atom_site_symmetry_multiplicity
 _atom_site_fract_x
 _atom_site_fract_y
 _atom_site_fract_z
 _atom_site_occupancy
  Tb  Tb0  1  0.325621  0.662810  0.432144  1
  Tb  Tb1  1  0.654873  0.327436  0.565399  1
  Tb  Tb2  1  0.649367  0.324683  0.934822  1
  Tb  Tb3  1  0.320656  0.660328  0.067905  1
  Re  Re4  1  0.695084  0.847542  0.753013  1
  Ir  Ir5  1  0.978839  0.989419  0.500015  1
  Ru  Ru6  1  0.966732  0.983366  0.999323  1
  Ru  Ru7  1  0.837752  0.163556  0.249759  1
  Ru  Ru8  1  0.837752  0.674195  0.249759  1
  Ru  Ru9  1  0.363975  0.181987  0.250382  1
  Ru  Ru10  1  0.184675  0.824804  0.748739  1
  Ru  Ru11  1  0.184675  0.359872  0.748739  1
