# generated using pymatgen
data_Y3Lu2InBi2
_symmetry_space_group_name_H-M   'P 1'
_cell_length_a   6.48334306
_cell_length_b   9.03683865
_cell_length_c   9.03591384
_cell_angle_alpha   120.00340276
_cell_angle_beta   89.99994056
_cell_angle_gamma   90.00014268
_symmetry_Int_Tables_number   1
_chemical_formula_structural   Y3Lu2InBi2
_chemical_formula_sum   'Y6 Lu4 In2 Bi4'
_cell_volume   458.46200691
_cell_formula_units_Z   2
loop_
 _symmetry_equiv_pos_site_id
 _symmetry_equiv_pos_as_xyz
  1  'x, y, z'
loop_
 _atom_site_type_symbol
 _atom_site_label
 _atom_site_symmetry_multiplicity
 _atom_site_fract_x
 _atom_site_fract_y
 _atom_site_fract_z
 _atom_site_occupancy
  Y  Y0  1  0.750147  0.239926  0.000000  1
  Y  Y1  1  0.750074  0.762090  0.760105  1
  Y  Y2  1  0.750074  0.001985  0.239895  1
  Y  Y3  1  0.250157  0.762312  0.000000  1
  Y  Y4  1  0.250071  0.235410  0.244453  1
  Y  Y5  1  0.250071  0.990957  0.755547  1
  Lu  Lu6  1  0.496306  0.332206  0.660108  1
  Lu  Lu7  1  0.496306  0.672097  0.339892  1
  Lu  Lu8  1  0.003639  0.671955  0.339719  1
  Lu  Lu9  1  0.003639  0.332237  0.660281  1
  In  In10  1  0.249634  0.603075  0.604825  1
  In  In11  1  0.249634  0.998251  0.395175  1
  Bi  Bi12  1  0.750051  0.605112  0.000000  1
  Bi  Bi13  1  0.750015  0.397709  0.393986  1
  Bi  Bi14  1  0.750015  0.003723  0.606014  1
  Bi  Bi15  1  0.250171  0.390957  0.000000  1
