# generated using pymatgen
data_BaMn2F8
_symmetry_space_group_name_H-M   'P 1'
_cell_length_a   7.05698547
_cell_length_b   7.00517832
_cell_length_c   5.69256700
_cell_angle_alpha   109.94879332
_cell_angle_beta   110.38353495
_cell_angle_gamma   44.27593234
_symmetry_Int_Tables_number   1
_chemical_formula_structural   BaMn2F8
_chemical_formula_sum   'Ba1 Mn2 F8'
_cell_volume   182.33671086
_cell_formula_units_Z   1
loop_
 _symmetry_equiv_pos_site_id
 _symmetry_equiv_pos_as_xyz
  1  'x, y, z'
loop_
 _atom_site_type_symbol
 _atom_site_label
 _atom_site_symmetry_multiplicity
 _atom_site_fract_x
 _atom_site_fract_y
 _atom_site_fract_z
 _atom_site_occupancy
  Ba  Ba0  1  0.796704  0.202932  0.001307  1
  Mn  Mn1  1  0.502912  0.005107  0.254500  1
  Mn  Mn2  1  0.995351  0.496800  0.745757  1
  F  F3  1  0.850075  0.753787  0.046647  1
  F  F4  1  0.481217  0.741147  0.182756  1
  F  F5  1  0.535656  0.255961  0.310040  1
  F  F6  1  0.113477  0.277257  0.424518  1
  F  F7  1  0.723328  0.887521  0.576832  1
  F  F8  1  0.747725  0.460719  0.686599  1
  F  F9  1  0.255914  0.521799  0.819760  1
  F  F10  1  0.246500  0.148115  0.951284  1
