# generated using pymatgen
data_YbHo2Th5(Pt2Pb)4
_symmetry_space_group_name_H-M   'P 1'
_cell_length_a   8.08859079
_cell_length_b   8.08859089
_cell_length_c   7.36646200
_cell_angle_alpha   90.00000000
_cell_angle_beta   90.00000000
_cell_angle_gamma   89.97556162
_symmetry_Int_Tables_number   1
_chemical_formula_structural   YbHo2Th5(Pt2Pb)4
_chemical_formula_sum   'Yb1 Ho2 Th5 Pt8 Pb4'
_cell_volume   481.95295589
_cell_formula_units_Z   1
loop_
 _symmetry_equiv_pos_site_id
 _symmetry_equiv_pos_as_xyz
  1  'x, y, z'
loop_
 _atom_site_type_symbol
 _atom_site_label
 _atom_site_symmetry_multiplicity
 _atom_site_fract_x
 _atom_site_fract_y
 _atom_site_fract_z
 _atom_site_occupancy
  Yb  Yb0  1  0.662886  0.662886  0.500000  1
  Ho  Ho1  1  0.840170  0.158364  0.000000  1
  Ho  Ho2  1  0.158364  0.840170  0.000000  1
  Th  Th3  1  0.676625  0.676625  0.000000  1
  Th  Th4  1  0.341859  0.341859  0.500000  1
  Th  Th5  1  0.824050  0.174180  0.500000  1
  Th  Th6  1  0.325645  0.325645  0.000000  1
  Th  Th7  1  0.174180  0.824050  0.500000  1
  Pt  Pt8  1  0.874418  0.874418  0.737063  1
  Pt  Pt9  1  0.130510  0.130510  0.736811  1
  Pt  Pt10  1  0.628205  0.368645  0.767930  1
  Pt  Pt11  1  0.628205  0.368645  0.232070  1
  Pt  Pt12  1  0.368645  0.628205  0.232070  1
  Pt  Pt13  1  0.130510  0.130510  0.263189  1
  Pt  Pt14  1  0.874418  0.874418  0.262937  1
  Pt  Pt15  1  0.368645  0.628205  0.767930  1
  Pb  Pb16  1  0.502106  0.994227  0.751977  1
  Pb  Pb17  1  0.502106  0.994227  0.248023  1
  Pb  Pb18  1  0.994227  0.502106  0.751977  1
  Pb  Pb19  1  0.994227  0.502106  0.248023  1
