# generated using pymatgen
data_Dy10ErIn9Co4
_symmetry_space_group_name_H-M   'P 1'
_cell_length_a   12.91971824
_cell_length_b   12.91971893
_cell_length_c   3.62538900
_cell_angle_alpha   90.00000000
_cell_angle_beta   90.00000000
_cell_angle_gamma   111.03195194
_symmetry_Int_Tables_number   1
_chemical_formula_structural   Dy10ErIn9Co4
_chemical_formula_sum   'Dy10 Er1 In9 Co4'
_cell_volume   564.83215467
_cell_formula_units_Z   1
loop_
 _symmetry_equiv_pos_site_id
 _symmetry_equiv_pos_as_xyz
  1  'x, y, z'
loop_
 _atom_site_type_symbol
 _atom_site_label
 _atom_site_symmetry_multiplicity
 _atom_site_fract_x
 _atom_site_fract_y
 _atom_site_fract_z
 _atom_site_occupancy
  Dy  Dy0  1  0.419019  0.080608  0.000000  1
  Dy  Dy1  1  0.581312  0.918808  0.000000  1
  Dy  Dy2  1  0.080608  0.419019  0.000000  1
  Dy  Dy3  1  0.918808  0.581312  0.000000  1
  Dy  Dy4  1  0.160697  0.839278  0.000000  1
  Dy  Dy5  1  0.839278  0.160697  0.000000  1
  Dy  Dy6  1  0.375920  0.624538  0.000000  1
  Dy  Dy7  1  0.624538  0.375920  0.000000  1
  Dy  Dy8  1  0.314747  0.314747  0.000000  1
  Dy  Dy9  1  0.000112  0.000112  0.000000  1
  Er  Er10  1  0.684939  0.684939  0.000000  1
  In  In11  1  0.369103  0.839354  0.500000  1
  In  In12  1  0.631042  0.160611  0.500000  1
  In  In13  1  0.839354  0.369103  0.500000  1
  In  In14  1  0.160611  0.631042  0.500000  1
  In  In15  1  0.220909  0.079002  0.500000  1
  In  In16  1  0.779159  0.920436  0.500000  1
  In  In17  1  0.079002  0.220909  0.500000  1
  In  In18  1  0.920436  0.779159  0.500000  1
  In  In19  1  0.500454  0.500454  0.500000  1
  Co  Co20  1  0.449207  0.245873  0.500000  1
  Co  Co21  1  0.551355  0.753516  0.500000  1
  Co  Co22  1  0.245873  0.449207  0.500000  1
  Co  Co23  1  0.753516  0.551355  0.500000  1
