# generated using pymatgen
data_Tb9Yb4Pr7Si16
_symmetry_space_group_name_H-M   'P 1'
_cell_length_a   7.52635544
_cell_length_b   7.85990746
_cell_length_c   14.94541462
_cell_angle_alpha   89.86157748
_cell_angle_beta   89.85565393
_cell_angle_gamma   90.02683738
_symmetry_Int_Tables_number   1
_chemical_formula_structural   Tb9Yb4Pr7Si16
_chemical_formula_sum   'Tb9 Yb4 Pr7 Si16'
_cell_volume   884.11229678
_cell_formula_units_Z   1
loop_
 _symmetry_equiv_pos_site_id
 _symmetry_equiv_pos_as_xyz
  1  'x, y, z'
loop_
 _atom_site_type_symbol
 _atom_site_label
 _atom_site_symmetry_multiplicity
 _atom_site_fract_x
 _atom_site_fract_y
 _atom_site_fract_z
 _atom_site_occupancy
  Tb  Tb0  1  0.317907  0.181831  0.124460  1
  Tb  Tb1  1  0.819211  0.316536  0.376747  1
  Tb  Tb2  1  0.180837  0.682649  0.876892  1
  Tb  Tb3  1  0.682519  0.818368  0.622830  1
  Tb  Tb4  1  0.317591  0.181631  0.377634  1
  Tb  Tb5  1  0.819146  0.316662  0.123899  1
  Tb  Tb6  1  0.181601  0.683594  0.621891  1
  Tb  Tb7  1  0.681254  0.817644  0.877196  1
  Tb  Tb8  1  0.965220  0.814947  0.397636  1
  Yb  Yb9  1  0.354133  0.012761  0.750034  1
  Yb  Yb10  1  0.854022  0.487729  0.749652  1
  Yb  Yb11  1  0.146435  0.512364  0.250337  1
  Yb  Yb12  1  0.644540  0.986752  0.250314  1
  Pr  Pr13  1  0.469567  0.681542  0.100779  1
  Pr  Pr14  1  0.532948  0.317676  0.599526  1
  Pr  Pr15  1  0.030508  0.182075  0.900441  1
  Pr  Pr16  1  0.031153  0.183001  0.598469  1
  Pr  Pr17  1  0.530505  0.318111  0.900160  1
  Pr  Pr18  1  0.469210  0.682594  0.399899  1
  Pr  Pr19  1  0.969344  0.817489  0.100139  1
  Si  Si20  1  0.855095  0.536322  0.533654  1
  Si  Si21  1  0.355106  0.968197  0.964843  1
  Si  Si22  1  0.648381  0.029181  0.462919  1
  Si  Si23  1  0.145220  0.467808  0.036091  1
  Si  Si24  1  0.142390  0.473054  0.461821  1
  Si  Si25  1  0.643962  0.031695  0.036291  1
  Si  Si26  1  0.358913  0.969626  0.536355  1
  Si  Si27  1  0.855495  0.531480  0.964663  1
  Si  Si28  1  0.974876  0.893175  0.749404  1
  Si  Si29  1  0.474176  0.607462  0.749663  1
  Si  Si30  1  0.525896  0.393712  0.250901  1
  Si  Si31  1  0.023092  0.102677  0.251916  1
  Si  Si32  1  0.241170  0.388887  0.749300  1
  Si  Si33  1  0.741924  0.111951  0.749708  1
  Si  Si34  1  0.255800  0.885924  0.252431  1
  Si  Si35  1  0.760853  0.612889  0.251103  1
