# generated using pymatgen
data_Pr3Cd3Sn2Pd
_symmetry_space_group_name_H-M   'P 1'
_cell_length_a   7.60377300
_cell_length_b   7.60377275
_cell_length_c   4.69235800
_cell_angle_alpha   90.00000000
_cell_angle_beta   90.00000000
_cell_angle_gamma   120.00000546
_symmetry_Int_Tables_number   1
_chemical_formula_structural   Pr3Cd3Sn2Pd
_chemical_formula_sum   'Pr3 Cd3 Sn2 Pd1'
_cell_volume   234.95247184
_cell_formula_units_Z   1
loop_
 _symmetry_equiv_pos_site_id
 _symmetry_equiv_pos_as_xyz
  1  'x, y, z'
loop_
 _atom_site_type_symbol
 _atom_site_label
 _atom_site_symmetry_multiplicity
 _atom_site_fract_x
 _atom_site_fract_y
 _atom_site_fract_z
 _atom_site_occupancy
  Pr  Pr0  1  0.398787  0.398787  0.500000  1
  Pr  Pr1  1  0.000000  0.601213  0.500000  1
  Pr  Pr2  1  0.601213  0.000000  0.500000  1
  Cd  Cd3  1  0.767130  0.767130  0.000000  1
  Cd  Cd4  1  0.232870  0.000000  0.000000  1
  Cd  Cd5  1  0.000000  0.232870  0.000000  1
  Sn  Sn6  1  0.666667  0.333333  0.000000  1
  Sn  Sn7  1  0.333333  0.666667  0.000000  1
  Pd  Pd8  1  0.000000  0.000000  0.500000  1
