# generated using pymatgen
data_PuNpB6Ru
_symmetry_space_group_name_H-M   'P 1'
_cell_length_a   3.57442100
_cell_length_b   9.35583000
_cell_length_c   11.41157600
_cell_angle_alpha   90.00000000
_cell_angle_beta   90.00000000
_cell_angle_gamma   90.00000000
_symmetry_Int_Tables_number   1
_chemical_formula_structural   PuNpB6Ru
_chemical_formula_sum   'Pu4 Np4 B24 Ru4'
_cell_volume   381.62221839
_cell_formula_units_Z   4
loop_
 _symmetry_equiv_pos_site_id
 _symmetry_equiv_pos_as_xyz
  1  'x, y, z'
loop_
 _atom_site_type_symbol
 _atom_site_label
 _atom_site_symmetry_multiplicity
 _atom_site_fract_x
 _atom_site_fract_y
 _atom_site_fract_z
 _atom_site_occupancy
  Pu  Pu0  1  0.000000  0.338280  0.406692  1
  Pu  Pu1  1  0.000000  0.661720  0.593308  1
  Pu  Pu2  1  0.000000  0.838280  0.093308  1
  Pu  Pu3  1  0.000000  0.161720  0.906692  1
  Np  Np4  1  0.000000  0.959341  0.401485  1
  Np  Np5  1  0.000000  0.040659  0.598515  1
  Np  Np6  1  0.000000  0.459341  0.098515  1
  Np  Np7  1  0.000000  0.540659  0.901485  1
  B  B8  1  0.500000  0.552535  0.430975  1
  B  B9  1  0.500000  0.447465  0.569025  1
  B  B10  1  0.500000  0.052535  0.069025  1
  B  B11  1  0.500000  0.947465  0.930975  1
  B  B12  1  0.500000  0.742924  0.423438  1
  B  B13  1  0.500000  0.257076  0.576562  1
  B  B14  1  0.500000  0.242924  0.076562  1
  B  B15  1  0.500000  0.757076  0.923438  1
  B  B16  1  0.500000  0.805757  0.274965  1
  B  B17  1  0.500000  0.194243  0.725035  1
  B  B18  1  0.500000  0.305757  0.225035  1
  B  B19  1  0.500000  0.694243  0.774965  1
  B  B20  1  0.500000  0.646753  0.188892  1
  B  B21  1  0.500000  0.353247  0.811108  1
  B  B22  1  0.500000  0.146753  0.311108  1
  B  B23  1  0.500000  0.853247  0.688892  1
  B  B24  1  0.500000  0.989891  0.220500  1
  B  B25  1  0.500000  0.010109  0.779500  1
  B  B26  1  0.500000  0.489891  0.279500  1
  B  B27  1  0.500000  0.510109  0.720500  1
  B  B28  1  0.500000  0.644245  0.040141  1
  B  B29  1  0.500000  0.355755  0.959859  1
  B  B30  1  0.500000  0.144245  0.459859  1
  B  B31  1  0.500000  0.855755  0.540141  1
  Ru  Ru32  1  0.000000  0.647723  0.319192  1
  Ru  Ru33  1  0.000000  0.352277  0.680808  1
  Ru  Ru34  1  0.000000  0.147723  0.180808  1
  Ru  Ru35  1  0.000000  0.852277  0.819192  1
