# generated using pymatgen
data_Tm10Ga4BiRu
_symmetry_space_group_name_H-M   'P 1'
_cell_length_a   8.93808983
_cell_length_b   8.93809002
_cell_length_c   8.93809035
_cell_angle_alpha   130.40614885
_cell_angle_beta   130.40615008
_cell_angle_gamma   72.75830337
_symmetry_Int_Tables_number   1
_chemical_formula_structural   Tm10Ga4BiRu
_chemical_formula_sum   'Tm10 Ga4 Bi1 Ru1'
_cell_volume   404.49489056
_cell_formula_units_Z   1
loop_
 _symmetry_equiv_pos_site_id
 _symmetry_equiv_pos_as_xyz
  1  'x, y, z'
loop_
 _atom_site_type_symbol
 _atom_site_label
 _atom_site_symmetry_multiplicity
 _atom_site_fract_x
 _atom_site_fract_y
 _atom_site_fract_z
 _atom_site_occupancy
  Tm  Tm0  1  0.983469  0.983469  0.000000  1
  Tm  Tm1  1  0.516531  0.516531  0.000000  1
  Tm  Tm2  1  0.842054  0.288099  0.836364  1
  Tm  Tm3  1  0.211901  0.657946  0.163636  1
  Tm  Tm4  1  0.451735  0.005689  0.163636  1
  Tm  Tm5  1  0.288099  0.451735  0.446046  1
  Tm  Tm6  1  0.048265  0.211901  0.553954  1
  Tm  Tm7  1  0.494311  0.048265  0.836364  1
  Tm  Tm8  1  0.657946  0.494311  0.446046  1
  Tm  Tm9  1  0.005689  0.842054  0.553954  1
  Ga  Ga10  1  0.125197  0.625197  0.750393  1
  Ga  Ga11  1  0.874803  0.374803  0.249607  1
  Ga  Ga12  1  0.625197  0.874803  0.500000  1
  Ga  Ga13  1  0.374803  0.125197  0.500000  1
  Bi  Bi14  1  0.750000  0.750000  0.000000  1
  Ru  Ru15  1  0.250000  0.250000  0.000000  1
