# generated using pymatgen
data_Sc2USn3Ir2Ru
_symmetry_space_group_name_H-M   'P 1'
_cell_length_a   7.58453800
_cell_length_b   7.53155225
_cell_length_c   3.61751600
_cell_angle_alpha   90.00000000
_cell_angle_beta   90.00000000
_cell_angle_gamma   120.23299572
_symmetry_Int_Tables_number   1
_chemical_formula_structural   Sc2USn3Ir2Ru
_chemical_formula_sum   'Sc2 U1 Sn3 Ir2 Ru1'
_cell_volume   178.53784021
_cell_formula_units_Z   1
loop_
 _symmetry_equiv_pos_site_id
 _symmetry_equiv_pos_as_xyz
  1  'x, y, z'
loop_
 _atom_site_type_symbol
 _atom_site_label
 _atom_site_symmetry_multiplicity
 _atom_site_fract_x
 _atom_site_fract_y
 _atom_site_fract_z
 _atom_site_occupancy
  Sc  Sc0  1  0.998226  0.397250  0.500000  1
  Sc  Sc1  1  0.600975  0.602750  0.500000  1
  U  U2  1  0.404758  0.000000  0.500000  1
  Sn  Sn3  1  0.979786  0.712524  0.000000  1
  Sn  Sn4  1  0.267261  0.287476  0.000000  1
  Sn  Sn5  1  0.751357  0.000000  0.000000  1
  Ir  Ir6  1  0.336398  0.691830  0.000000  1
  Ir  Ir7  1  0.644569  0.308170  0.000000  1
  Ru  Ru8  1  0.016670  0.000000  0.500000  1
