# generated using pymatgen
data_Hf2Cu12MoWS16
_symmetry_space_group_name_H-M   'P 1'
_cell_length_a   7.68485500
_cell_length_b   7.68485505
_cell_length_c   12.53838100
_cell_angle_alpha   90.00000000
_cell_angle_beta   90.00000000
_cell_angle_gamma   119.99999548
_symmetry_Int_Tables_number   1
_chemical_formula_structural   Hf2Cu12MoWS16
_chemical_formula_sum   'Hf2 Cu12 Mo1 W1 S16'
_cell_volume   641.27376325
_cell_formula_units_Z   1
loop_
 _symmetry_equiv_pos_site_id
 _symmetry_equiv_pos_as_xyz
  1  'x, y, z'
loop_
 _atom_site_type_symbol
 _atom_site_label
 _atom_site_symmetry_multiplicity
 _atom_site_fract_x
 _atom_site_fract_y
 _atom_site_fract_z
 _atom_site_occupancy
  Hf  Hf0  1  0.000000  0.000000  0.849169  1
  Hf  Hf1  1  0.000000  0.000000  0.349192  1
  Cu  Cu2  1  0.836112  0.672224  0.104576  1
  Cu  Cu3  1  0.500837  0.499163  0.354839  1
  Cu  Cu4  1  0.002962  0.501481  0.854358  1
  Cu  Cu5  1  0.836112  0.163888  0.104576  1
  Cu  Cu6  1  0.498519  0.501481  0.854358  1
  Cu  Cu7  1  0.164490  0.328980  0.604090  1
  Cu  Cu8  1  0.500837  0.001674  0.354839  1
  Cu  Cu9  1  0.998326  0.499163  0.354839  1
  Cu  Cu10  1  0.164490  0.835510  0.604090  1
  Cu  Cu11  1  0.498519  0.997038  0.854358  1
  Cu  Cu12  1  0.671020  0.835510  0.604090  1
  Cu  Cu13  1  0.327776  0.163888  0.104576  1
  Mo  Mo14  1  0.333333  0.666667  0.480137  1
  W  W15  1  0.666667  0.333333  0.980100  1
  S  S16  1  0.000000  0.000000  0.042551  1
  S  S17  1  0.345414  0.172707  0.289367  1
  S  S18  1  0.827293  0.172707  0.289367  1
  S  S19  1  0.011409  0.505705  0.540103  1
  S  S20  1  0.827293  0.654586  0.289367  1
  S  S21  1  0.666667  0.333333  0.799047  1
  S  S22  1  0.172669  0.345337  0.789210  1
  S  S23  1  0.494295  0.505705  0.540103  1
  S  S24  1  0.000000  0.000000  0.542594  1
  S  S25  1  0.333333  0.666667  0.299113  1
  S  S26  1  0.988613  0.494306  0.040159  1
  S  S27  1  0.494295  0.988591  0.540103  1
  S  S28  1  0.172669  0.827331  0.789210  1
  S  S29  1  0.654663  0.827331  0.789210  1
  S  S30  1  0.505694  0.011387  0.040159  1
  S  S31  1  0.505694  0.494306  0.040159  1
