# generated using pymatgen
data_SrLa3(PaS5)2
_symmetry_space_group_name_H-M   'P 1'
_cell_length_a   7.55895700
_cell_length_b   8.13025357
_cell_length_c   11.91487100
_cell_angle_alpha   90.00000000
_cell_angle_beta   90.00000000
_cell_angle_gamma   90.40744617
_symmetry_Int_Tables_number   1
_chemical_formula_structural   SrLa3(PaS5)2
_chemical_formula_sum   'Sr2 La6 Pa4 S20'
_cell_volume   732.22462315
_cell_formula_units_Z   2
loop_
 _symmetry_equiv_pos_site_id
 _symmetry_equiv_pos_as_xyz
  1  'x, y, z'
loop_
 _atom_site_type_symbol
 _atom_site_label
 _atom_site_symmetry_multiplicity
 _atom_site_fract_x
 _atom_site_fract_y
 _atom_site_fract_z
 _atom_site_occupancy
  Sr  Sr0  1  0.536363  0.503199  0.325571  1
  Sr  Sr1  1  0.963637  0.996801  0.825571  1
  La  La2  1  0.467152  0.002184  0.678186  1
  La  La3  1  0.032848  0.497816  0.178186  1
  La  La4  1  0.464304  0.497722  0.672280  1
  La  La5  1  0.035696  0.002278  0.172280  1
  La  La6  1  0.533142  0.997975  0.325014  1
  La  La7  1  0.966858  0.502025  0.825014  1
  Pa  Pa8  1  0.069076  0.754659  0.492009  1
  Pa  Pa9  1  0.430924  0.745341  0.992009  1
  Pa  Pa10  1  0.930204  0.247856  0.508695  1
  Pa  Pa11  1  0.569796  0.252144  0.008695  1
  S  S12  1  0.829862  0.955865  0.586195  1
  S  S13  1  0.670138  0.544135  0.086195  1
  S  S14  1  0.161444  0.461256  0.411724  1
  S  S15  1  0.338556  0.038744  0.911724  1
  S  S16  1  0.167006  0.044730  0.408526  1
  S  S17  1  0.332994  0.455270  0.908526  1
  S  S18  1  0.833462  0.541750  0.590335  1
  S  S19  1  0.666538  0.958250  0.090335  1
  S  S20  1  0.846551  0.754519  0.311068  1
  S  S21  1  0.653449  0.745481  0.811068  1
  S  S22  1  0.161394  0.255168  0.685452  1
  S  S23  1  0.338606  0.244832  0.185452  1
  S  S24  1  0.446891  0.757271  0.499453  1
  S  S25  1  0.053109  0.742729  0.999453  1
  S  S26  1  0.551891  0.244820  0.505513  1
  S  S27  1  0.948109  0.255180  0.005513  1
  S  S28  1  0.187088  0.746095  0.711776  1
  S  S29  1  0.312912  0.753905  0.211776  1
  S  S30  1  0.816431  0.244417  0.288200  1
  S  S31  1  0.683569  0.255583  0.788200  1
