# generated using pymatgen
data_CePmCu4
_symmetry_space_group_name_H-M   'P 1'
_cell_length_a   5.62644682
_cell_length_b   5.62644794
_cell_length_c   5.62644695
_cell_angle_alpha   135.37521100
_cell_angle_beta   99.17261975
_cell_angle_gamma   97.40419303
_symmetry_Int_Tables_number   1
_chemical_formula_structural   CePmCu4
_chemical_formula_sum   'Ce1 Pm1 Cu4'
_cell_volume   115.73309029
_cell_formula_units_Z   1
loop_
 _symmetry_equiv_pos_site_id
 _symmetry_equiv_pos_as_xyz
  1  'x, y, z'
loop_
 _atom_site_type_symbol
 _atom_site_label
 _atom_site_symmetry_multiplicity
 _atom_site_fract_x
 _atom_site_fract_y
 _atom_site_fract_z
 _atom_site_occupancy
  Ce  Ce0  1  0.000000  0.000000  0.000000  1
  Pm  Pm1  1  0.500000  0.500000  0.000000  1
  Cu  Cu2  1  0.581581  0.248842  0.332740  1
  Cu  Cu3  1  0.083899  0.751159  0.332741  1
  Cu  Cu4  1  0.916102  0.248842  0.667261  1
  Cu  Cu5  1  0.418419  0.751159  0.667260  1
