# generated using pymatgen
data_Y20Ir3Rh8Au
_symmetry_space_group_name_H-M   'P 1'
_cell_length_a   11.00406414
_cell_length_b   11.00406342
_cell_length_c   6.37633795
_cell_angle_alpha   89.95858232
_cell_angle_beta   89.95858161
_cell_angle_gamma   89.63664792
_symmetry_Int_Tables_number   1
_chemical_formula_structural   Y20Ir3Rh8Au
_chemical_formula_sum   'Y20 Ir3 Rh8 Au1'
_cell_volume   772.09113487
_cell_formula_units_Z   1
loop_
 _symmetry_equiv_pos_site_id
 _symmetry_equiv_pos_as_xyz
  1  'x, y, z'
loop_
 _atom_site_type_symbol
 _atom_site_label
 _atom_site_symmetry_multiplicity
 _atom_site_fract_x
 _atom_site_fract_y
 _atom_site_fract_z
 _atom_site_occupancy
  Y  Y0  1  0.290743  0.090591  0.378415  1
  Y  Y1  1  0.292674  0.908634  0.877927  1
  Y  Y2  1  0.704629  0.085854  0.869022  1
  Y  Y3  1  0.706148  0.904972  0.380695  1
  Y  Y4  1  0.587557  0.789415  0.881357  1
  Y  Y5  1  0.581139  0.210380  0.379832  1
  Y  Y6  1  0.411802  0.789946  0.379998  1
  Y  Y7  1  0.409033  0.209514  0.881029  1
  Y  Y8  1  0.210585  0.412443  0.618643  1
  Y  Y9  1  0.210054  0.588198  0.120002  1
  Y  Y10  1  0.789620  0.418861  0.120168  1
  Y  Y11  1  0.790486  0.590967  0.618971  1
  Y  Y12  1  0.909409  0.709257  0.121585  1
  Y  Y13  1  0.914146  0.295371  0.630978  1
  Y  Y14  1  0.091366  0.707326  0.622073  1
  Y  Y15  1  0.095028  0.293852  0.119305  1
  Y  Y16  1  0.003346  0.995996  0.501536  1
  Y  Y17  1  0.004004  0.996654  0.998464  1
  Y  Y18  1  0.499025  0.499797  0.999267  1
  Y  Y19  1  0.500203  0.500975  0.500733  1
  Ir  Ir20  1  0.654708  0.653263  0.248938  1
  Ir  Ir21  1  0.346737  0.345292  0.251062  1
  Ir  Ir22  1  0.345144  0.654856  0.750000  1
  Rh  Rh23  1  0.846262  0.847712  0.749944  1
  Rh  Rh24  1  0.152288  0.153738  0.750056  1
  Rh  Rh25  1  0.154348  0.845652  0.250000  1
  Rh  Rh26  1  0.656074  0.343926  0.750000  1
  Rh  Rh27  1  0.500331  0.000391  0.126436  1
  Rh  Rh28  1  0.500324  0.001282  0.624882  1
  Rh  Rh29  1  0.998718  0.499676  0.875118  1
  Rh  Rh30  1  0.999609  0.499669  0.373564  1
  Au  Au31  1  0.844460  0.155540  0.250000  1
