# generated using pymatgen
data_Y5Ho3(ErIn5)4
_symmetry_space_group_name_H-M   'P 1'
_cell_length_a   6.50381104
_cell_length_b   10.41064636
_cell_length_c   12.27324105
_cell_angle_alpha   89.92398655
_cell_angle_beta   89.99070407
_cell_angle_gamma   90.01049393
_symmetry_Int_Tables_number   1
_chemical_formula_structural   Y5Ho3(ErIn5)4
_chemical_formula_sum   'Y5 Ho3 Er4 In20'
_cell_volume   831.00660857
_cell_formula_units_Z   1
loop_
 _symmetry_equiv_pos_site_id
 _symmetry_equiv_pos_as_xyz
  1  'x, y, z'
loop_
 _atom_site_type_symbol
 _atom_site_label
 _atom_site_symmetry_multiplicity
 _atom_site_fract_x
 _atom_site_fract_y
 _atom_site_fract_z
 _atom_site_occupancy
  Y  Y0  1  0.390172  0.506921  0.357843  1
  Y  Y1  1  0.109778  0.507096  0.858052  1
  Y  Y2  1  0.390371  0.993029  0.358258  1
  Y  Y3  1  0.890083  0.007074  0.141686  1
  Y  Y4  1  0.609973  0.492902  0.642401  1
  Ho  Ho5  1  0.890658  0.493173  0.141764  1
  Ho  Ho6  1  0.609283  0.006788  0.641660  1
  Ho  Ho7  1  0.109319  0.993090  0.858420  1
  Er  Er8  1  0.350132  0.750196  0.055820  1
  Er  Er9  1  0.149930  0.749655  0.555895  1
  Er  Er10  1  0.650073  0.250540  0.944156  1
  Er  Er11  1  0.850477  0.249666  0.444255  1
  In  In12  1  0.615937  0.750312  0.505537  1
  In  In13  1  0.884384  0.749857  0.005306  1
  In  In14  1  0.384662  0.249739  0.495227  1
  In  In15  1  0.115734  0.249694  0.994518  1
  In  In16  1  0.651433  0.749649  0.245256  1
  In  In17  1  0.848763  0.751144  0.745419  1
  In  In18  1  0.348746  0.248919  0.754638  1
  In  In19  1  0.150736  0.250221  0.254302  1
  In  In20  1  0.125227  0.750059  0.284005  1
  In  In21  1  0.373973  0.750922  0.784228  1
  In  In22  1  0.873860  0.248983  0.715759  1
  In  In23  1  0.626061  0.250525  0.215742  1
  In  In24  1  0.875313  0.543601  0.400856  1
  In  In25  1  0.624806  0.956570  0.900499  1
  In  In26  1  0.124682  0.043363  0.599562  1
  In  In27  1  0.374987  0.456217  0.098645  1
  In  In28  1  0.124654  0.455837  0.598830  1
  In  In29  1  0.375471  0.043933  0.098543  1
  In  In30  1  0.875610  0.956177  0.401432  1
  In  In31  1  0.624718  0.544147  0.901485  1
