# generated using pymatgen
data_Tb3Er3Co16(TcP6)2
_symmetry_space_group_name_H-M   'P 1'
_cell_length_a   3.70304500
_cell_length_b   10.52379206
_cell_length_c   12.21497217
_cell_angle_alpha   89.98420182
_cell_angle_beta   90.00000000
_cell_angle_gamma   90.00000000
_symmetry_Int_Tables_number   1
_chemical_formula_structural   Tb3Er3Co16(TcP6)2
_chemical_formula_sum   'Tb3 Er3 Co16 Tc2 P12'
_cell_volume   476.01837057
_cell_formula_units_Z   1
loop_
 _symmetry_equiv_pos_site_id
 _symmetry_equiv_pos_as_xyz
  1  'x, y, z'
loop_
 _atom_site_type_symbol
 _atom_site_label
 _atom_site_symmetry_multiplicity
 _atom_site_fract_x
 _atom_site_fract_y
 _atom_site_fract_z
 _atom_site_occupancy
  Tb  Tb0  1  0.000000  0.500071  0.523999  1
  Tb  Tb1  1  0.500000  0.000153  0.475665  1
  Tb  Tb2  1  0.000000  0.317637  0.794133  1
  Er  Er3  1  0.500000  0.817617  0.205880  1
  Er  Er4  1  0.500000  0.182133  0.205328  1
  Er  Er5  1  0.000000  0.682615  0.794470  1
  Co  Co6  1  0.500000  0.500933  0.703328  1
  Co  Co7  1  0.000000  0.999777  0.296387  1
  Co  Co8  1  0.000000  0.500588  0.987664  1
  Co  Co9  1  0.500000  0.999432  0.013325  1
  Co  Co10  1  0.500000  0.332239  0.990759  1
  Co  Co11  1  0.500000  0.668184  0.990184  1
  Co  Co12  1  0.000000  0.167328  0.010669  1
  Co  Co13  1  0.000000  0.832081  0.010416  1
  Co  Co14  1  0.500000  0.296336  0.429814  1
  Co  Co15  1  0.500000  0.703909  0.430620  1
  Co  Co16  1  0.000000  0.203751  0.568319  1
  Co  Co17  1  0.000000  0.796448  0.569380  1
  Co  Co18  1  0.500000  0.878576  0.708577  1
  Co  Co19  1  0.500000  0.120363  0.707732  1
  Co  Co20  1  0.000000  0.621192  0.291798  1
  Co  Co21  1  0.000000  0.378615  0.291287  1
  Tc  Tc22  1  0.500000  0.500017  0.156358  1
  Tc  Tc23  1  0.000000  0.000061  0.843882  1
  P  P24  1  0.500000  0.500870  0.881613  1
  P  P25  1  0.000000  0.999635  0.119338  1
  P  P26  1  0.500000  0.500000  0.348352  1
  P  P27  1  0.000000  0.000184  0.651610  1
  P  P28  1  0.500000  0.311024  0.615370  1
  P  P29  1  0.500000  0.689149  0.616758  1
  P  P30  1  0.000000  0.188573  0.382562  1
  P  P31  1  0.000000  0.811254  0.383182  1
  P  P32  1  0.500000  0.845893  0.892641  1
  P  P33  1  0.500000  0.153327  0.893355  1
  P  P34  1  0.000000  0.654298  0.107902  1
  P  P35  1  0.000000  0.345740  0.107343  1
