# generated using pymatgen
data_Na2Yb(PO3)4
_symmetry_space_group_name_H-M   'P 1'
_cell_length_a   9.71250500
_cell_length_b   9.71250500
_cell_length_c   4.99814900
_cell_angle_alpha   90.00000000
_cell_angle_beta   90.00000000
_cell_angle_gamma   90.00000000
_symmetry_Int_Tables_number   1
_chemical_formula_structural   Na2Yb(PO3)4
_chemical_formula_sum   'Na4 Yb2 P8 O24'
_cell_volume   471.48915695
_cell_formula_units_Z   2
loop_
 _symmetry_equiv_pos_site_id
 _symmetry_equiv_pos_as_xyz
  1  'x, y, z'
loop_
 _atom_site_type_symbol
 _atom_site_label
 _atom_site_symmetry_multiplicity
 _atom_site_fract_x
 _atom_site_fract_y
 _atom_site_fract_z
 _atom_site_occupancy
  Na  Na0  1  0.750000  0.750000  0.500000  1
  Na  Na1  1  0.750000  0.250000  0.500000  1
  Na  Na2  1  0.250000  0.750000  0.500000  1
  Na  Na3  1  0.250000  0.250000  0.500000  1
  Yb  Yb4  1  0.000000  0.000000  0.500000  1
  Yb  Yb5  1  0.500000  0.500000  0.500000  1
  P  P6  1  0.000000  0.280401  0.000000  1
  P  P7  1  0.280401  0.000000  0.000000  1
  P  P8  1  0.719599  0.000000  0.000000  1
  P  P9  1  0.000000  0.719599  0.000000  1
  P  P10  1  0.500000  0.219599  0.000000  1
  P  P11  1  0.219599  0.500000  0.000000  1
  P  P12  1  0.780401  0.500000  0.000000  1
  P  P13  1  0.500000  0.780401  0.000000  1
  O  O14  1  0.114262  0.385738  0.125295  1
  O  O15  1  0.385738  0.885738  0.125295  1
  O  O16  1  0.614262  0.114262  0.125295  1
  O  O17  1  0.885738  0.614262  0.125295  1
  O  O18  1  0.885738  0.385738  0.874705  1
  O  O19  1  0.114262  0.614262  0.874705  1
  O  O20  1  0.385738  0.114262  0.874705  1
  O  O21  1  0.614262  0.885738  0.874705  1
  O  O22  1  0.795253  0.941648  0.235154  1
  O  O23  1  0.941648  0.204747  0.235154  1
  O  O24  1  0.058352  0.795253  0.235154  1
  O  O25  1  0.204747  0.058352  0.235154  1
  O  O26  1  0.204747  0.941648  0.764846  1
  O  O27  1  0.795253  0.058352  0.764846  1
  O  O28  1  0.941648  0.795253  0.764846  1
  O  O29  1  0.058352  0.204747  0.764846  1
  O  O30  1  0.704747  0.558352  0.764846  1
  O  O31  1  0.558352  0.295253  0.764846  1
  O  O32  1  0.441648  0.704747  0.764846  1
  O  O33  1  0.295253  0.441648  0.764846  1
  O  O34  1  0.295253  0.558352  0.235154  1
  O  O35  1  0.704747  0.441648  0.235154  1
  O  O36  1  0.558352  0.704747  0.235154  1
  O  O37  1  0.441648  0.295253  0.235154  1
