# generated using pymatgen
data_Ca3Tm(TcB4)4
_symmetry_space_group_name_H-M   'P 1'
_cell_length_a   3.56447200
_cell_length_b   5.98273938
_cell_length_c   11.56677900
_cell_angle_alpha   89.90999676
_cell_angle_beta   90.00000000
_cell_angle_gamma   90.00000000
_symmetry_Int_Tables_number   1
_chemical_formula_structural   Ca3Tm(TcB4)4
_chemical_formula_sum   'Ca3 Tm1 Tc4 B16'
_cell_volume   246.66480894
_cell_formula_units_Z   1
loop_
 _symmetry_equiv_pos_site_id
 _symmetry_equiv_pos_as_xyz
  1  'x, y, z'
loop_
 _atom_site_type_symbol
 _atom_site_label
 _atom_site_symmetry_multiplicity
 _atom_site_fract_x
 _atom_site_fract_y
 _atom_site_fract_z
 _atom_site_occupancy
  Ca  Ca0  1  0.500000  0.372612  0.149688  1
  Ca  Ca1  1  0.500000  0.628212  0.849722  1
  Ca  Ca2  1  0.500000  0.128197  0.651558  1
  Tm  Tm3  1  0.500000  0.870983  0.349227  1
  Tc  Tc4  1  0.500000  0.370140  0.415196  1
  Tc  Tc5  1  0.500000  0.631631  0.581558  1
  Tc  Tc6  1  0.500000  0.130375  0.917687  1
  Tc  Tc7  1  0.500000  0.870705  0.084755  1
  B  B8  1  0.000000  0.113010  0.048254  1
  B  B9  1  0.000000  0.885944  0.953458  1
  B  B10  1  0.000000  0.386350  0.546770  1
  B  B11  1  0.000000  0.613344  0.451444  1
  B  B12  1  0.000000  0.134867  0.467401  1
  B  B13  1  0.000000  0.864966  0.530677  1
  B  B14  1  0.000000  0.365204  0.968179  1
  B  B15  1  0.000000  0.634601  0.032695  1
  B  B16  1  0.000000  0.021645  0.193898  1
  B  B17  1  0.000000  0.977651  0.807618  1
  B  B18  1  0.000000  0.478061  0.692054  1
  B  B19  1  0.000000  0.523995  0.307106  1
  B  B20  1  0.000000  0.212862  0.315345  1
  B  B21  1  0.000000  0.784706  0.684574  1
  B  B22  1  0.000000  0.285592  0.815402  1
  B  B23  1  0.000000  0.714348  0.185731  1
