# generated using pymatgen
data_Ac5Si2Hg
_symmetry_space_group_name_H-M   'P 1'
_cell_length_a   8.22706038
_cell_length_b   8.22706014
_cell_length_c   9.87428394
_cell_angle_alpha   114.61950426
_cell_angle_beta   114.61950618
_cell_angle_gamma   90.00000486
_symmetry_Int_Tables_number   1
_chemical_formula_structural   Ac5Si2Hg
_chemical_formula_sum   'Ac10 Si4 Hg2'
_cell_volume   540.03259108
_cell_formula_units_Z   2
loop_
 _symmetry_equiv_pos_site_id
 _symmetry_equiv_pos_as_xyz
  1  'x, y, z'
loop_
 _atom_site_type_symbol
 _atom_site_label
 _atom_site_symmetry_multiplicity
 _atom_site_fract_x
 _atom_site_fract_y
 _atom_site_fract_z
 _atom_site_occupancy
  Ac  Ac0  1  0.500000  0.500000  0.000000  1
  Ac  Ac1  1  0.000000  0.000000  0.000000  1
  Ac  Ac2  1  0.964697  0.815531  0.280228  1
  Ac  Ac3  1  0.315531  0.464697  0.280228  1
  Ac  Ac4  1  0.815531  0.315531  0.280228  1
  Ac  Ac5  1  0.464697  0.964697  0.280228  1
  Ac  Ac6  1  0.035303  0.184469  0.719772  1
  Ac  Ac7  1  0.684469  0.535303  0.719772  1
  Ac  Ac8  1  0.184469  0.684469  0.719772  1
  Ac  Ac9  1  0.535303  0.035303  0.719772  1
  Si  Si10  1  0.610828  0.889172  0.000000  1
  Si  Si11  1  0.389172  0.110828  0.000000  1
  Si  Si12  1  0.889172  0.389172  0.000000  1
  Si  Si13  1  0.110828  0.610828  0.000000  1
  Hg  Hg14  1  0.750000  0.750000  0.500000  1
  Hg  Hg15  1  0.250000  0.250000  0.500000  1
