# generated using pymatgen
data_CsDy7Ho3(C2I9)2
_symmetry_space_group_name_H-M   'P 1'
_cell_length_a   11.45440575
_cell_length_b   11.47514670
_cell_length_c   11.49725443
_cell_angle_alpha   113.23513500
_cell_angle_beta   86.79705216
_cell_angle_gamma   119.92811559
_symmetry_Int_Tables_number   1
_chemical_formula_structural   CsDy7Ho3(C2I9)2
_chemical_formula_sum   'Cs1 Dy7 Ho3 C4 I18'
_cell_volume   1184.46863558
_cell_formula_units_Z   1
loop_
 _symmetry_equiv_pos_site_id
 _symmetry_equiv_pos_as_xyz
  1  'x, y, z'
loop_
 _atom_site_type_symbol
 _atom_site_label
 _atom_site_symmetry_multiplicity
 _atom_site_fract_x
 _atom_site_fract_y
 _atom_site_fract_z
 _atom_site_occupancy
  Cs  Cs0  1  0.499974  0.999985  0.499990  1
  Dy  Dy1  1  0.964343  0.037530  0.322998  1
  Dy  Dy2  1  0.906997  0.610756  0.709234  1
  Dy  Dy3  1  0.104231  0.944916  0.000627  1
  Dy  Dy4  1  0.035650  0.962549  0.676794  1
  Dy  Dy5  1  0.320744  0.274573  0.287561  1
  Dy  Dy6  1  0.723623  0.648198  0.984884  1
  Dy  Dy7  1  0.895696  0.055200  0.999464  1
  Ho  Ho8  1  0.680229  0.725821  0.713190  1
  Ho  Ho9  1  0.275708  0.351127  0.015410  1
  Ho  Ho10  1  0.093345  0.388330  0.290070  1
  C  C11  1  0.151492  0.219617  0.120219  1
  C  C12  1  0.848319  0.780659  0.879666  1
  C  C13  1  0.924211  0.856867  0.803598  1
  C  C14  1  0.075494  0.143370  0.196283  1
  I  I15  1  0.450428  0.530638  0.831758  1
  I  I16  1  0.383185  0.040134  0.157494  1
  I  I17  1  0.777445  0.854768  0.502063  1
  I  I18  1  0.838979  0.310109  0.153794  1
  I  I19  1  0.548756  0.469254  0.167412  1
  I  I20  1  0.222043  0.144831  0.498353  1
  I  I21  1  0.317297  0.097331  0.830539  1
  I  I22  1  0.682577  0.903657  0.170142  1
  I  I23  1  0.974987  0.756402  0.169575  1
  I  I24  1  0.934479  0.298848  0.500377  1
  I  I25  1  0.026083  0.244264  0.831013  1
  I  I26  1  0.066213  0.701882  0.499033  1
  I  I27  1  0.259854  0.619342  0.182030  1
  I  I28  1  0.739773  0.378992  0.817631  1
  I  I29  1  0.642851  0.436958  0.501855  1
  I  I30  1  0.162114  0.690484  0.846851  1
  I  I31  1  0.617071  0.958794  0.841910  1
  I  I32  1  0.355810  0.563815  0.498185  1
