# generated using pymatgen
data_CsYbPS4
_symmetry_space_group_name_H-M   'P 1'
_cell_length_a   6.31054000
_cell_length_b   6.80184600
_cell_length_c   18.04443100
_cell_angle_alpha   90.00000000
_cell_angle_beta   90.00000000
_cell_angle_gamma   90.00000000
_symmetry_Int_Tables_number   1
_chemical_formula_structural   CsYbPS4
_chemical_formula_sum   'Cs4 Yb4 P4 S16'
_cell_volume   774.52690871
_cell_formula_units_Z   4
loop_
 _symmetry_equiv_pos_site_id
 _symmetry_equiv_pos_as_xyz
  1  'x, y, z'
loop_
 _atom_site_type_symbol
 _atom_site_label
 _atom_site_symmetry_multiplicity
 _atom_site_fract_x
 _atom_site_fract_y
 _atom_site_fract_z
 _atom_site_occupancy
  Cs  Cs0  1  0.953429  0.750000  0.789445  1
  Cs  Cs1  1  0.046571  0.250000  0.210555  1
  Cs  Cs2  1  0.453429  0.250000  0.710555  1
  Cs  Cs3  1  0.546571  0.750000  0.289445  1
  Yb  Yb4  1  0.202109  0.750000  0.519327  1
  Yb  Yb5  1  0.297891  0.750000  0.019327  1
  Yb  Yb6  1  0.797891  0.250000  0.480673  1
  Yb  Yb7  1  0.702109  0.250000  0.980673  1
  P  P8  1  0.216068  0.250000  0.915111  1
  P  P9  1  0.283932  0.250000  0.415111  1
  P  P10  1  0.716068  0.750000  0.584889  1
  P  P11  1  0.783932  0.750000  0.084889  1
  S  S12  1  0.404363  0.492406  0.895770  1
  S  S13  1  0.134436  0.250000  0.024646  1
  S  S14  1  0.095637  0.492406  0.395770  1
  S  S15  1  0.452614  0.750000  0.650708  1
  S  S16  1  0.595637  0.992406  0.104230  1
  S  S17  1  0.404363  0.007594  0.895770  1
  S  S18  1  0.095637  0.007594  0.395770  1
  S  S19  1  0.365564  0.250000  0.524646  1
  S  S20  1  0.865564  0.750000  0.975354  1
  S  S21  1  0.047386  0.750000  0.150708  1
  S  S22  1  0.547386  0.250000  0.349292  1
  S  S23  1  0.904363  0.507594  0.604230  1
  S  S24  1  0.952614  0.250000  0.849292  1
  S  S25  1  0.595637  0.507594  0.104230  1
  S  S26  1  0.904363  0.992406  0.604230  1
  S  S27  1  0.634436  0.750000  0.475354  1
