# generated using pymatgen
data_TbU4Mn(ReC4)2
_symmetry_space_group_name_H-M   'P 1'
_cell_length_a   11.20163900
_cell_length_b   11.20163900
_cell_length_c   3.28785500
_cell_angle_alpha   90.00000000
_cell_angle_beta   90.00000000
_cell_angle_gamma   90.00000000
_symmetry_Int_Tables_number   1
_chemical_formula_structural   TbU4Mn(ReC4)2
_chemical_formula_sum   'Tb2 U8 Mn2 Re4 C16'
_cell_volume   412.54924903
_cell_formula_units_Z   2
loop_
 _symmetry_equiv_pos_site_id
 _symmetry_equiv_pos_as_xyz
  1  'x, y, z'
loop_
 _atom_site_type_symbol
 _atom_site_label
 _atom_site_symmetry_multiplicity
 _atom_site_fract_x
 _atom_site_fract_y
 _atom_site_fract_z
 _atom_site_occupancy
  Tb  Tb0  1  0.000000  0.500000  0.000000  1
  Tb  Tb1  1  0.500000  0.000000  0.000000  1
  U  U2  1  0.274818  0.541017  0.500000  1
  U  U3  1  0.725182  0.458983  0.500000  1
  U  U4  1  0.541017  0.725182  0.500000  1
  U  U5  1  0.774818  0.958983  0.500000  1
  U  U6  1  0.225182  0.041017  0.500000  1
  U  U7  1  0.958983  0.225182  0.500000  1
  U  U8  1  0.458983  0.274818  0.500000  1
  U  U9  1  0.041017  0.774818  0.500000  1
  Mn  Mn10  1  0.500000  0.500000  0.000000  1
  Mn  Mn11  1  0.000000  0.000000  0.000000  1
  Re  Re12  1  0.204552  0.295448  0.000000  1
  Re  Re13  1  0.704552  0.204552  0.000000  1
  Re  Re14  1  0.295448  0.795448  0.000000  1
  Re  Re15  1  0.795448  0.704552  0.000000  1
  C  C16  1  0.352120  0.406024  0.000000  1
  C  C17  1  0.620876  0.120876  0.500000  1
  C  C18  1  0.906024  0.852120  0.000000  1
  C  C19  1  0.656604  0.843396  0.000000  1
  C  C20  1  0.343396  0.156604  0.000000  1
  C  C21  1  0.120876  0.379124  0.500000  1
  C  C22  1  0.147880  0.906024  0.000000  1
  C  C23  1  0.843396  0.343396  0.000000  1
  C  C24  1  0.647880  0.593976  0.000000  1
  C  C25  1  0.593976  0.352120  0.000000  1
  C  C26  1  0.879124  0.620876  0.500000  1
  C  C27  1  0.852120  0.093976  0.000000  1
  C  C28  1  0.379124  0.879124  0.500000  1
  C  C29  1  0.156604  0.656604  0.000000  1
  C  C30  1  0.093976  0.147880  0.000000  1
  C  C31  1  0.406024  0.647880  0.000000  1
