# generated using pymatgen
data_Cs2GdF5
_symmetry_space_group_name_H-M   'P 1'
_cell_length_a   6.50499200
_cell_length_b   8.64939300
_cell_length_c   13.30846500
_cell_angle_alpha   90.00000000
_cell_angle_beta   90.00000000
_cell_angle_gamma   90.00000000
_symmetry_Int_Tables_number   1
_chemical_formula_structural   Cs2GdF5
_chemical_formula_sum   'Cs8 Gd4 F20'
_cell_volume   748.79056592
_cell_formula_units_Z   4
loop_
 _symmetry_equiv_pos_site_id
 _symmetry_equiv_pos_as_xyz
  1  'x, y, z'
loop_
 _atom_site_type_symbol
 _atom_site_label
 _atom_site_symmetry_multiplicity
 _atom_site_fract_x
 _atom_site_fract_y
 _atom_site_fract_z
 _atom_site_occupancy
  Cs  Cs0  1  0.750000  0.492847  0.260418  1
  Cs  Cs1  1  0.250000  0.507153  0.739582  1
  Cs  Cs2  1  0.250000  0.007153  0.760418  1
  Cs  Cs3  1  0.750000  0.992847  0.239582  1
  Cs  Cs4  1  0.750000  0.853418  0.584226  1
  Cs  Cs5  1  0.250000  0.146582  0.415774  1
  Cs  Cs6  1  0.250000  0.646582  0.084226  1
  Cs  Cs7  1  0.750000  0.353418  0.915774  1
  Gd  Gd8  1  0.750000  0.833813  0.938851  1
  Gd  Gd9  1  0.250000  0.166187  0.061149  1
  Gd  Gd10  1  0.250000  0.666187  0.438851  1
  Gd  Gd11  1  0.750000  0.333813  0.561149  1
  F  F12  1  0.750000  0.728671  0.093119  1
  F  F13  1  0.250000  0.271329  0.906881  1
  F  F14  1  0.250000  0.771329  0.593119  1
  F  F15  1  0.750000  0.228671  0.406881  1
  F  F16  1  0.994371  0.674184  0.893500  1
  F  F17  1  0.005629  0.325816  0.106500  1
  F  F18  1  0.005629  0.825816  0.393500  1
  F  F19  1  0.494371  0.325816  0.106500  1
  F  F20  1  0.994371  0.174184  0.606500  1
  F  F21  1  0.505629  0.674184  0.893500  1
  F  F22  1  0.505629  0.174184  0.606500  1
  F  F23  1  0.494371  0.825816  0.393500  1
  F  F24  1  0.000000  0.000000  0.000000  1
  F  F25  1  0.000000  0.500000  0.500000  1
  F  F26  1  0.500000  0.000000  0.000000  1
  F  F27  1  0.500000  0.500000  0.500000  1
  F  F28  1  0.750000  0.970551  0.799771  1
  F  F29  1  0.250000  0.029449  0.200229  1
  F  F30  1  0.250000  0.529449  0.299771  1
  F  F31  1  0.750000  0.470551  0.700229  1
