# generated using pymatgen
data_Er20Ir7Pd3Pt2
_symmetry_space_group_name_H-M   'P 1'
_cell_length_a   10.94548609
_cell_length_b   10.94548540
_cell_length_c   6.30611254
_cell_angle_alpha   89.97615141
_cell_angle_beta   89.97614910
_cell_angle_gamma   89.76388960
_symmetry_Int_Tables_number   1
_chemical_formula_structural   Er20Ir7Pd3Pt2
_chemical_formula_sum   'Er20 Ir7 Pd3 Pt2'
_cell_volume   755.48880596
_cell_formula_units_Z   1
loop_
 _symmetry_equiv_pos_site_id
 _symmetry_equiv_pos_as_xyz
  1  'x, y, z'
loop_
 _atom_site_type_symbol
 _atom_site_label
 _atom_site_symmetry_multiplicity
 _atom_site_fract_x
 _atom_site_fract_y
 _atom_site_fract_z
 _atom_site_occupancy
  Er  Er0  1  0.296146  0.091248  0.374813  1
  Er  Er1  1  0.296944  0.909879  0.870404  1
  Er  Er2  1  0.703324  0.083588  0.870340  1
  Er  Er3  1  0.703431  0.907676  0.373803  1
  Er  Er4  1  0.585178  0.790224  0.878785  1
  Er  Er5  1  0.581457  0.205963  0.371765  1
  Er  Er6  1  0.416111  0.791487  0.377469  1
  Er  Er7  1  0.409577  0.206438  0.880202  1
  Er  Er8  1  0.209776  0.414822  0.621215  1
  Er  Er9  1  0.208513  0.583889  0.122531  1
  Er  Er10  1  0.794037  0.418543  0.128235  1
  Er  Er11  1  0.793562  0.590423  0.619798  1
  Er  Er12  1  0.908752  0.703854  0.125187  1
  Er  Er13  1  0.916412  0.296676  0.629660  1
  Er  Er14  1  0.090121  0.703056  0.629596  1
  Er  Er15  1  0.092324  0.296569  0.126197  1
  Er  Er16  1  0.999952  0.999956  0.500103  1
  Er  Er17  1  0.000044  0.000048  0.999897  1
  Er  Er18  1  0.497609  0.501698  0.000625  1
  Er  Er19  1  0.498302  0.502391  0.499375  1
  Ir  Ir20  1  0.653933  0.652594  0.250074  1
  Ir  Ir21  1  0.347406  0.346067  0.249926  1
  Ir  Ir22  1  0.344746  0.655254  0.750000  1
  Ir  Ir23  1  0.500398  0.000553  0.120732  1
  Ir  Ir24  1  0.500271  0.001033  0.621901  1
  Ir  Ir25  1  0.998967  0.499729  0.878099  1
  Ir  Ir26  1  0.999447  0.499602  0.379268  1
  Pd  Pd27  1  0.844816  0.155184  0.250000  1
  Pd  Pd28  1  0.154158  0.845842  0.250000  1
  Pd  Pd29  1  0.655270  0.344730  0.750000  1
  Pt  Pt30  1  0.846709  0.847692  0.750513  1
  Pt  Pt31  1  0.152308  0.153291  0.749487  1
