# generated using pymatgen
data_Cs4Si(PSe3)4
_symmetry_space_group_name_H-M   'P 1'
_cell_length_a   8.13415780
_cell_length_b   8.13415756
_cell_length_c   25.95691200
_cell_angle_alpha   79.90135639
_cell_angle_beta   79.90135670
_cell_angle_gamma   66.70472424
_symmetry_Int_Tables_number   1
_chemical_formula_structural   Cs4Si(PSe3)4
_chemical_formula_sum   'Cs8 Si2 P8 Se24'
_cell_volume   1542.27468245
_cell_formula_units_Z   2
loop_
 _symmetry_equiv_pos_site_id
 _symmetry_equiv_pos_as_xyz
  1  'x, y, z'
loop_
 _atom_site_type_symbol
 _atom_site_label
 _atom_site_symmetry_multiplicity
 _atom_site_fract_x
 _atom_site_fract_y
 _atom_site_fract_z
 _atom_site_occupancy
  Cs  Cs0  1  0.822217  0.792852  0.049455  1
  Cs  Cs1  1  0.207148  0.177783  0.450545  1
  Cs  Cs2  1  0.177783  0.207148  0.950545  1
  Cs  Cs3  1  0.792852  0.822217  0.549455  1
  Cs  Cs4  1  0.648648  0.538585  0.314827  1
  Cs  Cs5  1  0.461415  0.351352  0.185173  1
  Cs  Cs6  1  0.351352  0.461415  0.685173  1
  Cs  Cs7  1  0.538585  0.648648  0.814827  1
  Si  Si8  1  0.003917  0.996083  0.250000  1
  Si  Si9  1  0.996083  0.003917  0.750000  1
  P  P10  1  0.094714  0.734582  0.368288  1
  P  P11  1  0.265418  0.905286  0.131712  1
  P  P12  1  0.905286  0.265418  0.631712  1
  P  P13  1  0.734582  0.094714  0.868288  1
  P  P14  1  0.078361  0.203772  0.115901  1
  P  P15  1  0.796228  0.921639  0.384099  1
  P  P16  1  0.921639  0.796228  0.884099  1
  P  P17  1  0.203772  0.078361  0.615901  1
  Se  Se18  1  0.213793  0.674191  0.440054  1
  Se  Se19  1  0.325809  0.786207  0.059946  1
  Se  Se20  1  0.786207  0.325809  0.559946  1
  Se  Se21  1  0.674191  0.213793  0.940054  1
  Se  Se22  1  0.124176  0.514023  0.326927  1
  Se  Se23  1  0.485977  0.875824  0.173073  1
  Se  Se24  1  0.875824  0.485977  0.673073  1
  Se  Se25  1  0.514023  0.124176  0.826927  1
  Se  Se26  1  0.059945  0.802979  0.188305  1
  Se  Se27  1  0.197021  0.940055  0.311695  1
  Se  Se28  1  0.940055  0.197021  0.811695  1
  Se  Se29  1  0.802979  0.059945  0.688305  1
  Se  Se30  1  0.235134  0.359995  0.077971  1
  Se  Se31  1  0.640005  0.764866  0.422029  1
  Se  Se32  1  0.764866  0.640005  0.922029  1
  Se  Se33  1  0.359995  0.235134  0.577971  1
  Se  Se34  1  0.847694  0.238381  0.079429  1
  Se  Se35  1  0.761619  0.152306  0.420571  1
  Se  Se36  1  0.152306  0.761619  0.920571  1
  Se  Se37  1  0.238381  0.847694  0.579429  1
  Se  Se38  1  0.997287  0.270023  0.205088  1
  Se  Se39  1  0.729977  0.002713  0.294912  1
  Se  Se40  1  0.002713  0.729977  0.794912  1
  Se  Se41  1  0.270023  0.997287  0.705088  1
