# generated using pymatgen
data_Ba6Sn8AsAu
_symmetry_space_group_name_H-M   'P 1'
_cell_length_a   9.18985013
_cell_length_b   9.18985007
_cell_length_c   9.28495742
_cell_angle_alpha   119.66174551
_cell_angle_beta   119.66174475
_cell_angle_gamma   89.99999436
_symmetry_Int_Tables_number   1
_chemical_formula_structural   Ba6Sn8AsAu
_chemical_formula_sum   'Ba6 Sn8 As1 Au1'
_cell_volume   560.09656837
_cell_formula_units_Z   1
loop_
 _symmetry_equiv_pos_site_id
 _symmetry_equiv_pos_as_xyz
  1  'x, y, z'
loop_
 _atom_site_type_symbol
 _atom_site_label
 _atom_site_symmetry_multiplicity
 _atom_site_fract_x
 _atom_site_fract_y
 _atom_site_fract_z
 _atom_site_occupancy
  Ba  Ba0  1  0.242968  0.242968  0.485935  1
  Ba  Ba1  1  0.757032  0.757032  0.514065  1
  Ba  Ba2  1  0.674730  0.158793  0.000000  1
  Ba  Ba3  1  0.325270  0.841207  0.000000  1
  Ba  Ba4  1  0.841207  0.674730  0.000000  1
  Ba  Ba5  1  0.158793  0.325270  0.000000  1
  Sn  Sn6  1  0.336404  0.831143  0.386587  1
  Sn  Sn7  1  0.663596  0.168857  0.613413  1
  Sn  Sn8  1  0.050184  0.555445  0.386587  1
  Sn  Sn9  1  0.555445  0.336404  0.386587  1
  Sn  Sn10  1  0.168857  0.949816  0.613413  1
  Sn  Sn11  1  0.949816  0.444555  0.613413  1
  Sn  Sn12  1  0.444555  0.663596  0.613413  1
  Sn  Sn13  1  0.831143  0.050184  0.386587  1
  As  As14  1  0.000000  0.000000  0.000000  1
  Au  Au15  1  0.500000  0.500000  0.000000  1
