# generated using pymatgen
data_Tb3YSn3Sb3Rh7
_symmetry_space_group_name_H-M   'P 1'
_cell_length_a   7.62420438
_cell_length_b   7.61924257
_cell_length_c   7.61924159
_cell_angle_alpha   109.45802382
_cell_angle_beta   109.48441558
_cell_angle_gamma   109.48441174
_symmetry_Int_Tables_number   1
_chemical_formula_structural   Tb3YSn3Sb3Rh7
_chemical_formula_sum   'Tb3 Y1 Sn3 Sb3 Rh7'
_cell_volume   340.66337822
_cell_formula_units_Z   1
loop_
 _symmetry_equiv_pos_site_id
 _symmetry_equiv_pos_as_xyz
  1  'x, y, z'
loop_
 _atom_site_type_symbol
 _atom_site_label
 _atom_site_symmetry_multiplicity
 _atom_site_fract_x
 _atom_site_fract_y
 _atom_site_fract_z
 _atom_site_occupancy
  Tb  Tb0  1  0.997929  0.503219  0.000000  1
  Tb  Tb1  1  0.997929  0.000000  0.503219  1
  Tb  Tb2  1  0.494710  0.496781  0.496781  1
  Y  Y3  1  0.487148  0.000000  0.000000  1
  Sn  Sn4  1  0.993227  0.307454  0.307454  1
  Sn  Sn5  1  0.685773  0.000000  0.692546  1
  Sn  Sn6  1  0.685773  0.692546  0.000000  1
  Sb  Sb7  1  0.995055  0.673978  0.673978  1
  Sb  Sb8  1  0.321077  0.000000  0.326022  1
  Sb  Sb9  1  0.321077  0.326022  0.000000  1
  Rh  Rh10  1  0.016710  0.000000  0.000000  1
  Rh  Rh11  1  0.502947  0.753455  0.253591  1
  Rh  Rh12  1  0.749492  0.500136  0.246545  1
  Rh  Rh13  1  0.249356  0.746409  0.499864  1
  Rh  Rh14  1  0.249356  0.499864  0.746409  1
  Rh  Rh15  1  0.502947  0.253591  0.753455  1
  Rh  Rh16  1  0.749492  0.246545  0.500136  1
