# generated using pymatgen
data_Ba6YCr(BO3)6
_symmetry_space_group_name_H-M   'P 1'
_cell_length_a   8.12423581
_cell_length_b   8.12423533
_cell_length_c   8.12423655
_cell_angle_alpha   105.97934710
_cell_angle_beta   105.97934953
_cell_angle_gamma   105.97935223
_symmetry_Int_Tables_number   1
_chemical_formula_structural   Ba6YCr(BO3)6
_chemical_formula_sum   'Ba6 Y1 Cr1 B6 O18'
_cell_volume   458.43965271
_cell_formula_units_Z   1
loop_
 _symmetry_equiv_pos_site_id
 _symmetry_equiv_pos_as_xyz
  1  'x, y, z'
loop_
 _atom_site_type_symbol
 _atom_site_label
 _atom_site_symmetry_multiplicity
 _atom_site_fract_x
 _atom_site_fract_y
 _atom_site_fract_z
 _atom_site_occupancy
  Ba  Ba0  1  0.343767  0.731469  0.830879  1
  Ba  Ba1  1  0.830879  0.343767  0.731469  1
  Ba  Ba2  1  0.731469  0.830879  0.343767  1
  Ba  Ba3  1  0.656233  0.268531  0.169121  1
  Ba  Ba4  1  0.169121  0.656233  0.268531  1
  Ba  Ba5  1  0.268531  0.169121  0.656233  1
  Y  Y6  1  0.000000  0.000000  0.000000  1
  Cr  Cr7  1  0.500000  0.500000  0.500000  1
  B  B8  1  0.373824  0.058110  0.296457  1
  B  B9  1  0.296457  0.373824  0.058110  1
  B  B10  1  0.058110  0.296457  0.373824  1
  B  B11  1  0.703543  0.626176  0.941890  1
  B  B12  1  0.941890  0.703543  0.626176  1
  B  B13  1  0.626176  0.941890  0.703543  1
  O  O14  1  0.426801  0.493315  0.235730  1
  O  O15  1  0.235730  0.426801  0.493315  1
  O  O16  1  0.813951  0.004594  0.731870  1
  O  O17  1  0.004594  0.731870  0.813951  1
  O  O18  1  0.731870  0.813951  0.004594  1
  O  O19  1  0.268130  0.186049  0.995406  1
  O  O20  1  0.186049  0.995406  0.268130  1
  O  O21  1  0.995406  0.268130  0.186049  1
  O  O22  1  0.553643  0.057396  0.791606  1
  O  O23  1  0.057396  0.791606  0.553643  1
  O  O24  1  0.791606  0.553643  0.057396  1
  O  O25  1  0.446357  0.942604  0.208394  1
  O  O26  1  0.942604  0.208394  0.446357  1
  O  O27  1  0.208394  0.446357  0.942604  1
  O  O28  1  0.506685  0.764270  0.573199  1
  O  O29  1  0.764270  0.573199  0.506685  1
  O  O30  1  0.573199  0.506685  0.764270  1
  O  O31  1  0.493315  0.235730  0.426801  1
