# generated using pymatgen
data_AcSi3Ru
_symmetry_space_group_name_H-M   'P 1'
_cell_length_a   5.91448706
_cell_length_b   5.91448703
_cell_length_c   5.91448712
_cell_angle_alpha   136.70524865
_cell_angle_beta   136.70524431
_cell_angle_gamma   62.89187508
_symmetry_Int_Tables_number   1
_chemical_formula_structural   AcSi3Ru
_chemical_formula_sum   'Ac1 Si3 Ru1'
_cell_volume   96.07917930
_cell_formula_units_Z   1
loop_
 _symmetry_equiv_pos_site_id
 _symmetry_equiv_pos_as_xyz
  1  'x, y, z'
loop_
 _atom_site_type_symbol
 _atom_site_label
 _atom_site_symmetry_multiplicity
 _atom_site_fract_x
 _atom_site_fract_y
 _atom_site_fract_z
 _atom_site_occupancy
  Ac  Ac0  1  0.001309  0.001309  0.000000  1
  Si  Si1  1  0.415274  0.415274  0.000000  1
  Si  Si2  1  0.260512  0.760512  0.500000  1
  Si  Si3  1  0.760512  0.260512  0.500000  1
  Ru  Ru4  1  0.656394  0.656394  0.000000  1
