# generated using pymatgen
data_NpUB8
_symmetry_space_group_name_H-M   'P 1'
_cell_length_a   7.04004100
_cell_length_b   7.05444500
_cell_length_c   3.97449000
_cell_angle_alpha   90.00000000
_cell_angle_beta   90.00000000
_cell_angle_gamma   90.00000000
_symmetry_Int_Tables_number   1
_chemical_formula_structural   NpUB8
_chemical_formula_sum   'Np2 U2 B16'
_cell_volume   197.38741015
_cell_formula_units_Z   2
loop_
 _symmetry_equiv_pos_site_id
 _symmetry_equiv_pos_as_xyz
  1  'x, y, z'
loop_
 _atom_site_type_symbol
 _atom_site_label
 _atom_site_symmetry_multiplicity
 _atom_site_fract_x
 _atom_site_fract_y
 _atom_site_fract_z
 _atom_site_occupancy
  Np  Np0  1  0.810187  0.310075  0.000000  1
  Np  Np1  1  0.310187  0.189925  0.000000  1
  U  U2  1  0.689988  0.810064  0.000000  1
  U  U3  1  0.189988  0.689936  0.000000  1
  B  B4  1  0.000037  0.999789  0.199910  1
  B  B5  1  0.500037  0.500211  0.800090  1
  B  B6  1  0.000037  0.999789  0.800090  1
  B  B7  1  0.500037  0.500211  0.199910  1
  B  B8  1  0.587083  0.086248  0.500000  1
  B  B9  1  0.087083  0.413752  0.500000  1
  B  B10  1  0.912882  0.587276  0.500000  1
  B  B11  1  0.412882  0.912724  0.500000  1
  B  B12  1  0.038194  0.178630  0.500000  1
  B  B13  1  0.178723  0.961506  0.500000  1
  B  B14  1  0.821397  0.038275  0.500000  1
  B  B15  1  0.961471  0.821547  0.500000  1
  B  B16  1  0.461471  0.678453  0.500000  1
  B  B17  1  0.538194  0.321370  0.500000  1
  B  B18  1  0.678723  0.538494  0.500000  1
  B  B19  1  0.321397  0.461725  0.500000  1
