# generated using pymatgen
data_Y5ErAl24(Ru3Pt)2
_symmetry_space_group_name_H-M   'P 1'
_cell_length_a   8.82221017
_cell_length_b   8.79971257
_cell_length_c   9.55970765
_cell_angle_alpha   90.04043507
_cell_angle_beta   90.07641267
_cell_angle_gamma   119.65989090
_symmetry_Int_Tables_number   1
_chemical_formula_structural   Y5ErAl24(Ru3Pt)2
_chemical_formula_sum   'Y5 Er1 Al24 Ru6 Pt2'
_cell_volume   644.90898330
_cell_formula_units_Z   1
loop_
 _symmetry_equiv_pos_site_id
 _symmetry_equiv_pos_as_xyz
  1  'x, y, z'
loop_
 _atom_site_type_symbol
 _atom_site_label
 _atom_site_symmetry_multiplicity
 _atom_site_fract_x
 _atom_site_fract_y
 _atom_site_fract_z
 _atom_site_occupancy
  Y  Y0  1  0.190468  0.385454  0.252196  1
  Y  Y1  1  0.809572  0.614147  0.747813  1
  Y  Y2  1  0.616626  0.809347  0.251067  1
  Y  Y3  1  0.383626  0.190578  0.748980  1
  Y  Y4  1  0.191303  0.806950  0.251529  1
  Er  Er5  1  0.808037  0.194642  0.747991  1
  Al  Al6  1  0.327179  0.664074  0.024059  1
  Al  Al7  1  0.672978  0.335503  0.974971  1
  Al  Al8  1  0.667074  0.332593  0.523212  1
  Al  Al9  1  0.333169  0.667252  0.477498  1
  Al  Al10  1  0.163325  0.327101  0.576641  1
  Al  Al11  1  0.836165  0.672346  0.423994  1
  Al  Al12  1  0.673755  0.837289  0.575976  1
  Al  Al13  1  0.842155  0.675454  0.078293  1
  Al  Al14  1  0.326840  0.163343  0.424690  1
  Al  Al15  1  0.157195  0.323985  0.920956  1
  Al  Al16  1  0.163690  0.836745  0.577314  1
  Al  Al17  1  0.323153  0.162417  0.078966  1
  Al  Al18  1  0.836475  0.163159  0.423602  1
  Al  Al19  1  0.677338  0.838215  0.920337  1
  Al  Al20  1  0.841823  0.167702  0.078106  1
  Al  Al21  1  0.158157  0.832200  0.920960  1
  Al  Al22  1  0.561928  0.125027  0.252686  1
  Al  Al23  1  0.438872  0.875379  0.747511  1
  Al  Al24  1  0.877695  0.439929  0.249104  1
  Al  Al25  1  0.121942  0.559273  0.750895  1
  Al  Al26  1  0.562729  0.437597  0.253020  1
  Al  Al27  1  0.437338  0.562388  0.747023  1
  Al  Al28  1  0.997999  0.000132  0.250353  1
  Al  Al29  1  0.001077  0.000803  0.749542  1
  Ru  Ru30  1  0.000001  0.499690  0.999798  1
  Ru  Ru31  1  0.500376  0.000115  0.500320  1
  Ru  Ru32  1  0.999964  0.499615  0.500341  1
  Ru  Ru33  1  0.500003  0.499925  0.500085  1
  Ru  Ru34  1  0.000122  0.999901  0.999974  1
  Ru  Ru35  1  0.000158  0.999796  0.499866  1
  Pt  Pt36  1  0.499820  0.999836  0.000211  1
  Pt  Pt37  1  0.499872  0.500099  0.000117  1
