# generated using pymatgen
data_Yb2Pr2P6N13
_symmetry_space_group_name_H-M   'P 1'
_cell_length_a   7.42937564
_cell_length_b   7.47740541
_cell_length_c   7.42937600
_cell_angle_alpha   109.25729174
_cell_angle_beta   109.64030078
_cell_angle_gamma   109.25729746
_symmetry_Int_Tables_number   1
_chemical_formula_structural   Yb2Pr2P6N13
_chemical_formula_sum   'Yb2 Pr2 P6 N13'
_cell_volume   318.71909161
_cell_formula_units_Z   1
loop_
 _symmetry_equiv_pos_site_id
 _symmetry_equiv_pos_as_xyz
  1  'x, y, z'
loop_
 _atom_site_type_symbol
 _atom_site_label
 _atom_site_symmetry_multiplicity
 _atom_site_fract_x
 _atom_site_fract_y
 _atom_site_fract_z
 _atom_site_occupancy
  Yb  Yb0  1  0.007287  0.678837  0.007287  1
  Yb  Yb1  1  0.328450  0.321163  0.328450  1
  Pr  Pr2  1  0.697559  0.000000  0.994407  1
  Pr  Pr3  1  0.994407  0.000000  0.697559  1
  P  P4  1  0.249303  0.753299  0.500160  1
  P  P5  1  0.746860  0.246701  0.496004  1
  P  P6  1  0.746733  0.500000  0.246733  1
  P  P7  1  0.246733  0.500000  0.746733  1
  P  P8  1  0.500160  0.753299  0.249303  1
  P  P9  1  0.496004  0.246701  0.746860  1
  N  N10  1  0.020891  0.000000  0.020891  1
  N  N11  1  0.701545  0.294489  0.290393  1
  N  N12  1  0.296990  0.717503  0.296990  1
  N  N13  1  0.298872  0.591137  0.587502  1
  N  N14  1  0.587502  0.591137  0.298872  1
  N  N15  1  0.407056  0.705511  0.995904  1
  N  N16  1  0.995904  0.705511  0.407056  1
  N  N17  1  0.579486  0.282497  0.579486  1
  N  N18  1  0.711417  0.000000  0.392345  1
  N  N19  1  0.392345  0.000000  0.711417  1
  N  N20  1  0.707736  0.408863  0.996365  1
  N  N21  1  0.290393  0.294489  0.701545  1
  N  N22  1  0.996365  0.408863  0.707736  1
