# generated using pymatgen
data_YbCeSm2(B4Ru)4
_symmetry_space_group_name_H-M   'P 1'
_cell_length_a   3.59418600
_cell_length_b   6.00358614
_cell_length_c   11.60849303
_cell_angle_alpha   90.05781670
_cell_angle_beta   90.00000000
_cell_angle_gamma   90.00000000
_symmetry_Int_Tables_number   1
_chemical_formula_structural   YbCeSm2(B4Ru)4
_chemical_formula_sum   'Yb1 Ce1 Sm2 B16 Ru4'
_cell_volume   250.48799579
_cell_formula_units_Z   1
loop_
 _symmetry_equiv_pos_site_id
 _symmetry_equiv_pos_as_xyz
  1  'x, y, z'
loop_
 _atom_site_type_symbol
 _atom_site_label
 _atom_site_symmetry_multiplicity
 _atom_site_fract_x
 _atom_site_fract_y
 _atom_site_fract_z
 _atom_site_occupancy
  Yb  Yb0  1  0.500000  0.871243  0.649729  1
  Ce  Ce1  1  0.500000  0.628510  0.150295  1
  Sm  Sm2  1  0.500000  0.371348  0.847300  1
  Sm  Sm3  1  0.500000  0.127081  0.352062  1
  B  B4  1  0.000000  0.975509  0.190313  1
  B  B5  1  0.000000  0.023501  0.807663  1
  B  B6  1  0.000000  0.476709  0.310179  1
  B  B7  1  0.000000  0.525256  0.690087  1
  B  B8  1  0.000000  0.785665  0.316029  1
  B  B9  1  0.000000  0.211572  0.683912  1
  B  B10  1  0.000000  0.287458  0.184499  1
  B  B11  1  0.000000  0.716303  0.813360  1
  B  B12  1  0.000000  0.861563  0.470615  1
  B  B13  1  0.000000  0.137125  0.531862  1
  B  B14  1  0.000000  0.363058  0.031072  1
  B  B15  1  0.000000  0.637745  0.968887  1
  B  B16  1  0.000000  0.888971  0.045791  1
  B  B17  1  0.000000  0.109935  0.952589  1
  B  B18  1  0.000000  0.389196  0.455644  1
  B  B19  1  0.000000  0.613928  0.547390  1
  Ru  Ru20  1  0.500000  0.637990  0.408165  1
  Ru  Ru21  1  0.500000  0.361981  0.590723  1
  Ru  Ru22  1  0.500000  0.138393  0.092659  1
  Ru  Ru23  1  0.500000  0.859957  0.909175  1
