# generated using pymatgen
data_HfTaNb2(SiRh)4
_symmetry_space_group_name_H-M   'P 1'
_cell_length_a   3.80638300
_cell_length_b   6.45323725
_cell_length_c   7.39897851
_cell_angle_alpha   89.78564108
_cell_angle_beta   90.00000000
_cell_angle_gamma   90.00000000
_symmetry_Int_Tables_number   1
_chemical_formula_structural   HfTaNb2(SiRh)4
_chemical_formula_sum   'Hf1 Ta1 Nb2 Si4 Rh4'
_cell_volume   181.74348155
_cell_formula_units_Z   1
loop_
 _symmetry_equiv_pos_site_id
 _symmetry_equiv_pos_as_xyz
  1  'x, y, z'
loop_
 _atom_site_type_symbol
 _atom_site_label
 _atom_site_symmetry_multiplicity
 _atom_site_fract_x
 _atom_site_fract_y
 _atom_site_fract_z
 _atom_site_occupancy
  Hf  Hf0  1  0.750000  0.474164  0.322959  1
  Ta  Ta1  1  0.750000  0.972814  0.172107  1
  Nb  Nb2  1  0.250000  0.024023  0.824936  1
  Nb  Nb3  1  0.250000  0.526305  0.679232  1
  Si  Si4  1  0.250000  0.262010  0.118119  1
  Si  Si5  1  0.250000  0.774448  0.379801  1
  Si  Si6  1  0.750000  0.730586  0.874146  1
  Si  Si7  1  0.750000  0.229787  0.628492  1
  Rh  Rh8  1  0.250000  0.647347  0.066375  1
  Rh  Rh9  1  0.250000  0.149178  0.434729  1
  Rh  Rh10  1  0.750000  0.855333  0.559872  1
  Rh  Rh11  1  0.750000  0.354007  0.939233  1
