# generated using pymatgen
data_Ca3(SiPd)2
_symmetry_space_group_name_H-M   'P 1'
_cell_length_a   5.68737000
_cell_length_b   8.08903400
_cell_length_c   13.34805600
_cell_angle_alpha   90.00000000
_cell_angle_beta   90.00000000
_cell_angle_gamma   90.00000000
_symmetry_Int_Tables_number   1
_chemical_formula_structural   Ca3(SiPd)2
_chemical_formula_sum   'Ca12 Si8 Pd8'
_cell_volume   614.08171180
_cell_formula_units_Z   4
loop_
 _symmetry_equiv_pos_site_id
 _symmetry_equiv_pos_as_xyz
  1  'x, y, z'
loop_
 _atom_site_type_symbol
 _atom_site_label
 _atom_site_symmetry_multiplicity
 _atom_site_fract_x
 _atom_site_fract_y
 _atom_site_fract_z
 _atom_site_occupancy
  Ca  Ca0  1  0.133205  0.612721  0.105882  1
  Ca  Ca1  1  0.133205  0.887279  0.894118  1
  Ca  Ca2  1  0.866795  0.112721  0.394118  1
  Ca  Ca3  1  0.866795  0.387279  0.605882  1
  Ca  Ca4  1  0.866795  0.387279  0.894118  1
  Ca  Ca5  1  0.866795  0.112721  0.105882  1
  Ca  Ca6  1  0.133205  0.887279  0.605882  1
  Ca  Ca7  1  0.133205  0.612721  0.394118  1
  Ca  Ca8  1  0.351581  0.255542  0.250000  1
  Ca  Ca9  1  0.351581  0.244458  0.750000  1
  Ca  Ca10  1  0.648419  0.755542  0.250000  1
  Ca  Ca11  1  0.648419  0.744458  0.750000  1
  Si  Si12  1  0.389371  0.250000  0.000000  1
  Si  Si13  1  0.610629  0.750000  0.500000  1
  Si  Si14  1  0.610629  0.750000  0.000000  1
  Si  Si15  1  0.389371  0.250000  0.500000  1
  Si  Si16  1  0.833796  0.404703  0.250000  1
  Si  Si17  1  0.833796  0.095297  0.750000  1
  Si  Si18  1  0.166204  0.904703  0.250000  1
  Si  Si19  1  0.166204  0.595297  0.750000  1
  Pd  Pd20  1  0.625921  0.471470  0.089017  1
  Pd  Pd21  1  0.625921  0.028530  0.910983  1
  Pd  Pd22  1  0.374079  0.971470  0.410983  1
  Pd  Pd23  1  0.374079  0.528530  0.589017  1
  Pd  Pd24  1  0.374079  0.528530  0.910983  1
  Pd  Pd25  1  0.374079  0.971470  0.089017  1
  Pd  Pd26  1  0.625921  0.028530  0.589017  1
  Pd  Pd27  1  0.625921  0.471470  0.410983  1
