# generated using pymatgen
data_Ac7LaTe8
_symmetry_space_group_name_H-M   'P 1'
_cell_length_a   9.40364485
_cell_length_b   9.45820132
_cell_length_c   9.40364500
_cell_angle_alpha   60.19062262
_cell_angle_beta   59.99999597
_cell_angle_gamma   60.19061992
_symmetry_Int_Tables_number   1
_chemical_formula_structural   Ac7LaTe8
_chemical_formula_sum   'Ac7 La1 Te8'
_cell_volume   593.10461437
_cell_formula_units_Z   1
loop_
 _symmetry_equiv_pos_site_id
 _symmetry_equiv_pos_as_xyz
  1  'x, y, z'
loop_
 _atom_site_type_symbol
 _atom_site_label
 _atom_site_symmetry_multiplicity
 _atom_site_fract_x
 _atom_site_fract_y
 _atom_site_fract_z
 _atom_site_occupancy
  Ac  Ac0  1  0.125000  0.125000  0.625000  1
  Ac  Ac1  1  0.625000  0.125000  0.125000  1
  Ac  Ac2  1  0.125000  0.125000  0.125000  1
  Ac  Ac3  1  0.625000  0.125000  0.625000  1
  Ac  Ac4  1  0.625000  0.625000  0.625000  1
  Ac  Ac5  1  0.125000  0.625000  0.625000  1
  Ac  Ac6  1  0.625000  0.625000  0.125000  1
  La  La7  1  0.125000  0.625000  0.125000  1
  Te  Te8  1  0.374996  0.875009  0.374996  1
  Te  Te9  1  0.875004  0.374991  0.875004  1
  Te  Te10  1  0.878136  0.871900  0.371828  1
  Te  Te11  1  0.878136  0.871900  0.878136  1
  Te  Te12  1  0.878172  0.378100  0.371864  1
  Te  Te13  1  0.371864  0.378100  0.878172  1
  Te  Te14  1  0.371864  0.378100  0.371864  1
  Te  Te15  1  0.371828  0.871900  0.878136  1
