# generated using pymatgen
data_PrSm3(BeSi3)2
_symmetry_space_group_name_H-M   'P 1'
_cell_length_a   7.91410900
_cell_length_b   7.91410750
_cell_length_c   8.48935200
_cell_angle_alpha   90.00000000
_cell_angle_beta   90.00000000
_cell_angle_gamma   120.00000209
_symmetry_Int_Tables_number   1
_chemical_formula_structural   PrSm3(BeSi3)2
_chemical_formula_sum   'Pr2 Sm6 Be4 Si12'
_cell_volume   460.47826575
_cell_formula_units_Z   2
loop_
 _symmetry_equiv_pos_site_id
 _symmetry_equiv_pos_as_xyz
  1  'x, y, z'
loop_
 _atom_site_type_symbol
 _atom_site_label
 _atom_site_symmetry_multiplicity
 _atom_site_fract_x
 _atom_site_fract_y
 _atom_site_fract_z
 _atom_site_occupancy
  Pr  Pr0  1  0.000000  0.000000  0.750000  1
  Pr  Pr1  1  0.000000  0.000000  0.250000  1
  Sm  Sm2  1  0.499923  0.500077  0.750000  1
  Sm  Sm3  1  0.500077  0.499923  0.250000  1
  Sm  Sm4  1  0.000154  0.500077  0.750000  1
  Sm  Sm5  1  0.999846  0.499923  0.250000  1
  Sm  Sm6  1  0.499923  0.999846  0.750000  1
  Sm  Sm7  1  0.500077  0.000154  0.250000  1
  Be  Be8  1  0.666667  0.333333  0.996838  1
  Be  Be9  1  0.333333  0.666667  0.003162  1
  Be  Be10  1  0.333333  0.666667  0.496838  1
  Be  Be11  1  0.666667  0.333333  0.503162  1
  Si  Si12  1  0.826997  0.173003  0.000313  1
  Si  Si13  1  0.173003  0.826997  0.999687  1
  Si  Si14  1  0.346005  0.173003  0.000313  1
  Si  Si15  1  0.173003  0.826997  0.500313  1
  Si  Si16  1  0.653995  0.826997  0.999687  1
  Si  Si17  1  0.826997  0.173003  0.499687  1
  Si  Si18  1  0.826997  0.653995  0.000313  1
  Si  Si19  1  0.653995  0.826997  0.500313  1
  Si  Si20  1  0.173003  0.346005  0.999687  1
  Si  Si21  1  0.346005  0.173003  0.499687  1
  Si  Si22  1  0.173003  0.346005  0.500313  1
  Si  Si23  1  0.826997  0.653995  0.499687  1
