# generated using pymatgen
data_Li4Sm4Fe3H22
_symmetry_space_group_name_H-M   'P 1'
_cell_length_a   6.54850600
_cell_length_b   6.54850600
_cell_length_c   6.54850600
_cell_angle_alpha   90.00000000
_cell_angle_beta   90.00000000
_cell_angle_gamma   90.00000000
_symmetry_Int_Tables_number   1
_chemical_formula_structural   Li4Sm4Fe3H22
_chemical_formula_sum   'Li4 Sm4 Fe3 H22'
_cell_volume   280.81912985
_cell_formula_units_Z   1
loop_
 _symmetry_equiv_pos_site_id
 _symmetry_equiv_pos_as_xyz
  1  'x, y, z'
loop_
 _atom_site_type_symbol
 _atom_site_label
 _atom_site_symmetry_multiplicity
 _atom_site_fract_x
 _atom_site_fract_y
 _atom_site_fract_z
 _atom_site_occupancy
  Li  Li0  1  0.788083  0.788083  0.211917  1
  Li  Li1  1  0.788083  0.211917  0.788083  1
  Li  Li2  1  0.211917  0.788083  0.788083  1
  Li  Li3  1  0.211917  0.211917  0.211917  1
  Sm  Sm4  1  0.282232  0.282232  0.717768  1
  Sm  Sm5  1  0.282232  0.717768  0.282232  1
  Sm  Sm6  1  0.717768  0.282232  0.282232  1
  Sm  Sm7  1  0.717768  0.717768  0.717768  1
  Fe  Fe8  1  0.000000  0.000000  0.500000  1
  Fe  Fe9  1  0.000000  0.500000  0.000000  1
  Fe  Fe10  1  0.500000  0.000000  0.000000  1
  H  H11  1  0.000000  0.500000  0.241855  1
  H  H12  1  0.500000  0.758145  0.000000  1
  H  H13  1  0.758145  0.000000  0.500000  1
  H  H14  1  0.000000  0.758145  0.500000  1
  H  H15  1  0.500000  0.000000  0.241855  1
  H  H16  1  0.758145  0.500000  0.000000  1
  H  H17  1  0.000000  0.500000  0.758145  1
  H  H18  1  0.500000  0.241855  0.000000  1
  H  H19  1  0.000000  0.241855  0.500000  1
  H  H20  1  0.500000  0.000000  0.758145  1
  H  H21  1  0.241855  0.000000  0.500000  1
  H  H22  1  0.241855  0.500000  0.000000  1
  H  H23  1  0.000000  0.000000  0.258963  1
  H  H24  1  0.000000  0.741037  0.000000  1
  H  H25  1  0.741037  0.000000  0.000000  1
  H  H26  1  0.000000  0.000000  0.741037  1
  H  H27  1  0.000000  0.258963  0.000000  1
  H  H28  1  0.258963  0.000000  0.000000  1
  H  H29  1  0.625942  0.625942  0.374058  1
  H  H30  1  0.625942  0.374058  0.625942  1
  H  H31  1  0.374058  0.625942  0.625942  1
  H  H32  1  0.374058  0.374058  0.374058  1
