# generated using pymatgen
data_Y5B3P9Ir19
_symmetry_space_group_name_H-M   'P 1'
_cell_length_a   12.51185300
_cell_length_b   12.51185278
_cell_length_c   3.97713500
_cell_angle_alpha   90.00000000
_cell_angle_beta   90.00000000
_cell_angle_gamma   120.00000323
_symmetry_Int_Tables_number   1
_chemical_formula_structural   Y5B3P9Ir19
_chemical_formula_sum   'Y5 B3 P9 Ir19'
_cell_volume   539.19295519
_cell_formula_units_Z   1
loop_
 _symmetry_equiv_pos_site_id
 _symmetry_equiv_pos_as_xyz
  1  'x, y, z'
loop_
 _atom_site_type_symbol
 _atom_site_label
 _atom_site_symmetry_multiplicity
 _atom_site_fract_x
 _atom_site_fract_y
 _atom_site_fract_z
 _atom_site_occupancy
  Y  Y0  1  0.333333  0.666667  0.500000  1
  Y  Y1  1  0.666667  0.333333  0.500000  1
  Y  Y2  1  0.002159  0.815999  0.000000  1
  Y  Y3  1  0.184001  0.186160  0.000000  1
  Y  Y4  1  0.813840  0.997841  0.000000  1
  B  B5  1  0.510364  0.692037  0.000000  1
  B  B6  1  0.307963  0.818326  0.000000  1
  B  B7  1  0.181674  0.489636  0.000000  1
  P  P8  1  0.004334  0.640257  0.500000  1
  P  P9  1  0.359743  0.364077  0.500000  1
  P  P10  1  0.635923  0.995666  0.500000  1
  P  P11  1  0.482064  0.172467  0.000000  1
  P  P12  1  0.690404  0.517936  0.000000  1
  P  P13  1  0.827533  0.309596  0.000000  1
  P  P14  1  0.003054  0.183042  0.500000  1
  P  P15  1  0.816958  0.820013  0.500000  1
  P  P16  1  0.179987  0.996946  0.500000  1
  Ir  Ir17  1  0.499548  0.859827  0.000000  1
  Ir  Ir18  1  0.140173  0.639722  0.000000  1
  Ir  Ir19  1  0.360278  0.500452  0.000000  1
  Ir  Ir20  1  0.489719  0.363565  0.000000  1
  Ir  Ir21  1  0.873846  0.510281  0.000000  1
  Ir  Ir22  1  0.636435  0.126154  0.000000  1
  Ir  Ir23  1  0.011264  0.461870  0.500000  1
  Ir  Ir24  1  0.538130  0.549393  0.500000  1
  Ir  Ir25  1  0.450607  0.988736  0.500000  1
  Ir  Ir26  1  0.008877  0.300795  0.000000  1
  Ir  Ir27  1  0.699205  0.708081  0.000000  1
  Ir  Ir28  1  0.291919  0.991123  0.000000  1
  Ir  Ir29  1  0.618944  0.802345  0.500000  1
  Ir  Ir30  1  0.197655  0.816599  0.500000  1
  Ir  Ir31  1  0.183401  0.381056  0.500000  1
  Ir  Ir32  1  0.376187  0.179997  0.500000  1
  Ir  Ir33  1  0.803811  0.623813  0.500000  1
  Ir  Ir34  1  0.820003  0.196189  0.500000  1
  Ir  Ir35  1  0.000000  0.000000  0.500000  1
