# generated using pymatgen
data_Pr3ScAl18Ir5Pd
_symmetry_space_group_name_H-M   'P 1'
_cell_length_a   7.67272196
_cell_length_b   7.67464139
_cell_length_c   9.61232400
_cell_angle_alpha   90.10776596
_cell_angle_beta   90.04097398
_cell_angle_gamma   119.78263820
_symmetry_Int_Tables_number   1
_chemical_formula_structural   Pr3ScAl18Ir5Pd
_chemical_formula_sum   'Pr3 Sc1 Al18 Ir5 Pd1'
_cell_volume   491.26078617
_cell_formula_units_Z   1
loop_
 _symmetry_equiv_pos_site_id
 _symmetry_equiv_pos_as_xyz
  1  'x, y, z'
loop_
 _atom_site_type_symbol
 _atom_site_label
 _atom_site_symmetry_multiplicity
 _atom_site_fract_x
 _atom_site_fract_y
 _atom_site_fract_z
 _atom_site_occupancy
  Pr  Pr0  1  0.994970  0.670278  0.250934  1
  Pr  Pr1  1  0.003801  0.329500  0.749306  1
  Pr  Pr2  1  0.669525  0.994728  0.250499  1
  Sc  Sc3  1  0.328380  0.003691  0.748937  1
  Al  Al4  1  0.133442  0.130852  0.253641  1
  Al  Al5  1  0.873823  0.870778  0.747524  1
  Al  Al6  1  0.004572  0.339769  0.074439  1
  Al  Al7  1  0.002621  0.666166  0.919979  1
  Al  Al8  1  0.004413  0.670928  0.577940  1
  Al  Al9  1  0.334587  0.001924  0.435773  1
  Al  Al10  1  0.002929  0.334581  0.427954  1
  Al  Al11  1  0.660489  0.999088  0.577658  1
  Al  Al12  1  0.654413  0.997895  0.918941  1
  Al  Al13  1  0.338625  0.002967  0.066789  1
  Al  Al14  1  0.334058  0.330180  0.554337  1
  Al  Al15  1  0.666364  0.666165  0.459048  1
  Al  Al16  1  0.661107  0.661043  0.044398  1
  Al  Al17  1  0.337759  0.333535  0.941943  1
  Al  Al18  1  0.340452  0.546132  0.250405  1
  Al  Al19  1  0.654662  0.446059  0.749437  1
  Al  Al20  1  0.544987  0.337293  0.250139  1
  Al  Al21  1  0.451749  0.663877  0.749565  1
  Ir  Ir22  1  0.670886  0.328755  0.997820  1
  Ir  Ir23  1  0.328742  0.671186  0.998012  1
  Ir  Ir24  1  0.329499  0.671438  0.501962  1
  Ir  Ir25  1  0.670919  0.329091  0.501769  1
  Ir  Ir26  1  0.001496  0.000982  0.502598  1
  Pd  Pd27  1  0.000734  0.001119  0.998253  1
