# generated using pymatgen
data_Tb3HoFe12(P3Rh2)4
_symmetry_space_group_name_H-M   'P 1'
_cell_length_a   3.77343000
_cell_length_b   10.36463935
_cell_length_c   12.19093443
_cell_angle_alpha   90.03011503
_cell_angle_beta   90.00000000
_cell_angle_gamma   90.00000000
_symmetry_Int_Tables_number   1
_chemical_formula_structural   Tb3HoFe12(P3Rh2)4
_chemical_formula_sum   'Tb3 Ho1 Fe12 P12 Rh8'
_cell_volume   476.79031849
_cell_formula_units_Z   1
loop_
 _symmetry_equiv_pos_site_id
 _symmetry_equiv_pos_as_xyz
  1  'x, y, z'
loop_
 _atom_site_type_symbol
 _atom_site_label
 _atom_site_symmetry_multiplicity
 _atom_site_fract_x
 _atom_site_fract_y
 _atom_site_fract_z
 _atom_site_occupancy
  Tb  Tb0  1  0.250000  0.919301  0.210921  1
  Tb  Tb1  1  0.750000  0.419034  0.288980  1
  Tb  Tb2  1  0.750000  0.080779  0.789052  1
  Ho  Ho3  1  0.250000  0.580789  0.711081  1
  Fe  Fe4  1  0.250000  0.224318  0.170677  1
  Fe  Fe5  1  0.250000  0.275915  0.670575  1
  Fe  Fe6  1  0.750000  0.775121  0.829350  1
  Fe  Fe7  1  0.750000  0.724201  0.329579  1
  Fe  Fe8  1  0.250000  0.877042  0.697221  1
  Fe  Fe9  1  0.250000  0.622411  0.197059  1
  Fe  Fe10  1  0.750000  0.122520  0.302813  1
  Fe  Fe11  1  0.750000  0.378026  0.802622  1
  Fe  Fe12  1  0.250000  0.459469  0.934812  1
  Fe  Fe13  1  0.250000  0.040685  0.435254  1
  Fe  Fe14  1  0.750000  0.540888  0.064209  1
  Fe  Fe15  1  0.750000  0.958973  0.564906  1
  P  P16  1  0.250000  0.429897  0.112076  1
  P  P17  1  0.250000  0.070014  0.612529  1
  P  P18  1  0.750000  0.570271  0.886902  1
  P  P19  1  0.750000  0.929768  0.387622  1
  P  P20  1  0.250000  0.274313  0.852786  1
  P  P21  1  0.250000  0.225797  0.352897  1
  P  P22  1  0.750000  0.725689  0.147116  1
  P  P23  1  0.750000  0.773574  0.647350  1
  P  P24  1  0.250000  0.606620  0.378054  1
  P  P25  1  0.250000  0.893311  0.878156  1
  P  P26  1  0.750000  0.394017  0.622159  1
  P  P27  1  0.750000  0.106681  0.121973  1
  Rh  Rh28  1  0.250000  0.707281  0.985474  1
  Rh  Rh29  1  0.250000  0.792629  0.485633  1
  Rh  Rh30  1  0.750000  0.292896  0.014457  1
  Rh  Rh31  1  0.750000  0.207452  0.514654  1
  Rh  Rh32  1  0.250000  0.404955  0.479616  1
  Rh  Rh33  1  0.250000  0.095316  0.979475  1
  Rh  Rh34  1  0.750000  0.595294  0.521510  1
  Rh  Rh35  1  0.750000  0.904755  0.020450  1
