# generated using pymatgen
data_Sr3TaP3O
_symmetry_space_group_name_H-M   'P 1'
_cell_length_a   6.31768900
_cell_length_b   10.55736400
_cell_length_c   12.81239400
_cell_angle_alpha   90.00000000
_cell_angle_beta   90.00000000
_cell_angle_gamma   90.00000000
_symmetry_Int_Tables_number   1
_chemical_formula_structural   Sr3TaP3O
_chemical_formula_sum   'Sr12 Ta4 P12 O4'
_cell_volume   854.56287965
_cell_formula_units_Z   4
loop_
 _symmetry_equiv_pos_site_id
 _symmetry_equiv_pos_as_xyz
  1  'x, y, z'
loop_
 _atom_site_type_symbol
 _atom_site_label
 _atom_site_symmetry_multiplicity
 _atom_site_fract_x
 _atom_site_fract_y
 _atom_site_fract_z
 _atom_site_occupancy
  Sr  Sr0  1  0.247847  0.041001  0.629420  1
  Sr  Sr1  1  0.747847  0.458999  0.870580  1
  Sr  Sr2  1  0.752153  0.541001  0.370580  1
  Sr  Sr3  1  0.252153  0.958999  0.129420  1
  Sr  Sr4  1  0.247847  0.458999  0.629420  1
  Sr  Sr5  1  0.752153  0.958999  0.370580  1
  Sr  Sr6  1  0.769178  0.250000  0.130687  1
  Sr  Sr7  1  0.269178  0.250000  0.369313  1
  Sr  Sr8  1  0.230822  0.750000  0.869313  1
  Sr  Sr9  1  0.730822  0.750000  0.630687  1
  Sr  Sr10  1  0.252153  0.541001  0.129420  1
  Sr  Sr11  1  0.747847  0.041001  0.870580  1
  Ta  Ta12  1  0.335744  0.250000  0.951198  1
  Ta  Ta13  1  0.835744  0.250000  0.548802  1
  Ta  Ta14  1  0.664256  0.750000  0.048802  1
  Ta  Ta15  1  0.164256  0.750000  0.451198  1
  P  P16  1  0.235948  0.750000  0.633627  1
  P  P17  1  0.735948  0.750000  0.866373  1
  P  P18  1  0.764052  0.250000  0.366373  1
  P  P19  1  0.264052  0.250000  0.133627  1
  P  P20  1  0.237262  0.449490  0.877290  1
  P  P21  1  0.737262  0.050510  0.622710  1
  P  P22  1  0.237262  0.050510  0.877290  1
  P  P23  1  0.737262  0.449490  0.622710  1
  P  P24  1  0.762738  0.550510  0.122710  1
  P  P25  1  0.262738  0.550510  0.377290  1
  P  P26  1  0.262738  0.949490  0.377290  1
  P  P27  1  0.762738  0.949490  0.122710  1
  O  O28  1  0.635405  0.250000  0.945124  1
  O  O29  1  0.135405  0.250000  0.554876  1
  O  O30  1  0.364595  0.750000  0.054876  1
  O  O31  1  0.864595  0.750000  0.445124  1
