# generated using pymatgen
data_SmMgCdPt3
_symmetry_space_group_name_H-M   'P 1'
_cell_length_a   5.32132383
_cell_length_b   5.32132384
_cell_length_c   5.32132404
_cell_angle_alpha   62.98707857
_cell_angle_beta   62.98707208
_cell_angle_gamma   62.98708364
_symmetry_Int_Tables_number   1
_chemical_formula_structural   SmMgCdPt3
_chemical_formula_sum   'Sm1 Mg1 Cd1 Pt3'
_cell_volume   113.61408729
_cell_formula_units_Z   1
loop_
 _symmetry_equiv_pos_site_id
 _symmetry_equiv_pos_as_xyz
  1  'x, y, z'
loop_
 _atom_site_type_symbol
 _atom_site_label
 _atom_site_symmetry_multiplicity
 _atom_site_fract_x
 _atom_site_fract_y
 _atom_site_fract_z
 _atom_site_occupancy
  Sm  Sm0  1  0.241646  0.241646  0.241646  1
  Mg  Mg1  1  0.629072  0.629072  0.629072  1
  Cd  Cd2  1  0.996149  0.996149  0.996149  1
  Pt  Pt3  1  0.627684  0.627684  0.127764  1
  Pt  Pt4  1  0.627684  0.127764  0.627684  1
  Pt  Pt5  1  0.127764  0.627684  0.627684  1
