# generated using pymatgen
data_Y2Ni3Ir
_symmetry_space_group_name_H-M   'P 1'
_cell_length_a   5.22172393
_cell_length_b   5.22172361
_cell_length_c   5.22172422
_cell_angle_alpha   58.31742210
_cell_angle_beta   58.31741910
_cell_angle_gamma   58.31741225
_symmetry_Int_Tables_number   1
_chemical_formula_structural   Y2Ni3Ir
_chemical_formula_sum   'Y2 Ni3 Ir1'
_cell_volume   96.79715689
_cell_formula_units_Z   1
loop_
 _symmetry_equiv_pos_site_id
 _symmetry_equiv_pos_as_xyz
  1  'x, y, z'
loop_
 _atom_site_type_symbol
 _atom_site_label
 _atom_site_symmetry_multiplicity
 _atom_site_fract_x
 _atom_site_fract_y
 _atom_site_fract_z
 _atom_site_occupancy
  Y  Y0  1  0.375899  0.375899  0.375899  1
  Y  Y1  1  0.624101  0.624101  0.624101  1
  Ni  Ni2  1  0.500000  0.000000  0.000000  1
  Ni  Ni3  1  0.000000  0.500000  0.000000  1
  Ni  Ni4  1  0.000000  0.000000  0.500000  1
  Ir  Ir5  1  0.000000  0.000000  0.000000  1
