# generated using pymatgen
data_Na7Sr(Sn3Au)4
_symmetry_space_group_name_H-M   'P 1'
_cell_length_a   9.96483300
_cell_length_b   9.89159184
_cell_length_c   7.56359000
_cell_angle_alpha   90.00000000
_cell_angle_beta   90.00000000
_cell_angle_gamma   120.24524222
_symmetry_Int_Tables_number   1
_chemical_formula_structural   Na7Sr(Sn3Au)4
_chemical_formula_sum   'Na7 Sr1 Sn12 Au4'
_cell_volume   644.04508659
_cell_formula_units_Z   1
loop_
 _symmetry_equiv_pos_site_id
 _symmetry_equiv_pos_as_xyz
  1  'x, y, z'
loop_
 _atom_site_type_symbol
 _atom_site_label
 _atom_site_symmetry_multiplicity
 _atom_site_fract_x
 _atom_site_fract_y
 _atom_site_fract_z
 _atom_site_occupancy
  Na  Na0  1  0.065125  0.532113  0.750000  1
  Na  Na1  1  0.466987  0.532113  0.750000  1
  Na  Na2  1  0.531615  0.469235  0.250000  1
  Na  Na3  1  0.467422  0.934844  0.750000  1
  Na  Na4  1  0.937621  0.469235  0.250000  1
  Na  Na5  1  0.000229  0.000458  0.750000  1
  Na  Na6  1  0.000263  0.000526  0.250000  1
  Sr  Sr7  1  0.524617  0.049233  0.250000  1
  Sn  Sn8  1  0.168404  0.827202  0.050898  1
  Sn  Sn9  1  0.829100  0.658201  0.552200  1
  Sn  Sn10  1  0.342524  0.174085  0.553813  1
  Sn  Sn11  1  0.831561  0.174085  0.946187  1
  Sn  Sn12  1  0.829100  0.658201  0.947800  1
  Sn  Sn13  1  0.831561  0.174085  0.553813  1
  Sn  Sn14  1  0.342524  0.174085  0.946187  1
  Sn  Sn15  1  0.658798  0.827202  0.050898  1
  Sn  Sn16  1  0.658798  0.827202  0.449102  1
  Sn  Sn17  1  0.171522  0.343044  0.446692  1
  Sn  Sn18  1  0.168404  0.827202  0.449102  1
  Sn  Sn19  1  0.171522  0.343044  0.053308  1
  Au  Au20  1  0.334439  0.668879  0.454495  1
  Au  Au21  1  0.666713  0.333426  0.546280  1
  Au  Au22  1  0.666713  0.333426  0.953720  1
  Au  Au23  1  0.334439  0.668879  0.045505  1
