# generated using pymatgen
data_NdEuNpO6
_symmetry_space_group_name_H-M   'P 1'
_cell_length_a   5.57444900
_cell_length_b   9.44932500
_cell_length_c   10.43529300
_cell_angle_alpha   90.00000000
_cell_angle_beta   90.00000000
_cell_angle_gamma   90.00000000
_symmetry_Int_Tables_number   1
_chemical_formula_structural   NdEuNpO6
_chemical_formula_sum   'Nd4 Eu4 Np4 O24'
_cell_volume   549.67676611
_cell_formula_units_Z   4
loop_
 _symmetry_equiv_pos_site_id
 _symmetry_equiv_pos_as_xyz
  1  'x, y, z'
loop_
 _atom_site_type_symbol
 _atom_site_label
 _atom_site_symmetry_multiplicity
 _atom_site_fract_x
 _atom_site_fract_y
 _atom_site_fract_z
 _atom_site_occupancy
  Nd  Nd0  1  0.961485  0.781981  0.869617  1
  Nd  Nd1  1  0.461485  0.718019  0.130383  1
  Nd  Nd2  1  0.038515  0.281981  0.630383  1
  Nd  Nd3  1  0.538515  0.218019  0.369617  1
  Eu  Eu4  1  0.470137  0.600527  0.535238  1
  Eu  Eu5  1  0.970137  0.899473  0.464762  1
  Eu  Eu6  1  0.529863  0.100527  0.964762  1
  Eu  Eu7  1  0.029863  0.399473  0.035238  1
  Np  Np8  1  0.458657  0.994031  0.648951  1
  Np  Np9  1  0.958657  0.505969  0.351049  1
  Np  Np10  1  0.541343  0.494031  0.851049  1
  Np  Np11  1  0.041343  0.005969  0.148951  1
  O  O12  1  0.250829  0.087658  0.506014  1
  O  O13  1  0.750829  0.412342  0.493986  1
  O  O14  1  0.749171  0.587658  0.993986  1
  O  O15  1  0.249171  0.912342  0.006014  1
  O  O16  1  0.730612  0.117315  0.566123  1
  O  O17  1  0.230612  0.382685  0.433877  1
  O  O18  1  0.269388  0.617315  0.933877  1
  O  O19  1  0.769388  0.882685  0.066123  1
  O  O20  1  0.580367  0.844205  0.531164  1
  O  O21  1  0.080367  0.655795  0.468836  1
  O  O22  1  0.419633  0.344205  0.968836  1
  O  O23  1  0.919633  0.155795  0.031164  1
  O  O24  1  0.181417  0.858484  0.261503  1
  O  O25  1  0.681417  0.641516  0.738497  1
  O  O26  1  0.818583  0.358484  0.238497  1
  O  O27  1  0.318583  0.141516  0.761503  1
  O  O28  1  0.827636  0.050944  0.300837  1
  O  O29  1  0.327636  0.449056  0.699163  1
  O  O30  1  0.172364  0.550944  0.199163  1
  O  O31  1  0.672364  0.949056  0.800837  1
  O  O32  1  0.327814  0.138702  0.183450  1
  O  O33  1  0.827814  0.361298  0.816550  1
  O  O34  1  0.672186  0.638702  0.316550  1
  O  O35  1  0.172186  0.861298  0.683450  1
