# generated using pymatgen
data_RbInGa2Te5
_symmetry_space_group_name_H-M   'P 1'
_cell_length_a   11.21701071
_cell_length_b   11.29360684
_cell_length_c   11.22147848
_cell_angle_alpha   91.12007475
_cell_angle_beta   90.37304195
_cell_angle_gamma   90.91435420
_symmetry_Int_Tables_number   1
_chemical_formula_structural   RbInGa2Te5
_chemical_formula_sum   'Rb4 In4 Ga8 Te20'
_cell_volume   1421.05690957
_cell_formula_units_Z   4
loop_
 _symmetry_equiv_pos_site_id
 _symmetry_equiv_pos_as_xyz
  1  'x, y, z'
loop_
 _atom_site_type_symbol
 _atom_site_label
 _atom_site_symmetry_multiplicity
 _atom_site_fract_x
 _atom_site_fract_y
 _atom_site_fract_z
 _atom_site_occupancy
  Rb  Rb0  1  0.248156  0.000825  0.749683  1
  Rb  Rb1  1  0.747017  0.246718  0.998088  1
  Rb  Rb2  1  0.000278  0.752096  0.247917  1
  Rb  Rb3  1  0.500345  0.497188  0.499286  1
  In  In4  1  0.838624  0.890924  0.573645  1
  In  In5  1  0.573034  0.839624  0.890294  1
  In  In6  1  0.887317  0.575338  0.838122  1
  In  In7  1  0.168155  0.422269  0.115776  1
  Ga  Ga8  1  0.112335  0.167999  0.423691  1
  Ga  Ga9  1  0.425194  0.109657  0.175014  1
  Ga  Ga10  1  0.739143  0.156743  0.353440  1
  Ga  Ga11  1  0.354514  0.740342  0.160088  1
  Ga  Ga12  1  0.159187  0.354643  0.735572  1
  Ga  Ga13  1  0.263504  0.643297  0.837779  1
  Ga  Ga14  1  0.841390  0.260953  0.642743  1
  Ga  Ga15  1  0.644300  0.840457  0.260502  1
  Te  Te16  1  0.197299  0.800155  0.998559  1
  Te  Te17  1  0.803520  0.997960  0.193827  1
  Te  Te18  1  0.186092  0.172480  0.187677  1
  Te  Te19  1  0.827062  0.828140  0.826874  1
  Te  Te20  1  0.998937  0.198076  0.802309  1
  Te  Te21  1  0.930283  0.495891  0.073161  1
  Te  Te22  1  0.072479  0.945555  0.490737  1
  Te  Te23  1  0.487566  0.070484  0.948280  1
  Te  Te24  1  0.732207  0.709948  0.430271  1
  Te  Te25  1  0.432335  0.735691  0.705429  1
  Te  Te26  1  0.708126  0.430151  0.730955  1
  Te  Te27  1  0.267248  0.573466  0.295556  1
  Te  Te28  1  0.283708  0.265151  0.558746  1
  Te  Te29  1  0.562826  0.281609  0.267697  1
  Te  Te30  1  0.681310  0.087711  0.577648  1
  Te  Te31  1  0.577151  0.681542  0.086335  1
  Te  Te32  1  0.087411  0.576958  0.681192  1
  Te  Te33  1  0.318916  0.421088  0.909574  1
  Te  Te34  1  0.920982  0.309485  0.418714  1
  Te  Te35  1  0.422048  0.919383  0.314818  1
