# generated using pymatgen
data_Er9Mg(Sn3C)2
_symmetry_space_group_name_H-M   'P 1'
_cell_length_a   8.88914900
_cell_length_b   8.88914851
_cell_length_c   6.33962700
_cell_angle_alpha   90.00000000
_cell_angle_beta   90.00000000
_cell_angle_gamma   120.00000554
_symmetry_Int_Tables_number   1
_chemical_formula_structural   Er9Mg(Sn3C)2
_chemical_formula_sum   'Er9 Mg1 Sn6 C2'
_cell_volume   433.82508627
_cell_formula_units_Z   1
loop_
 _symmetry_equiv_pos_site_id
 _symmetry_equiv_pos_as_xyz
  1  'x, y, z'
loop_
 _atom_site_type_symbol
 _atom_site_label
 _atom_site_symmetry_multiplicity
 _atom_site_fract_x
 _atom_site_fract_y
 _atom_site_fract_z
 _atom_site_occupancy
  Er  Er0  1  0.333333  0.666667  0.500000  1
  Er  Er1  1  0.333333  0.666667  0.000000  1
  Er  Er2  1  0.666667  0.333333  0.000000  1
  Er  Er3  1  0.787227  0.786892  0.249076  1
  Er  Er4  1  0.213108  0.000335  0.249076  1
  Er  Er5  1  0.999665  0.212773  0.249076  1
  Er  Er6  1  0.213108  0.212773  0.750924  1
  Er  Er7  1  0.787227  0.000335  0.750924  1
  Er  Er8  1  0.999665  0.786892  0.750924  1
  Mg  Mg9  1  0.666667  0.333333  0.500000  1
  Sn  Sn10  1  0.409957  0.408251  0.250963  1
  Sn  Sn11  1  0.591749  0.001705  0.250963  1
  Sn  Sn12  1  0.998295  0.590043  0.250963  1
  Sn  Sn13  1  0.591749  0.590043  0.749037  1
  Sn  Sn14  1  0.409957  0.001705  0.749037  1
  Sn  Sn15  1  0.998295  0.408251  0.749037  1
  C  C16  1  0.000000  0.000000  0.500000  1
  C  C17  1  0.000000  0.000000  0.000000  1
