# generated using pymatgen
data_Tm10Be3Si15Au2
_symmetry_space_group_name_H-M   'P 1'
_cell_length_a   3.99909306
_cell_length_b   3.98105441
_cell_length_c   34.45940296
_cell_angle_alpha   86.67472458
_cell_angle_beta   86.63254211
_cell_angle_gamma   90.00021283
_symmetry_Int_Tables_number   1
_chemical_formula_structural   Tm10Be3Si15Au2
_chemical_formula_sum   'Tm10 Be3 Si15 Au2'
_cell_volume   546.74205427
_cell_formula_units_Z   1
loop_
 _symmetry_equiv_pos_site_id
 _symmetry_equiv_pos_as_xyz
  1  'x, y, z'
loop_
 _atom_site_type_symbol
 _atom_site_label
 _atom_site_symmetry_multiplicity
 _atom_site_fract_x
 _atom_site_fract_y
 _atom_site_fract_z
 _atom_site_occupancy
  Tm  Tm0  1  0.948055  0.447754  0.104050  1
  Tm  Tm1  1  0.350857  0.850573  0.298462  1
  Tm  Tm2  1  0.753849  0.253965  0.492497  1
  Tm  Tm3  1  0.149259  0.650106  0.700827  1
  Tm  Tm4  1  0.544858  0.045205  0.909737  1
  Tm  Tm5  1  0.997272  0.996794  0.006277  1
  Tm  Tm6  1  0.399850  0.399636  0.200669  1
  Tm  Tm7  1  0.802339  0.802300  0.395530  1
  Tm  Tm8  1  0.205250  0.205000  0.589688  1
  Tm  Tm9  1  0.601347  0.601195  0.797230  1
  Be  Be10  1  0.465009  0.964936  0.069853  1
  Be  Be11  1  0.867537  0.367740  0.264514  1
  Be  Be12  1  0.270189  0.770682  0.459014  1
  Si  Si13  1  0.666732  0.167118  0.665654  1
  Si  Si14  1  0.061704  0.563176  0.873846  1
  Si  Si15  1  0.915710  0.915970  0.168304  1
  Si  Si16  1  0.318318  0.318719  0.362943  1
  Si  Si17  1  0.720690  0.721123  0.558293  1
  Si  Si18  1  0.116409  0.116284  0.766844  1
  Si  Si19  1  0.512842  0.512983  0.974403  1
  Si  Si20  1  0.433624  0.932907  0.133000  1
  Si  Si21  1  0.836202  0.335749  0.327677  1
  Si  Si22  1  0.239086  0.739045  0.522027  1
  Si  Si23  1  0.633968  0.135000  0.732038  1
  Si  Si24  1  0.030228  0.529706  0.940110  1
  Si  Si25  1  0.479681  0.479050  0.041594  1
  Si  Si26  1  0.882418  0.882035  0.235736  1
  Si  Si27  1  0.285156  0.284870  0.430321  1
  Au  Au28  1  0.686295  0.685811  0.627974  1
  Au  Au29  1  0.082468  0.081770  0.836491  1
