# generated using pymatgen
data_Ta3(Ga2Cu)2
_symmetry_space_group_name_H-M   'P 1'
_cell_length_a   8.68681200
_cell_length_b   8.76891261
_cell_length_c   8.18025900
_cell_angle_alpha   90.00000000
_cell_angle_beta   90.00000000
_cell_angle_gamma   120.69473231
_symmetry_Int_Tables_number   1
_chemical_formula_structural   Ta3(Ga2Cu)2
_chemical_formula_sum   'Ta12 Ga16 Cu8'
_cell_volume   535.82227922
_cell_formula_units_Z   4
loop_
 _symmetry_equiv_pos_site_id
 _symmetry_equiv_pos_as_xyz
  1  'x, y, z'
loop_
 _atom_site_type_symbol
 _atom_site_label
 _atom_site_symmetry_multiplicity
 _atom_site_fract_x
 _atom_site_fract_y
 _atom_site_fract_z
 _atom_site_occupancy
  Ta  Ta0  1  0.328871  0.994245  0.065251  1
  Ta  Ta1  1  0.671129  0.005755  0.934749  1
  Ta  Ta2  1  0.998948  0.329715  0.067123  1
  Ta  Ta3  1  0.671129  0.005755  0.565251  1
  Ta  Ta4  1  0.998948  0.329715  0.432877  1
  Ta  Ta5  1  0.001052  0.670285  0.932877  1
  Ta  Ta6  1  0.328871  0.994245  0.434749  1
  Ta  Ta7  1  0.001052  0.670285  0.567123  1
  Ta  Ta8  1  0.668009  0.665842  0.065416  1
  Ta  Ta9  1  0.331991  0.334158  0.934584  1
  Ta  Ta10  1  0.331991  0.334158  0.565416  1
  Ta  Ta11  1  0.668009  0.665842  0.434584  1
  Ga  Ga12  1  0.344253  0.846849  0.750000  1
  Ga  Ga13  1  0.653287  0.504902  0.750000  1
  Ga  Ga14  1  0.655747  0.153151  0.250000  1
  Ga  Ga15  1  0.346713  0.495098  0.250000  1
  Ga  Ga16  1  0.843782  0.340306  0.750000  1
  Ga  Ga17  1  0.156218  0.659694  0.250000  1
  Ga  Ga18  1  0.339612  0.665291  0.504936  1
  Ga  Ga19  1  0.660388  0.334709  0.495064  1
  Ga  Ga20  1  0.660388  0.334709  0.004936  1
  Ga  Ga21  1  0.339612  0.665291  0.995064  1
  Ga  Ga22  1  0.179510  0.007345  0.750000  1
  Ga  Ga23  1  0.820490  0.992655  0.250000  1
  Ga  Ga24  1  0.010200  0.181933  0.750000  1
  Ga  Ga25  1  0.989800  0.818067  0.250000  1
  Ga  Ga26  1  0.822253  0.832818  0.750000  1
  Ga  Ga27  1  0.177747  0.167182  0.250000  1
  Cu  Cu28  1  0.165802  0.502413  0.750000  1
  Cu  Cu29  1  0.834198  0.497587  0.250000  1
  Cu  Cu30  1  0.501999  0.668198  0.750000  1
  Cu  Cu31  1  0.503424  0.168248  0.750000  1
  Cu  Cu32  1  0.498001  0.331802  0.250000  1
  Cu  Cu33  1  0.496576  0.831752  0.250000  1
  Cu  Cu34  1  0.000000  0.000000  0.500000  1
  Cu  Cu35  1  0.000000  0.000000  0.000000  1
