# generated using pymatgen
data_Tb3CdHg4
_symmetry_space_group_name_H-M   'P 1'
_cell_length_a   6.41905583
_cell_length_b   6.41905534
_cell_length_c   10.24047700
_cell_angle_alpha   90.00000000
_cell_angle_beta   90.00000000
_cell_angle_gamma   107.08334044
_symmetry_Int_Tables_number   1
_chemical_formula_structural   Tb3CdHg4
_chemical_formula_sum   'Tb6 Cd2 Hg8'
_cell_volume   403.33428467
_cell_formula_units_Z   2
loop_
 _symmetry_equiv_pos_site_id
 _symmetry_equiv_pos_as_xyz
  1  'x, y, z'
loop_
 _atom_site_type_symbol
 _atom_site_label
 _atom_site_symmetry_multiplicity
 _atom_site_fract_x
 _atom_site_fract_y
 _atom_site_fract_z
 _atom_site_occupancy
  Tb  Tb0  1  0.552578  0.552578  0.250000  1
  Tb  Tb1  1  0.447422  0.447422  0.750000  1
  Tb  Tb2  1  0.217873  0.782127  0.500000  1
  Tb  Tb3  1  0.217873  0.782127  0.000000  1
  Tb  Tb4  1  0.782127  0.217873  0.500000  1
  Tb  Tb5  1  0.782127  0.217873  0.000000  1
  Cd  Cd6  1  0.983615  0.983615  0.250000  1
  Cd  Cd7  1  0.016385  0.016385  0.750000  1
  Hg  Hg8  1  0.281614  0.281614  0.023582  1
  Hg  Hg9  1  0.718386  0.718386  0.976418  1
  Hg  Hg10  1  0.281614  0.281614  0.476418  1
  Hg  Hg11  1  0.718386  0.718386  0.523582  1
  Hg  Hg12  1  0.483513  0.029598  0.250000  1
  Hg  Hg13  1  0.970402  0.516487  0.750000  1
  Hg  Hg14  1  0.516487  0.970402  0.750000  1
  Hg  Hg15  1  0.029598  0.483513  0.250000  1
