# generated using pymatgen
data_Tb3Y(Sc3Sn4)2
_symmetry_space_group_name_H-M   'P 1'
_cell_length_a   7.75290800
_cell_length_b   7.92278804
_cell_length_c   14.91375707
_cell_angle_alpha   90.01087874
_cell_angle_beta   90.00000000
_cell_angle_gamma   90.00000000
_symmetry_Int_Tables_number   1
_chemical_formula_structural   Tb3Y(Sc3Sn4)2
_chemical_formula_sum   'Tb6 Y2 Sc12 Sn16'
_cell_volume   916.07224297
_cell_formula_units_Z   2
loop_
 _symmetry_equiv_pos_site_id
 _symmetry_equiv_pos_as_xyz
  1  'x, y, z'
loop_
 _atom_site_type_symbol
 _atom_site_label
 _atom_site_symmetry_multiplicity
 _atom_site_fract_x
 _atom_site_fract_y
 _atom_site_fract_z
 _atom_site_occupancy
  Tb  Tb0  1  0.516446  0.323061  0.905076  1
  Tb  Tb1  1  0.016446  0.176939  0.594924  1
  Tb  Tb2  1  0.483220  0.676808  0.405063  1
  Tb  Tb3  1  0.983220  0.823192  0.094937  1
  Tb  Tb4  1  0.483393  0.676871  0.094930  1
  Tb  Tb5  1  0.983393  0.823129  0.405070  1
  Y  Y6  1  0.517329  0.323095  0.595202  1
  Y  Y7  1  0.017329  0.176905  0.904798  1
  Sc  Sc8  1  0.357322  0.838001  0.874043  1
  Sc  Sc9  1  0.857322  0.661999  0.625957  1
  Sc  Sc10  1  0.642754  0.162275  0.374269  1
  Sc  Sc11  1  0.142754  0.337725  0.125731  1
  Sc  Sc12  1  0.642740  0.162248  0.125602  1
  Sc  Sc13  1  0.142740  0.337752  0.374398  1
  Sc  Sc14  1  0.357221  0.837748  0.625914  1
  Sc  Sc15  1  0.857221  0.662252  0.874086  1
  Sc  Sc16  1  0.188603  0.505721  0.749924  1
  Sc  Sc17  1  0.688603  0.994279  0.750076  1
  Sc  Sc18  1  0.811128  0.494340  0.249926  1
  Sc  Sc19  1  0.311128  0.005660  0.250074  1
  Sn  Sn20  1  0.308020  0.043716  0.042255  1
  Sn  Sn21  1  0.808020  0.456284  0.457745  1
  Sn  Sn22  1  0.691255  0.956424  0.542492  1
  Sn  Sn23  1  0.191255  0.543576  0.957508  1
  Sn  Sn24  1  0.691801  0.956549  0.957463  1
  Sn  Sn25  1  0.191801  0.543451  0.542537  1
  Sn  Sn26  1  0.308570  0.043456  0.457545  1
  Sn  Sn27  1  0.808570  0.456544  0.042455  1
  Sn  Sn28  1  0.552593  0.626790  0.750173  1
  Sn  Sn29  1  0.052593  0.873210  0.749827  1
  Sn  Sn30  1  0.447306  0.373444  0.249976  1
  Sn  Sn31  1  0.947306  0.126556  0.250024  1
  Sn  Sn32  1  0.325515  0.146950  0.749866  1
  Sn  Sn33  1  0.825515  0.353050  0.750134  1
  Sn  Sn34  1  0.674783  0.853465  0.249944  1
  Sn  Sn35  1  0.174783  0.646535  0.250056  1
