# generated using pymatgen
data_TbY5(WO7)2
_symmetry_space_group_name_H-M   'P 1'
_cell_length_a   6.49510813
_cell_length_b   6.49510493
_cell_length_c   7.50844912
_cell_angle_alpha   89.98355886
_cell_angle_beta   90.01643791
_cell_angle_gamma   109.15128430
_symmetry_Int_Tables_number   1
_chemical_formula_structural   TbY5(WO7)2
_chemical_formula_sum   'Tb1 Y5 W2 O14'
_cell_volume   299.22391277
_cell_formula_units_Z   1
loop_
 _symmetry_equiv_pos_site_id
 _symmetry_equiv_pos_as_xyz
  1  'x, y, z'
loop_
 _atom_site_type_symbol
 _atom_site_label
 _atom_site_symmetry_multiplicity
 _atom_site_fract_x
 _atom_site_fract_y
 _atom_site_fract_z
 _atom_site_occupancy
  Tb  Tb0  1  0.518137  0.518137  0.250000  1
  Y  Y1  1  0.481820  0.481820  0.750000  1
  Y  Y2  1  0.998795  0.467174  0.497640  1
  Y  Y3  1  0.532806  0.001278  0.502768  1
  Y  Y4  1  0.001278  0.532806  0.997232  1
  Y  Y5  1  0.467174  0.998795  0.002360  1
  W  W6  1  0.000857  0.000857  0.250000  1
  W  W7  1  0.999138  0.999138  0.750000  1
  O  O8  1  0.067281  0.318147  0.218028  1
  O  O9  1  0.682146  0.933023  0.782056  1
  O  O10  1  0.933024  0.682146  0.717944  1
  O  O11  1  0.318147  0.067282  0.281972  1
  O  O12  1  0.675171  0.919143  0.222468  1
  O  O13  1  0.080486  0.324581  0.777604  1
  O  O14  1  0.324581  0.080487  0.722396  1
  O  O15  1  0.919144  0.675171  0.277532  1
  O  O16  1  0.368676  0.631300  0.500628  1
  O  O17  1  0.631301  0.368677  0.999372  1
  O  O18  1  0.363187  0.636870  0.999585  1
  O  O19  1  0.636870  0.363187  0.500415  1
  O  O20  1  0.926190  0.073792  0.499907  1
  O  O21  1  0.073792  0.926190  0.000093  1
