# generated using pymatgen
data_La3TbNdIr2
_symmetry_space_group_name_H-M   'P 1'
_cell_length_a   6.73050329
_cell_length_b   7.28229578
_cell_length_c   9.08405077
_cell_angle_alpha   95.82051820
_cell_angle_beta   111.74381822
_cell_angle_gamma   90.00000053
_symmetry_Int_Tables_number   1
_chemical_formula_structural   La3TbNdIr2
_chemical_formula_sum   'La6 Tb2 Nd2 Ir4'
_cell_volume   411.08982432
_cell_formula_units_Z   2
loop_
 _symmetry_equiv_pos_site_id
 _symmetry_equiv_pos_as_xyz
  1  'x, y, z'
loop_
 _atom_site_type_symbol
 _atom_site_label
 _atom_site_symmetry_multiplicity
 _atom_site_fract_x
 _atom_site_fract_y
 _atom_site_fract_z
 _atom_site_occupancy
  La  La0  1  0.977076  0.920220  0.182119  1
  La  La1  1  0.794956  0.579780  0.817881  1
  La  La2  1  0.020556  0.083766  0.816947  1
  La  La3  1  0.203609  0.416234  0.183053  1
  La  La4  1  0.645535  0.816571  0.428002  1
  La  La5  1  0.217533  0.683429  0.571998  1
  Tb  Tb6  1  0.436401  0.750000  0.000000  1
  Tb  Tb7  1  0.565788  0.250000  0.000000  1
  Nd  Nd8  1  0.353582  0.186423  0.569628  1
  Nd  Nd9  1  0.783954  0.313577  0.430372  1
  Ir  Ir10  1  0.813306  0.574525  0.213861  1
  Ir  Ir11  1  0.599444  0.925475  0.786139  1
  Ir  Ir12  1  0.186478  0.426655  0.784695  1
  Ir  Ir13  1  0.401783  0.073345  0.215305  1
