# generated using pymatgen
data_Tb2TaIr2Rh
_symmetry_space_group_name_H-M   'P 1'
_cell_length_a   5.25604354
_cell_length_b   5.24659941
_cell_length_c   5.25604346
_cell_angle_alpha   65.53227379
_cell_angle_beta   65.60472674
_cell_angle_gamma   65.53226569
_symmetry_Int_Tables_number   1
_chemical_formula_structural   Tb2TaIr2Rh
_chemical_formula_sum   'Tb2 Ta1 Ir2 Rh1'
_cell_volume   114.86384069
_cell_formula_units_Z   1
loop_
 _symmetry_equiv_pos_site_id
 _symmetry_equiv_pos_as_xyz
  1  'x, y, z'
loop_
 _atom_site_type_symbol
 _atom_site_label
 _atom_site_symmetry_multiplicity
 _atom_site_fract_x
 _atom_site_fract_y
 _atom_site_fract_z
 _atom_site_occupancy
  Tb  Tb0  1  0.373539  0.372174  0.373539  1
  Tb  Tb1  1  0.626461  0.627826  0.626461  1
  Ta  Ta2  1  0.000000  0.000000  0.000000  1
  Ir  Ir3  1  0.500000  0.000000  0.000000  1
  Ir  Ir4  1  0.000000  0.000000  0.499999  1
  Rh  Rh5  1  0.000000  0.500000  0.000000  1
