# generated using pymatgen
data_RbP4(WO7)2
_symmetry_space_group_name_H-M   'P 1'
_cell_length_a   5.01607670
_cell_length_b   7.48571600
_cell_length_c   8.38535789
_cell_angle_alpha   90.22735705
_cell_angle_beta   93.21579508
_cell_angle_gamma   104.81977283
_symmetry_Int_Tables_number   1
_chemical_formula_structural   RbP4(WO7)2
_chemical_formula_sum   'Rb1 P4 W2 O14'
_cell_volume   303.85334486
_cell_formula_units_Z   1
loop_
 _symmetry_equiv_pos_site_id
 _symmetry_equiv_pos_as_xyz
  1  'x, y, z'
loop_
 _atom_site_type_symbol
 _atom_site_label
 _atom_site_symmetry_multiplicity
 _atom_site_fract_x
 _atom_site_fract_y
 _atom_site_fract_z
 _atom_site_occupancy
  Rb  Rb0  1  0.000000  0.500000  0.000000  1
  P  P1  1  0.376199  0.257573  0.303400  1
  P  P2  1  0.623801  0.742427  0.696600  1
  P  P3  1  0.006386  0.112116  0.749028  1
  P  P4  1  0.993614  0.887884  0.250972  1
  W  W5  1  0.000000  0.500000  0.500000  1
  W  W6  1  0.500000  0.000000  0.000000  1
  O  O7  1  0.263394  0.049359  0.806622  1
  O  O8  1  0.736606  0.950641  0.193378  1
  O  O9  1  0.153731  0.858008  0.102844  1
  O  O10  1  0.846269  0.141992  0.897156  1
  O  O11  1  0.194719  0.051738  0.355638  1
  O  O12  1  0.805281  0.948262  0.644362  1
  O  O13  1  0.188095  0.388761  0.307006  1
  O  O14  1  0.811905  0.611239  0.692994  1
  O  O15  1  0.620423  0.302358  0.422997  1
  O  O16  1  0.379577  0.697642  0.577003  1
  O  O17  1  0.080652  0.286154  0.654964  1
  O  O18  1  0.919348  0.713846  0.345036  1
  O  O19  1  0.450365  0.235692  0.127815  1
  O  O20  1  0.549635  0.764308  0.872185  1
