# generated using pymatgen
data_Sr2Yb3Pt4
_symmetry_space_group_name_H-M   'P 1'
_cell_length_a   7.62032300
_cell_length_b   7.81328000
_cell_length_c   14.83207600
_cell_angle_alpha   90.00000000
_cell_angle_beta   90.00000000
_cell_angle_gamma   90.00000000
_symmetry_Int_Tables_number   1
_chemical_formula_structural   Sr2Yb3Pt4
_chemical_formula_sum   'Sr8 Yb12 Pt16'
_cell_volume   883.09761186
_cell_formula_units_Z   4
loop_
 _symmetry_equiv_pos_site_id
 _symmetry_equiv_pos_as_xyz
  1  'x, y, z'
loop_
 _atom_site_type_symbol
 _atom_site_label
 _atom_site_symmetry_multiplicity
 _atom_site_fract_x
 _atom_site_fract_y
 _atom_site_fract_z
 _atom_site_occupancy
  Sr  Sr0  1  0.502752  0.324495  0.903700  1
  Sr  Sr1  1  0.002752  0.175505  0.596300  1
  Sr  Sr2  1  0.497248  0.675505  0.403700  1
  Sr  Sr3  1  0.997248  0.824495  0.096300  1
  Sr  Sr4  1  0.497248  0.675505  0.096300  1
  Sr  Sr5  1  0.997248  0.824495  0.403700  1
  Sr  Sr6  1  0.502752  0.324495  0.596300  1
  Sr  Sr7  1  0.002752  0.175505  0.903700  1
  Yb  Yb8  1  0.339606  0.832361  0.877006  1
  Yb  Yb9  1  0.839606  0.667639  0.622994  1
  Yb  Yb10  1  0.660394  0.167639  0.377007  1
  Yb  Yb11  1  0.160394  0.332361  0.122993  1
  Yb  Yb12  1  0.660394  0.167639  0.122993  1
  Yb  Yb13  1  0.160394  0.332361  0.377007  1
  Yb  Yb14  1  0.339606  0.832361  0.622994  1
  Yb  Yb15  1  0.839606  0.667639  0.877006  1
  Yb  Yb16  1  0.179019  0.497782  0.750000  1
  Yb  Yb17  1  0.679019  0.002218  0.750000  1
  Yb  Yb18  1  0.820981  0.502218  0.250000  1
  Yb  Yb19  1  0.320981  0.997782  0.250000  1
  Pt  Pt20  1  0.335244  0.038438  0.042729  1
  Pt  Pt21  1  0.835244  0.461562  0.457271  1
  Pt  Pt22  1  0.664756  0.961562  0.542729  1
  Pt  Pt23  1  0.164756  0.538438  0.957271  1
  Pt  Pt24  1  0.664756  0.961562  0.957271  1
  Pt  Pt25  1  0.164756  0.538438  0.542729  1
  Pt  Pt26  1  0.335244  0.038438  0.457271  1
  Pt  Pt27  1  0.835244  0.461562  0.042729  1
  Pt  Pt28  1  0.546503  0.628149  0.750000  1
  Pt  Pt29  1  0.046503  0.871851  0.750000  1
  Pt  Pt30  1  0.453497  0.371851  0.250000  1
  Pt  Pt31  1  0.953497  0.128149  0.250000  1
  Pt  Pt32  1  0.303478  0.125528  0.750000  1
  Pt  Pt33  1  0.803478  0.374472  0.750000  1
  Pt  Pt34  1  0.696522  0.874472  0.250000  1
  Pt  Pt35  1  0.196522  0.625528  0.250000  1
