# generated using pymatgen
data_Sc2Nb2SiAs3Rh4
_symmetry_space_group_name_H-M   'P 1'
_cell_length_a   3.91092400
_cell_length_b   6.50343935
_cell_length_c   7.53945543
_cell_angle_alpha   90.53503066
_cell_angle_beta   90.00000000
_cell_angle_gamma   90.00000000
_symmetry_Int_Tables_number   1
_chemical_formula_structural   Sc2Nb2SiAs3Rh4
_chemical_formula_sum   'Sc2 Nb2 Si1 As3 Rh4'
_cell_volume   191.75359461
_cell_formula_units_Z   1
loop_
 _symmetry_equiv_pos_site_id
 _symmetry_equiv_pos_as_xyz
  1  'x, y, z'
loop_
 _atom_site_type_symbol
 _atom_site_label
 _atom_site_symmetry_multiplicity
 _atom_site_fract_x
 _atom_site_fract_y
 _atom_site_fract_z
 _atom_site_occupancy
  Sc  Sc0  1  0.750000  0.467593  0.321414  1
  Sc  Sc1  1  0.750000  0.969899  0.181866  1
  Nb  Nb2  1  0.250000  0.029979  0.816517  1
  Nb  Nb3  1  0.250000  0.526112  0.681420  1
  Si  Si4  1  0.750000  0.234432  0.625380  1
  As  As5  1  0.250000  0.256017  0.118788  1
  As  As6  1  0.250000  0.759107  0.383657  1
  As  As7  1  0.750000  0.740540  0.871253  1
  Rh  Rh8  1  0.250000  0.646434  0.062398  1
  Rh  Rh9  1  0.250000  0.154241  0.446609  1
  Rh  Rh10  1  0.750000  0.862896  0.561125  1
  Rh  Rh11  1  0.750000  0.352750  0.929574  1
