# generated using pymatgen
data_Pu3SbF20
_symmetry_space_group_name_H-M   'P 1'
_cell_length_a   10.49893909
_cell_length_b   5.80479663
_cell_length_c   8.52465339
_cell_angle_alpha   68.35537651
_cell_angle_beta   90.26792146
_cell_angle_gamma   90.15146531
_symmetry_Int_Tables_number   1
_chemical_formula_structural   Pu3SbF20
_chemical_formula_sum   'Pu3 Sb1 F20'
_cell_volume   482.89052219
_cell_formula_units_Z   1
loop_
 _symmetry_equiv_pos_site_id
 _symmetry_equiv_pos_as_xyz
  1  'x, y, z'
loop_
 _atom_site_type_symbol
 _atom_site_label
 _atom_site_symmetry_multiplicity
 _atom_site_fract_x
 _atom_site_fract_y
 _atom_site_fract_z
 _atom_site_occupancy
  Pu  Pu0  1  0.751555  0.119444  0.597019  1
  Pu  Pu1  1  0.252344  0.880659  0.903040  1
  Pu  Pu2  1  0.248207  0.881047  0.402738  1
  Sb  Sb3  1  0.748384  0.119315  0.096628  1
  F  F4  1  0.869836  0.402450  0.565316  1
  F  F5  1  0.368956  0.595280  0.930683  1
  F  F6  1  0.130813  0.595466  0.430231  1
  F  F7  1  0.635604  0.385947  0.066766  1
  F  F8  1  0.612293  0.357178  0.490957  1
  F  F9  1  0.113736  0.642474  0.016564  1
  F  F10  1  0.386643  0.642281  0.518146  1
  F  F11  1  0.880064  0.346060  0.993639  1
  F  F12  1  0.393591  0.117772  0.791596  1
  F  F13  1  0.893424  0.882839  0.699081  1
  F  F14  1  0.614682  0.893727  0.196581  1
  F  F15  1  0.107039  0.118588  0.292952  1
  F  F16  1  0.135516  0.167003  0.873127  1
  F  F17  1  0.633514  0.835392  0.629981  1
  F  F18  1  0.860267  0.850325  0.128989  1
  F  F19  1  0.365307  0.166915  0.376125  1
  F  F20  1  0.701928  0.117030  0.866205  1
  F  F21  1  0.188280  0.882624  0.652588  1
  F  F22  1  0.311681  0.882681  0.153530  1
  F  F23  1  0.796336  0.117504  0.327518  1
