# generated using pymatgen
data_NdCd3(Ir2O7)2
_symmetry_space_group_name_H-M   'P 1'
_cell_length_a   7.32103906
_cell_length_b   7.25845996
_cell_length_c   7.25849500
_cell_angle_alpha   60.00036640
_cell_angle_beta   60.28281098
_cell_angle_gamma   60.28681641
_symmetry_Int_Tables_number   1
_chemical_formula_structural   NdCd3(Ir2O7)2
_chemical_formula_sum   'Nd1 Cd3 Ir4 O14'
_cell_volume   273.90898015
_cell_formula_units_Z   1
loop_
 _symmetry_equiv_pos_site_id
 _symmetry_equiv_pos_as_xyz
  1  'x, y, z'
loop_
 _atom_site_type_symbol
 _atom_site_label
 _atom_site_symmetry_multiplicity
 _atom_site_fract_x
 _atom_site_fract_y
 _atom_site_fract_z
 _atom_site_occupancy
  Nd  Nd0  1  0.625000  0.125000  0.125000  1
  Cd  Cd1  1  0.125000  0.625000  0.125000  1
  Cd  Cd2  1  0.125000  0.125000  0.625000  1
  Cd  Cd3  1  0.125000  0.125000  0.125000  1
  Ir  Ir4  1  0.125000  0.625000  0.625000  1
  Ir  Ir5  1  0.625000  0.125000  0.625000  1
  Ir  Ir6  1  0.625000  0.625000  0.125000  1
  Ir  Ir7  1  0.625000  0.625000  0.625000  1
  O  O8  1  0.700491  0.705303  0.297082  1
  O  O9  1  0.304064  0.301730  0.697108  1
  O  O10  1  0.700476  0.297081  0.705276  1
  O  O11  1  0.303985  0.697146  0.301740  1
  O  O12  1  0.303938  0.697157  0.697149  1
  O  O13  1  0.700476  0.297111  0.297156  1
  O  O14  1  0.549509  0.544697  0.952918  1
  O  O15  1  0.945936  0.948270  0.552892  1
  O  O16  1  0.549524  0.952919  0.544724  1
  O  O17  1  0.946015  0.552854  0.948260  1
  O  O18  1  0.946062  0.552843  0.552851  1
  O  O19  1  0.549524  0.952889  0.952844  1
  O  O20  1  0.234970  0.255007  0.255011  1
  O  O21  1  0.015030  0.994993  0.994989  1
