# generated using pymatgen
data_Pr4B2Rh10Au2C
_symmetry_space_group_name_H-M   'P 1'
_cell_length_a   4.27733800
_cell_length_b   4.27733800
_cell_length_c   16.98509600
_cell_angle_alpha   90.00000000
_cell_angle_beta   90.00000000
_cell_angle_gamma   90.00000000
_symmetry_Int_Tables_number   1
_chemical_formula_structural   Pr4B2Rh10Au2C
_chemical_formula_sum   'Pr4 B2 Rh10 Au2 C1'
_cell_volume   310.75286830
_cell_formula_units_Z   1
loop_
 _symmetry_equiv_pos_site_id
 _symmetry_equiv_pos_as_xyz
  1  'x, y, z'
loop_
 _atom_site_type_symbol
 _atom_site_label
 _atom_site_symmetry_multiplicity
 _atom_site_fract_x
 _atom_site_fract_y
 _atom_site_fract_z
 _atom_site_occupancy
  Pr  Pr0  1  0.000000  0.000000  0.867915  1
  Pr  Pr1  1  0.000000  0.000000  0.132085  1
  Pr  Pr2  1  0.000000  0.000000  0.374989  1
  Pr  Pr3  1  0.000000  0.000000  0.625011  1
  B  B4  1  0.500000  0.500000  0.244435  1
  B  B5  1  0.500000  0.500000  0.755565  1
  Rh  Rh6  1  0.500000  0.500000  0.877751  1
  Rh  Rh7  1  0.500000  0.500000  0.122249  1
  Rh  Rh8  1  0.500000  0.500000  0.377986  1
  Rh  Rh9  1  0.500000  0.500000  0.622014  1
  Rh  Rh10  1  0.500000  0.000000  0.253100  1
  Rh  Rh11  1  0.500000  0.000000  0.500000  1
  Rh  Rh12  1  0.500000  0.000000  0.746900  1
  Rh  Rh13  1  0.000000  0.500000  0.253100  1
  Rh  Rh14  1  0.000000  0.500000  0.500000  1
  Rh  Rh15  1  0.000000  0.500000  0.746900  1
  Au  Au16  1  0.500000  0.000000  0.000000  1
  Au  Au17  1  0.000000  0.500000  0.000000  1
  C  C18  1  0.500000  0.500000  0.500000  1
