# generated using pymatgen
data_DyTm7(Hf3Si4)4
_symmetry_space_group_name_H-M   'P 1'
_cell_length_a   7.24445641
_cell_length_b   7.24319302
_cell_length_c   13.29925117
_cell_angle_alpha   89.99560156
_cell_angle_beta   89.96221361
_cell_angle_gamma   90.00162810
_symmetry_Int_Tables_number   1
_chemical_formula_structural   DyTm7(Hf3Si4)4
_chemical_formula_sum   'Dy1 Tm7 Hf12 Si16'
_cell_volume   697.85140119
_cell_formula_units_Z   1
loop_
 _symmetry_equiv_pos_site_id
 _symmetry_equiv_pos_as_xyz
  1  'x, y, z'
loop_
 _atom_site_type_symbol
 _atom_site_label
 _atom_site_symmetry_multiplicity
 _atom_site_fract_x
 _atom_site_fract_y
 _atom_site_fract_z
 _atom_site_occupancy
  Dy  Dy0  1  0.656034  0.004683  0.284830  1
  Tm  Tm1  1  0.996778  0.344715  0.214923  1
  Tm  Tm2  1  0.003651  0.655441  0.715232  1
  Tm  Tm3  1  0.155698  0.496579  0.465482  1
  Tm  Tm4  1  0.503324  0.843991  0.034402  1
  Tm  Tm5  1  0.844561  0.503488  0.965014  1
  Tm  Tm6  1  0.496429  0.155504  0.535176  1
  Tm  Tm7  1  0.344441  0.996350  0.784813  1
  Hf  Hf8  1  0.174448  0.174678  0.999684  1
  Hf  Hf9  1  0.825631  0.825313  0.500244  1
  Hf  Hf10  1  0.325179  0.674186  0.250035  1
  Hf  Hf11  1  0.674684  0.325390  0.749989  1
  Hf  Hf12  1  0.148812  0.996662  0.374637  1
  Hf  Hf13  1  0.851881  0.003265  0.874372  1
  Hf  Hf14  1  0.503205  0.647978  0.624954  1
  Hf  Hf15  1  0.351795  0.496840  0.875285  1
  Hf  Hf16  1  0.495808  0.351922  0.124018  1
  Hf  Hf17  1  0.648151  0.503606  0.375782  1
  Hf  Hf18  1  0.996897  0.148195  0.625786  1
  Hf  Hf19  1  0.003145  0.851270  0.125161  1
  Si  Si20  1  0.359940  0.296041  0.317758  1
  Si  Si21  1  0.639259  0.704978  0.817975  1
  Si  Si22  1  0.205116  0.860746  0.568085  1
  Si  Si23  1  0.139143  0.794831  0.931917  1
  Si  Si24  1  0.795248  0.139163  0.067537  1
  Si  Si25  1  0.862141  0.205976  0.433085  1
  Si  Si26  1  0.295025  0.360783  0.682106  1
  Si  Si27  1  0.705391  0.637880  0.181668  1
  Si  Si28  1  0.295785  0.048597  0.185070  1
  Si  Si29  1  0.702853  0.951785  0.685532  1
  Si  Si30  1  0.450861  0.796411  0.436149  1
  Si  Si31  1  0.202648  0.548339  0.064322  1
  Si  Si32  1  0.548150  0.202793  0.935317  1
  Si  Si33  1  0.797348  0.452015  0.564643  1
  Si  Si34  1  0.048107  0.297270  0.814498  1
  Si  Si35  1  0.952436  0.702337  0.314518  1
