# generated using pymatgen
data_Mg2Pa(Co3P2)3
_symmetry_space_group_name_H-M   'P 1'
_cell_length_a   3.62442600
_cell_length_b   10.46359500
_cell_length_c   11.93550700
_cell_angle_alpha   90.00000000
_cell_angle_beta   90.00000000
_cell_angle_gamma   90.00000000
_symmetry_Int_Tables_number   1
_chemical_formula_structural   Mg2Pa(Co3P2)3
_chemical_formula_sum   'Mg4 Pa2 Co18 P12'
_cell_volume   452.64844282
_cell_formula_units_Z   2
loop_
 _symmetry_equiv_pos_site_id
 _symmetry_equiv_pos_as_xyz
  1  'x, y, z'
loop_
 _atom_site_type_symbol
 _atom_site_label
 _atom_site_symmetry_multiplicity
 _atom_site_fract_x
 _atom_site_fract_y
 _atom_site_fract_z
 _atom_site_occupancy
  Mg  Mg0  1  0.500000  0.821554  0.206092  1
  Mg  Mg1  1  0.500000  0.178446  0.206092  1
  Mg  Mg2  1  0.000000  0.678446  0.793908  1
  Mg  Mg3  1  0.000000  0.321554  0.793908  1
  Pa  Pa4  1  0.000000  0.500000  0.534201  1
  Pa  Pa5  1  0.500000  0.000000  0.465799  1
  Co  Co6  1  0.000000  0.500000  0.987834  1
  Co  Co7  1  0.500000  0.000000  0.012166  1
  Co  Co8  1  0.500000  0.301539  0.433224  1
  Co  Co9  1  0.500000  0.698461  0.433224  1
  Co  Co10  1  0.000000  0.198461  0.566776  1
  Co  Co11  1  0.000000  0.801539  0.566776  1
  Co  Co12  1  0.500000  0.876754  0.711402  1
  Co  Co13  1  0.500000  0.123246  0.711402  1
  Co  Co14  1  0.000000  0.623246  0.288598  1
  Co  Co15  1  0.000000  0.376754  0.288598  1
  Co  Co16  1  0.500000  0.331375  0.993853  1
  Co  Co17  1  0.500000  0.668625  0.993853  1
  Co  Co18  1  0.000000  0.168625  0.006147  1
  Co  Co19  1  0.000000  0.831375  0.006147  1
  Co  Co20  1  0.500000  0.500000  0.157837  1
  Co  Co21  1  0.000000  0.000000  0.842163  1
  Co  Co22  1  0.500000  0.500000  0.703243  1
  Co  Co23  1  0.000000  0.000000  0.296757  1
  P  P24  1  0.500000  0.307367  0.622874  1
  P  P25  1  0.500000  0.692633  0.622874  1
  P  P26  1  0.000000  0.192633  0.377126  1
  P  P27  1  0.000000  0.807367  0.377126  1
  P  P28  1  0.500000  0.500000  0.882530  1
  P  P29  1  0.000000  0.000000  0.117470  1
  P  P30  1  0.500000  0.845528  0.890672  1
  P  P31  1  0.500000  0.154472  0.890672  1
  P  P32  1  0.000000  0.654472  0.109328  1
  P  P33  1  0.000000  0.345528  0.109328  1
  P  P34  1  0.500000  0.500000  0.344495  1
  P  P35  1  0.000000  0.000000  0.655505  1
