# generated using pymatgen
data_Gd6PtAu7
_symmetry_space_group_name_H-M   'P 1'
_cell_length_a   6.14269808
_cell_length_b   7.99812105
_cell_length_c   7.99812100
_cell_angle_alpha   113.68397091
_cell_angle_beta   104.83319810
_cell_angle_gamma   104.83319386
_symmetry_Int_Tables_number   1
_chemical_formula_structural   Gd6PtAu7
_chemical_formula_sum   'Gd6 Pt1 Au7'
_cell_volume   317.99983134
_cell_formula_units_Z   1
loop_
 _symmetry_equiv_pos_site_id
 _symmetry_equiv_pos_as_xyz
  1  'x, y, z'
loop_
 _atom_site_type_symbol
 _atom_site_label
 _atom_site_symmetry_multiplicity
 _atom_site_fract_x
 _atom_site_fract_y
 _atom_site_fract_z
 _atom_site_occupancy
  Gd  Gd0  1  0.733753  0.747039  0.120725  1
  Gd  Gd1  1  0.986715  0.373687  0.252962  1
  Gd  Gd2  1  0.386971  0.120725  0.373687  1
  Gd  Gd3  1  0.613029  0.879276  0.626314  1
  Gd  Gd4  1  0.013285  0.626314  0.747039  1
  Gd  Gd5  1  0.266249  0.252962  0.879276  1
  Pt  Pt6  1  0.000000  0.000000  0.000000  1
  Au  Au7  1  0.500001  0.000000  0.000000  1
  Au  Au8  1  0.240827  0.667908  0.161452  1
  Au  Au9  1  0.572920  0.493546  0.332092  1
  Au  Au10  1  0.920626  0.161454  0.493546  1
  Au  Au11  1  0.079373  0.838547  0.506454  1
  Au  Au12  1  0.427079  0.506453  0.667907  1
  Au  Au13  1  0.759174  0.332092  0.838547  1
