# generated using pymatgen
data_DyY3V3FeB16
_symmetry_space_group_name_H-M   'P 1'
_cell_length_a   3.44082000
_cell_length_b   5.98292381
_cell_length_c   11.56620700
_cell_angle_alpha   89.97043489
_cell_angle_beta   90.00000000
_cell_angle_gamma   90.00000000
_symmetry_Int_Tables_number   1
_chemical_formula_structural   DyY3V3FeB16
_chemical_formula_sum   'Dy1 Y3 V3 Fe1 B16'
_cell_volume   238.10380128
_cell_formula_units_Z   1
loop_
 _symmetry_equiv_pos_site_id
 _symmetry_equiv_pos_as_xyz
  1  'x, y, z'
loop_
 _atom_site_type_symbol
 _atom_site_label
 _atom_site_symmetry_multiplicity
 _atom_site_fract_x
 _atom_site_fract_y
 _atom_site_fract_z
 _atom_site_occupancy
  Dy  Dy0  1  0.500000  0.376035  0.151355  1
  Y  Y1  1  0.500000  0.625752  0.848843  1
  Y  Y2  1  0.500000  0.124124  0.650382  1
  Y  Y3  1  0.500000  0.875842  0.349075  1
  V  V4  1  0.500000  0.373178  0.414363  1
  V  V5  1  0.500000  0.626844  0.582818  1
  V  V6  1  0.500000  0.126853  0.920078  1
  Fe  Fe7  1  0.500000  0.873992  0.081613  1
  B  B8  1  0.000000  0.108748  0.049603  1
  B  B9  1  0.000000  0.883684  0.955939  1
  B  B10  1  0.000000  0.385433  0.546390  1
  B  B11  1  0.000000  0.614406  0.452319  1
  B  B12  1  0.000000  0.134970  0.466786  1
  B  B13  1  0.000000  0.864428  0.532574  1
  B  B14  1  0.000000  0.364689  0.969854  1
  B  B15  1  0.000000  0.638935  0.033093  1
  B  B16  1  0.000000  0.021517  0.190703  1
  B  B17  1  0.000000  0.975161  0.809195  1
  B  B18  1  0.000000  0.474534  0.692425  1
  B  B19  1  0.000000  0.527381  0.305834  1
  B  B20  1  0.000000  0.213569  0.312471  1
  B  B21  1  0.000000  0.785200  0.686324  1
  B  B22  1  0.000000  0.283604  0.815661  1
  B  B23  1  0.000000  0.721122  0.182304  1
