# generated using pymatgen
data_Hf8In4IrAu7
_symmetry_space_group_name_H-M   'P 1'
_cell_length_a   7.58138892
_cell_length_b   7.58138935
_cell_length_c   7.01899146
_cell_angle_alpha   90.22037540
_cell_angle_beta   90.22037471
_cell_angle_gamma   90.10333069
_symmetry_Int_Tables_number   1
_chemical_formula_structural   Hf8In4IrAu7
_chemical_formula_sum   'Hf8 In4 Ir1 Au7'
_cell_volume   403.42717415
_cell_formula_units_Z   1
loop_
 _symmetry_equiv_pos_site_id
 _symmetry_equiv_pos_as_xyz
  1  'x, y, z'
loop_
 _atom_site_type_symbol
 _atom_site_label
 _atom_site_symmetry_multiplicity
 _atom_site_fract_x
 _atom_site_fract_y
 _atom_site_fract_z
 _atom_site_occupancy
  Hf  Hf0  1  0.153557  0.153557  0.009877  1
  Hf  Hf1  1  0.856625  0.856625  0.997336  1
  Hf  Hf2  1  0.634751  0.347330  0.489696  1
  Hf  Hf3  1  0.347330  0.634751  0.489696  1
  Hf  Hf4  1  0.682921  0.305712  0.007098  1
  Hf  Hf5  1  0.305712  0.682921  0.007098  1
  Hf  Hf6  1  0.807657  0.807657  0.499997  1
  Hf  Hf7  1  0.201278  0.201278  0.491275  1
  In  In8  1  0.499797  0.002436  0.246521  1
  In  In9  1  0.499244  0.997711  0.748875  1
  In  In10  1  0.002436  0.499797  0.246521  1
  In  In11  1  0.997711  0.499244  0.748875  1
  Ir  Ir12  1  0.371593  0.371593  0.217438  1
  Au  Au13  1  0.630287  0.630287  0.788161  1
  Au  Au14  1  0.634196  0.634196  0.204364  1
  Au  Au15  1  0.870182  0.133398  0.710210  1
  Au  Au16  1  0.870919  0.130993  0.294525  1
  Au  Au17  1  0.369411  0.369411  0.797704  1
  Au  Au18  1  0.130993  0.870919  0.294525  1
  Au  Au19  1  0.133398  0.870182  0.710210  1
