# generated using pymatgen
data_YTm3InPt11
_symmetry_space_group_name_H-M   'P 1'
_cell_length_a   4.17811600
_cell_length_b   5.82846652
_cell_length_c   11.63517902
_cell_angle_alpha   87.84729356
_cell_angle_beta   90.00000000
_cell_angle_gamma   90.00000000
_symmetry_Int_Tables_number   1
_chemical_formula_structural   YTm3InPt11
_chemical_formula_sum   'Y1 Tm3 In1 Pt11'
_cell_volume   283.14002320
_cell_formula_units_Z   1
loop_
 _symmetry_equiv_pos_site_id
 _symmetry_equiv_pos_as_xyz
  1  'x, y, z'
loop_
 _atom_site_type_symbol
 _atom_site_label
 _atom_site_symmetry_multiplicity
 _atom_site_fract_x
 _atom_site_fract_y
 _atom_site_fract_z
 _atom_site_occupancy
  Y  Y0  1  0.500000  0.755203  0.375836  1
  Tm  Tm1  1  0.500000  0.718387  0.862485  1
  Tm  Tm2  1  0.500000  0.281438  0.137341  1
  Tm  Tm3  1  0.500000  0.244883  0.624509  1
  In  In4  1  0.000000  0.000241  0.999428  1
  Pt  Pt5  1  0.000000  0.016136  0.248065  1
  Pt  Pt6  1  0.000000  0.985653  0.750900  1
  Pt  Pt7  1  0.000000  0.499832  0.999599  1
  Pt  Pt8  1  0.000000  0.498098  0.501461  1
  Pt  Pt9  1  0.000000  0.514645  0.248710  1
  Pt  Pt10  1  0.000000  0.483567  0.750353  1
  Pt  Pt11  1  0.500000  0.253803  0.377631  1
  Pt  Pt12  1  0.500000  0.230092  0.879937  1
  Pt  Pt13  1  0.500000  0.769992  0.118454  1
  Pt  Pt14  1  0.500000  0.746451  0.623945  1
  Pt  Pt15  1  0.000000  0.001578  0.501347  1
