# generated using pymatgen
data_RbIn(CO3)2
_symmetry_space_group_name_H-M   'P 1'
_cell_length_a   6.53449883
_cell_length_b   6.53449852
_cell_length_c   7.23536022
_cell_angle_alpha   105.97395075
_cell_angle_beta   105.97395240
_cell_angle_gamma   93.88519330
_symmetry_Int_Tables_number   1
_chemical_formula_structural   RbIn(CO3)2
_chemical_formula_sum   'Rb2 In2 C4 O12'
_cell_volume   282.08705836
_cell_formula_units_Z   2
loop_
 _symmetry_equiv_pos_site_id
 _symmetry_equiv_pos_as_xyz
  1  'x, y, z'
loop_
 _atom_site_type_symbol
 _atom_site_label
 _atom_site_symmetry_multiplicity
 _atom_site_fract_x
 _atom_site_fract_y
 _atom_site_fract_z
 _atom_site_occupancy
  Rb  Rb0  1  0.899530  0.100470  0.250000  1
  Rb  Rb1  1  0.100470  0.899530  0.750001  1
  In  In2  1  0.348179  0.651821  0.250000  1
  In  In3  1  0.651822  0.348179  0.750001  1
  C  C4  1  0.396012  0.180184  0.282716  1
  C  C5  1  0.819817  0.603988  0.217284  1
  C  C6  1  0.180183  0.396012  0.782715  1
  C  C7  1  0.603988  0.819817  0.717285  1
  O  O8  1  0.743784  0.423464  0.074367  1
  O  O9  1  0.285799  0.305270  0.194869  1
  O  O10  1  0.317487  0.977107  0.212419  1
  O  O11  1  0.022893  0.682514  0.287581  1
  O  O12  1  0.694730  0.714202  0.305131  1
  O  O13  1  0.576537  0.256216  0.425634  1
  O  O14  1  0.423463  0.743784  0.574366  1
  O  O15  1  0.305270  0.285799  0.694869  1
  O  O16  1  0.977107  0.317487  0.712420  1
  O  O17  1  0.682514  0.022893  0.787581  1
  O  O18  1  0.714202  0.694731  0.805132  1
  O  O19  1  0.256216  0.576537  0.925633  1
