# generated using pymatgen
data_BaLiCe2Se5
_symmetry_space_group_name_H-M   'P 1'
_cell_length_a   8.07386824
_cell_length_b   8.07449385
_cell_length_c   9.20936725
_cell_angle_alpha   115.99916336
_cell_angle_beta   115.99776610
_cell_angle_gamma   90.01351013
_symmetry_Int_Tables_number   1
_chemical_formula_structural   BaLiCe2Se5
_chemical_formula_sum   'Ba2 Li2 Ce4 Se10'
_cell_volume   471.06480843
_cell_formula_units_Z   2
loop_
 _symmetry_equiv_pos_site_id
 _symmetry_equiv_pos_as_xyz
  1  'x, y, z'
loop_
 _atom_site_type_symbol
 _atom_site_label
 _atom_site_symmetry_multiplicity
 _atom_site_fract_x
 _atom_site_fract_y
 _atom_site_fract_z
 _atom_site_occupancy
  Ba  Ba0  1  0.250000  0.249983  0.499995  1
  Ba  Ba1  1  0.749996  0.749982  0.499998  1
  Li  Li2  1  0.750010  0.250018  0.500013  1
  Li  Li3  1  0.250001  0.750007  0.499986  1
  Ce  Ce4  1  0.341336  0.158642  0.000041  1
  Ce  Ce5  1  0.841569  0.341555  0.999969  1
  Ce  Ce6  1  0.158439  0.658417  0.000019  1
  Ce  Ce7  1  0.658524  0.841315  0.999961  1
  Se  Se8  1  0.000108  0.000031  0.999998  1
  Se  Se9  1  0.499972  0.499976  0.000006  1
  Se  Se10  1  0.783201  0.283260  0.261519  1
  Se  Se11  1  0.283123  0.478309  0.261411  1
  Se  Se12  1  0.978409  0.783114  0.261493  1
  Se  Se13  1  0.478232  0.978286  0.261487  1
  Se  Se14  1  0.521677  0.021729  0.738487  1
  Se  Se15  1  0.021731  0.216920  0.738580  1
  Se  Se16  1  0.716930  0.521664  0.738510  1
  Se  Se17  1  0.216740  0.716789  0.738524  1
