# generated using pymatgen
data_Dy13Ho7Si15Ir
_symmetry_space_group_name_H-M   'P 1'
_cell_length_a   7.42163570
_cell_length_b   7.67735292
_cell_length_c   14.56540041
_cell_angle_alpha   89.82936899
_cell_angle_beta   89.74075923
_cell_angle_gamma   90.23945401
_symmetry_Int_Tables_number   1
_chemical_formula_structural   Dy13Ho7Si15Ir
_chemical_formula_sum   'Dy13 Ho7 Si15 Ir1'
_cell_volume   829.89543814
_cell_formula_units_Z   1
loop_
 _symmetry_equiv_pos_site_id
 _symmetry_equiv_pos_as_xyz
  1  'x, y, z'
loop_
 _atom_site_type_symbol
 _atom_site_label
 _atom_site_symmetry_multiplicity
 _atom_site_fract_x
 _atom_site_fract_y
 _atom_site_fract_z
 _atom_site_occupancy
  Dy  Dy0  1  0.649073  0.992139  0.248745  1
  Dy  Dy1  1  0.149033  0.510968  0.247613  1
  Dy  Dy2  1  0.847017  0.488541  0.758327  1
  Dy  Dy3  1  0.351368  0.011033  0.752147  1
  Dy  Dy4  1  0.973631  0.814513  0.096748  1
  Dy  Dy5  1  0.472853  0.682343  0.401853  1
  Dy  Dy6  1  0.530287  0.324665  0.901958  1
  Dy  Dy7  1  0.027703  0.183831  0.598610  1
  Dy  Dy8  1  0.025820  0.187220  0.902822  1
  Dy  Dy9  1  0.528035  0.318211  0.598154  1
  Dy  Dy10  1  0.477348  0.680034  0.097759  1
  Dy  Dy11  1  0.972110  0.817543  0.401326  1
  Dy  Dy12  1  0.683350  0.812197  0.882055  1
  Ho  Ho13  1  0.178615  0.681040  0.621955  1
  Ho  Ho14  1  0.818478  0.332233  0.119497  1
  Ho  Ho15  1  0.317408  0.177997  0.375846  1
  Ho  Ho16  1  0.320800  0.178360  0.123729  1
  Ho  Ho17  1  0.819788  0.319445  0.377026  1
  Ho  Ho18  1  0.175013  0.675308  0.878318  1
  Ho  Ho19  1  0.681832  0.819341  0.622539  1
  Si  Si20  1  0.765713  0.628985  0.252258  1
  Si  Si21  1  0.267446  0.872290  0.250731  1
  Si  Si22  1  0.732026  0.124045  0.748145  1
  Si  Si23  1  0.234343  0.373615  0.746252  1
  Si  Si24  1  0.020809  0.105174  0.249304  1
  Si  Si25  1  0.523719  0.396124  0.251415  1
  Si  Si26  1  0.471041  0.606003  0.745954  1
  Si  Si27  1  0.976612  0.897867  0.747969  1
  Si  Si28  1  0.353016  0.971484  0.539319  1
  Si  Si29  1  0.646575  0.027443  0.041948  1
  Si  Si30  1  0.148494  0.469895  0.460226  1
  Si  Si31  1  0.155894  0.471740  0.041022  1
  Si  Si32  1  0.645330  0.028773  0.459889  1
  Si  Si33  1  0.352123  0.969407  0.961424  1
  Si  Si34  1  0.853454  0.529082  0.538759  1
  Ir  Ir35  1  0.853839  0.521112  0.958355  1
