# generated using pymatgen
data_Sc6AlNi2
_symmetry_space_group_name_H-M   'P 1'
_cell_length_a   7.76602913
_cell_length_b   7.76602835
_cell_length_c   7.76602862
_cell_angle_alpha   111.27186432
_cell_angle_beta   110.85900241
_cell_angle_gamma   106.32807042
_symmetry_Int_Tables_number   1
_chemical_formula_structural   Sc6AlNi2
_chemical_formula_sum   'Sc12 Al2 Ni4'
_cell_volume   359.74488099
_cell_formula_units_Z   2
loop_
 _symmetry_equiv_pos_site_id
 _symmetry_equiv_pos_as_xyz
  1  'x, y, z'
loop_
 _atom_site_type_symbol
 _atom_site_label
 _atom_site_symmetry_multiplicity
 _atom_site_fract_x
 _atom_site_fract_y
 _atom_site_fract_z
 _atom_site_occupancy
  Sc  Sc0  1  0.439286  0.237294  0.201991  1
  Sc  Sc1  1  0.560714  0.762706  0.798009  1
  Sc  Sc2  1  0.035303  0.237294  0.798009  1
  Sc  Sc3  1  0.964697  0.762706  0.201991  1
  Sc  Sc4  1  0.184265  0.284606  0.468870  1
  Sc  Sc5  1  0.815735  0.715394  0.531130  1
  Sc  Sc6  1  0.184265  0.715394  0.899659  1
  Sc  Sc7  1  0.815735  0.284606  0.100341  1
  Sc  Sc8  1  0.324579  0.622643  0.298063  1
  Sc  Sc9  1  0.675421  0.377357  0.701937  1
  Sc  Sc10  1  0.324579  0.026516  0.701937  1
  Sc  Sc11  1  0.675421  0.973484  0.298063  1
  Al  Al12  1  0.500000  0.500000  0.000000  1
  Al  Al13  1  0.000000  0.000000  0.000000  1
  Ni  Ni14  1  0.346485  0.000000  0.346485  1
  Ni  Ni15  1  0.653515  0.000000  0.653515  1
  Ni  Ni16  1  0.128260  0.628260  0.500000  1
  Ni  Ni17  1  0.871740  0.371740  0.500000  1
