# generated using pymatgen
data_Zr3Al3PtRh2
_symmetry_space_group_name_H-M   'P 1'
_cell_length_a   7.22709700
_cell_length_b   7.22709673
_cell_length_c   7.04785800
_cell_angle_alpha   90.00000000
_cell_angle_beta   90.00000000
_cell_angle_gamma   120.00000580
_symmetry_Int_Tables_number   1
_chemical_formula_structural   Zr3Al3PtRh2
_chemical_formula_sum   'Zr6 Al6 Pt2 Rh4'
_cell_volume   318.79793751
_cell_formula_units_Z   2
loop_
 _symmetry_equiv_pos_site_id
 _symmetry_equiv_pos_as_xyz
  1  'x, y, z'
loop_
 _atom_site_type_symbol
 _atom_site_label
 _atom_site_symmetry_multiplicity
 _atom_site_fract_x
 _atom_site_fract_y
 _atom_site_fract_z
 _atom_site_occupancy
  Zr  Zr0  1  0.002051  0.598626  0.743527  1
  Zr  Zr1  1  0.997949  0.596575  0.256473  1
  Zr  Zr2  1  0.598626  0.002051  0.256473  1
  Zr  Zr3  1  0.596575  0.997949  0.743527  1
  Zr  Zr4  1  0.403425  0.401374  0.256473  1
  Zr  Zr5  1  0.401374  0.403425  0.743527  1
  Al  Al6  1  0.000000  0.244162  0.500000  1
  Al  Al7  1  0.730976  0.730976  0.000000  1
  Al  Al8  1  0.000000  0.269024  0.000000  1
  Al  Al9  1  0.244162  0.000000  0.500000  1
  Al  Al10  1  0.269024  0.000000  0.000000  1
  Al  Al11  1  0.755838  0.755838  0.500000  1
  Pt  Pt12  1  0.666667  0.333333  0.996950  1
  Pt  Pt13  1  0.333333  0.666667  0.003050  1
  Rh  Rh14  1  0.333333  0.666667  0.496905  1
  Rh  Rh15  1  0.666667  0.333333  0.503095  1
  Rh  Rh16  1  0.000000  0.000000  0.225063  1
  Rh  Rh17  1  0.000000  0.000000  0.774937  1
