# generated using pymatgen
data_LaHo6CoI12
_symmetry_space_group_name_H-M   'P 1'
_cell_length_a   9.73746987
_cell_length_b   9.73747079
_cell_length_c   9.73747058
_cell_angle_alpha   106.28386122
_cell_angle_beta   106.28385862
_cell_angle_gamma   106.28387040
_symmetry_Int_Tables_number   1
_chemical_formula_structural   LaHo6CoI12
_chemical_formula_sum   'La1 Ho6 Co1 I12'
_cell_volume   783.46145502
_cell_formula_units_Z   1
loop_
 _symmetry_equiv_pos_site_id
 _symmetry_equiv_pos_as_xyz
  1  'x, y, z'
loop_
 _atom_site_type_symbol
 _atom_site_label
 _atom_site_symmetry_multiplicity
 _atom_site_fract_x
 _atom_site_fract_y
 _atom_site_fract_z
 _atom_site_occupancy
  La  La0  1  0.993945  0.993945  0.993945  1
  Ho  Ho1  1  0.517415  0.588714  0.783528  1
  Ho  Ho2  1  0.783528  0.517415  0.588714  1
  Ho  Ho3  1  0.588714  0.783528  0.517415  1
  Ho  Ho4  1  0.481564  0.410343  0.216248  1
  Ho  Ho5  1  0.216248  0.481564  0.410343  1
  Ho  Ho6  1  0.410343  0.216248  0.481564  1
  Co  Co7  1  0.500200  0.500200  0.500200  1
  I  I8  1  0.276381  0.822942  0.426433  1
  I  I9  1  0.426433  0.276381  0.822942  1
  I  I10  1  0.822942  0.426433  0.276381  1
  I  I11  1  0.722805  0.175949  0.572108  1
  I  I12  1  0.572108  0.722805  0.175949  1
  I  I13  1  0.175949  0.572108  0.722805  1
  I  I14  1  0.044956  0.122754  0.350408  1
  I  I15  1  0.350408  0.044956  0.122754  1
  I  I16  1  0.122754  0.350408  0.044956  1
  I  I17  1  0.953435  0.874663  0.640579  1
  I  I18  1  0.640579  0.953435  0.874663  1
  I  I19  1  0.874663  0.640579  0.953435  1
