# generated using pymatgen
data_Sr4Li3AlSi8
_symmetry_space_group_name_H-M   'P 1'
_cell_length_a   4.45205700
_cell_length_b   7.15038888
_cell_length_c   11.24092473
_cell_angle_alpha   89.00801418
_cell_angle_beta   90.00000000
_cell_angle_gamma   90.00000000
_symmetry_Int_Tables_number   1
_chemical_formula_structural   Sr4Li3AlSi8
_chemical_formula_sum   'Sr4 Li3 Al1 Si8'
_cell_volume   357.78927942
_cell_formula_units_Z   1
loop_
 _symmetry_equiv_pos_site_id
 _symmetry_equiv_pos_as_xyz
  1  'x, y, z'
loop_
 _atom_site_type_symbol
 _atom_site_label
 _atom_site_symmetry_multiplicity
 _atom_site_fract_x
 _atom_site_fract_y
 _atom_site_fract_z
 _atom_site_occupancy
  Sr  Sr0  1  0.250000  0.129687  0.144446  1
  Sr  Sr1  1  0.750000  0.867915  0.862498  1
  Sr  Sr2  1  0.250000  0.628819  0.355983  1
  Sr  Sr3  1  0.750000  0.369539  0.641326  1
  Li  Li4  1  0.250000  0.126864  0.435614  1
  Li  Li5  1  0.250000  0.618959  0.063355  1
  Li  Li6  1  0.750000  0.378169  0.934194  1
  Al  Al7  1  0.750000  0.880152  0.562518  1
  Si  Si8  1  0.750000  0.460134  0.163896  1
  Si  Si9  1  0.250000  0.537561  0.832850  1
  Si  Si10  1  0.750000  0.966338  0.341359  1
  Si  Si11  1  0.250000  0.040108  0.659863  1
  Si  Si12  1  0.750000  0.298496  0.351389  1
  Si  Si13  1  0.250000  0.702788  0.644878  1
  Si  Si14  1  0.750000  0.791885  0.158952  1
  Si  Si15  1  0.250000  0.202586  0.846876  1
