# generated using pymatgen
data_Th3AlSn2Rh3
_symmetry_space_group_name_H-M   'P 1'
_cell_length_a   7.43879400
_cell_length_b   7.51211182
_cell_length_c   4.12829800
_cell_angle_alpha   90.00000000
_cell_angle_beta   90.00000000
_cell_angle_gamma   119.67765654
_symmetry_Int_Tables_number   1
_chemical_formula_structural   Th3AlSn2Rh3
_chemical_formula_sum   'Th3 Al1 Sn2 Rh3'
_cell_volume   200.43232044
_cell_formula_units_Z   1
loop_
 _symmetry_equiv_pos_site_id
 _symmetry_equiv_pos_as_xyz
  1  'x, y, z'
loop_
 _atom_site_type_symbol
 _atom_site_label
 _atom_site_symmetry_multiplicity
 _atom_site_fract_x
 _atom_site_fract_y
 _atom_site_fract_z
 _atom_site_occupancy
  Th  Th0  1  0.990105  0.405471  0.500000  1
  Th  Th1  1  0.584634  0.594529  0.500000  1
  Th  Th2  1  0.425743  0.000000  0.500000  1
  Al  Al3  1  0.758929  0.000000  0.000000  1
  Sn  Sn4  1  0.997510  0.753710  0.000000  1
  Sn  Sn5  1  0.243800  0.246290  0.000000  1
  Rh  Rh6  1  0.347895  0.677448  0.000000  1
  Rh  Rh7  1  0.670448  0.322552  0.000000  1
  Rh  Rh8  1  0.980937  0.000000  0.500000  1
