# generated using pymatgen
data_Y2ZrScPt2
_symmetry_space_group_name_H-M   'P 1'
_cell_length_a   4.69241600
_cell_length_b   7.06381200
_cell_length_c   8.33338100
_cell_angle_alpha   90.00000000
_cell_angle_beta   90.00000000
_cell_angle_gamma   90.00000000
_symmetry_Int_Tables_number   1
_chemical_formula_structural   Y2ZrScPt2
_chemical_formula_sum   'Y4 Zr2 Sc2 Pt4'
_cell_volume   276.22111706
_cell_formula_units_Z   2
loop_
 _symmetry_equiv_pos_site_id
 _symmetry_equiv_pos_as_xyz
  1  'x, y, z'
loop_
 _atom_site_type_symbol
 _atom_site_label
 _atom_site_symmetry_multiplicity
 _atom_site_fract_x
 _atom_site_fract_y
 _atom_site_fract_z
 _atom_site_occupancy
  Y  Y0  1  0.250000  0.981590  0.324933  1
  Y  Y1  1  0.250000  0.481590  0.175067  1
  Y  Y2  1  0.750000  0.015271  0.679582  1
  Y  Y3  1  0.750000  0.515271  0.820418  1
  Zr  Zr4  1  0.250000  0.858787  0.927462  1
  Zr  Zr5  1  0.250000  0.358787  0.572538  1
  Sc  Sc6  1  0.750000  0.144666  0.079385  1
  Sc  Sc7  1  0.750000  0.644666  0.420615  1
  Pt  Pt8  1  0.250000  0.236374  0.900097  1
  Pt  Pt9  1  0.250000  0.736374  0.599903  1
  Pt  Pt10  1  0.750000  0.763313  0.093330  1
  Pt  Pt11  1  0.750000  0.263313  0.406670  1
