# generated using pymatgen
data_Dy9HoZn3Bi2Au
_symmetry_space_group_name_H-M   'P 1'
_cell_length_a   8.66375475
_cell_length_b   8.66375543
_cell_length_c   8.66717013
_cell_angle_alpha   123.84058959
_cell_angle_beta   123.84181767
_cell_angle_gamma   83.44106236
_symmetry_Int_Tables_number   1
_chemical_formula_structural   Dy9HoZn3Bi2Au
_chemical_formula_sum   'Dy9 Ho1 Zn3 Bi2 Au1'
_cell_volume   430.32798774
_cell_formula_units_Z   1
loop_
 _symmetry_equiv_pos_site_id
 _symmetry_equiv_pos_as_xyz
  1  'x, y, z'
loop_
 _atom_site_type_symbol
 _atom_site_label
 _atom_site_symmetry_multiplicity
 _atom_site_fract_x
 _atom_site_fract_y
 _atom_site_fract_z
 _atom_site_occupancy
  Dy  Dy0  1  0.000197  0.000432  0.000630  1
  Dy  Dy1  1  0.509645  0.011230  0.805697  1
  Dy  Dy2  1  0.204098  0.705381  0.194288  1
  Dy  Dy3  1  0.011903  0.204870  0.500154  1
  Dy  Dy4  1  0.704862  0.511138  0.499859  1
  Dy  Dy5  1  0.488907  0.990190  0.194288  1
  Dy  Dy6  1  0.794467  0.296052  0.805697  1
  Dy  Dy7  1  0.988721  0.794997  0.499859  1
  Dy  Dy8  1  0.295284  0.488251  0.500154  1
  Ho  Ho9  1  0.499547  0.499843  0.999390  1
  Zn  Zn10  1  0.137759  0.639376  0.777136  1
  Zn  Zn11  1  0.860448  0.362385  0.222833  1
  Zn  Zn12  1  0.639582  0.860248  0.499831  1
  Bi  Bi13  1  0.249312  0.250988  0.999996  1
  Bi  Bi14  1  0.749008  0.750684  0.999996  1
  Au  Au15  1  0.366260  0.133932  0.500192  1
