# generated using pymatgen
data_Dy10SnBi5P2
_symmetry_space_group_name_H-M   'P 1'
_cell_length_a   9.20453729
_cell_length_b   9.20853900
_cell_length_c   6.68369700
_cell_angle_alpha   90.00000000
_cell_angle_beta   90.00000000
_cell_angle_gamma   120.01437552
_symmetry_Int_Tables_number   1
_chemical_formula_structural   Dy10SnBi5P2
_chemical_formula_sum   'Dy10 Sn1 Bi5 P2'
_cell_volume   490.54307541
_cell_formula_units_Z   1
loop_
 _symmetry_equiv_pos_site_id
 _symmetry_equiv_pos_as_xyz
  1  'x, y, z'
loop_
 _atom_site_type_symbol
 _atom_site_label
 _atom_site_symmetry_multiplicity
 _atom_site_fract_x
 _atom_site_fract_y
 _atom_site_fract_z
 _atom_site_occupancy
  Dy  Dy0  1  0.669856  0.333912  0.001901  1
  Dy  Dy1  1  0.330144  0.664058  0.001901  1
  Dy  Dy2  1  0.330144  0.664058  0.498099  1
  Dy  Dy3  1  0.669856  0.333912  0.498099  1
  Dy  Dy4  1  0.762865  0.763023  0.750000  1
  Dy  Dy5  1  0.237135  0.000157  0.750000  1
  Dy  Dy6  1  0.000000  0.238215  0.750000  1
  Dy  Dy7  1  0.234218  0.239301  0.250000  1
  Dy  Dy8  1  0.765782  0.005083  0.250000  1
  Dy  Dy9  1  0.000000  0.760660  0.250000  1
  Sn  Sn10  1  0.000000  0.399936  0.250000  1
  Bi  Bi11  1  0.399380  0.398615  0.750000  1
  Bi  Bi12  1  0.600620  0.999236  0.750000  1
  Bi  Bi13  1  0.000000  0.599990  0.750000  1
  Bi  Bi14  1  0.601576  0.601584  0.250000  1
  Bi  Bi15  1  0.398424  0.000008  0.250000  1
  P  P16  1  0.000000  0.999127  0.999810  1
  P  P17  1  0.000000  0.999127  0.500190  1
