# generated using pymatgen
data_Ho2Tm2FeSi4Rh
_symmetry_space_group_name_H-M   'P 1'
_cell_length_a   5.60203053
_cell_length_b   5.60203022
_cell_length_c   9.95848268
_cell_angle_alpha   63.46638149
_cell_angle_beta   63.46638058
_cell_angle_gamma   43.52883271
_symmetry_Int_Tables_number   1
_chemical_formula_structural   Ho2Tm2FeSi4Rh
_chemical_formula_sum   'Ho2 Tm2 Fe1 Si4 Rh1'
_cell_volume   188.70554833
_cell_formula_units_Z   1
loop_
 _symmetry_equiv_pos_site_id
 _symmetry_equiv_pos_as_xyz
  1  'x, y, z'
loop_
 _atom_site_type_symbol
 _atom_site_label
 _atom_site_symmetry_multiplicity
 _atom_site_fract_x
 _atom_site_fract_y
 _atom_site_fract_z
 _atom_site_occupancy
  Ho  Ho0  1  0.812466  0.812466  0.108413  1
  Ho  Ho1  1  0.186922  0.186922  0.890368  1
  Tm  Tm2  1  0.001813  0.001813  0.325341  1
  Tm  Tm3  1  0.999925  0.999925  0.672435  1
  Fe  Fe4  1  0.272621  0.272621  0.376577  1
  Si  Si5  1  0.650367  0.650367  0.430866  1
  Si  Si6  1  0.360815  0.360815  0.557927  1
  Si  Si7  1  0.501497  0.501497  0.128288  1
  Si  Si8  1  0.486740  0.486740  0.880963  1
  Rh  Rh9  1  0.726833  0.726833  0.628821  1
