# generated using pymatgen
data_TbSc5Al14(Si5Os4)2
_symmetry_space_group_name_H-M   'P 1'
_cell_length_a   8.60207200
_cell_length_b   8.61268391
_cell_length_c   9.23018700
_cell_angle_alpha   90.00000000
_cell_angle_beta   90.00000000
_cell_angle_gamma   120.08838444
_symmetry_Int_Tables_number   1
_chemical_formula_structural   TbSc5Al14(Si5Os4)2
_chemical_formula_sum   'Tb1 Sc5 Al14 Si10 Os8'
_cell_volume   591.69136704
_cell_formula_units_Z   1
loop_
 _symmetry_equiv_pos_site_id
 _symmetry_equiv_pos_as_xyz
  1  'x, y, z'
loop_
 _atom_site_type_symbol
 _atom_site_label
 _atom_site_symmetry_multiplicity
 _atom_site_fract_x
 _atom_site_fract_y
 _atom_site_fract_z
 _atom_site_occupancy
  Tb  Tb0  1  0.185551  0.373838  0.250000  1
  Sc  Sc1  1  0.808032  0.610914  0.750000  1
  Sc  Sc2  1  0.609799  0.807075  0.250000  1
  Sc  Sc3  1  0.389701  0.192758  0.750000  1
  Sc  Sc4  1  0.197948  0.803300  0.250000  1
  Sc  Sc5  1  0.804110  0.197074  0.750000  1
  Al  Al6  1  0.165630  0.329989  0.583910  1
  Al  Al7  1  0.837148  0.672829  0.418637  1
  Al  Al8  1  0.673829  0.836350  0.581400  1
  Al  Al9  1  0.837148  0.672829  0.081363  1
  Al  Al10  1  0.333083  0.164817  0.421345  1
  Al  Al11  1  0.165630  0.329989  0.916090  1
  Al  Al12  1  0.162500  0.837749  0.582286  1
  Al  Al13  1  0.333083  0.164817  0.078655  1
  Al  Al14  1  0.831110  0.166587  0.422706  1
  Al  Al15  1  0.673829  0.836350  0.918600  1
  Al  Al16  1  0.831110  0.166587  0.077294  1
  Al  Al17  1  0.162500  0.837749  0.917714  1
  Al  Al18  1  0.440085  0.564319  0.750000  1
  Al  Al19  1  0.999055  0.999239  0.750000  1
  Si  Si20  1  0.335642  0.667300  0.046229  1
  Si  Si21  1  0.666093  0.335473  0.948924  1
  Si  Si22  1  0.666093  0.335473  0.551076  1
  Si  Si23  1  0.335642  0.667300  0.453771  1
  Si  Si24  1  0.557706  0.118354  0.250000  1
  Si  Si25  1  0.436778  0.875977  0.750000  1
  Si  Si26  1  0.873738  0.440904  0.250000  1
  Si  Si27  1  0.123607  0.565059  0.750000  1
  Si  Si28  1  0.567822  0.438508  0.250000  1
  Si  Si29  1  0.988525  0.966558  0.250000  1
  Os  Os30  1  0.499269  0.000229  0.999253  1
  Os  Os31  1  0.998602  0.502445  0.999037  1
  Os  Os32  1  0.499269  0.000229  0.500747  1
  Os  Os33  1  0.503560  0.501271  0.005744  1
  Os  Os34  1  0.998602  0.502445  0.500963  1
  Os  Os35  1  0.503560  0.501271  0.494256  1
  Os  Os36  1  0.002304  0.008023  0.007520  1
  Os  Os37  1  0.002304  0.008023  0.492480  1
