# generated using pymatgen
data_Ca5Sm(SbO6)2
_symmetry_space_group_name_H-M   'P 1'
_cell_length_a   5.92272558
_cell_length_b   5.66437455
_cell_length_c   9.99983660
_cell_angle_alpha   55.00437396
_cell_angle_beta   90.23590899
_cell_angle_gamma   89.98185875
_symmetry_Int_Tables_number   1
_chemical_formula_structural   Ca5Sm(SbO6)2
_chemical_formula_sum   'Ca5 Sm1 Sb2 O12'
_cell_volume   274.81991928
_cell_formula_units_Z   1
loop_
 _symmetry_equiv_pos_site_id
 _symmetry_equiv_pos_as_xyz
  1  'x, y, z'
loop_
 _atom_site_type_symbol
 _atom_site_label
 _atom_site_symmetry_multiplicity
 _atom_site_fract_x
 _atom_site_fract_y
 _atom_site_fract_z
 _atom_site_occupancy
  Ca  Ca0  1  0.056280  0.261307  0.757754  1
  Ca  Ca1  1  0.947219  0.737312  0.240980  1
  Ca  Ca2  1  0.447728  0.263330  0.256153  1
  Ca  Ca3  1  0.004053  0.004516  0.493862  1
  Ca  Ca4  1  0.497433  0.994752  0.006238  1
  Sm  Sm5  1  0.561128  0.736003  0.744121  1
  Sb  Sb6  1  0.001428  0.503627  0.998916  1
  Sb  Sb7  1  0.498414  0.496021  0.501007  1
  O  O8  1  0.566747  0.845094  0.276433  1
  O  O9  1  0.063348  0.148776  0.223470  1
  O  O10  1  0.441597  0.142236  0.730992  1
  O  O11  1  0.942356  0.854072  0.768405  1
  O  O12  1  0.771376  0.599963  0.581988  1
  O  O13  1  0.280681  0.406193  0.921572  1
  O  O14  1  0.219910  0.404780  0.423231  1
  O  O15  1  0.718290  0.602550  0.070259  1
  O  O16  1  0.179903  0.736588  0.052526  1
  O  O17  1  0.675357  0.246034  0.457804  1
  O  O18  1  0.807402  0.291421  0.934610  1
  O  O19  1  0.319350  0.725426  0.559681  1
