# generated using pymatgen
data_TaTi4(Re11Tc)2
_symmetry_space_group_name_H-M   'P 1'
_cell_length_a   8.37195213
_cell_length_b   8.36581777
_cell_length_c   8.36948811
_cell_angle_alpha   109.47016274
_cell_angle_beta   109.48392857
_cell_angle_gamma   109.48265511
_symmetry_Int_Tables_number   1
_chemical_formula_structural   TaTi4(Re11Tc)2
_chemical_formula_sum   'Ta1 Ti4 Re22 Tc2'
_cell_volume   451.11612113
_cell_formula_units_Z   1
loop_
 _symmetry_equiv_pos_site_id
 _symmetry_equiv_pos_as_xyz
  1  'x, y, z'
loop_
 _atom_site_type_symbol
 _atom_site_label
 _atom_site_symmetry_multiplicity
 _atom_site_fract_x
 _atom_site_fract_y
 _atom_site_fract_z
 _atom_site_occupancy
  Ta  Ta0  1  0.000047  0.000000  0.000067  1
  Ti  Ti1  1  0.630852  0.000002  0.000639  1
  Ti  Ti2  1  0.000097  0.631228  0.999937  1
  Ti  Ti3  1  0.999795  0.000001  0.631033  1
  Ti  Ti4  1  0.368870  0.368773  0.368710  1
  Re  Re5  1  0.400387  0.000000  0.682935  1
  Re  Re6  1  0.682302  0.400061  0.000693  1
  Re  Re7  1  0.000551  0.400293  0.682656  1
  Re  Re8  1  0.318098  0.717617  0.317395  1
  Re  Re9  1  0.317503  0.317459  0.717487  1
  Re  Re10  1  0.000044  0.682540  0.400026  1
  Re  Re11  1  0.681986  0.000000  0.399320  1
  Re  Re12  1  0.600251  0.599700  0.282365  1
  Re  Re13  1  0.282242  0.599932  0.600626  1
  Re  Re14  1  0.600477  0.282385  0.599775  1
  Re  Re15  1  0.375568  0.194166  0.000480  1
  Re  Re16  1  0.181404  0.805837  0.806319  1
  Re  Re17  1  0.375353  0.000000  0.193529  1
  Re  Re18  1  0.193585  0.376216  0.000142  1
  Re  Re19  1  0.000383  0.375813  0.193401  1
  Re  Re20  1  0.806714  0.182102  0.806700  1
  Re  Re21  1  0.806626  0.806508  0.182063  1
  Re  Re22  1  0.000119  0.193497  0.375559  1
  Re  Re23  1  0.193207  0.000000  0.374984  1
  Re  Re24  1  0.624572  0.624189  0.817588  1
  Re  Re25  1  0.817367  0.623785  0.623928  1
  Re  Re26  1  0.624611  0.817898  0.624597  1
  Tc  Tc27  1  0.400026  0.683065  0.000057  1
  Tc  Tc28  1  0.716962  0.316932  0.316989  1
