# generated using pymatgen
data_LaPrSi5Tc3
_symmetry_space_group_name_H-M   'P 1'
_cell_length_a   8.49820606
_cell_length_b   8.49687350
_cell_length_c   8.49687308
_cell_angle_alpha   140.57245908
_cell_angle_beta   108.64975408
_cell_angle_gamma   84.70714821
_symmetry_Int_Tables_number   1
_chemical_formula_structural   LaPrSi5Tc3
_chemical_formula_sum   'La2 Pr2 Si10 Tc6'
_cell_volume   356.78277954
_cell_formula_units_Z   2
loop_
 _symmetry_equiv_pos_site_id
 _symmetry_equiv_pos_as_xyz
  1  'x, y, z'
loop_
 _atom_site_type_symbol
 _atom_site_label
 _atom_site_symmetry_multiplicity
 _atom_site_fract_x
 _atom_site_fract_y
 _atom_site_fract_z
 _atom_site_occupancy
  La  La0  1  0.894703  0.630763  0.263940  1
  La  La1  1  0.105297  0.369237  0.736060  1
  Pr  Pr2  1  0.632309  0.869239  0.763071  1
  Pr  Pr3  1  0.367691  0.130761  0.236929  1
  Si  Si4  1  0.000000  0.248439  0.248439  1
  Si  Si5  1  0.000000  0.751561  0.751561  1
  Si  Si6  1  0.291684  0.540839  0.251006  1
  Si  Si7  1  0.708316  0.959322  0.249155  1
  Si  Si8  1  0.708316  0.459161  0.748994  1
  Si  Si9  1  0.291684  0.040678  0.750845  1
  Si  Si10  1  0.430199  0.601101  0.829097  1
  Si  Si11  1  0.769724  0.100121  0.669603  1
  Si  Si12  1  0.230276  0.899879  0.330397  1
  Si  Si13  1  0.569801  0.398899  0.170903  1
  Tc  Tc14  1  0.057449  0.147509  0.909940  1
  Tc  Tc15  1  0.500000  0.750178  0.250178  1
  Tc  Tc16  1  0.236655  0.647249  0.589407  1
  Tc  Tc17  1  0.763345  0.352751  0.410593  1
  Tc  Tc18  1  0.942551  0.852491  0.090060  1
  Tc  Tc19  1  0.500000  0.249822  0.749822  1
