# generated using pymatgen
data_HoLu2Mg(Co4P3)2
_symmetry_space_group_name_H-M   'P 1'
_cell_length_a   3.70444900
_cell_length_b   10.56790400
_cell_length_c   12.18695900
_cell_angle_alpha   90.00000000
_cell_angle_beta   90.00000000
_cell_angle_gamma   90.00000000
_symmetry_Int_Tables_number   1
_chemical_formula_structural   HoLu2Mg(Co4P3)2
_chemical_formula_sum   'Ho2 Lu4 Mg2 Co16 P12'
_cell_volume   477.09825666
_cell_formula_units_Z   2
loop_
 _symmetry_equiv_pos_site_id
 _symmetry_equiv_pos_as_xyz
  1  'x, y, z'
loop_
 _atom_site_type_symbol
 _atom_site_label
 _atom_site_symmetry_multiplicity
 _atom_site_fract_x
 _atom_site_fract_y
 _atom_site_fract_z
 _atom_site_occupancy
  Ho  Ho0  1  0.000000  0.500000  0.526509  1
  Ho  Ho1  1  0.500000  0.000000  0.473491  1
  Lu  Lu2  1  0.500000  0.822952  0.206275  1
  Lu  Lu3  1  0.500000  0.177048  0.206275  1
  Lu  Lu4  1  0.000000  0.677048  0.793725  1
  Lu  Lu5  1  0.000000  0.322952  0.793725  1
  Mg  Mg6  1  0.500000  0.500000  0.156475  1
  Mg  Mg7  1  0.000000  0.000000  0.843525  1
  Co  Co8  1  0.500000  0.500000  0.706073  1
  Co  Co9  1  0.000000  0.000000  0.293927  1
  Co  Co10  1  0.000000  0.500000  0.988254  1
  Co  Co11  1  0.500000  0.000000  0.011746  1
  Co  Co12  1  0.500000  0.332580  0.996599  1
  Co  Co13  1  0.500000  0.667420  0.996599  1
  Co  Co14  1  0.000000  0.167420  0.003401  1
  Co  Co15  1  0.000000  0.832580  0.003401  1
  Co  Co16  1  0.500000  0.296123  0.431827  1
  Co  Co17  1  0.500000  0.703877  0.431827  1
  Co  Co18  1  0.000000  0.203877  0.568173  1
  Co  Co19  1  0.000000  0.796123  0.568173  1
  Co  Co20  1  0.500000  0.876732  0.706567  1
  Co  Co21  1  0.500000  0.123268  0.706567  1
  Co  Co22  1  0.000000  0.623268  0.293433  1
  Co  Co23  1  0.000000  0.376732  0.293433  1
  P  P24  1  0.500000  0.500000  0.884267  1
  P  P25  1  0.000000  0.000000  0.115733  1
  P  P26  1  0.500000  0.500000  0.356171  1
  P  P27  1  0.000000  0.000000  0.643829  1
  P  P28  1  0.500000  0.310656  0.616789  1
  P  P29  1  0.500000  0.689344  0.616789  1
  P  P30  1  0.000000  0.189344  0.383211  1
  P  P31  1  0.000000  0.810656  0.383211  1
  P  P32  1  0.500000  0.837684  0.891661  1
  P  P33  1  0.500000  0.162316  0.891661  1
  P  P34  1  0.000000  0.662316  0.108339  1
  P  P35  1  0.000000  0.337684  0.108339  1
