# generated using pymatgen
data_YHo4P12Ru19
_symmetry_space_group_name_H-M   'P 1'
_cell_length_a   12.54012616
_cell_length_b   12.53663441
_cell_length_c   3.97843000
_cell_angle_alpha   90.00000000
_cell_angle_beta   90.00000000
_cell_angle_gamma   119.99078324
_symmetry_Int_Tables_number   1
_chemical_formula_structural   YHo4P12Ru19
_chemical_formula_sum   'Y1 Ho4 P12 Ru19'
_cell_volume   541.70837160
_cell_formula_units_Z   1
loop_
 _symmetry_equiv_pos_site_id
 _symmetry_equiv_pos_as_xyz
  1  'x, y, z'
loop_
 _atom_site_type_symbol
 _atom_site_label
 _atom_site_symmetry_multiplicity
 _atom_site_fract_x
 _atom_site_fract_y
 _atom_site_fract_z
 _atom_site_occupancy
  Y  Y0  1  0.000000  0.183520  0.500000  1
  Ho  Ho1  1  0.816618  0.816632  0.500000  1
  Ho  Ho2  1  0.183382  0.000014  0.500000  1
  Ho  Ho3  1  0.666686  0.333413  0.000000  1
  Ho  Ho4  1  0.333314  0.666728  0.000000  1
  P  P5  1  0.000000  0.815351  0.000000  1
  P  P6  1  0.184587  0.184156  0.000000  1
  P  P7  1  0.815413  0.999569  0.000000  1
  P  P8  1  0.693361  0.171437  0.500000  1
  P  P9  1  0.828534  0.522133  0.500000  1
  P  P10  1  0.478156  0.306620  0.500000  1
  P  P11  1  0.171466  0.693599  0.500000  1
  P  P12  1  0.521844  0.828465  0.500000  1
  P  P13  1  0.306639  0.478076  0.500000  1
  P  P14  1  0.000000  0.372756  0.000000  1
  P  P15  1  0.627655  0.627609  0.000000  1
  P  P16  1  0.372345  0.999954  0.000000  1
  Ru  Ru17  1  0.000000  0.554551  0.000000  1
  Ru  Ru18  1  0.445948  0.445753  0.000000  1
  Ru  Ru19  1  0.554052  0.999804  0.000000  1
  Ru  Ru20  1  0.000000  0.716810  0.500000  1
  Ru  Ru21  1  0.283713  0.283398  0.500000  1
  Ru  Ru22  1  0.716287  0.999685  0.500000  1
  Ru  Ru23  1  0.806899  0.184786  0.000000  1
  Ru  Ru24  1  0.815105  0.622847  0.000000  1
  Ru  Ru25  1  0.377283  0.192198  0.000000  1
  Ru  Ru26  1  0.184895  0.807742  0.000000  1
  Ru  Ru27  1  0.622717  0.814915  0.000000  1
  Ru  Ru28  1  0.193101  0.377886  0.000000  1
  Ru  Ru29  1  0.873872  0.366120  0.500000  1
  Ru  Ru30  1  0.634111  0.508028  0.500000  1
  Ru  Ru31  1  0.492116  0.126135  0.500000  1
  Ru  Ru32  1  0.365889  0.873917  0.500000  1
  Ru  Ru33  1  0.507884  0.634019  0.500000  1
  Ru  Ru34  1  0.126128  0.492247  0.500000  1
  Ru  Ru35  1  0.000000  0.999130  0.000000  1
