# generated using pymatgen
data_MgAlGaPt5
_symmetry_space_group_name_H-M   'P 1'
_cell_length_a   4.03693500
_cell_length_b   5.54509910
_cell_length_c   10.88734171
_cell_angle_alpha   89.46069658
_cell_angle_beta   90.00000000
_cell_angle_gamma   90.00000000
_symmetry_Int_Tables_number   1
_chemical_formula_structural   MgAlGaPt5
_chemical_formula_sum   'Mg2 Al2 Ga2 Pt10'
_cell_volume   243.70457582
_cell_formula_units_Z   2
loop_
 _symmetry_equiv_pos_site_id
 _symmetry_equiv_pos_as_xyz
  1  'x, y, z'
loop_
 _atom_site_type_symbol
 _atom_site_label
 _atom_site_symmetry_multiplicity
 _atom_site_fract_x
 _atom_site_fract_y
 _atom_site_fract_z
 _atom_site_occupancy
  Mg  Mg0  1  0.500000  0.186002  0.637920  1
  Mg  Mg1  1  0.500000  0.813998  0.362080  1
  Al  Al2  1  0.500000  0.677538  0.855586  1
  Al  Al3  1  0.500000  0.322462  0.144414  1
  Ga  Ga4  1  0.000000  0.500000  0.500000  1
  Ga  Ga5  1  0.000000  0.000000  0.000000  1
  Pt  Pt6  1  0.500000  0.301984  0.385946  1
  Pt  Pt7  1  0.500000  0.698016  0.614054  1
  Pt  Pt8  1  0.500000  0.795048  0.103972  1
  Pt  Pt9  1  0.500000  0.204952  0.896028  1
  Pt  Pt10  1  0.000000  0.438576  0.745021  1
  Pt  Pt11  1  0.000000  0.561424  0.254979  1
  Pt  Pt12  1  0.000000  0.935469  0.764933  1
  Pt  Pt13  1  0.000000  0.064531  0.235067  1
  Pt  Pt14  1  0.000000  0.500000  0.000000  1
  Pt  Pt15  1  0.000000  0.000000  0.500000  1
