# generated using pymatgen
data_Yb3YAl8
_symmetry_space_group_name_H-M   'P 1'
_cell_length_a   9.58899846
_cell_length_b   9.58899808
_cell_length_c   9.58899861
_cell_angle_alpha   34.18180017
_cell_angle_beta   34.18180143
_cell_angle_gamma   34.18180164
_symmetry_Int_Tables_number   1
_chemical_formula_structural   Yb3YAl8
_chemical_formula_sum   'Yb3 Y1 Al8'
_cell_volume   248.14632277
_cell_formula_units_Z   1
loop_
 _symmetry_equiv_pos_site_id
 _symmetry_equiv_pos_as_xyz
  1  'x, y, z'
loop_
 _atom_site_type_symbol
 _atom_site_label
 _atom_site_symmetry_multiplicity
 _atom_site_fract_x
 _atom_site_fract_y
 _atom_site_fract_z
 _atom_site_occupancy
  Yb  Yb0  1  0.187992  0.187992  0.187992  1
  Yb  Yb1  1  0.813050  0.813050  0.813050  1
  Yb  Yb2  1  0.311189  0.311189  0.311189  1
  Y  Y3  1  0.687707  0.687707  0.687707  1
  Al  Al4  1  0.999772  0.999772  0.999772  1
  Al  Al5  1  0.500265  0.500265  0.500265  1
  Al  Al6  1  0.747287  0.249623  0.249623  1
  Al  Al7  1  0.252898  0.750296  0.750296  1
  Al  Al8  1  0.249623  0.747287  0.249623  1
  Al  Al9  1  0.750296  0.252898  0.750296  1
  Al  Al10  1  0.249623  0.249623  0.747287  1
  Al  Al11  1  0.750296  0.750296  0.252898  1
