# generated using pymatgen
data_Ti5Ga17Rh7
_symmetry_space_group_name_H-M   'P 1'
_cell_length_a   8.67309607
_cell_length_b   8.67309579
_cell_length_c   8.54105000
_cell_angle_alpha   60.50236586
_cell_angle_beta   60.50236691
_cell_angle_gamma   58.99527332
_symmetry_Int_Tables_number   1
_chemical_formula_structural   Ti5Ga17Rh7
_chemical_formula_sum   'Ti5 Ga17 Rh7'
_cell_volume   454.09447426
_cell_formula_units_Z   1
loop_
 _symmetry_equiv_pos_site_id
 _symmetry_equiv_pos_as_xyz
  1  'x, y, z'
loop_
 _atom_site_type_symbol
 _atom_site_label
 _atom_site_symmetry_multiplicity
 _atom_site_fract_x
 _atom_site_fract_y
 _atom_site_fract_z
 _atom_site_occupancy
  Ti  Ti0  1  0.278862  0.726544  0.273456  1
  Ti  Ti1  1  0.726544  0.278862  0.273456  1
  Ti  Ti2  1  0.298399  0.298399  0.701601  1
  Ti  Ti3  1  0.726544  0.278862  0.721138  1
  Ti  Ti4  1  0.278862  0.726544  0.721138  1
  Ga  Ga5  1  0.878685  0.878686  0.359272  1
  Ga  Ga6  1  0.881674  0.385451  0.866439  1
  Ga  Ga7  1  0.385450  0.881674  0.866439  1
  Ga  Ga8  1  0.878685  0.878685  0.883357  1
  Ga  Ga9  1  0.133560  0.133561  0.614549  1
  Ga  Ga10  1  0.116643  0.640728  0.121315  1
  Ga  Ga11  1  0.640728  0.116643  0.121315  1
  Ga  Ga12  1  0.133561  0.133561  0.118326  1
  Ga  Ga13  1  0.653130  0.653130  0.084753  1
  Ga  Ga14  1  0.661067  0.063085  0.637923  1
  Ga  Ga15  1  0.063085  0.661067  0.637923  1
  Ga  Ga16  1  0.653130  0.653130  0.608985  1
  Ga  Ga17  1  0.362077  0.362077  0.936915  1
  Ga  Ga18  1  0.391015  0.915247  0.346870  1
  Ga  Ga19  1  0.915247  0.391015  0.346870  1
  Ga  Ga20  1  0.362077  0.362077  0.338933  1
  Ga  Ga21  1  0.516106  0.516106  0.483894  1
  Rh  Rh22  1  0.016032  0.016032  0.983968  1
  Rh  Rh23  1  0.011595  0.011595  0.488405  1
  Rh  Rh24  1  0.503621  0.009202  0.496379  1
  Rh  Rh25  1  0.009202  0.503621  0.496379  1
  Rh  Rh26  1  0.511595  0.511595  0.988405  1
  Rh  Rh27  1  0.009202  0.503621  0.990798  1
  Rh  Rh28  1  0.503621  0.009202  0.990798  1
