# generated using pymatgen
data_Ca11Pr8HoPb16
_symmetry_space_group_name_H-M   'P 1'
_cell_length_a   8.10025806
_cell_length_b   8.68084860
_cell_length_c   16.32203155
_cell_angle_alpha   90.05137921
_cell_angle_beta   90.03790041
_cell_angle_gamma   89.92751102
_symmetry_Int_Tables_number   1
_chemical_formula_structural   Ca11Pr8HoPb16
_chemical_formula_sum   'Ca11 Pr8 Ho1 Pb16'
_cell_volume   1147.71652064
_cell_formula_units_Z   1
loop_
 _symmetry_equiv_pos_site_id
 _symmetry_equiv_pos_as_xyz
  1  'x, y, z'
loop_
 _atom_site_type_symbol
 _atom_site_label
 _atom_site_symmetry_multiplicity
 _atom_site_fract_x
 _atom_site_fract_y
 _atom_site_fract_z
 _atom_site_occupancy
  Ca  Ca0  1  0.167362  0.333006  0.876863  1
  Ca  Ca1  1  0.333252  0.833334  0.122933  1
  Ca  Ca2  1  0.833703  0.666525  0.378012  1
  Ca  Ca3  1  0.332742  0.834158  0.377634  1
  Ca  Ca4  1  0.833249  0.666464  0.122827  1
  Ca  Ca5  1  0.666961  0.166213  0.876934  1
  Ca  Ca6  1  0.166329  0.333586  0.621551  1
  Ca  Ca7  1  0.836070  0.498164  0.750233  1
  Ca  Ca8  1  0.333905  0.002145  0.750701  1
  Ca  Ca9  1  0.164371  0.503584  0.249955  1
  Ca  Ca10  1  0.664289  0.997293  0.250686  1
  Pr  Pr11  1  0.500972  0.683964  0.595047  1
  Pr  Pr12  1  0.002749  0.812797  0.905514  1
  Pr  Pr13  1  0.498067  0.312589  0.095601  1
  Pr  Pr14  1  0.998776  0.188014  0.403969  1
  Pr  Pr15  1  0.497288  0.313441  0.404735  1
  Pr  Pr16  1  0.998190  0.187770  0.095348  1
  Pr  Pr17  1  0.502072  0.685896  0.904554  1
  Pr  Pr18  1  0.002164  0.812351  0.593698  1
  Ho  Ho19  1  0.664422  0.169192  0.624319  1
  Pb  Pb20  1  0.681992  0.964972  0.463147  1
  Pb  Pb21  1  0.179333  0.536546  0.040103  1
  Pb  Pb22  1  0.321972  0.036103  0.959782  1
  Pb  Pb23  1  0.815641  0.458600  0.541051  1
  Pb  Pb24  1  0.327007  0.037766  0.542465  1
  Pb  Pb25  1  0.821296  0.462911  0.959268  1
  Pb  Pb26  1  0.678510  0.963507  0.040302  1
  Pb  Pb27  1  0.179573  0.537415  0.459738  1
  Pb  Pb28  1  0.470182  0.389516  0.748758  1
  Pb  Pb29  1  0.965351  0.109037  0.745762  1
  Pb  Pb30  1  0.531533  0.607244  0.250317  1
  Pb  Pb31  1  0.031462  0.893840  0.249769  1
  Pb  Pb32  1  0.704130  0.854483  0.747939  1
  Pb  Pb33  1  0.204972  0.647154  0.749480  1
  Pb  Pb34  1  0.294917  0.147844  0.250503  1
  Pb  Pb35  1  0.795199  0.352576  0.250498  1
