# generated using pymatgen
data_Cs3Al2As3
_symmetry_space_group_name_H-M   'P 1'
_cell_length_a   6.25280400
_cell_length_b   8.29989127
_cell_length_c   11.18262628
_cell_angle_alpha   69.93051253
_cell_angle_beta   90.00000000
_cell_angle_gamma   90.00000000
_symmetry_Int_Tables_number   1
_chemical_formula_structural   Cs3Al2As3
_chemical_formula_sum   'Cs6 Al4 As6'
_cell_volume   545.11079070
_cell_formula_units_Z   2
loop_
 _symmetry_equiv_pos_site_id
 _symmetry_equiv_pos_as_xyz
  1  'x, y, z'
loop_
 _atom_site_type_symbol
 _atom_site_label
 _atom_site_symmetry_multiplicity
 _atom_site_fract_x
 _atom_site_fract_y
 _atom_site_fract_z
 _atom_site_occupancy
  Cs  Cs0  1  0.250000  0.435941  0.424440  1
  Cs  Cs1  1  0.750000  0.140663  0.916548  1
  Cs  Cs2  1  0.750000  0.472786  0.149177  1
  Cs  Cs3  1  0.250000  0.527214  0.850823  1
  Cs  Cs4  1  0.750000  0.564059  0.575560  1
  Cs  Cs5  1  0.250000  0.859337  0.083452  1
  Al  Al6  1  0.999621  0.024601  0.349783  1
  Al  Al7  1  0.499621  0.975399  0.650217  1
  Al  Al8  1  0.500379  0.024601  0.349783  1
  Al  Al9  1  0.000379  0.975399  0.650217  1
  As  As10  1  0.250000  0.829040  0.528507  1
  As  As11  1  0.750000  0.170960  0.471493  1
  As  As12  1  0.250000  0.224457  0.195030  1
  As  As13  1  0.750000  0.775543  0.804970  1
  As  As14  1  0.250000  0.136765  0.739616  1
  As  As15  1  0.750000  0.863235  0.260384  1
