# generated using pymatgen
data_Sc12Si12IrOsRh2
_symmetry_space_group_name_H-M   'P 1'
_cell_length_a   4.04649000
_cell_length_b   10.24003508
_cell_length_c   11.66663241
_cell_angle_alpha   90.10666755
_cell_angle_beta   90.00000000
_cell_angle_gamma   90.00000000
_symmetry_Int_Tables_number   1
_chemical_formula_structural   Sc12Si12IrOsRh2
_chemical_formula_sum   'Sc12 Si12 Ir1 Os1 Rh2'
_cell_volume   483.42007046
_cell_formula_units_Z   1
loop_
 _symmetry_equiv_pos_site_id
 _symmetry_equiv_pos_as_xyz
  1  'x, y, z'
loop_
 _atom_site_type_symbol
 _atom_site_label
 _atom_site_symmetry_multiplicity
 _atom_site_fract_x
 _atom_site_fract_y
 _atom_site_fract_z
 _atom_site_occupancy
  Sc  Sc0  1  0.250000  0.876160  0.020031  1
  Sc  Sc1  1  0.250000  0.621882  0.520724  1
  Sc  Sc2  1  0.750000  0.122778  0.979955  1
  Sc  Sc3  1  0.750000  0.376552  0.481904  1
  Sc  Sc4  1  0.250000  0.920427  0.601433  1
  Sc  Sc5  1  0.250000  0.579789  0.102493  1
  Sc  Sc6  1  0.750000  0.079223  0.398143  1
  Sc  Sc7  1  0.750000  0.420336  0.896554  1
  Sc  Sc8  1  0.250000  0.659126  0.798356  1
  Sc  Sc9  1  0.250000  0.841502  0.299385  1
  Sc  Sc10  1  0.750000  0.341935  0.200556  1
  Sc  Sc11  1  0.750000  0.158097  0.701031  1
  Si  Si12  1  0.250000  0.014873  0.822900  1
  Si  Si13  1  0.250000  0.485479  0.321884  1
  Si  Si14  1  0.750000  0.984910  0.177622  1
  Si  Si15  1  0.750000  0.514468  0.679343  1
  Si  Si16  1  0.250000  0.250788  0.841037  1
  Si  Si17  1  0.250000  0.249362  0.342095  1
  Si  Si18  1  0.750000  0.749920  0.158004  1
  Si  Si19  1  0.750000  0.751536  0.657421  1
  Si  Si20  1  0.250000  0.194650  0.546138  1
  Si  Si21  1  0.250000  0.306858  0.044671  1
  Si  Si22  1  0.750000  0.805882  0.454284  1
  Si  Si23  1  0.750000  0.692010  0.954738  1
  Ir  Ir24  1  0.750000  0.610265  0.323187  1
  Os  Os25  1  0.250000  0.391400  0.675966  1
  Rh  Rh26  1  0.250000  0.110206  0.177279  1
  Rh  Rh27  1  0.750000  0.889587  0.822863  1
