# generated using pymatgen
data_Ba6Sr2TmUSe12
_symmetry_space_group_name_H-M   'P 1'
_cell_length_a   8.96393454
_cell_length_b   8.96393412
_cell_length_c   8.96393489
_cell_angle_alpha   90.63795103
_cell_angle_beta   90.63794376
_cell_angle_gamma   90.63794850
_symmetry_Int_Tables_number   1
_chemical_formula_structural   Ba6Sr2TmUSe12
_chemical_formula_sum   'Ba6 Sr2 Tm1 U1 Se12'
_cell_volume   720.13621884
_cell_formula_units_Z   1
loop_
 _symmetry_equiv_pos_site_id
 _symmetry_equiv_pos_as_xyz
  1  'x, y, z'
loop_
 _atom_site_type_symbol
 _atom_site_label
 _atom_site_symmetry_multiplicity
 _atom_site_fract_x
 _atom_site_fract_y
 _atom_site_fract_z
 _atom_site_occupancy
  Ba  Ba0  1  0.870915  0.621849  0.258242  1
  Ba  Ba1  1  0.258242  0.870915  0.621849  1
  Ba  Ba2  1  0.621849  0.258242  0.870915  1
  Ba  Ba3  1  0.741758  0.129085  0.378151  1
  Ba  Ba4  1  0.378151  0.741758  0.129085  1
  Ba  Ba5  1  0.129085  0.378151  0.741758  1
  Sr  Sr6  1  0.255456  0.255456  0.255456  1
  Sr  Sr7  1  0.744544  0.744544  0.744544  1
  Tm  Tm8  1  0.500000  0.500000  0.500000  1
  U  U9  1  0.000000  0.000000  0.000000  1
  Se  Se10  1  0.199884  0.556825  0.414887  1
  Se  Se11  1  0.414887  0.199884  0.556825  1
  Se  Se12  1  0.556825  0.414887  0.199884  1
  Se  Se13  1  0.923068  0.051565  0.705223  1
  Se  Se14  1  0.705223  0.923068  0.051565  1
  Se  Se15  1  0.051565  0.705223  0.923068  1
  Se  Se16  1  0.800116  0.443175  0.585113  1
  Se  Se17  1  0.585113  0.800116  0.443175  1
  Se  Se18  1  0.443175  0.585113  0.800116  1
  Se  Se19  1  0.076932  0.948435  0.294777  1
  Se  Se20  1  0.294777  0.076932  0.948435  1
  Se  Se21  1  0.948435  0.294777  0.076932  1
