# generated using pymatgen
data_Cs3DyNpBr9
_symmetry_space_group_name_H-M   'P 1'
_cell_length_a   10.55504514
_cell_length_b   10.55504677
_cell_length_c   10.55504603
_cell_angle_alpha   83.40136835
_cell_angle_beta   83.40136413
_cell_angle_gamma   83.40136323
_symmetry_Int_Tables_number   1
_chemical_formula_structural   Cs3DyNpBr9
_chemical_formula_sum   'Cs6 Dy2 Np2 Br18'
_cell_volume   1154.21873539
_cell_formula_units_Z   2
loop_
 _symmetry_equiv_pos_site_id
 _symmetry_equiv_pos_as_xyz
  1  'x, y, z'
loop_
 _atom_site_type_symbol
 _atom_site_label
 _atom_site_symmetry_multiplicity
 _atom_site_fract_x
 _atom_site_fract_y
 _atom_site_fract_z
 _atom_site_occupancy
  Cs  Cs0  1  0.751585  0.412216  0.087915  1
  Cs  Cs1  1  0.087915  0.751585  0.412216  1
  Cs  Cs2  1  0.248415  0.587784  0.912085  1
  Cs  Cs3  1  0.412216  0.087915  0.751585  1
  Cs  Cs4  1  0.912085  0.248415  0.587784  1
  Cs  Cs5  1  0.587784  0.912085  0.248415  1
  Dy  Dy6  1  0.848229  0.848229  0.848229  1
  Dy  Dy7  1  0.151771  0.151771  0.151771  1
  Np  Np8  1  0.348229  0.348229  0.348229  1
  Np  Np9  1  0.651771  0.651771  0.651771  1
  Br  Br10  1  0.413424  0.767051  0.579584  1
  Br  Br11  1  0.232949  0.420416  0.586576  1
  Br  Br12  1  0.403056  0.247675  0.092359  1
  Br  Br13  1  0.092359  0.403056  0.247675  1
  Br  Br14  1  0.917518  0.735524  0.079296  1
  Br  Br15  1  0.920704  0.082482  0.264476  1
  Br  Br16  1  0.596944  0.752325  0.907641  1
  Br  Br17  1  0.752325  0.907641  0.596944  1
  Br  Br18  1  0.579584  0.413424  0.767051  1
  Br  Br19  1  0.247675  0.092359  0.403056  1
  Br  Br20  1  0.767051  0.579584  0.413424  1
  Br  Br21  1  0.735524  0.079296  0.917518  1
  Br  Br22  1  0.082482  0.264476  0.920704  1
  Br  Br23  1  0.420416  0.586576  0.232949  1
  Br  Br24  1  0.586576  0.232949  0.420416  1
  Br  Br25  1  0.907641  0.596944  0.752325  1
  Br  Br26  1  0.264476  0.920704  0.082482  1
  Br  Br27  1  0.079296  0.917518  0.735524  1
