# generated using pymatgen
data_CaTa2HgO7
_symmetry_space_group_name_H-M   'P 1'
_cell_length_a   7.47695359
_cell_length_b   7.47695377
_cell_length_c   7.63313900
_cell_angle_alpha   59.30656605
_cell_angle_beta   59.30656526
_cell_angle_gamma   58.85309620
_symmetry_Int_Tables_number   1
_chemical_formula_structural   CaTa2HgO7
_chemical_formula_sum   'Ca2 Ta4 Hg2 O14'
_cell_volume   295.92266675
_cell_formula_units_Z   2
loop_
 _symmetry_equiv_pos_site_id
 _symmetry_equiv_pos_as_xyz
  1  'x, y, z'
loop_
 _atom_site_type_symbol
 _atom_site_label
 _atom_site_symmetry_multiplicity
 _atom_site_fract_x
 _atom_site_fract_y
 _atom_site_fract_z
 _atom_site_occupancy
  Ca  Ca0  1  0.125000  0.125000  0.625000  1
  Ca  Ca1  1  0.125000  0.125000  0.125000  1
  Ta  Ta2  1  0.625000  0.625000  0.125000  1
  Ta  Ta3  1  0.625000  0.125000  0.625000  1
  Ta  Ta4  1  0.125000  0.625000  0.625000  1
  Ta  Ta5  1  0.625000  0.625000  0.625000  1
  Hg  Hg6  1  0.125000  0.625000  0.125000  1
  Hg  Hg7  1  0.625000  0.125000  0.125000  1
  O  O8  1  0.307592  0.698088  0.312336  1
  O  O9  1  0.551912  0.942408  0.568016  1
  O  O10  1  0.303651  0.303651  0.696349  1
  O  O11  1  0.698088  0.307592  0.312336  1
  O  O12  1  0.307592  0.698088  0.681984  1
  O  O13  1  0.684309  0.684309  0.315691  1
  O  O14  1  0.946349  0.946349  0.553651  1
  O  O15  1  0.565691  0.565691  0.934309  1
  O  O16  1  0.987694  0.987694  0.012306  1
  O  O17  1  0.262306  0.262306  0.237694  1
  O  O18  1  0.698088  0.307592  0.681984  1
  O  O19  1  0.942408  0.551912  0.568016  1
  O  O20  1  0.551912  0.942408  0.937664  1
  O  O21  1  0.942408  0.551912  0.937664  1
