# generated using pymatgen
data_Li2TbHo15(InRh2)2
_symmetry_space_group_name_H-M   'P 1'
_cell_length_a   9.59973179
_cell_length_b   9.59973138
_cell_length_c   9.62120500
_cell_angle_alpha   59.92597983
_cell_angle_beta   59.92598125
_cell_angle_gamma   59.81693635
_symmetry_Int_Tables_number   1
_chemical_formula_structural   Li2TbHo15(InRh2)2
_chemical_formula_sum   'Li2 Tb1 Ho15 In2 Rh4'
_cell_volume   625.37820947
_cell_formula_units_Z   1
loop_
 _symmetry_equiv_pos_site_id
 _symmetry_equiv_pos_as_xyz
  1  'x, y, z'
loop_
 _atom_site_type_symbol
 _atom_site_label
 _atom_site_symmetry_multiplicity
 _atom_site_fract_x
 _atom_site_fract_y
 _atom_site_fract_z
 _atom_site_occupancy
  Li  Li0  1  0.823366  0.823366  0.825746  1
  Li  Li1  1  0.823366  0.823366  0.527524  1
  Tb  Tb2  1  0.185667  0.185667  0.814333  1
  Ho  Ho3  1  0.599118  0.599118  0.200580  1
  Ho  Ho4  1  0.438332  0.062083  0.438383  1
  Ho  Ho5  1  0.441568  0.441568  0.058432  1
  Ho  Ho6  1  0.813385  0.185910  0.813948  1
  Ho  Ho7  1  0.185910  0.813385  0.186758  1
  Ho  Ho8  1  0.438332  0.062083  0.061202  1
  Ho  Ho9  1  0.185910  0.813385  0.813948  1
  Ho  Ho10  1  0.062083  0.438332  0.061202  1
  Ho  Ho11  1  0.812506  0.812506  0.187494  1
  Ho  Ho12  1  0.206777  0.597227  0.597997  1
  Ho  Ho13  1  0.062083  0.438332  0.438383  1
  Ho  Ho14  1  0.066425  0.066425  0.433575  1
  Ho  Ho15  1  0.813385  0.185910  0.186758  1
  Ho  Ho16  1  0.597227  0.206777  0.597997  1
  Ho  Ho17  1  0.599118  0.599118  0.601184  1
  In  In18  1  0.506718  0.833906  0.829689  1
  In  In19  1  0.833906  0.506718  0.829689  1
  Rh  Rh20  1  0.394771  0.822801  0.391215  1
  Rh  Rh21  1  0.393626  0.393626  0.389858  1
  Rh  Rh22  1  0.822801  0.394771  0.391215  1
  Rh  Rh23  1  0.393626  0.393626  0.822890  1
