# generated using pymatgen
data_TbY9NiAg3
_symmetry_space_group_name_H-M   'P 1'
_cell_length_a   9.54798300
_cell_length_b   9.54798426
_cell_length_c   9.61581400
_cell_angle_alpha   90.00000000
_cell_angle_beta   90.00000000
_cell_angle_gamma   119.99999910
_symmetry_Int_Tables_number   1
_chemical_formula_structural   TbY9NiAg3
_chemical_formula_sum   'Tb2 Y18 Ni2 Ag6'
_cell_volume   759.17171916
_cell_formula_units_Z   2
loop_
 _symmetry_equiv_pos_site_id
 _symmetry_equiv_pos_as_xyz
  1  'x, y, z'
loop_
 _atom_site_type_symbol
 _atom_site_label
 _atom_site_symmetry_multiplicity
 _atom_site_fract_x
 _atom_site_fract_y
 _atom_site_fract_z
 _atom_site_occupancy
  Tb  Tb0  1  0.000000  0.000000  0.500000  1
  Tb  Tb1  1  0.000000  0.000000  0.000000  1
  Y  Y2  1  0.543878  0.456122  0.250000  1
  Y  Y3  1  0.543878  0.087758  0.250000  1
  Y  Y4  1  0.912242  0.456122  0.250000  1
  Y  Y5  1  0.456122  0.543878  0.750000  1
  Y  Y6  1  0.456122  0.912242  0.750000  1
  Y  Y7  1  0.087758  0.543878  0.750000  1
  Y  Y8  1  0.209816  0.790184  0.439102  1
  Y  Y9  1  0.209816  0.419633  0.439102  1
  Y  Y10  1  0.580367  0.790184  0.439102  1
  Y  Y11  1  0.790184  0.209816  0.560898  1
  Y  Y12  1  0.790184  0.580367  0.560898  1
  Y  Y13  1  0.419633  0.209816  0.560898  1
  Y  Y14  1  0.790184  0.209816  0.939102  1
  Y  Y15  1  0.790184  0.580367  0.939102  1
  Y  Y16  1  0.419633  0.209816  0.939102  1
  Y  Y17  1  0.209816  0.790184  0.060898  1
  Y  Y18  1  0.209816  0.419633  0.060898  1
  Y  Y19  1  0.580367  0.790184  0.060898  1
  Ni  Ni20  1  0.333333  0.666667  0.250000  1
  Ni  Ni21  1  0.666667  0.333333  0.750000  1
  Ag  Ag22  1  0.883509  0.116491  0.250000  1
  Ag  Ag23  1  0.883509  0.767016  0.250000  1
  Ag  Ag24  1  0.232984  0.116491  0.250000  1
  Ag  Ag25  1  0.116491  0.883509  0.750000  1
  Ag  Ag26  1  0.116491  0.232984  0.750000  1
  Ag  Ag27  1  0.767016  0.883509  0.750000  1
