# generated using pymatgen
data_TbTm3Rh4F28
_symmetry_space_group_name_H-M   'P 1'
_cell_length_a   5.47721631
_cell_length_b   8.83544845
_cell_length_c   11.84895817
_cell_angle_alpha   62.61920581
_cell_angle_beta   90.03897086
_cell_angle_gamma   90.01993024
_symmetry_Int_Tables_number   1
_chemical_formula_structural   TbTm3Rh4F28
_chemical_formula_sum   'Tb1 Tm3 Rh4 F28'
_cell_volume   509.17450774
_cell_formula_units_Z   1
loop_
 _symmetry_equiv_pos_site_id
 _symmetry_equiv_pos_as_xyz
  1  'x, y, z'
loop_
 _atom_site_type_symbol
 _atom_site_label
 _atom_site_symmetry_multiplicity
 _atom_site_fract_x
 _atom_site_fract_y
 _atom_site_fract_z
 _atom_site_occupancy
  Tb  Tb0  1  0.239200  0.815469  0.764763  1
  Tm  Tm1  1  0.260882  0.815512  0.264580  1
  Tm  Tm2  1  0.738241  0.188139  0.734857  1
  Tm  Tm3  1  0.761101  0.184575  0.235706  1
  Rh  Rh4  1  0.758089  0.725655  0.045520  1
  Rh  Rh5  1  0.241807  0.271917  0.957475  1
  Rh  Rh6  1  0.258632  0.275264  0.455421  1
  Rh  Rh7  1  0.742596  0.725832  0.541518  1
  F  F8  1  0.941279  0.706709  0.412634  1
  F  F9  1  0.058820  0.293643  0.584668  1
  F  F10  1  0.441787  0.291953  0.085666  1
  F  F11  1  0.561564  0.706058  0.916044  1
  F  F12  1  0.464790  0.729897  0.137812  1
  F  F13  1  0.534557  0.269976  0.863851  1
  F  F14  1  0.966375  0.270772  0.361975  1
  F  F15  1  0.035726  0.727982  0.634179  1
  F  F16  1  0.954017  0.744555  0.176435  1
  F  F17  1  0.044872  0.254144  0.826174  1
  F  F18  1  0.455600  0.256199  0.324498  1
  F  F19  1  0.550369  0.742616  0.673906  1
  F  F20  1  0.768184  0.479455  0.141689  1
  F  F21  1  0.230422  0.516975  0.860615  1
  F  F22  1  0.269309  0.521320  0.358929  1
  F  F23  1  0.731152  0.479462  0.639372  1
  F  F24  1  0.942373  0.278841  0.046199  1
  F  F25  1  0.057508  0.717913  0.958475  1
  F  F26  1  0.440869  0.720255  0.453662  1
  F  F27  1  0.558131  0.280914  0.544647  1
  F  F28  1  0.741006  0.972032  0.448284  1
  F  F29  1  0.259800  0.029591  0.548754  1
  F  F30  1  0.240443  0.026493  0.051329  1
  F  F31  1  0.760337  0.971115  0.950511  1
  F  F32  1  0.584620  0.971300  0.231108  1
  F  F33  1  0.414159  0.035210  0.769536  1
  F  F34  1  0.084796  0.028966  0.268851  1
  F  F35  1  0.906587  0.973290  0.730355  1
