# generated using pymatgen
data_Tm15Lu5(OsPt2)4
_symmetry_space_group_name_H-M   'P 1'
_cell_length_a   10.89006004
_cell_length_b   10.89123127
_cell_length_c   6.27270100
_cell_angle_alpha   90.00496613
_cell_angle_beta   89.99515961
_cell_angle_gamma   89.98835317
_symmetry_Int_Tables_number   1
_chemical_formula_structural   Tm15Lu5(OsPt2)4
_chemical_formula_sum   'Tm15 Lu5 Os4 Pt8'
_cell_volume   743.98097257
_cell_formula_units_Z   1
loop_
 _symmetry_equiv_pos_site_id
 _symmetry_equiv_pos_as_xyz
  1  'x, y, z'
loop_
 _atom_site_type_symbol
 _atom_site_label
 _atom_site_symmetry_multiplicity
 _atom_site_fract_x
 _atom_site_fract_y
 _atom_site_fract_z
 _atom_site_occupancy
  Tm  Tm0  1  0.296788  0.915093  0.872100  1
  Tm  Tm1  1  0.703001  0.085140  0.871976  1
  Tm  Tm2  1  0.703007  0.914911  0.371973  1
  Tm  Tm3  1  0.585136  0.797050  0.872078  1
  Tm  Tm4  1  0.584765  0.203050  0.372025  1
  Tm  Tm5  1  0.414608  0.797252  0.372036  1
  Tm  Tm6  1  0.414498  0.203004  0.872049  1
  Tm  Tm7  1  0.203066  0.414749  0.627888  1
  Tm  Tm8  1  0.203056  0.585194  0.128077  1
  Tm  Tm9  1  0.796914  0.414750  0.128024  1
  Tm  Tm10  1  0.796893  0.585210  0.628044  1
  Tm  Tm11  1  0.914856  0.703159  0.128030  1
  Tm  Tm12  1  0.914784  0.296880  0.628113  1
  Tm  Tm13  1  0.085204  0.703127  0.627865  1
  Tm  Tm14  1  0.085499  0.296621  0.128071  1
  Lu  Lu15  1  0.297519  0.085072  0.372711  1
  Lu  Lu16  1  0.000317  0.000136  0.499702  1
  Lu  Lu17  1  0.000117  0.000144  0.999820  1
  Lu  Lu18  1  0.499865  0.499905  0.000110  1
  Lu  Lu19  1  0.499931  0.500048  0.499904  1
  Os  Os20  1  0.499692  0.000178  0.123163  1
  Os  Os21  1  0.499678  0.000151  0.622870  1
  Os  Os22  1  0.000039  0.499982  0.877063  1
  Os  Os23  1  0.000022  0.499894  0.376997  1
  Pt  Pt24  1  0.847940  0.151939  0.250028  1
  Pt  Pt25  1  0.848086  0.848060  0.750010  1
  Pt  Pt26  1  0.152465  0.151670  0.748558  1
  Pt  Pt27  1  0.152347  0.848498  0.250242  1
  Pt  Pt28  1  0.651911  0.348020  0.749996  1
  Pt  Pt29  1  0.652013  0.651980  0.249922  1
  Pt  Pt30  1  0.347971  0.347168  0.250520  1
  Pt  Pt31  1  0.348009  0.651968  0.750031  1
