# generated using pymatgen
data_Sc22IrOs3Rh4
_symmetry_space_group_name_H-M   'P 1'
_cell_length_a   9.48623520
_cell_length_b   9.45420702
_cell_length_c   9.48623484
_cell_angle_alpha   60.11162458
_cell_angle_beta   59.87753385
_cell_angle_gamma   60.11162998
_symmetry_Int_Tables_number   1
_chemical_formula_structural   Sc22IrOs3Rh4
_chemical_formula_sum   'Sc22 Ir1 Os3 Rh4'
_cell_volume   602.03765971
_cell_formula_units_Z   1
loop_
 _symmetry_equiv_pos_site_id
 _symmetry_equiv_pos_as_xyz
  1  'x, y, z'
loop_
 _atom_site_type_symbol
 _atom_site_label
 _atom_site_symmetry_multiplicity
 _atom_site_fract_x
 _atom_site_fract_y
 _atom_site_fract_z
 _atom_site_occupancy
  Sc  Sc0  1  0.802046  0.803422  0.197954  1
  Sc  Sc1  1  0.196632  0.803368  0.196632  1
  Sc  Sc2  1  0.802046  0.196578  0.197954  1
  Sc  Sc3  1  0.197954  0.196578  0.802046  1
  Sc  Sc4  1  0.803368  0.196632  0.803368  1
  Sc  Sc5  1  0.197954  0.803422  0.802046  1
  Sc  Sc6  1  0.616629  0.615957  0.151455  1
  Sc  Sc7  1  0.614457  0.149355  0.614457  1
  Sc  Sc8  1  0.151455  0.615957  0.616629  1
  Sc  Sc9  1  0.614457  0.621730  0.614457  1
  Sc  Sc10  1  0.383371  0.384043  0.848545  1
  Sc  Sc11  1  0.385543  0.850645  0.385543  1
  Sc  Sc12  1  0.848545  0.384043  0.383371  1
  Sc  Sc13  1  0.385543  0.378270  0.385543  1
  Sc  Sc14  1  0.843159  0.843828  0.469184  1
  Sc  Sc15  1  0.844078  0.469917  0.844078  1
  Sc  Sc16  1  0.469184  0.843828  0.843159  1
  Sc  Sc17  1  0.844078  0.841927  0.844078  1
  Sc  Sc18  1  0.156841  0.156172  0.530816  1
  Sc  Sc19  1  0.155922  0.530083  0.155922  1
  Sc  Sc20  1  0.530816  0.156172  0.156841  1
  Sc  Sc21  1  0.155922  0.158073  0.155922  1
  Ir  Ir22  1  0.000000  0.500000  0.000000  1
  Os  Os23  1  0.000000  0.000000  0.000000  1
  Os  Os24  1  0.500000  0.500000  0.500000  1
  Os  Os25  1  0.500000  0.000000  0.500000  1
  Rh  Rh26  1  0.000000  0.000000  0.500000  1
  Rh  Rh27  1  0.000000  0.500000  0.500000  1
  Rh  Rh28  1  0.500000  0.500000  0.000000  1
  Rh  Rh29  1  0.500000  0.000000  0.000000  1
