# generated using pymatgen
data_Zr10CuSn2Bi4P
_symmetry_space_group_name_H-M   'P 1'
_cell_length_a   8.74011380
_cell_length_b   8.74011408
_cell_length_c   5.94397696
_cell_angle_alpha   89.96718844
_cell_angle_beta   89.96718482
_cell_angle_gamma   119.86087674
_symmetry_Int_Tables_number   1
_chemical_formula_structural   Zr10CuSn2Bi4P
_chemical_formula_sum   'Zr10 Cu1 Sn2 Bi4 P1'
_cell_volume   393.77558509
_cell_formula_units_Z   1
loop_
 _symmetry_equiv_pos_site_id
 _symmetry_equiv_pos_as_xyz
  1  'x, y, z'
loop_
 _atom_site_type_symbol
 _atom_site_label
 _atom_site_symmetry_multiplicity
 _atom_site_fract_x
 _atom_site_fract_y
 _atom_site_fract_z
 _atom_site_occupancy
  Zr  Zr0  1  0.746212  0.005539  0.259008  1
  Zr  Zr1  1  0.005539  0.746212  0.259008  1
  Zr  Zr2  1  0.253347  0.253347  0.258011  1
  Zr  Zr3  1  0.253194  0.999296  0.741138  1
  Zr  Zr4  1  0.999296  0.253194  0.741138  1
  Zr  Zr5  1  0.747112  0.747112  0.740886  1
  Zr  Zr6  1  0.330565  0.667193  0.496134  1
  Zr  Zr7  1  0.667193  0.330565  0.496134  1
  Zr  Zr8  1  0.667050  0.331131  0.002779  1
  Zr  Zr9  1  0.331131  0.667050  0.002779  1
  Cu  Cu10  1  0.999959  0.999959  0.002021  1
  Sn  Sn11  1  0.391929  0.000807  0.245129  1
  Sn  Sn12  1  0.000807  0.391929  0.245129  1
  Bi  Bi13  1  0.610034  0.610034  0.244541  1
  Bi  Bi14  1  0.605150  0.998970  0.756637  1
  Bi  Bi15  1  0.998970  0.605150  0.756637  1
  Bi  Bi16  1  0.392838  0.392838  0.755014  1
  P  P17  1  0.999675  0.999675  0.497876  1
