# generated using pymatgen
data_Hf18GaFeRe5Mo3
_symmetry_space_group_name_H-M   'P 1'
_cell_length_a   8.56209600
_cell_length_b   8.63006415
_cell_length_c   8.62712004
_cell_angle_alpha   120.00933971
_cell_angle_beta   90.00000000
_cell_angle_gamma   90.00000000
_symmetry_Int_Tables_number   1
_chemical_formula_structural   Hf18GaFeRe5Mo3
_chemical_formula_sum   'Hf18 Ga1 Fe1 Re5 Mo3'
_cell_volume   552.01351329
_cell_formula_units_Z   1
loop_
 _symmetry_equiv_pos_site_id
 _symmetry_equiv_pos_as_xyz
  1  'x, y, z'
loop_
 _atom_site_type_symbol
 _atom_site_label
 _atom_site_symmetry_multiplicity
 _atom_site_fract_x
 _atom_site_fract_y
 _atom_site_fract_z
 _atom_site_occupancy
  Hf  Hf0  1  0.547340  0.806579  0.613153  1
  Hf  Hf1  1  0.545824  0.805377  0.193669  1
  Hf  Hf2  1  0.545816  0.388283  0.193662  1
  Hf  Hf3  1  0.440300  0.202170  0.404343  1
  Hf  Hf4  1  0.440969  0.201860  0.797738  1
  Hf  Hf5  1  0.440968  0.595894  0.797743  1
  Hf  Hf6  1  0.059700  0.202170  0.404343  1
  Hf  Hf7  1  0.059031  0.201860  0.797738  1
  Hf  Hf8  1  0.059032  0.595894  0.797743  1
  Hf  Hf9  1  0.952660  0.806579  0.613153  1
  Hf  Hf10  1  0.954176  0.805377  0.193669  1
  Hf  Hf11  1  0.954184  0.388283  0.193662  1
  Hf  Hf12  1  0.750000  0.459476  0.918965  1
  Hf  Hf13  1  0.750000  0.461047  0.541626  1
  Hf  Hf14  1  0.750000  0.080561  0.541614  1
  Hf  Hf15  1  0.250000  0.539840  0.079685  1
  Hf  Hf16  1  0.250000  0.540762  0.460299  1
  Hf  Hf17  1  0.250000  0.919545  0.460289  1
  Ga  Ga18  1  0.750000  0.666757  0.333539  1
  Fe  Fe19  1  0.250000  0.333849  0.667672  1
  Re  Re20  1  0.750000  0.111068  0.887132  1
  Re  Re21  1  0.750000  0.776050  0.887122  1
  Re  Re22  1  0.250000  0.889477  0.778935  1
  Re  Re23  1  0.250000  0.888872  0.110828  1
  Re  Re24  1  0.250000  0.221949  0.110814  1
  Mo  Mo25  1  0.750000  0.110534  0.221083  1
  Mo  Mo26  1  0.501620  0.999943  0.999891  1
  Mo  Mo27  1  0.998380  0.999943  0.999891  1
