# generated using pymatgen
data_SrHf(ReO4)6
_symmetry_space_group_name_H-M   'P 1'
_cell_length_a   10.31303600
_cell_length_b   10.31303536
_cell_length_c   6.19180000
_cell_angle_alpha   90.00000000
_cell_angle_beta   90.00000000
_cell_angle_gamma   119.99999009
_symmetry_Int_Tables_number   1
_chemical_formula_structural   SrHf(ReO4)6
_chemical_formula_sum   'Sr1 Hf1 Re6 O24'
_cell_volume   570.32267053
_cell_formula_units_Z   1
loop_
 _symmetry_equiv_pos_site_id
 _symmetry_equiv_pos_as_xyz
  1  'x, y, z'
loop_
 _atom_site_type_symbol
 _atom_site_label
 _atom_site_symmetry_multiplicity
 _atom_site_fract_x
 _atom_site_fract_y
 _atom_site_fract_z
 _atom_site_occupancy
  Sr  Sr0  1  0.333333  0.666667  0.250000  1
  Hf  Hf1  1  0.666667  0.333333  0.750000  1
  Re  Re2  1  0.066327  0.383735  0.750000  1
  Re  Re3  1  0.409089  0.298075  0.250000  1
  Re  Re4  1  0.616265  0.682589  0.750000  1
  Re  Re5  1  0.888986  0.590911  0.250000  1
  Re  Re6  1  0.317411  0.933673  0.750000  1
  Re  Re7  1  0.701925  0.111014  0.250000  1
  O  O8  1  0.501846  0.643266  0.523375  1
  O  O9  1  0.356734  0.858580  0.523375  1
  O  O10  1  0.816520  0.709968  0.250000  1
  O  O11  1  0.129315  0.879079  0.750000  1
  O  O12  1  0.290032  0.106552  0.250000  1
  O  O13  1  0.120921  0.250236  0.750000  1
  O  O14  1  0.524537  0.351035  0.015734  1
  O  O15  1  0.893448  0.183480  0.250000  1
  O  O16  1  0.083194  0.696430  0.250000  1
  O  O17  1  0.141420  0.498154  0.976625  1
  O  O18  1  0.141420  0.498154  0.523375  1
  O  O19  1  0.866983  0.302577  0.750000  1
  O  O20  1  0.303570  0.386764  0.250000  1
  O  O21  1  0.697423  0.564406  0.750000  1
  O  O22  1  0.826498  0.475463  0.484266  1
  O  O23  1  0.435594  0.133017  0.750000  1
  O  O24  1  0.648965  0.173502  0.015734  1
  O  O25  1  0.501846  0.643266  0.976625  1
  O  O26  1  0.356734  0.858580  0.976625  1
  O  O27  1  0.648965  0.173502  0.484266  1
  O  O28  1  0.524537  0.351035  0.484266  1
  O  O29  1  0.826498  0.475463  0.015734  1
  O  O30  1  0.749764  0.870685  0.750000  1
  O  O31  1  0.613236  0.916806  0.250000  1
