# generated using pymatgen
data_FeBiCl6
_symmetry_space_group_name_H-M   'P 1'
_cell_length_a   7.75370868
_cell_length_b   7.73429033
_cell_length_c   9.56540921
_cell_angle_alpha   102.67803526
_cell_angle_beta   105.35401737
_cell_angle_gamma   97.39500897
_symmetry_Int_Tables_number   1
_chemical_formula_structural   FeBiCl6
_chemical_formula_sum   'Fe2 Bi2 Cl12'
_cell_volume   528.92402772
_cell_formula_units_Z   2
loop_
 _symmetry_equiv_pos_site_id
 _symmetry_equiv_pos_as_xyz
  1  'x, y, z'
loop_
 _atom_site_type_symbol
 _atom_site_label
 _atom_site_symmetry_multiplicity
 _atom_site_fract_x
 _atom_site_fract_y
 _atom_site_fract_z
 _atom_site_occupancy
  Fe  Fe0  1  0.685421  0.289288  0.849217  1
  Fe  Fe1  1  0.314579  0.710712  0.150783  1
  Bi  Bi2  1  0.807401  0.484559  0.294895  1
  Bi  Bi3  1  0.192599  0.515441  0.705105  1
  Cl  Cl4  1  0.559604  0.311939  0.353456  1
  Cl  Cl5  1  0.440396  0.688061  0.646544  1
  Cl  Cl6  1  0.755926  0.578371  0.964504  1
  Cl  Cl7  1  0.244074  0.421629  0.035496  1
  Cl  Cl8  1  0.851314  0.206828  0.703368  1
  Cl  Cl9  1  0.148686  0.793172  0.296632  1
  Cl  Cl10  1  0.740117  0.165726  0.044634  1
  Cl  Cl11  1  0.259883  0.834274  0.955366  1
  Cl  Cl12  1  0.389467  0.215109  0.714699  1
  Cl  Cl13  1  0.610533  0.784891  0.285301  1
  Cl  Cl14  1  0.065413  0.309279  0.414723  1
  Cl  Cl15  1  0.934587  0.690721  0.585277  1
