# generated using pymatgen
data_Eu2BHN2
_symmetry_space_group_name_H-M   'P 1'
_cell_length_a   3.82442600
_cell_length_b   9.61700600
_cell_length_c   10.06127500
_cell_angle_alpha   90.00000000
_cell_angle_beta   90.00000000
_cell_angle_gamma   90.00000000
_symmetry_Int_Tables_number   1
_chemical_formula_structural   Eu2BHN2
_chemical_formula_sum   'Eu8 B4 H4 N8'
_cell_volume   370.04894345
_cell_formula_units_Z   4
loop_
 _symmetry_equiv_pos_site_id
 _symmetry_equiv_pos_as_xyz
  1  'x, y, z'
loop_
 _atom_site_type_symbol
 _atom_site_label
 _atom_site_symmetry_multiplicity
 _atom_site_fract_x
 _atom_site_fract_y
 _atom_site_fract_z
 _atom_site_occupancy
  Eu  Eu0  1  0.250000  0.675857  0.520178  1
  Eu  Eu1  1  0.750000  0.324143  0.479822  1
  Eu  Eu2  1  0.250000  0.175857  0.979822  1
  Eu  Eu3  1  0.750000  0.824143  0.020178  1
  Eu  Eu4  1  0.250000  0.526409  0.160056  1
  Eu  Eu5  1  0.750000  0.473591  0.839944  1
  Eu  Eu6  1  0.250000  0.026409  0.339944  1
  Eu  Eu7  1  0.750000  0.973591  0.660056  1
  B  B8  1  0.250000  0.728472  0.825039  1
  B  B9  1  0.750000  0.271528  0.174961  1
  B  B10  1  0.250000  0.228472  0.674961  1
  B  B11  1  0.750000  0.771528  0.325039  1
  H  H12  1  0.250000  0.955749  0.102709  1
  H  H13  1  0.750000  0.044251  0.897291  1
  H  H14  1  0.250000  0.455749  0.397291  1
  H  H15  1  0.750000  0.544251  0.602709  1
  N  N16  1  0.750000  0.681626  0.223142  1
  N  N17  1  0.250000  0.318374  0.776858  1
  N  N18  1  0.750000  0.181626  0.276858  1
  N  N19  1  0.250000  0.818374  0.723142  1
  N  N20  1  0.750000  0.851127  0.436956  1
  N  N21  1  0.250000  0.148873  0.563044  1
  N  N22  1  0.750000  0.351127  0.063044  1
  N  N23  1  0.250000  0.648873  0.936956  1
