# generated using pymatgen
data_Nd2FeCo16
_symmetry_space_group_name_H-M   'P 1'
_cell_length_a   6.33541501
_cell_length_b   6.33541625
_cell_length_c   6.33541614
_cell_angle_alpha   83.16414729
_cell_angle_beta   83.16414298
_cell_angle_gamma   83.16414578
_symmetry_Int_Tables_number   1
_chemical_formula_structural   Nd2FeCo16
_chemical_formula_sum   'Nd2 Fe1 Co16'
_cell_volume   249.26310470
_cell_formula_units_Z   1
loop_
 _symmetry_equiv_pos_site_id
 _symmetry_equiv_pos_as_xyz
  1  'x, y, z'
loop_
 _atom_site_type_symbol
 _atom_site_label
 _atom_site_symmetry_multiplicity
 _atom_site_fract_x
 _atom_site_fract_y
 _atom_site_fract_z
 _atom_site_occupancy
  Nd  Nd0  1  0.655458  0.655458  0.655458  1
  Nd  Nd1  1  0.345579  0.345580  0.345580  1
  Fe  Fe2  1  0.095365  0.095365  0.095365  1
  Co  Co3  1  0.343880  0.343880  0.851624  1
  Co  Co4  1  0.851624  0.343880  0.343880  1
  Co  Co5  1  0.343880  0.851624  0.343880  1
  Co  Co6  1  0.657151  0.657151  0.149315  1
  Co  Co7  1  0.149315  0.657151  0.657151  1
  Co  Co8  1  0.657151  0.149315  0.657151  1
  Co  Co9  1  0.713688  0.285874  0.999361  1
  Co  Co10  1  0.999361  0.713688  0.285874  1
  Co  Co11  1  0.285874  0.999361  0.713688  1
  Co  Co12  1  0.999361  0.285874  0.713688  1
  Co  Co13  1  0.713688  0.999361  0.285874  1
  Co  Co14  1  0.285874  0.713688  0.999361  1
  Co  Co15  1  0.998962  0.998962  0.501544  1
  Co  Co16  1  0.501544  0.998962  0.998962  1
  Co  Co17  1  0.998962  0.501544  0.998962  1
  Co  Co18  1  0.903278  0.903278  0.903278  1
