# generated using pymatgen
data_Tb4Ga4Ni3Ru
_symmetry_space_group_name_H-M   'P 1'
_cell_length_a   4.31572300
_cell_length_b   6.84040804
_cell_length_c   7.50573705
_cell_angle_alpha   90.01251298
_cell_angle_beta   90.00000000
_cell_angle_gamma   90.00000000
_symmetry_Int_Tables_number   1
_chemical_formula_structural   Tb4Ga4Ni3Ru
_chemical_formula_sum   'Tb4 Ga4 Ni3 Ru1'
_cell_volume   221.57915710
_cell_formula_units_Z   1
loop_
 _symmetry_equiv_pos_site_id
 _symmetry_equiv_pos_as_xyz
  1  'x, y, z'
loop_
 _atom_site_type_symbol
 _atom_site_label
 _atom_site_symmetry_multiplicity
 _atom_site_fract_x
 _atom_site_fract_y
 _atom_site_fract_z
 _atom_site_occupancy
  Tb  Tb0  1  0.250000  0.026154  0.811460  1
  Tb  Tb1  1  0.250000  0.521336  0.690282  1
  Tb  Tb2  1  0.750000  0.980415  0.194935  1
  Tb  Tb3  1  0.750000  0.480866  0.305762  1
  Ga  Ga4  1  0.250000  0.170513  0.427738  1
  Ga  Ga5  1  0.250000  0.665682  0.065467  1
  Ga  Ga6  1  0.750000  0.833178  0.582218  1
  Ga  Ga7  1  0.750000  0.332550  0.926587  1
  Ni  Ni8  1  0.250000  0.287715  0.100363  1
  Ni  Ni9  1  0.750000  0.213780  0.602741  1
  Ni  Ni10  1  0.750000  0.711531  0.897368  1
  Ru  Ru11  1  0.250000  0.776280  0.395077  1
