# generated using pymatgen
data_Hf3ScMn8
_symmetry_space_group_name_H-M   'P 1'
_cell_length_a   4.88155600
_cell_length_b   4.88155520
_cell_length_c   8.17517800
_cell_angle_alpha   90.00000000
_cell_angle_beta   90.00000000
_cell_angle_gamma   120.00001900
_symmetry_Int_Tables_number   1
_chemical_formula_structural   Hf3ScMn8
_chemical_formula_sum   'Hf3 Sc1 Mn8'
_cell_volume   168.71132879
_cell_formula_units_Z   1
loop_
 _symmetry_equiv_pos_site_id
 _symmetry_equiv_pos_as_xyz
  1  'x, y, z'
loop_
 _atom_site_type_symbol
 _atom_site_label
 _atom_site_symmetry_multiplicity
 _atom_site_fract_x
 _atom_site_fract_y
 _atom_site_fract_z
 _atom_site_occupancy
  Hf  Hf0  1  0.666667  0.333333  0.564303  1
  Hf  Hf1  1  0.666667  0.333333  0.937921  1
  Hf  Hf2  1  0.333333  0.666667  0.433705  1
  Sc  Sc3  1  0.333333  0.666667  0.062905  1
  Mn  Mn4  1  0.000000  0.000000  0.500011  1
  Mn  Mn5  1  0.000000  0.000000  0.000355  1
  Mn  Mn6  1  0.171229  0.342458  0.749356  1
  Mn  Mn7  1  0.828826  0.171174  0.250911  1
  Mn  Mn8  1  0.828826  0.657652  0.250911  1
  Mn  Mn9  1  0.171229  0.828771  0.749356  1
  Mn  Mn10  1  0.657542  0.828771  0.749356  1
  Mn  Mn11  1  0.342348  0.171174  0.250911  1
