# generated using pymatgen
data_AcYb(CuO2)4
_symmetry_space_group_name_H-M   'P 1'
_cell_length_a   6.41849782
_cell_length_b   6.41849782
_cell_length_c   6.41849800
_cell_angle_alpha   124.91897282
_cell_angle_beta   124.91898370
_cell_angle_gamma   81.67226814
_symmetry_Int_Tables_number   1
_chemical_formula_structural   AcYb(CuO2)4
_chemical_formula_sum   'Ac1 Yb1 Cu4 O8'
_cell_volume   171.08289721
_cell_formula_units_Z   1
loop_
 _symmetry_equiv_pos_site_id
 _symmetry_equiv_pos_as_xyz
  1  'x, y, z'
loop_
 _atom_site_type_symbol
 _atom_site_label
 _atom_site_symmetry_multiplicity
 _atom_site_fract_x
 _atom_site_fract_y
 _atom_site_fract_z
 _atom_site_occupancy
  Ac  Ac0  1  0.750000  0.250000  0.500000  1
  Yb  Yb1  1  0.000000  0.000000  0.000000  1
  Cu  Cu2  1  0.380226  0.631712  0.260819  1
  Cu  Cu3  1  0.368288  0.629108  0.748514  1
  Cu  Cu4  1  0.880594  0.619774  0.251486  1
  Cu  Cu5  1  0.370892  0.119406  0.739181  1
  O  O6  1  0.184748  0.614606  0.890929  1
  O  O7  1  0.723678  0.293820  0.109071  1
  O  O8  1  0.329995  0.973904  0.905631  1
  O  O9  1  0.706180  0.815252  0.429858  1
  O  O10  1  0.068274  0.424364  0.094369  1
  O  O11  1  0.385394  0.276322  0.570142  1
  O  O12  1  0.026096  0.931726  0.356091  1
  O  O13  1  0.575636  0.670005  0.643909  1
