# generated using pymatgen
data_Zr(SnRh2)5
_symmetry_space_group_name_H-M   'P 1'
_cell_length_a   5.63877577
_cell_length_b   5.63877536
_cell_length_c   8.39992204
_cell_angle_alpha   89.99460385
_cell_angle_beta   89.99461017
_cell_angle_gamma   98.51014490
_symmetry_Int_Tables_number   1
_chemical_formula_structural   Zr(SnRh2)5
_chemical_formula_sum   'Zr1 Sn5 Rh10'
_cell_volume   264.14149286
_cell_formula_units_Z   1
loop_
 _symmetry_equiv_pos_site_id
 _symmetry_equiv_pos_as_xyz
  1  'x, y, z'
loop_
 _atom_site_type_symbol
 _atom_site_label
 _atom_site_symmetry_multiplicity
 _atom_site_fract_x
 _atom_site_fract_y
 _atom_site_fract_z
 _atom_site_occupancy
  Zr  Zr0  1  0.784369  0.215631  0.000000  1
  Sn  Sn1  1  0.506744  0.490865  0.751658  1
  Sn  Sn2  1  0.509135  0.493256  0.248342  1
  Sn  Sn3  1  0.791516  0.208484  0.500000  1
  Sn  Sn4  1  0.208809  0.791191  0.000000  1
  Sn  Sn5  1  0.209880  0.790120  0.500000  1
  Rh  Rh6  1  0.717961  0.726529  0.999380  1
  Rh  Rh7  1  0.720434  0.713324  0.500683  1
  Rh  Rh8  1  0.273471  0.282039  0.000620  1
  Rh  Rh9  1  0.286676  0.279566  0.499317  1
  Rh  Rh10  1  0.493340  0.989373  0.749622  1
  Rh  Rh11  1  0.493769  0.990179  0.250257  1
  Rh  Rh12  1  0.991448  0.008000  0.246431  1
  Rh  Rh13  1  0.992000  0.008552  0.753569  1
  Rh  Rh14  1  0.009821  0.506231  0.749743  1
  Rh  Rh15  1  0.010627  0.506660  0.250378  1
