# generated using pymatgen
data_Sc2Si2TcMo
_symmetry_space_group_name_H-M   'P 1'
_cell_length_a   7.06901500
_cell_length_b   3.44508500
_cell_length_c   8.15176100
_cell_angle_alpha   90.00000000
_cell_angle_beta   90.00000000
_cell_angle_gamma   90.00000000
_symmetry_Int_Tables_number   1
_chemical_formula_structural   Sc2Si2TcMo
_chemical_formula_sum   'Sc4 Si4 Tc2 Mo2'
_cell_volume   198.52275022
_cell_formula_units_Z   2
loop_
 _symmetry_equiv_pos_site_id
 _symmetry_equiv_pos_as_xyz
  1  'x, y, z'
loop_
 _atom_site_type_symbol
 _atom_site_label
 _atom_site_symmetry_multiplicity
 _atom_site_fract_x
 _atom_site_fract_y
 _atom_site_fract_z
 _atom_site_occupancy
  Sc  Sc0  1  0.040762  0.250001  0.166166  1
  Sc  Sc1  1  0.540763  0.250001  0.333833  1
  Sc  Sc2  1  0.459899  0.750001  0.667931  1
  Sc  Sc3  1  0.959899  0.750001  0.832070  1
  Si  Si4  1  0.735378  0.750001  0.135419  1
  Si  Si5  1  0.235379  0.750001  0.364581  1
  Si  Si6  1  0.764471  0.250001  0.630915  1
  Si  Si7  1  0.264471  0.250001  0.869086  1
  Tc  Tc8  1  0.367541  0.750001  0.067017  1
  Tc  Tc9  1  0.867541  0.750001  0.432983  1
  Mo  Mo10  1  0.131945  0.250001  0.565362  1
  Mo  Mo11  1  0.631945  0.250001  0.934639  1
