# generated using pymatgen
data_Hf6GaSiSb
_symmetry_space_group_name_H-M   'P 1'
_cell_length_a   7.46901700
_cell_length_b   7.46901548
_cell_length_c   3.80268000
_cell_angle_alpha   90.00000000
_cell_angle_beta   90.00000000
_cell_angle_gamma   120.00000229
_symmetry_Int_Tables_number   1
_chemical_formula_structural   Hf6GaSiSb
_chemical_formula_sum   'Hf6 Ga1 Si1 Sb1'
_cell_volume   183.71609678
_cell_formula_units_Z   1
loop_
 _symmetry_equiv_pos_site_id
 _symmetry_equiv_pos_as_xyz
  1  'x, y, z'
loop_
 _atom_site_type_symbol
 _atom_site_label
 _atom_site_symmetry_multiplicity
 _atom_site_fract_x
 _atom_site_fract_y
 _atom_site_fract_z
 _atom_site_occupancy
  Hf  Hf0  1  0.747584  0.991211  0.500000  1
  Hf  Hf1  1  0.243627  0.252416  0.500000  1
  Hf  Hf2  1  0.008789  0.756373  0.500000  1
  Hf  Hf3  1  0.007314  0.398170  0.000000  1
  Hf  Hf4  1  0.601830  0.609144  0.000000  1
  Hf  Hf5  1  0.390856  0.992686  0.000000  1
  Ga  Ga6  1  0.333333  0.666667  0.500000  1
  Si  Si7  1  0.000000  0.000000  0.000000  1
  Sb  Sb8  1  0.666667  0.333333  0.500000  1
