# generated using pymatgen
data_Pr6TiAlSiSe14
_symmetry_space_group_name_H-M   'P 1'
_cell_length_a   10.59493200
_cell_length_b   10.59493191
_cell_length_c   6.22987100
_cell_angle_alpha   90.00000000
_cell_angle_beta   90.00000000
_cell_angle_gamma   120.00001278
_symmetry_Int_Tables_number   1
_chemical_formula_structural   Pr6TiAlSiSe14
_chemical_formula_sum   'Pr6 Ti1 Al1 Si1 Se14'
_cell_volume   605.62803838
_cell_formula_units_Z   1
loop_
 _symmetry_equiv_pos_site_id
 _symmetry_equiv_pos_as_xyz
  1  'x, y, z'
loop_
 _atom_site_type_symbol
 _atom_site_label
 _atom_site_symmetry_multiplicity
 _atom_site_fract_x
 _atom_site_fract_y
 _atom_site_fract_z
 _atom_site_occupancy
  Pr  Pr0  1  0.804216  0.697708  0.523800  1
  Pr  Pr1  1  0.893492  0.195784  0.523800  1
  Pr  Pr2  1  0.302292  0.106508  0.523800  1
  Pr  Pr3  1  0.523136  0.966588  0.041452  1
  Pr  Pr4  1  0.443450  0.476864  0.041452  1
  Pr  Pr5  1  0.033412  0.556550  0.041452  1
  Ti  Ti6  1  0.666667  0.333333  0.319474  1
  Al  Al7  1  0.333333  0.666667  0.451598  1
  Si  Si8  1  0.000000  0.000000  0.942653  1
  Se  Se9  1  0.000000  0.000000  0.308750  1
  Se  Se10  1  0.333333  0.666667  0.829956  1
  Se  Se11  1  0.083531  0.854685  0.800508  1
  Se  Se12  1  0.771154  0.916469  0.800508  1
  Se  Se13  1  0.145315  0.228846  0.800508  1
  Se  Se14  1  0.240766  0.814334  0.303828  1
  Se  Se15  1  0.573567  0.759234  0.303828  1
  Se  Se16  1  0.185666  0.426433  0.303828  1
  Se  Se17  1  0.909446  0.484958  0.548314  1
  Se  Se18  1  0.575514  0.090554  0.548314  1
  Se  Se19  1  0.515042  0.424486  0.548314  1
  Se  Se20  1  0.428280  0.190492  0.078624  1
  Se  Se21  1  0.762212  0.571720  0.078624  1
  Se  Se22  1  0.809508  0.237788  0.078624  1
