# generated using pymatgen
data_Dy9ErBi6
_symmetry_space_group_name_H-M   'P 1'
_cell_length_a   8.25901000
_cell_length_b   9.51843901
_cell_length_c   12.04146602
_cell_angle_alpha   89.99361567
_cell_angle_beta   90.00000000
_cell_angle_gamma   90.00000000
_symmetry_Int_Tables_number   1
_chemical_formula_structural   Dy9ErBi6
_chemical_formula_sum   'Dy18 Er2 Bi12'
_cell_volume   946.61435349
_cell_formula_units_Z   2
loop_
 _symmetry_equiv_pos_site_id
 _symmetry_equiv_pos_as_xyz
  1  'x, y, z'
loop_
 _atom_site_type_symbol
 _atom_site_label
 _atom_site_symmetry_multiplicity
 _atom_site_fract_x
 _atom_site_fract_y
 _atom_site_fract_z
 _atom_site_occupancy
  Dy  Dy0  1  0.352495  0.749994  0.215145  1
  Dy  Dy1  1  0.852495  0.750006  0.284855  1
  Dy  Dy2  1  0.647385  0.249959  0.784815  1
  Dy  Dy3  1  0.147385  0.250041  0.715185  1
  Dy  Dy4  1  0.307323  0.063773  0.941572  1
  Dy  Dy5  1  0.807323  0.436227  0.558428  1
  Dy  Dy6  1  0.307270  0.436265  0.941559  1
  Dy  Dy7  1  0.807270  0.063735  0.558441  1
  Dy  Dy8  1  0.692782  0.935976  0.058409  1
  Dy  Dy9  1  0.192782  0.564024  0.441591  1
  Dy  Dy10  1  0.475280  0.249894  0.488195  1
  Dy  Dy11  1  0.975280  0.250106  0.011805  1
  Dy  Dy12  1  0.524333  0.750113  0.511726  1
  Dy  Dy13  1  0.024333  0.749887  0.988274  1
  Dy  Dy14  1  0.312594  0.250016  0.218709  1
  Dy  Dy15  1  0.812594  0.249984  0.281291  1
  Dy  Dy16  1  0.687413  0.749935  0.781352  1
  Dy  Dy17  1  0.187413  0.750065  0.718648  1
  Er  Er18  1  0.692670  0.564094  0.058404  1
  Er  Er19  1  0.192670  0.935906  0.441596  1
  Bi  Bi20  1  0.407572  0.749813  0.956847  1
  Bi  Bi21  1  0.907572  0.750187  0.543153  1
  Bi  Bi22  1  0.592812  0.250540  0.043329  1
  Bi  Bi23  1  0.092812  0.249460  0.456671  1
  Bi  Bi24  1  0.564647  0.995540  0.325287  1
  Bi  Bi25  1  0.064647  0.504460  0.174713  1
  Bi  Bi26  1  0.435314  0.495581  0.674807  1
  Bi  Bi27  1  0.935314  0.004419  0.825193  1
  Bi  Bi28  1  0.435324  0.004442  0.674699  1
  Bi  Bi29  1  0.935324  0.495558  0.825301  1
  Bi  Bi30  1  0.564786  0.504466  0.325170  1
  Bi  Bi31  1  0.064786  0.995534  0.174830  1
