# generated using pymatgen
data_HoErB2Cl2O5
_symmetry_space_group_name_H-M   'P 1'
_cell_length_a   5.30008900
_cell_length_b   10.11250200
_cell_length_c   14.92998600
_cell_angle_alpha   90.00000000
_cell_angle_beta   90.00000000
_cell_angle_gamma   90.00000000
_symmetry_Int_Tables_number   1
_chemical_formula_structural   HoErB2Cl2O5
_chemical_formula_sum   'Ho4 Er4 B8 Cl8 O20'
_cell_volume   800.20485759
_cell_formula_units_Z   4
loop_
 _symmetry_equiv_pos_site_id
 _symmetry_equiv_pos_as_xyz
  1  'x, y, z'
loop_
 _atom_site_type_symbol
 _atom_site_label
 _atom_site_symmetry_multiplicity
 _atom_site_fract_x
 _atom_site_fract_y
 _atom_site_fract_z
 _atom_site_occupancy
  Ho  Ho0  1  0.500000  0.530927  0.120827  1
  Ho  Ho1  1  0.500000  0.969073  0.620827  1
  Ho  Ho2  1  0.500000  0.430620  0.390788  1
  Ho  Ho3  1  0.500000  0.069380  0.890788  1
  Er  Er4  1  0.500000  0.469078  0.879074  1
  Er  Er5  1  0.500000  0.930988  0.109389  1
  Er  Er6  1  0.500000  0.030922  0.379074  1
  Er  Er7  1  0.500000  0.569012  0.609389  1
  B  B8  1  0.500000  0.302399  0.732560  1
  B  B9  1  0.500000  0.255321  0.065502  1
  B  B10  1  0.500000  0.744592  0.934468  1
  B  B11  1  0.500000  0.197601  0.232560  1
  B  B12  1  0.500000  0.755408  0.434468  1
  B  B13  1  0.500000  0.244679  0.565502  1
  B  B14  1  0.500000  0.698260  0.267288  1
  B  B15  1  0.500000  0.801740  0.767288  1
  Cl  Cl16  1  0.000000  0.412884  0.389544  1
  Cl  Cl17  1  0.000000  0.007463  0.368862  1
  Cl  Cl18  1  0.000000  0.913033  0.110442  1
  Cl  Cl19  1  0.000000  0.507287  0.131211  1
  Cl  Cl20  1  0.000000  0.492537  0.868862  1
  Cl  Cl21  1  0.000000  0.586967  0.610442  1
  Cl  Cl22  1  0.000000  0.087116  0.889544  1
  Cl  Cl23  1  0.000000  0.992713  0.631211  1
  O  O24  1  0.500000  0.866602  0.487146  1
  O  O25  1  0.500000  0.243158  0.318790  1
  O  O26  1  0.500000  0.787149  0.340585  1
  O  O27  1  0.500000  0.563371  0.275652  1
  O  O28  1  0.500000  0.936629  0.775652  1
  O  O29  1  0.500000  0.062612  0.224296  1
  O  O30  1  0.500000  0.712851  0.840585  1
  O  O31  1  0.500000  0.133886  0.512362  1
  O  O32  1  0.500000  0.744248  0.181122  1
  O  O33  1  0.500000  0.213004  0.659432  1
  O  O34  1  0.500000  0.256842  0.818790  1
  O  O35  1  0.500000  0.628881  0.464248  1
  O  O36  1  0.500000  0.755752  0.681122  1
  O  O37  1  0.500000  0.371557  0.536412  1
  O  O38  1  0.500000  0.286996  0.159432  1
  O  O39  1  0.500000  0.128443  0.036412  1
  O  O40  1  0.500000  0.633398  0.987146  1
  O  O41  1  0.500000  0.366114  0.012362  1
  O  O42  1  0.500000  0.871119  0.964248  1
  O  O43  1  0.500000  0.437388  0.724296  1
