# generated using pymatgen
data_Ti2NbB2Ru5
_symmetry_space_group_name_H-M   'P 1'
_cell_length_a   9.30107287
_cell_length_b   9.30107287
_cell_length_c   3.01945600
_cell_angle_alpha   90.00000000
_cell_angle_beta   90.00000000
_cell_angle_gamma   89.39443217
_symmetry_Int_Tables_number   1
_chemical_formula_structural   Ti2NbB2Ru5
_chemical_formula_sum   'Ti4 Nb2 B4 Ru10'
_cell_volume   261.19841802
_cell_formula_units_Z   2
loop_
 _symmetry_equiv_pos_site_id
 _symmetry_equiv_pos_as_xyz
  1  'x, y, z'
loop_
 _atom_site_type_symbol
 _atom_site_label
 _atom_site_symmetry_multiplicity
 _atom_site_fract_x
 _atom_site_fract_y
 _atom_site_fract_z
 _atom_site_occupancy
  Ti  Ti0  1  0.824539  0.675461  0.000000  1
  Ti  Ti1  1  0.175461  0.324539  0.000000  1
  Ti  Ti2  1  0.500000  0.500000  0.000000  1
  Ti  Ti3  1  0.000000  0.000000  0.000000  1
  Nb  Nb4  1  0.322811  0.822811  0.000000  1
  Nb  Nb5  1  0.677189  0.177189  0.000000  1
  B  B6  1  0.625577  0.874423  0.000000  1
  B  B7  1  0.374423  0.125577  0.000000  1
  B  B8  1  0.122141  0.622141  0.000000  1
  B  B9  1  0.877859  0.377859  0.000000  1
  Ru  Ru10  1  0.572713  0.714396  0.500000  1
  Ru  Ru11  1  0.427287  0.285604  0.500000  1
  Ru  Ru12  1  0.069959  0.784353  0.500000  1
  Ru  Ru13  1  0.930041  0.215647  0.500000  1
  Ru  Ru14  1  0.284353  0.569959  0.500000  1
  Ru  Ru15  1  0.715647  0.430041  0.500000  1
  Ru  Ru16  1  0.214396  0.072713  0.500000  1
  Ru  Ru17  1  0.785604  0.927287  0.500000  1
  Ru  Ru18  1  0.500000  0.000000  0.500000  1
  Ru  Ru19  1  0.000000  0.500000  0.500000  1
