# generated using pymatgen
data_SmGd2Mg3Si2Ag
_symmetry_space_group_name_H-M   'P 1'
_cell_length_a   7.34767076
_cell_length_b   7.34767154
_cell_length_c   4.35692600
_cell_angle_alpha   90.00000000
_cell_angle_beta   90.00000000
_cell_angle_gamma   120.24477667
_symmetry_Int_Tables_number   1
_chemical_formula_structural   SmGd2Mg3Si2Ag
_chemical_formula_sum   'Sm1 Gd2 Mg3 Si2 Ag1'
_cell_volume   203.20469749
_cell_formula_units_Z   1
loop_
 _symmetry_equiv_pos_site_id
 _symmetry_equiv_pos_as_xyz
  1  'x, y, z'
loop_
 _atom_site_type_symbol
 _atom_site_label
 _atom_site_symmetry_multiplicity
 _atom_site_fract_x
 _atom_site_fract_y
 _atom_site_fract_z
 _atom_site_occupancy
  Sm  Sm0  1  0.421840  0.421840  0.000000  1
  Gd  Gd1  1  0.577635  0.000491  0.000000  1
  Gd  Gd2  1  0.000491  0.577635  0.000000  1
  Mg  Mg3  1  0.247715  0.999832  0.500000  1
  Mg  Mg4  1  0.999832  0.247715  0.500000  1
  Mg  Mg5  1  0.752854  0.752854  0.500000  1
  Si  Si6  1  0.332765  0.667932  0.500000  1
  Si  Si7  1  0.667932  0.332765  0.500000  1
  Ag  Ag8  1  0.998936  0.998936  0.000000  1
