# generated using pymatgen
data_Sr2DyGaO5
_symmetry_space_group_name_H-M   'P 1'
_cell_length_a   5.96253300
_cell_length_b   7.62491475
_cell_length_c   12.48518369
_cell_angle_alpha   91.43061898
_cell_angle_beta   90.00000000
_cell_angle_gamma   90.00000000
_symmetry_Int_Tables_number   1
_chemical_formula_structural   Sr2DyGaO5
_chemical_formula_sum   'Sr8 Dy4 Ga4 O20'
_cell_volume   567.44703342
_cell_formula_units_Z   4
loop_
 _symmetry_equiv_pos_site_id
 _symmetry_equiv_pos_as_xyz
  1  'x, y, z'
loop_
 _atom_site_type_symbol
 _atom_site_label
 _atom_site_symmetry_multiplicity
 _atom_site_fract_x
 _atom_site_fract_y
 _atom_site_fract_z
 _atom_site_occupancy
  Sr  Sr0  1  0.772856  0.486329  0.330008  1
  Sr  Sr1  1  0.727144  0.986329  0.830008  1
  Sr  Sr2  1  0.227144  0.513671  0.669992  1
  Sr  Sr3  1  0.272856  0.013671  0.169992  1
  Sr  Sr4  1  0.772281  0.985568  0.367535  1
  Sr  Sr5  1  0.727719  0.485568  0.867535  1
  Sr  Sr6  1  0.227719  0.014432  0.632465  1
  Sr  Sr7  1  0.272281  0.514432  0.132465  1
  Dy  Dy8  1  0.754643  0.271176  0.619907  1
  Dy  Dy9  1  0.745357  0.771176  0.119907  1
  Dy  Dy10  1  0.245357  0.728824  0.380093  1
  Dy  Dy11  1  0.254643  0.228824  0.880093  1
  Ga  Ga12  1  0.719757  0.742187  0.580170  1
  Ga  Ga13  1  0.780243  0.242187  0.080170  1
  Ga  Ga14  1  0.280243  0.257813  0.419830  1
  Ga  Ga15  1  0.219757  0.757813  0.919830  1
  O  O16  1  0.789886  0.971147  0.628717  1
  O  O17  1  0.710114  0.471147  0.128717  1
  O  O18  1  0.210114  0.028853  0.371283  1
  O  O19  1  0.289886  0.528853  0.871283  1
  O  O20  1  0.716491  0.067791  0.177466  1
  O  O21  1  0.783509  0.567791  0.677466  1
  O  O22  1  0.283509  0.932209  0.822534  1
  O  O23  1  0.216491  0.432209  0.322534  1
  O  O24  1  0.541572  0.747413  0.275621  1
  O  O25  1  0.958428  0.247413  0.775621  1
  O  O26  1  0.458428  0.252587  0.724379  1
  O  O27  1  0.041572  0.752587  0.224379  1
  O  O28  1  0.597009  0.212592  0.960075  1
  O  O29  1  0.902991  0.712592  0.460075  1
  O  O30  1  0.402991  0.787408  0.039925  1
  O  O31  1  0.097009  0.287408  0.539925  1
  O  O32  1  0.090066  0.236999  0.047050  1
  O  O33  1  0.409934  0.736999  0.547050  1
  O  O34  1  0.909934  0.763001  0.952950  1
  O  O35  1  0.590066  0.263001  0.452950  1
