# generated using pymatgen
data_Sr2TbY(Ir2O7)2
_symmetry_space_group_name_H-M   'P 1'
_cell_length_a   7.36679484
_cell_length_b   7.34134750
_cell_length_c   7.35372965
_cell_angle_alpha   60.05568206
_cell_angle_beta   59.85995639
_cell_angle_gamma   60.11420418
_symmetry_Int_Tables_number   1
_chemical_formula_structural   Sr2TbY(Ir2O7)2
_chemical_formula_sum   'Sr2 Tb1 Y1 Ir4 O14'
_cell_volume   281.28091518
_cell_formula_units_Z   1
loop_
 _symmetry_equiv_pos_site_id
 _symmetry_equiv_pos_as_xyz
  1  'x, y, z'
loop_
 _atom_site_type_symbol
 _atom_site_label
 _atom_site_symmetry_multiplicity
 _atom_site_fract_x
 _atom_site_fract_y
 _atom_site_fract_z
 _atom_site_occupancy
  Sr  Sr0  1  0.125000  0.625000  0.125000  1
  Sr  Sr1  1  0.125000  0.125000  0.125000  1
  Tb  Tb2  1  0.625000  0.125000  0.125000  1
  Y  Y3  1  0.125000  0.125000  0.624999  1
  Ir  Ir4  1  0.125002  0.624999  0.625000  1
  Ir  Ir5  1  0.624999  0.125002  0.624999  1
  Ir  Ir6  1  0.625000  0.624999  0.125002  1
  Ir  Ir7  1  0.624999  0.624999  0.624999  1
  O  O8  1  0.690154  0.714797  0.298914  1
  O  O9  1  0.299021  0.296531  0.689754  1
  O  O10  1  0.702619  0.297227  0.702926  1
  O  O11  1  0.302002  0.697871  0.302255  1
  O  O12  1  0.299021  0.714694  0.689754  1
  O  O13  1  0.690154  0.296135  0.298914  1
  O  O14  1  0.559846  0.535203  0.951086  1
  O  O15  1  0.950980  0.953469  0.560246  1
  O  O16  1  0.547379  0.952773  0.547075  1
  O  O17  1  0.947996  0.552129  0.947745  1
  O  O18  1  0.950980  0.535305  0.560246  1
  O  O19  1  0.559846  0.953865  0.951086  1
  O  O20  1  0.264591  0.234216  0.266978  1
  O  O21  1  0.985410  0.015784  0.983021  1
