# generated using pymatgen
data_Sr8Mn2CoN8
_symmetry_space_group_name_H-M   'P 1'
_cell_length_a   9.73783680
_cell_length_b   9.73783689
_cell_length_c   7.51171019
_cell_angle_alpha   75.01315839
_cell_angle_beta   75.01315956
_cell_angle_gamma   31.74099559
_symmetry_Int_Tables_number   1
_chemical_formula_structural   Sr8Mn2CoN8
_chemical_formula_sum   'Sr8 Mn2 Co1 N8'
_cell_volume   360.93155398
_cell_formula_units_Z   1
loop_
 _symmetry_equiv_pos_site_id
 _symmetry_equiv_pos_as_xyz
  1  'x, y, z'
loop_
 _atom_site_type_symbol
 _atom_site_label
 _atom_site_symmetry_multiplicity
 _atom_site_fract_x
 _atom_site_fract_y
 _atom_site_fract_z
 _atom_site_occupancy
  Sr  Sr0  1  0.402552  0.402552  0.963052  1
  Sr  Sr1  1  0.334196  0.334196  0.470004  1
  Sr  Sr2  1  0.972321  0.972321  0.262520  1
  Sr  Sr3  1  0.200620  0.200620  0.194296  1
  Sr  Sr4  1  0.799380  0.799380  0.805704  1
  Sr  Sr5  1  0.027679  0.027679  0.737480  1
  Sr  Sr6  1  0.665804  0.665804  0.529996  1
  Sr  Sr7  1  0.597448  0.597448  0.036948  1
  Mn  Mn8  1  0.813176  0.813176  0.205900  1
  Mn  Mn9  1  0.186824  0.186824  0.794100  1
  Co  Co10  1  0.500000  0.500000  0.500000  1
  N  N11  1  0.275567  0.275567  0.829440  1
  N  N12  1  0.823233  0.823233  0.428417  1
  N  N13  1  0.106774  0.106774  0.985945  1
  N  N14  1  0.893226  0.893226  0.014055  1
  N  N15  1  0.176767  0.176767  0.571583  1
  N  N16  1  0.476168  0.476168  0.286286  1
  N  N17  1  0.724433  0.724433  0.170560  1
  N  N18  1  0.523832  0.523832  0.713714  1
