# generated using pymatgen
data_Li4ErTh3Si8
_symmetry_space_group_name_H-M   'P 1'
_cell_length_a   3.84447500
_cell_length_b   7.77601600
_cell_length_c   10.34938814
_cell_angle_alpha   89.96510034
_cell_angle_beta   90.00000000
_cell_angle_gamma   90.00000000
_symmetry_Int_Tables_number   1
_chemical_formula_structural   Li4ErTh3Si8
_chemical_formula_sum   'Li4 Er1 Th3 Si8'
_cell_volume   309.39178711
_cell_formula_units_Z   1
loop_
 _symmetry_equiv_pos_site_id
 _symmetry_equiv_pos_as_xyz
  1  'x, y, z'
loop_
 _atom_site_type_symbol
 _atom_site_label
 _atom_site_symmetry_multiplicity
 _atom_site_fract_x
 _atom_site_fract_y
 _atom_site_fract_z
 _atom_site_occupancy
  Li  Li0  1  0.250000  0.989668  0.396944  1
  Li  Li1  1  0.750000  0.011067  0.599580  1
  Li  Li2  1  0.250000  0.487991  0.107634  1
  Li  Li3  1  0.750000  0.510314  0.896614  1
  Er  Er4  1  0.750000  0.369089  0.362897  1
  Th  Th5  1  0.250000  0.139343  0.861900  1
  Th  Th6  1  0.750000  0.864225  0.138505  1
  Th  Th7  1  0.250000  0.633067  0.638224  1
  Si  Si8  1  0.750000  0.267773  0.071357  1
  Si  Si9  1  0.250000  0.734508  0.931261  1
  Si  Si10  1  0.750000  0.758385  0.432072  1
  Si  Si11  1  0.250000  0.238571  0.561926  1
  Si  Si12  1  0.750000  0.840000  0.816729  1
  Si  Si13  1  0.250000  0.163861  0.186341  1
  Si  Si14  1  0.750000  0.334927  0.681852  1
  Si  Si15  1  0.250000  0.657208  0.316164  1
