# generated using pymatgen
data_Sc2VRe3
_symmetry_space_group_name_H-M   'P 1'
_cell_length_a   5.26204804
_cell_length_b   5.26314588
_cell_length_c   8.58503100
_cell_angle_alpha   90.00000000
_cell_angle_beta   90.00000000
_cell_angle_gamma   120.00690407
_symmetry_Int_Tables_number   1
_chemical_formula_structural   Sc2VRe3
_chemical_formula_sum   'Sc4 V2 Re6'
_cell_volume   205.89343417
_cell_formula_units_Z   2
loop_
 _symmetry_equiv_pos_site_id
 _symmetry_equiv_pos_as_xyz
  1  'x, y, z'
loop_
 _atom_site_type_symbol
 _atom_site_label
 _atom_site_symmetry_multiplicity
 _atom_site_fract_x
 _atom_site_fract_y
 _atom_site_fract_z
 _atom_site_occupancy
  Sc  Sc0  1  0.331160  0.665580  0.438688  1
  Sc  Sc1  1  0.668840  0.334420  0.938688  1
  Sc  Sc2  1  0.668840  0.334420  0.561312  1
  Sc  Sc3  1  0.331160  0.665580  0.061312  1
  V  V4  1  0.664177  0.832089  0.750000  1
  V  V5  1  0.335823  0.167911  0.250000  1
  Re  Re6  1  0.824108  0.170763  0.250000  1
  Re  Re7  1  0.175892  0.346656  0.750000  1
  Re  Re8  1  0.175892  0.829237  0.750000  1
  Re  Re9  1  0.824108  0.653344  0.250000  1
  Re  Re10  1  0.000000  0.000000  0.500000  1
  Re  Re11  1  0.000000  0.000000  0.000000  1
