# generated using pymatgen
data_Cs4NaAgAs2
_symmetry_space_group_name_H-M   'P 1'
_cell_length_a   7.15417105
_cell_length_b   7.15417103
_cell_length_c   6.56350718
_cell_angle_alpha   88.67567225
_cell_angle_beta   88.67567203
_cell_angle_gamma   104.24786969
_symmetry_Int_Tables_number   1
_chemical_formula_structural   Cs4NaAgAs2
_chemical_formula_sum   'Cs4 Na1 Ag1 As2'
_cell_volume   325.37038820
_cell_formula_units_Z   1
loop_
 _symmetry_equiv_pos_site_id
 _symmetry_equiv_pos_as_xyz
  1  'x, y, z'
loop_
 _atom_site_type_symbol
 _atom_site_label
 _atom_site_symmetry_multiplicity
 _atom_site_fract_x
 _atom_site_fract_y
 _atom_site_fract_z
 _atom_site_occupancy
  Cs  Cs0  1  0.029450  0.689528  0.245291  1
  Cs  Cs1  1  0.970550  0.310472  0.754709  1
  Cs  Cs2  1  0.689528  0.029450  0.245291  1
  Cs  Cs3  1  0.310472  0.970550  0.754709  1
  Na  Na4  1  0.500000  0.500000  0.500000  1
  Ag  Ag5  1  0.500000  0.500000  0.000000  1
  As  As6  1  0.746115  0.746115  0.771014  1
  As  As7  1  0.253885  0.253885  0.228986  1
