# generated using pymatgen
data_TbEr4InSb2
_symmetry_space_group_name_H-M   'P 1'
_cell_length_a   8.92598174
_cell_length_b   8.87963629
_cell_length_c   6.42991600
_cell_angle_alpha   90.00000000
_cell_angle_beta   90.00000000
_cell_angle_gamma   119.82838545
_symmetry_Int_Tables_number   1
_chemical_formula_structural   TbEr4InSb2
_chemical_formula_sum   'Tb2 Er8 In2 Sb4'
_cell_volume   442.11528928
_cell_formula_units_Z   2
loop_
 _symmetry_equiv_pos_site_id
 _symmetry_equiv_pos_as_xyz
  1  'x, y, z'
loop_
 _atom_site_type_symbol
 _atom_site_label
 _atom_site_symmetry_multiplicity
 _atom_site_fract_x
 _atom_site_fract_y
 _atom_site_fract_z
 _atom_site_occupancy
  Tb  Tb0  1  0.002209  0.761068  0.750000  1
  Tb  Tb1  1  0.002209  0.241142  0.250000  1
  Er  Er2  1  0.757672  0.759681  0.250000  1
  Er  Er3  1  0.757672  0.997991  0.750000  1
  Er  Er4  1  0.241614  0.237398  0.750000  1
  Er  Er5  1  0.241614  0.004217  0.250000  1
  Er  Er6  1  0.333973  0.666987  0.500000  1
  Er  Er7  1  0.663085  0.331542  0.000000  1
  Er  Er8  1  0.663085  0.331542  0.500000  1
  Er  Er9  1  0.333973  0.666987  0.000000  1
  In  In10  1  0.395990  0.999103  0.750000  1
  In  In11  1  0.395990  0.396887  0.250000  1
  Sb  Sb12  1  0.999114  0.608688  0.250000  1
  Sb  Sb13  1  0.999114  0.390425  0.750000  1
  Sb  Sb14  1  0.606342  0.606826  0.750000  1
  Sb  Sb15  1  0.606342  0.999516  0.250000  1
