# generated using pymatgen
data_Y4Er16Cd6RuPt
_symmetry_space_group_name_H-M   'P 1'
_cell_length_a   9.58739900
_cell_length_b   9.58710707
_cell_length_c   9.76835900
_cell_angle_alpha   90.00000000
_cell_angle_beta   90.00000000
_cell_angle_gamma   119.99899922
_symmetry_Int_Tables_number   1
_chemical_formula_structural   Y4Er16Cd6RuPt
_chemical_formula_sum   'Y4 Er16 Cd6 Ru1 Pt1'
_cell_volume   777.57985883
_cell_formula_units_Z   1
loop_
 _symmetry_equiv_pos_site_id
 _symmetry_equiv_pos_as_xyz
  1  'x, y, z'
loop_
 _atom_site_type_symbol
 _atom_site_label
 _atom_site_symmetry_multiplicity
 _atom_site_fract_x
 _atom_site_fract_y
 _atom_site_fract_z
 _atom_site_occupancy
  Y  Y0  1  0.542223  0.457850  0.250000  1
  Y  Y1  1  0.542223  0.084372  0.250000  1
  Y  Y2  1  0.915681  0.457840  0.250000  1
  Y  Y3  1  0.082539  0.541270  0.750000  1
  Er  Er4  1  0.999967  0.999983  0.499342  1
  Er  Er5  1  0.999967  0.999983  0.000658  1
  Er  Er6  1  0.208710  0.791803  0.442343  1
  Er  Er7  1  0.208710  0.416908  0.442343  1
  Er  Er8  1  0.582984  0.791493  0.442624  1
  Er  Er9  1  0.789798  0.209436  0.560690  1
  Er  Er10  1  0.789798  0.580361  0.560690  1
  Er  Er11  1  0.419563  0.209781  0.560834  1
  Er  Er12  1  0.789798  0.209436  0.939310  1
  Er  Er13  1  0.789798  0.580361  0.939310  1
  Er  Er14  1  0.419563  0.209781  0.939166  1
  Er  Er15  1  0.208710  0.791803  0.057657  1
  Er  Er16  1  0.208710  0.416908  0.057657  1
  Er  Er17  1  0.582984  0.791493  0.057376  1
  Er  Er18  1  0.459299  0.541128  0.750000  1
  Er  Er19  1  0.459299  0.918172  0.750000  1
  Cd  Cd20  1  0.885555  0.114346  0.250000  1
  Cd  Cd21  1  0.885555  0.771210  0.250000  1
  Cd  Cd22  1  0.228821  0.114411  0.250000  1
  Cd  Cd23  1  0.114818  0.885805  0.750000  1
  Cd  Cd24  1  0.114818  0.229011  0.750000  1
  Cd  Cd25  1  0.770513  0.885255  0.750000  1
  Ru  Ru26  1  0.666338  0.333168  0.750000  1
  Pt  Pt27  1  0.333256  0.666628  0.250000  1
