# generated using pymatgen
data_Eu2Ni2PPt6
_symmetry_space_group_name_H-M   'P 1'
_cell_length_a   9.20199121
_cell_length_b   9.20199043
_cell_length_c   4.07485200
_cell_angle_alpha   90.00000000
_cell_angle_beta   90.00000000
_cell_angle_gamma   145.81043615
_symmetry_Int_Tables_number   1
_chemical_formula_structural   Eu2Ni2PPt6
_chemical_formula_sum   'Eu2 Ni2 P1 Pt6'
_cell_volume   193.89193804
_cell_formula_units_Z   1
loop_
 _symmetry_equiv_pos_site_id
 _symmetry_equiv_pos_as_xyz
  1  'x, y, z'
loop_
 _atom_site_type_symbol
 _atom_site_label
 _atom_site_symmetry_multiplicity
 _atom_site_fract_x
 _atom_site_fract_y
 _atom_site_fract_z
 _atom_site_occupancy
  Eu  Eu0  1  0.620139  0.370240  0.500000  1
  Eu  Eu1  1  0.370240  0.620139  0.500000  1
  Ni  Ni2  1  0.197058  0.789034  0.500000  1
  Ni  Ni3  1  0.789034  0.197058  0.500000  1
  P  P4  1  0.221001  0.221001  0.000000  1
  Pt  Pt5  1  0.113420  0.884883  0.000000  1
  Pt  Pt6  1  0.884883  0.113420  0.000000  1
  Pt  Pt7  1  0.493073  0.991499  0.000000  1
  Pt  Pt8  1  0.991499  0.493073  0.000000  1
  Pt  Pt9  1  0.001137  0.001137  0.500000  1
  Pt  Pt10  1  0.632114  0.632114  0.000000  1
