# generated using pymatgen
data_Pa2MnAl9Rh2
_symmetry_space_group_name_H-M   'P 1'
_cell_length_a   7.57343372
_cell_length_b   7.57343352
_cell_length_c   9.29592123
_cell_angle_alpha   89.89594723
_cell_angle_beta   89.89595136
_cell_angle_gamma   119.19416506
_symmetry_Int_Tables_number   1
_chemical_formula_structural   Pa2MnAl9Rh2
_chemical_formula_sum   'Pa4 Mn2 Al18 Rh4'
_cell_volume   465.45261852
_cell_formula_units_Z   2
loop_
 _symmetry_equiv_pos_site_id
 _symmetry_equiv_pos_as_xyz
  1  'x, y, z'
loop_
 _atom_site_type_symbol
 _atom_site_label
 _atom_site_symmetry_multiplicity
 _atom_site_fract_x
 _atom_site_fract_y
 _atom_site_fract_z
 _atom_site_occupancy
  Pa  Pa0  1  0.991459  0.674429  0.741530  1
  Pa  Pa1  1  0.999795  0.321340  0.257478  1
  Pa  Pa2  1  0.678660  0.000205  0.742522  1
  Pa  Pa3  1  0.325571  0.008541  0.258470  1
  Mn  Mn4  1  0.676723  0.323277  0.500000  1
  Mn  Mn5  1  0.000337  0.999663  0.500000  1
  Al  Al6  1  0.129303  0.130477  0.746536  1
  Al  Al7  1  0.869523  0.870697  0.253464  1
  Al  Al8  1  0.002320  0.334118  0.576303  1
  Al  Al9  1  0.991878  0.661444  0.420976  1
  Al  Al10  1  0.998449  0.663895  0.077726  1
  Al  Al11  1  0.336105  0.001551  0.922274  1
  Al  Al12  1  0.003293  0.338787  0.923441  1
  Al  Al13  1  0.661213  0.996707  0.076559  1
  Al  Al14  1  0.665882  0.997680  0.423697  1
  Al  Al15  1  0.338556  0.008122  0.579024  1
  Al  Al16  1  0.334301  0.335056  0.052553  1
  Al  Al17  1  0.664944  0.665699  0.947447  1
  Al  Al18  1  0.668578  0.663509  0.543085  1
  Al  Al19  1  0.336491  0.331422  0.456915  1
  Al  Al20  1  0.343489  0.552178  0.749955  1
  Al  Al21  1  0.657229  0.447177  0.254556  1
  Al  Al22  1  0.552823  0.342771  0.745444  1
  Al  Al23  1  0.447822  0.656511  0.250045  1
  Rh  Rh24  1  0.325952  0.674048  0.500000  1
  Rh  Rh25  1  0.326782  0.673218  0.000000  1
  Rh  Rh26  1  0.672631  0.327369  0.000000  1
  Rh  Rh27  1  0.999893  0.000107  0.000000  1
