# generated using pymatgen
data_Sm6Zn20Pd3S
_symmetry_space_group_name_H-M   'P 1'
_cell_length_a   9.02579555
_cell_length_b   9.02579430
_cell_length_c   9.04894400
_cell_angle_alpha   59.91512686
_cell_angle_beta   59.91513145
_cell_angle_gamma   60.16974587
_symmetry_Int_Tables_number   1
_chemical_formula_structural   Sm6Zn20Pd3S
_chemical_formula_sum   'Sm6 Zn20 Pd3 S1'
_cell_volume   521.25245389
_cell_formula_units_Z   1
loop_
 _symmetry_equiv_pos_site_id
 _symmetry_equiv_pos_as_xyz
  1  'x, y, z'
loop_
 _atom_site_type_symbol
 _atom_site_label
 _atom_site_symmetry_multiplicity
 _atom_site_fract_x
 _atom_site_fract_y
 _atom_site_fract_z
 _atom_site_occupancy
  Sm  Sm0  1  0.713881  0.286119  0.286119  1
  Sm  Sm1  1  0.286119  0.713881  0.713881  1
  Sm  Sm2  1  0.286119  0.713881  0.286119  1
  Sm  Sm3  1  0.713881  0.286119  0.713881  1
  Sm  Sm4  1  0.282533  0.282533  0.717467  1
  Sm  Sm5  1  0.717467  0.717467  0.282533  1
  Zn  Zn6  1  0.119740  0.119740  0.127240  1
  Zn  Zn7  1  0.880260  0.880260  0.872760  1
  Zn  Zn8  1  0.119740  0.119740  0.633281  1
  Zn  Zn9  1  0.127240  0.633281  0.119740  1
  Zn  Zn10  1  0.880260  0.880260  0.366719  1
  Zn  Zn11  1  0.872760  0.366719  0.880260  1
  Zn  Zn12  1  0.633281  0.127240  0.119740  1
  Zn  Zn13  1  0.366719  0.872760  0.880260  1
  Zn  Zn14  1  0.500000  0.000000  0.000000  1
  Zn  Zn15  1  0.000000  0.500000  0.500000  1
  Zn  Zn16  1  0.000000  0.500000  0.000000  1
  Zn  Zn17  1  0.500000  0.000000  0.500000  1
  Zn  Zn18  1  0.326490  0.326490  0.329398  1
  Zn  Zn19  1  0.673510  0.673510  0.670602  1
  Zn  Zn20  1  0.326490  0.326490  0.017624  1
  Zn  Zn21  1  0.329398  0.017624  0.326490  1
  Zn  Zn22  1  0.673510  0.673510  0.982376  1
  Zn  Zn23  1  0.670602  0.982376  0.673510  1
  Zn  Zn24  1  0.017624  0.329398  0.326490  1
  Zn  Zn25  1  0.982376  0.670602  0.673510  1
  Pd  Pd26  1  0.000000  0.000000  0.500000  1
  Pd  Pd27  1  0.500000  0.500000  0.000000  1
  Pd  Pd28  1  0.000000  0.000000  0.000000  1
  S  S29  1  0.500000  0.500000  0.500000  1
