# generated using pymatgen
data_Gd6GeP5N12
_symmetry_space_group_name_H-M   'P 1'
_cell_length_a   9.06868178
_cell_length_b   7.51184078
_cell_length_c   7.61839308
_cell_angle_alpha   105.18908805
_cell_angle_beta   115.10455705
_cell_angle_gamma   112.29195177
_symmetry_Int_Tables_number   1
_chemical_formula_structural   Gd6GeP5N12
_chemical_formula_sum   'Gd6 Ge1 P5 N12'
_cell_volume   375.36773351
_cell_formula_units_Z   1
loop_
 _symmetry_equiv_pos_site_id
 _symmetry_equiv_pos_as_xyz
  1  'x, y, z'
loop_
 _atom_site_type_symbol
 _atom_site_label
 _atom_site_symmetry_multiplicity
 _atom_site_fract_x
 _atom_site_fract_y
 _atom_site_fract_z
 _atom_site_occupancy
  Gd  Gd0  1  0.224601  0.576591  0.431088  1
  Gd  Gd1  1  0.772737  0.545023  0.147811  1
  Gd  Gd2  1  0.639707  0.850816  0.410067  1
  Gd  Gd3  1  0.718934  0.440134  0.582045  1
  Gd  Gd4  1  0.133117  0.406890  0.855314  1
  Gd  Gd5  1  0.275885  0.134600  0.554634  1
  Ge  Ge6  1  0.847118  0.189676  0.308188  1
  P  P7  1  0.590054  0.726892  0.872661  1
  P  P8  1  0.706556  0.145332  0.843567  1
  P  P9  1  0.340763  0.280881  0.146910  1
  P  P10  1  0.196693  0.843856  0.136628  1
  P  P11  1  0.057129  0.854326  0.702460  1
  N  N12  1  0.893327  0.295626  0.117245  1
  N  N13  1  0.735574  0.863761  0.148564  1
  N  N14  1  0.622500  0.864950  0.739061  1
  N  N15  1  0.368722  0.123944  0.269493  1
  N  N16  1  0.098566  0.724864  0.855577  1
  N  N17  1  0.244044  0.131436  0.869455  1
  N  N18  1  0.583749  0.501244  0.777160  1
  N  N19  1  0.802904  0.211233  0.709527  1
  N  N20  1  0.116334  0.304867  0.527443  1
  N  N21  1  0.087850  0.769004  0.504660  1
  N  N22  1  0.571042  0.485306  0.268947  1
  N  N23  1  0.316095  0.728749  0.221497  1
