# generated using pymatgen
data_Sc2MnRu3
_symmetry_space_group_name_H-M   'P 1'
_cell_length_a   5.11931654
_cell_length_b   5.02293808
_cell_length_c   8.64800900
_cell_angle_alpha   90.00000000
_cell_angle_beta   90.00000000
_cell_angle_gamma   119.37915169
_symmetry_Int_Tables_number   1
_chemical_formula_structural   Sc2MnRu3
_chemical_formula_sum   'Sc4 Mn2 Ru6'
_cell_volume   193.77587146
_cell_formula_units_Z   2
loop_
 _symmetry_equiv_pos_site_id
 _symmetry_equiv_pos_as_xyz
  1  'x, y, z'
loop_
 _atom_site_type_symbol
 _atom_site_label
 _atom_site_symmetry_multiplicity
 _atom_site_fract_x
 _atom_site_fract_y
 _atom_site_fract_z
 _atom_site_occupancy
  Sc  Sc0  1  0.331200  0.664531  0.065727  1
  Sc  Sc1  1  0.668800  0.333330  0.565727  1
  Sc  Sc2  1  0.668800  0.333330  0.934273  1
  Sc  Sc3  1  0.331200  0.664531  0.434273  1
  Mn  Mn4  1  0.830257  0.170859  0.250000  1
  Mn  Mn5  1  0.169743  0.340602  0.750000  1
  Ru  Ru6  1  0.000000  0.006605  0.000000  1
  Ru  Ru7  1  0.000000  0.006605  0.500000  1
  Ru  Ru8  1  0.831486  0.657620  0.250000  1
  Ru  Ru9  1  0.168514  0.826135  0.750000  1
  Ru  Ru10  1  0.651097  0.823474  0.750000  1
  Ru  Ru11  1  0.348903  0.172377  0.250000  1
