# generated using pymatgen
data_Tb4Ga4GeRh9
_symmetry_space_group_name_H-M   'P 1'
_cell_length_a   12.12784330
_cell_length_b   12.12784324
_cell_length_c   12.12784418
_cell_angle_alpha   26.64388579
_cell_angle_beta   26.64388622
_cell_angle_gamma   26.64388496
_symmetry_Int_Tables_number   1
_chemical_formula_structural   Tb4Ga4GeRh9
_chemical_formula_sum   'Tb4 Ga4 Ge1 Rh9'
_cell_volume   316.26212054
_cell_formula_units_Z   1
loop_
 _symmetry_equiv_pos_site_id
 _symmetry_equiv_pos_as_xyz
  1  'x, y, z'
loop_
 _atom_site_type_symbol
 _atom_site_label
 _atom_site_symmetry_multiplicity
 _atom_site_fract_x
 _atom_site_fract_y
 _atom_site_fract_z
 _atom_site_occupancy
  Tb  Tb0  1  0.950286  0.950286  0.950286  1
  Tb  Tb1  1  0.853194  0.853194  0.853194  1
  Tb  Tb2  1  0.146193  0.146193  0.146193  1
  Tb  Tb3  1  0.048445  0.048445  0.048445  1
  Ga  Ga4  1  0.278185  0.278185  0.278185  1
  Ga  Ga5  1  0.500263  0.500263  0.500263  1
  Ga  Ga6  1  0.389339  0.389339  0.389339  1
  Ga  Ga7  1  0.722090  0.722090  0.722090  1
  Ge  Ge8  1  0.610754  0.610754  0.610754  1
  Rh  Rh9  1  0.613479  0.613479  0.106205  1
  Rh  Rh10  1  0.894627  0.387625  0.387625  1
  Rh  Rh11  1  0.499700  0.998811  0.499700  1
  Rh  Rh12  1  0.387625  0.894627  0.387625  1
  Rh  Rh13  1  0.499700  0.499700  0.998811  1
  Rh  Rh14  1  0.106205  0.613479  0.613479  1
  Rh  Rh15  1  0.998811  0.499700  0.499700  1
  Rh  Rh16  1  0.387625  0.387625  0.894627  1
  Rh  Rh17  1  0.613479  0.106205  0.613479  1
