# generated using pymatgen
data_Li4YCoNi8As7
_symmetry_space_group_name_H-M   'P 1'
_cell_length_a   9.43820869
_cell_length_b   9.40192429
_cell_length_c   3.82475400
_cell_angle_alpha   90.00000000
_cell_angle_beta   90.00000000
_cell_angle_gamma   119.93200982
_symmetry_Int_Tables_number   1
_chemical_formula_structural   Li4YCoNi8As7
_chemical_formula_sum   'Li4 Y1 Co1 Ni8 As7'
_cell_volume   294.12883218
_cell_formula_units_Z   1
loop_
 _symmetry_equiv_pos_site_id
 _symmetry_equiv_pos_as_xyz
  1  'x, y, z'
loop_
 _atom_site_type_symbol
 _atom_site_label
 _atom_site_symmetry_multiplicity
 _atom_site_fract_x
 _atom_site_fract_y
 _atom_site_fract_z
 _atom_site_occupancy
  Li  Li0  1  0.773809  0.545301  0.500000  1
  Li  Li1  1  0.455132  0.228830  0.500000  1
  Li  Li2  1  0.771583  0.226172  0.500000  1
  Li  Li3  1  0.000071  0.000344  0.500000  1
  Y  Y4  1  0.333005  0.666716  0.000000  1
  Co  Co5  1  0.274693  0.375033  0.500000  1
  Ni  Ni6  1  0.624930  0.899136  0.500000  1
  Ni  Ni7  1  0.101080  0.725964  0.500000  1
  Ni  Ni8  1  0.496260  0.451753  0.000000  1
  Ni  Ni9  1  0.548732  0.045015  0.000000  1
  Ni  Ni10  1  0.955263  0.503943  0.000000  1
  Ni  Ni11  1  0.716272  0.761985  0.000000  1
  Ni  Ni12  1  0.238037  0.954838  0.000000  1
  Ni  Ni13  1  0.045287  0.284349  0.000000  1
  As  As14  1  0.963472  0.756727  0.000000  1
  As  As15  1  0.243681  0.209649  0.000000  1
  As  As16  1  0.793261  0.036948  0.000000  1
  As  As17  1  0.667299  0.333898  0.000000  1
  As  As18  1  0.543244  0.615559  0.500000  1
  As  As19  1  0.380980  0.926126  0.500000  1
  As  As20  1  0.073907  0.451714  0.500000  1
