# generated using pymatgen
data_Tb16Cd3NiHgIr3
_symmetry_space_group_name_H-M   'P 1'
_cell_length_a   9.62991204
_cell_length_b   9.62991259
_cell_length_c   9.62991347
_cell_angle_alpha   60.29459532
_cell_angle_beta   60.29459926
_cell_angle_gamma   60.29459982
_symmetry_Int_Tables_number   1
_chemical_formula_structural   Tb16Cd3NiHgIr3
_chemical_formula_sum   'Tb16 Cd3 Ni1 Hg1 Ir3'
_cell_volume   635.67887646
_cell_formula_units_Z   1
loop_
 _symmetry_equiv_pos_site_id
 _symmetry_equiv_pos_as_xyz
  1  'x, y, z'
loop_
 _atom_site_type_symbol
 _atom_site_label
 _atom_site_symmetry_multiplicity
 _atom_site_fract_x
 _atom_site_fract_y
 _atom_site_fract_z
 _atom_site_occupancy
  Tb  Tb0  1  0.598504  0.598504  0.598504  1
  Tb  Tb1  1  0.599384  0.599384  0.201121  1
  Tb  Tb2  1  0.599384  0.201121  0.599384  1
  Tb  Tb3  1  0.201121  0.599384  0.599384  1
  Tb  Tb4  1  0.061315  0.439960  0.439960  1
  Tb  Tb5  1  0.438183  0.059605  0.059605  1
  Tb  Tb6  1  0.439960  0.061315  0.439960  1
  Tb  Tb7  1  0.059605  0.438183  0.059605  1
  Tb  Tb8  1  0.439960  0.439960  0.061315  1
  Tb  Tb9  1  0.059605  0.059605  0.438183  1
  Tb  Tb10  1  0.188465  0.811445  0.811445  1
  Tb  Tb11  1  0.813418  0.187219  0.187219  1
  Tb  Tb12  1  0.811445  0.188465  0.811445  1
  Tb  Tb13  1  0.187219  0.813418  0.187219  1
  Tb  Tb14  1  0.811445  0.811445  0.188465  1
  Tb  Tb15  1  0.187219  0.187219  0.813418  1
  Cd  Cd16  1  0.831302  0.831302  0.506151  1
  Cd  Cd17  1  0.831302  0.506151  0.831302  1
  Cd  Cd18  1  0.506151  0.831302  0.831302  1
  Ni  Ni19  1  0.392272  0.392272  0.392272  1
  Hg  Hg20  1  0.833561  0.833561  0.833561  1
  Ir  Ir21  1  0.392239  0.392239  0.824706  1
  Ir  Ir22  1  0.392239  0.824706  0.392239  1
  Ir  Ir23  1  0.824706  0.392239  0.392239  1
