# generated using pymatgen
data_Ga4Hg11As3PBr16
_symmetry_space_group_name_H-M   'P 1'
_cell_length_a   7.95059701
_cell_length_b   7.95059674
_cell_length_c   22.95311019
_cell_angle_alpha   81.97869536
_cell_angle_beta   81.97869581
_cell_angle_gamma   59.62749070
_symmetry_Int_Tables_number   1
_chemical_formula_structural   Ga4Hg11As3PBr16
_chemical_formula_sum   'Ga4 Hg11 As3 P1 Br16'
_cell_volume   1235.48834497
_cell_formula_units_Z   1
loop_
 _symmetry_equiv_pos_site_id
 _symmetry_equiv_pos_as_xyz
  1  'x, y, z'
loop_
 _atom_site_type_symbol
 _atom_site_label
 _atom_site_symmetry_multiplicity
 _atom_site_fract_x
 _atom_site_fract_y
 _atom_site_fract_z
 _atom_site_occupancy
  Ga  Ga0  1  0.638465  0.638465  0.110945  1
  Ga  Ga1  1  0.361591  0.361591  0.888991  1
  Ga  Ga2  1  0.757897  0.757897  0.614653  1
  Ga  Ga3  1  0.241976  0.241976  0.385385  1
  Hg  Hg4  1  0.030646  0.030646  0.885827  1
  Hg  Hg5  1  0.767995  0.767995  0.280325  1
  Hg  Hg6  1  0.474669  0.474669  0.556349  1
  Hg  Hg7  1  0.733354  0.234731  0.721524  1
  Hg  Hg8  1  0.262682  0.767660  0.275894  1
  Hg  Hg9  1  0.767660  0.262682  0.275894  1
  Hg  Hg10  1  0.234731  0.733354  0.721524  1
  Hg  Hg11  1  0.528546  0.528546  0.439168  1
  Hg  Hg12  1  0.967494  0.967494  0.123398  1
  Hg  Hg13  1  0.998862  0.998862  0.004733  1
  Hg  Hg14  1  0.234210  0.234210  0.716587  1
  As  As15  1  0.056941  0.056941  0.768514  1
  As  As16  1  0.585642  0.585642  0.324136  1
  As  As17  1  0.415568  0.415568  0.670648  1
  P  P18  1  0.941835  0.941835  0.235667  1
  Br  Br19  1  0.532864  0.051449  0.849127  1
  Br  Br20  1  0.072489  0.072489  0.421235  1
  Br  Br21  1  0.531800  0.531800  0.848846  1
  Br  Br22  1  0.435115  0.924980  0.584855  1
  Br  Br23  1  0.737273  0.737273  0.719053  1
  Br  Br24  1  0.335604  0.335604  0.991559  1
  Br  Br25  1  0.466961  0.948170  0.151474  1
  Br  Br26  1  0.948170  0.466961  0.151474  1
  Br  Br27  1  0.468223  0.468223  0.151782  1
  Br  Br28  1  0.565436  0.074813  0.414361  1
  Br  Br29  1  0.664132  0.664132  0.008687  1
  Br  Br30  1  0.924980  0.435115  0.584855  1
  Br  Br31  1  0.262601  0.262601  0.280754  1
  Br  Br32  1  0.074813  0.565436  0.414361  1
  Br  Br33  1  0.927327  0.927327  0.578287  1
  Br  Br34  1  0.051449  0.532864  0.849127  1
