# generated using pymatgen
data_Ce6Al43Cr4
_symmetry_space_group_name_H-M   'P 1'
_cell_length_a   10.95753600
_cell_length_b   10.95753690
_cell_length_c   17.61768000
_cell_angle_alpha   90.00000000
_cell_angle_beta   90.00000000
_cell_angle_gamma   120.00000332
_symmetry_Int_Tables_number   1
_chemical_formula_structural   Ce6Al43Cr4
_chemical_formula_sum   'Ce12 Al86 Cr8'
_cell_volume   1831.91442537
_cell_formula_units_Z   2
loop_
 _symmetry_equiv_pos_site_id
 _symmetry_equiv_pos_as_xyz
  1  'x, y, z'
loop_
 _atom_site_type_symbol
 _atom_site_label
 _atom_site_symmetry_multiplicity
 _atom_site_fract_x
 _atom_site_fract_y
 _atom_site_fract_z
 _atom_site_occupancy
  Ce  Ce0  1  0.529022  0.000000  0.593315  1
  Ce  Ce1  1  0.470978  0.000000  0.406685  1
  Ce  Ce2  1  0.000000  0.529022  0.593315  1
  Ce  Ce3  1  0.470978  0.000000  0.093315  1
  Ce  Ce4  1  0.000000  0.529022  0.906685  1
  Ce  Ce5  1  0.000000  0.470978  0.406685  1
  Ce  Ce6  1  0.529022  0.000000  0.906685  1
  Ce  Ce7  1  0.000000  0.470978  0.093315  1
  Ce  Ce8  1  0.470978  0.470978  0.593315  1
  Ce  Ce9  1  0.529022  0.529022  0.406685  1
  Ce  Ce10  1  0.529022  0.529022  0.093315  1
  Ce  Ce11  1  0.470978  0.470978  0.906685  1
  Al  Al12  1  0.246697  0.493393  0.500000  1
  Al  Al13  1  0.753303  0.506607  0.500000  1
  Al  Al14  1  0.506607  0.753303  0.500000  1
  Al  Al15  1  0.753303  0.506607  0.000000  1
  Al  Al16  1  0.493393  0.246697  0.000000  1
  Al  Al17  1  0.493393  0.246697  0.500000  1
  Al  Al18  1  0.246697  0.493393  0.000000  1
  Al  Al19  1  0.506607  0.753303  0.000000  1
  Al  Al20  1  0.246697  0.753303  0.500000  1
  Al  Al21  1  0.753303  0.246697  0.500000  1
  Al  Al22  1  0.753303  0.246697  0.000000  1
  Al  Al23  1  0.246697  0.753303  0.000000  1
  Al  Al24  1  0.156752  0.000000  0.115469  1
  Al  Al25  1  0.843248  0.000000  0.884531  1
  Al  Al26  1  0.000000  0.156752  0.115469  1
  Al  Al27  1  0.843248  0.000000  0.615469  1
  Al  Al28  1  0.000000  0.156752  0.384531  1
  Al  Al29  1  0.000000  0.843248  0.884531  1
  Al  Al30  1  0.156752  0.000000  0.384531  1
  Al  Al31  1  0.000000  0.843248  0.615469  1
  Al  Al32  1  0.843248  0.843248  0.115469  1
  Al  Al33  1  0.156752  0.156752  0.884531  1
  Al  Al34  1  0.156752  0.156752  0.615469  1
  Al  Al35  1  0.843248  0.843248  0.384531  1
  Al  Al36  1  0.249256  0.000000  0.530302  1
  Al  Al37  1  0.750744  0.000000  0.469698  1
  Al  Al38  1  0.000000  0.249256  0.530302  1
  Al  Al39  1  0.750744  0.000000  0.030302  1
  Al  Al40  1  0.000000  0.249256  0.969698  1
  Al  Al41  1  0.000000  0.750744  0.469698  1
  Al  Al42  1  0.249256  0.000000  0.969698  1
  Al  Al43  1  0.000000  0.750744  0.030302  1
  Al  Al44  1  0.750744  0.750744  0.530302  1
  Al  Al45  1  0.249256  0.249256  0.469698  1
  Al  Al46  1  0.249256  0.249256  0.030302  1
  Al  Al47  1  0.750744  0.750744  0.969698  1
  Al  Al48  1  0.142799  0.597042  0.750000  1
  Al  Al49  1  0.857201  0.402958  0.250000  1
  Al  Al50  1  0.402958  0.545757  0.750000  1
  Al  Al51  1  0.597042  0.142799  0.750000  1
  Al  Al52  1  0.597042  0.454243  0.250000  1
  Al  Al53  1  0.402958  0.857201  0.250000  1
  Al  Al54  1  0.454243  0.857201  0.750000  1
  Al  Al55  1  0.545757  0.402958  0.750000  1
  Al  Al56  1  0.545757  0.142799  0.250000  1
  Al  Al57  1  0.454243  0.597042  0.250000  1
  Al  Al58  1  0.857201  0.454243  0.750000  1
  Al  Al59  1  0.142799  0.545757  0.250000  1
  Al  Al60  1  0.333333  0.666667  0.629169  1
  Al  Al61  1  0.666667  0.333333  0.370831  1
  Al  Al62  1  0.666667  0.333333  0.129169  1
  Al  Al63  1  0.666667  0.333333  0.870831  1
  Al  Al64  1  0.333333  0.666667  0.870831  1
  Al  Al65  1  0.333333  0.666667  0.129169  1
  Al  Al66  1  0.333333  0.666667  0.370831  1
  Al  Al67  1  0.666667  0.333333  0.629169  1
  Al  Al68  1  0.158800  0.390701  0.666642  1
  Al  Al69  1  0.841200  0.609299  0.333358  1
  Al  Al70  1  0.609299  0.768099  0.666642  1
  Al  Al71  1  0.841200  0.609299  0.166642  1
  Al  Al72  1  0.390701  0.158800  0.833358  1
  Al  Al73  1  0.390701  0.231901  0.333358  1
  Al  Al74  1  0.158800  0.390701  0.833358  1
  Al  Al75  1  0.609299  0.841200  0.166642  1
  Al  Al76  1  0.231901  0.841200  0.666642  1
  Al  Al77  1  0.390701  0.231901  0.166642  1
  Al  Al78  1  0.768099  0.609299  0.833358  1
  Al  Al79  1  0.768099  0.158800  0.333358  1
  Al  Al80  1  0.609299  0.768099  0.833358  1
  Al  Al81  1  0.231901  0.390701  0.166642  1
  Al  Al82  1  0.609299  0.841200  0.333358  1
  Al  Al83  1  0.390701  0.158800  0.666642  1
  Al  Al84  1  0.768099  0.158800  0.166642  1
  Al  Al85  1  0.231901  0.390701  0.333358  1
  Al  Al86  1  0.231901  0.841200  0.833358  1
  Al  Al87  1  0.768099  0.609299  0.666642  1
  Al  Al88  1  0.841200  0.231901  0.833358  1
  Al  Al89  1  0.158800  0.768099  0.166642  1
  Al  Al90  1  0.158800  0.768099  0.333358  1
  Al  Al91  1  0.841200  0.231901  0.666642  1
  Al  Al92  1  0.144800  0.000000  0.750000  1
  Al  Al93  1  0.855200  0.000000  0.250000  1
  Al  Al94  1  0.000000  0.144800  0.750000  1
  Al  Al95  1  0.000000  0.855200  0.250000  1
  Al  Al96  1  0.855200  0.855200  0.750000  1
  Al  Al97  1  0.144800  0.144800  0.250000  1
  Cr  Cr98  1  0.000000  0.000000  0.500000  1
  Cr  Cr99  1  0.000000  0.000000  0.000000  1
  Cr  Cr100  1  0.735388  0.000000  0.750000  1
  Cr  Cr101  1  0.264612  0.000000  0.250000  1
  Cr  Cr102  1  0.000000  0.735388  0.750000  1
  Cr  Cr103  1  0.000000  0.264612  0.250000  1
  Cr  Cr104  1  0.264612  0.264612  0.750000  1
  Cr  Cr105  1  0.735388  0.735388  0.250000  1
