# generated using pymatgen
data_Sm2Y2PBr6
_symmetry_space_group_name_H-M   'P 1'
_cell_length_a   4.03812400
_cell_length_b   13.29787000
_cell_length_c   14.03205000
_cell_angle_alpha   90.00000000
_cell_angle_beta   90.00000000
_cell_angle_gamma   90.00000000
_symmetry_Int_Tables_number   1
_chemical_formula_structural   Sm2Y2PBr6
_chemical_formula_sum   'Sm4 Y4 P2 Br12'
_cell_volume   753.49930720
_cell_formula_units_Z   2
loop_
 _symmetry_equiv_pos_site_id
 _symmetry_equiv_pos_as_xyz
  1  'x, y, z'
loop_
 _atom_site_type_symbol
 _atom_site_label
 _atom_site_symmetry_multiplicity
 _atom_site_fract_x
 _atom_site_fract_y
 _atom_site_fract_z
 _atom_site_occupancy
  Sm  Sm0  1  0.000000  0.116369  0.578602  1
  Sm  Sm1  1  0.000000  0.883631  0.421398  1
  Sm  Sm2  1  0.000000  0.616369  0.921398  1
  Sm  Sm3  1  0.000000  0.383631  0.078602  1
  Y  Y4  1  0.500000  0.117353  0.344662  1
  Y  Y5  1  0.500000  0.882647  0.655338  1
  Y  Y6  1  0.500000  0.617353  0.155338  1
  Y  Y7  1  0.500000  0.382647  0.844662  1
  P  P8  1  0.500000  0.000000  0.500000  1
  P  P9  1  0.500000  0.500000  0.000000  1
  Br  Br10  1  0.500000  0.241797  0.167045  1
  Br  Br11  1  0.500000  0.758203  0.832955  1
  Br  Br12  1  0.500000  0.741797  0.332955  1
  Br  Br13  1  0.500000  0.258203  0.667045  1
  Br  Br14  1  0.000000  0.255760  0.411647  1
  Br  Br15  1  0.000000  0.744240  0.588353  1
  Br  Br16  1  0.000000  0.755760  0.088353  1
  Br  Br17  1  0.000000  0.244240  0.911647  1
  Br  Br18  1  0.000000  0.004692  0.242448  1
  Br  Br19  1  0.000000  0.995308  0.757552  1
  Br  Br20  1  0.000000  0.504692  0.257552  1
  Br  Br21  1  0.000000  0.495308  0.742448  1
