# generated using pymatgen
data_YErLu14(In3Co)2
_symmetry_space_group_name_H-M   'P 1'
_cell_length_a   10.15607100
_cell_length_b   10.15607219
_cell_length_c   6.93155800
_cell_angle_alpha   90.00000000
_cell_angle_beta   90.00000000
_cell_angle_gamma   120.00000589
_symmetry_Int_Tables_number   1
_chemical_formula_structural   YErLu14(In3Co)2
_chemical_formula_sum   'Y1 Er1 Lu14 In6 Co2'
_cell_volume   619.17437600
_cell_formula_units_Z   1
loop_
 _symmetry_equiv_pos_site_id
 _symmetry_equiv_pos_as_xyz
  1  'x, y, z'
loop_
 _atom_site_type_symbol
 _atom_site_label
 _atom_site_symmetry_multiplicity
 _atom_site_fract_x
 _atom_site_fract_y
 _atom_site_fract_z
 _atom_site_occupancy
  Y  Y0  1  0.000000  0.000000  0.995031  1
  Er  Er1  1  0.000000  0.000000  0.495264  1
  Lu  Lu2  1  0.465194  0.534806  0.481802  1
  Lu  Lu3  1  0.069612  0.534806  0.481802  1
  Lu  Lu4  1  0.465194  0.930388  0.481802  1
  Lu  Lu5  1  0.534948  0.465052  0.981960  1
  Lu  Lu6  1  0.930103  0.465052  0.981960  1
  Lu  Lu7  1  0.534948  0.069897  0.981960  1
  Lu  Lu8  1  0.819942  0.180058  0.276903  1
  Lu  Lu9  1  0.360115  0.180058  0.276903  1
  Lu  Lu10  1  0.819942  0.639885  0.276903  1
  Lu  Lu11  1  0.180135  0.819865  0.775820  1
  Lu  Lu12  1  0.639730  0.819865  0.775820  1
  Lu  Lu13  1  0.180135  0.360270  0.775820  1
  Lu  Lu14  1  0.333333  0.666667  0.091588  1
  Lu  Lu15  1  0.666667  0.333333  0.591415  1
  In  In16  1  0.162684  0.837316  0.235612  1
  In  In17  1  0.674631  0.837316  0.235612  1
  In  In18  1  0.162684  0.325369  0.235612  1
  In  In19  1  0.837532  0.162468  0.734212  1
  In  In20  1  0.324937  0.162468  0.734212  1
  In  In21  1  0.837532  0.675063  0.734212  1
  Co  Co22  1  0.333333  0.666667  0.706276  1
  Co  Co23  1  0.666667  0.333333  0.206052  1
