# generated using pymatgen
data_Tb3ErTh2(ZnAu5)2
_symmetry_space_group_name_H-M   'P 1'
_cell_length_a   8.47581219
_cell_length_b   8.47581139
_cell_length_c   13.63146809
_cell_angle_alpha   90.06955054
_cell_angle_beta   89.93045087
_cell_angle_gamma   127.38626361
_symmetry_Int_Tables_number   1
_chemical_formula_structural   Tb3ErTh2(ZnAu5)2
_chemical_formula_sum   'Tb6 Er2 Th4 Zn4 Au20'
_cell_volume   778.09326482
_cell_formula_units_Z   2
loop_
 _symmetry_equiv_pos_site_id
 _symmetry_equiv_pos_as_xyz
  1  'x, y, z'
loop_
 _atom_site_type_symbol
 _atom_site_label
 _atom_site_symmetry_multiplicity
 _atom_site_fract_x
 _atom_site_fract_y
 _atom_site_fract_z
 _atom_site_occupancy
  Tb  Tb0  1  0.630821  0.369179  0.039681  1
  Tb  Tb1  1  0.369179  0.630821  0.960319  1
  Tb  Tb2  1  0.882021  0.117979  0.951945  1
  Tb  Tb3  1  0.117979  0.882021  0.048055  1
  Tb  Tb4  1  0.881641  0.118359  0.547958  1
  Tb  Tb5  1  0.118359  0.881641  0.452042  1
  Er  Er6  1  0.630439  0.369561  0.460615  1
  Er  Er7  1  0.369561  0.630439  0.539385  1
  Th  Th8  1  0.930221  0.069779  0.250407  1
  Th  Th9  1  0.069779  0.930221  0.749593  1
  Th  Th10  1  0.319846  0.680154  0.250516  1
  Th  Th11  1  0.680154  0.319846  0.749484  1
  Zn  Zn12  1  0.718783  0.281217  0.250545  1
  Zn  Zn13  1  0.281217  0.718783  0.749455  1
  Zn  Zn14  1  0.534381  0.465619  0.250283  1
  Zn  Zn15  1  0.465619  0.534381  0.749717  1
  Au  Au16  1  0.318129  0.064911  0.250048  1
  Au  Au17  1  0.064911  0.318129  0.749952  1
  Au  Au18  1  0.681871  0.935089  0.749952  1
  Au  Au19  1  0.935089  0.681871  0.250048  1
  Au  Au20  1  0.570325  0.005709  0.398662  1
  Au  Au21  1  0.005709  0.570325  0.601338  1
  Au  Au22  1  0.570263  0.004704  0.102061  1
  Au  Au23  1  0.004704  0.570263  0.897939  1
  Au  Au24  1  0.429675  0.994291  0.601338  1
  Au  Au25  1  0.994291  0.429675  0.398662  1
  Au  Au26  1  0.429737  0.995296  0.897939  1
  Au  Au27  1  0.995296  0.429737  0.102061  1
  Au  Au28  1  0.682512  0.738172  0.397243  1
  Au  Au29  1  0.738172  0.682512  0.602757  1
  Au  Au30  1  0.684344  0.740104  0.103638  1
  Au  Au31  1  0.740104  0.684344  0.896362  1
  Au  Au32  1  0.317488  0.261828  0.602757  1
  Au  Au33  1  0.261828  0.317488  0.397243  1
  Au  Au34  1  0.315656  0.259896  0.896362  1
  Au  Au35  1  0.259896  0.315656  0.103638  1
