# generated using pymatgen
data_YbHo7(TmIr3)2
_symmetry_space_group_name_H-M   'P 1'
_cell_length_a   10.81087142
_cell_length_b   10.84431000
_cell_length_c   6.33588101
_cell_angle_alpha   90.00000000
_cell_angle_beta   90.23955215
_cell_angle_gamma   90.00000000
_symmetry_Int_Tables_number   1
_chemical_formula_structural   YbHo7(TmIr3)2
_chemical_formula_sum   'Yb2 Ho14 Tm4 Ir12'
_cell_volume   742.78964885
_cell_formula_units_Z   2
loop_
 _symmetry_equiv_pos_site_id
 _symmetry_equiv_pos_as_xyz
  1  'x, y, z'
loop_
 _atom_site_type_symbol
 _atom_site_label
 _atom_site_symmetry_multiplicity
 _atom_site_fract_x
 _atom_site_fract_y
 _atom_site_fract_z
 _atom_site_occupancy
  Yb  Yb0  1  0.288969  0.087730  0.374496  1
  Yb  Yb1  1  0.288969  0.912270  0.874496  1
  Ho  Ho2  1  0.709225  0.086287  0.878309  1
  Ho  Ho3  1  0.709225  0.913713  0.378309  1
  Ho  Ho4  1  0.586878  0.792222  0.876925  1
  Ho  Ho5  1  0.586878  0.207778  0.376925  1
  Ho  Ho6  1  0.412487  0.792714  0.378202  1
  Ho  Ho7  1  0.412487  0.207286  0.878202  1
  Ho  Ho8  1  0.209865  0.413395  0.623407  1
  Ho  Ho9  1  0.209865  0.586605  0.123407  1
  Ho  Ho10  1  0.790994  0.412569  0.121432  1
  Ho  Ho11  1  0.790994  0.587431  0.621432  1
  Ho  Ho12  1  0.912761  0.709732  0.123605  1
  Ho  Ho13  1  0.912761  0.290268  0.623605  1
  Ho  Ho14  1  0.087327  0.708924  0.622119  1
  Ho  Ho15  1  0.087327  0.291076  0.122119  1
  Tm  Tm16  1  0.000706  0.999571  0.499902  1
  Tm  Tm17  1  0.000706  0.000429  0.999902  1
  Tm  Tm18  1  0.500177  0.499898  0.998769  1
  Tm  Tm19  1  0.500177  0.500102  0.498769  1
  Ir  Ir20  1  0.848955  0.153237  0.250192  1
  Ir  Ir21  1  0.848955  0.846763  0.750192  1
  Ir  Ir22  1  0.147535  0.159080  0.753637  1
  Ir  Ir23  1  0.147535  0.840920  0.253637  1
  Ir  Ir24  1  0.651636  0.346168  0.750444  1
  Ir  Ir25  1  0.651636  0.653832  0.250444  1
  Ir  Ir26  1  0.347822  0.351658  0.246349  1
  Ir  Ir27  1  0.347822  0.648342  0.746349  1
  Ir  Ir28  1  0.504573  0.000270  0.123299  1
  Ir  Ir29  1  0.504573  0.999730  0.623299  1
  Ir  Ir30  1  0.000094  0.500308  0.878912  1
  Ir  Ir31  1  0.000094  0.499692  0.378912  1
