# generated using pymatgen
data_ScTeClO3
_symmetry_space_group_name_H-M   'P 1'
_cell_length_a   6.91316600
_cell_length_b   7.08350031
_cell_length_c   8.48742258
_cell_angle_alpha   77.11567540
_cell_angle_beta   90.00000000
_cell_angle_gamma   90.00000000
_symmetry_Int_Tables_number   1
_chemical_formula_structural   ScTeClO3
_chemical_formula_sum   'Sc4 Te4 Cl4 O12'
_cell_volume   405.15962021
_cell_formula_units_Z   4
loop_
 _symmetry_equiv_pos_site_id
 _symmetry_equiv_pos_as_xyz
  1  'x, y, z'
loop_
 _atom_site_type_symbol
 _atom_site_label
 _atom_site_symmetry_multiplicity
 _atom_site_fract_x
 _atom_site_fract_y
 _atom_site_fract_z
 _atom_site_occupancy
  Sc  Sc0  1  0.750143  0.796137  0.326596  1
  Sc  Sc1  1  0.249857  0.203863  0.673404  1
  Sc  Sc2  1  0.250143  0.703863  0.673404  1
  Sc  Sc3  1  0.749857  0.296137  0.326596  1
  Te  Te4  1  0.729056  0.945856  0.702255  1
  Te  Te5  1  0.229056  0.554144  0.297745  1
  Te  Te6  1  0.770944  0.445856  0.702255  1
  Te  Te7  1  0.270944  0.054144  0.297745  1
  Cl  Cl8  1  0.707902  0.606693  0.101684  1
  Cl  Cl9  1  0.292098  0.393307  0.898316  1
  Cl  Cl10  1  0.792098  0.106693  0.101684  1
  Cl  Cl11  1  0.207902  0.893307  0.898316  1
  O  O12  1  0.777362  0.008347  0.469181  1
  O  O13  1  0.451737  0.254750  0.316364  1
  O  O14  1  0.048263  0.754750  0.316364  1
  O  O15  1  0.548196  0.155970  0.686215  1
  O  O16  1  0.951804  0.655970  0.686215  1
  O  O17  1  0.048196  0.344030  0.313785  1
  O  O18  1  0.451804  0.844030  0.313785  1
  O  O19  1  0.548263  0.745250  0.683636  1
  O  O20  1  0.722638  0.508347  0.469181  1
  O  O21  1  0.222638  0.991653  0.530819  1
  O  O22  1  0.277362  0.491653  0.530819  1
  O  O23  1  0.951737  0.245250  0.683636  1
