# generated using pymatgen
data_MgNi21B6W
_symmetry_space_group_name_H-M   'P 1'
_cell_length_a   7.41814473
_cell_length_b   7.41814472
_cell_length_c   7.41814500
_cell_angle_alpha   60.00000323
_cell_angle_beta   60.00000327
_cell_angle_gamma   60.00000214
_symmetry_Int_Tables_number   1
_chemical_formula_structural   MgNi21B6W
_chemical_formula_sum   'Mg1 Ni21 B6 W1'
_cell_volume   288.64959537
_cell_formula_units_Z   1
loop_
 _symmetry_equiv_pos_site_id
 _symmetry_equiv_pos_as_xyz
  1  'x, y, z'
loop_
 _atom_site_type_symbol
 _atom_site_label
 _atom_site_symmetry_multiplicity
 _atom_site_fract_x
 _atom_site_fract_y
 _atom_site_fract_z
 _atom_site_occupancy
  Mg  Mg0  1  0.250000  0.250000  0.250000  1
  Ni  Ni1  1  0.000000  0.000000  0.000000  1
  Ni  Ni2  1  0.618352  0.618352  0.144943  1
  Ni  Ni3  1  0.618352  0.144943  0.618352  1
  Ni  Ni4  1  0.144943  0.618352  0.618352  1
  Ni  Ni5  1  0.618352  0.618352  0.618352  1
  Ni  Ni6  1  0.386990  0.386990  0.839032  1
  Ni  Ni7  1  0.386990  0.839032  0.386990  1
  Ni  Ni8  1  0.839032  0.386990  0.386990  1
  Ni  Ni9  1  0.386990  0.386990  0.386990  1
  Ni  Ni10  1  0.997933  0.997933  0.341678  1
  Ni  Ni11  1  0.662456  0.997933  0.341678  1
  Ni  Ni12  1  0.997933  0.662456  0.341678  1
  Ni  Ni13  1  0.662456  0.341678  0.997933  1
  Ni  Ni14  1  0.997933  0.341678  0.997933  1
  Ni  Ni15  1  0.997933  0.341678  0.662456  1
  Ni  Ni16  1  0.341678  0.662456  0.997933  1
  Ni  Ni17  1  0.341678  0.997933  0.662456  1
  Ni  Ni18  1  0.341678  0.997933  0.997933  1
  Ni  Ni19  1  0.997933  0.997933  0.662456  1
  Ni  Ni20  1  0.997933  0.662456  0.997933  1
  Ni  Ni21  1  0.662456  0.997933  0.997933  1
  B  B22  1  0.730330  0.730330  0.269670  1
  B  B23  1  0.269670  0.730330  0.269670  1
  B  B24  1  0.730330  0.269670  0.269670  1
  B  B25  1  0.269670  0.269670  0.730330  1
  B  B26  1  0.730330  0.269670  0.730330  1
  B  B27  1  0.269670  0.730330  0.730330  1
  W  W28  1  0.750000  0.750000  0.750000  1
