# generated using pymatgen
data_Er12InFe3Bi
_symmetry_space_group_name_H-M   'P 1'
_cell_length_a   8.32536546
_cell_length_b   8.32536565
_cell_length_c   8.32536494
_cell_angle_alpha   108.70029258
_cell_angle_beta   108.26069115
_cell_angle_gamma   111.47167003
_symmetry_Int_Tables_number   1
_chemical_formula_structural   Er12InFe3Bi
_chemical_formula_sum   'Er12 In1 Fe3 Bi1'
_cell_volume   443.79567853
_cell_formula_units_Z   1
loop_
 _symmetry_equiv_pos_site_id
 _symmetry_equiv_pos_as_xyz
  1  'x, y, z'
loop_
 _atom_site_type_symbol
 _atom_site_label
 _atom_site_symmetry_multiplicity
 _atom_site_fract_x
 _atom_site_fract_y
 _atom_site_fract_z
 _atom_site_occupancy
  Er  Er0  1  0.312635  0.302969  0.615604  1
  Er  Er1  1  0.687365  0.697031  0.384396  1
  Er  Er2  1  0.687365  0.302969  0.990334  1
  Er  Er3  1  0.312635  0.697031  0.009666  1
  Er  Er4  1  0.193925  0.425574  0.231649  1
  Er  Er5  1  0.806075  0.574426  0.768351  1
  Er  Er6  1  0.193925  0.962275  0.768351  1
  Er  Er7  1  0.954693  0.191000  0.763695  1
  Er  Er8  1  0.806075  0.037725  0.231649  1
  Er  Er9  1  0.045307  0.809000  0.236305  1
  Er  Er10  1  0.427305  0.191000  0.236305  1
  Er  Er11  1  0.572695  0.809000  0.763695  1
  In  In12  1  0.500000  0.000000  0.500000  1
  Fe  Fe13  1  0.384949  0.384949  0.000000  1
  Fe  Fe14  1  0.615051  0.615051  0.000000  1
  Fe  Fe15  1  0.000000  0.000000  0.000000  1
  Bi  Bi16  1  0.000000  0.500000  0.500000  1
