# generated using pymatgen
data_Tm10Ga3Sn2Pt
_symmetry_space_group_name_H-M   'P 1'
_cell_length_a   8.60909407
_cell_length_b   8.60909414
_cell_length_c   8.64211673
_cell_angle_alpha   125.86207576
_cell_angle_beta   125.86206961
_cell_angle_gamma   79.85345366
_symmetry_Int_Tables_number   1
_chemical_formula_structural   Tm10Ga3Sn2Pt
_chemical_formula_sum   'Tm10 Ga3 Sn2 Pt1'
_cell_volume   406.86083991
_cell_formula_units_Z   1
loop_
 _symmetry_equiv_pos_site_id
 _symmetry_equiv_pos_as_xyz
  1  'x, y, z'
loop_
 _atom_site_type_symbol
 _atom_site_label
 _atom_site_symmetry_multiplicity
 _atom_site_fract_x
 _atom_site_fract_y
 _atom_site_fract_z
 _atom_site_occupancy
  Tm  Tm0  1  0.004081  0.002325  0.006407  1
  Tm  Tm1  1  0.497675  0.495919  0.993593  1
  Tm  Tm2  1  0.793776  0.300792  0.807865  1
  Tm  Tm3  1  0.199208  0.706224  0.192135  1
  Tm  Tm4  1  0.485911  0.992927  0.192135  1
  Tm  Tm5  1  0.305921  0.472345  0.500000  1
  Tm  Tm6  1  0.027655  0.194079  0.500000  1
  Tm  Tm7  1  0.507073  0.014089  0.807865  1
  Tm  Tm8  1  0.697029  0.515846  0.500000  1
  Tm  Tm9  1  0.984154  0.802971  0.500000  1
  Ga  Ga10  1  0.133691  0.638031  0.771723  1
  Ga  Ga11  1  0.861969  0.366309  0.228277  1
  Ga  Ga12  1  0.635861  0.864139  0.500000  1
  Sn  Sn13  1  0.246364  0.253636  0.000000  1
  Sn  Sn14  1  0.746364  0.753636  0.000000  1
  Pt  Pt15  1  0.373265  0.126735  0.500000  1
