# generated using pymatgen
data_Ce5Mo3P12Ru7Rh9
_symmetry_space_group_name_H-M   'P 1'
_cell_length_a   12.74798500
_cell_length_b   12.74798537
_cell_length_c   3.95843600
_cell_angle_alpha   90.00000000
_cell_angle_beta   90.00000000
_cell_angle_gamma   120.00000162
_symmetry_Int_Tables_number   1
_chemical_formula_structural   Ce5Mo3P12Ru7Rh9
_chemical_formula_sum   'Ce5 Mo3 P12 Ru7 Rh9'
_cell_volume   557.10538008
_cell_formula_units_Z   1
loop_
 _symmetry_equiv_pos_site_id
 _symmetry_equiv_pos_as_xyz
  1  'x, y, z'
loop_
 _atom_site_type_symbol
 _atom_site_label
 _atom_site_symmetry_multiplicity
 _atom_site_fract_x
 _atom_site_fract_y
 _atom_site_fract_z
 _atom_site_occupancy
  Ce  Ce0  1  0.187340  0.187340  0.500000  1
  Ce  Ce1  1  0.812660  0.000000  0.500000  1
  Ce  Ce2  1  0.000000  0.812660  0.500000  1
  Ce  Ce3  1  0.333333  0.666667  0.000000  1
  Ce  Ce4  1  0.666667  0.333333  0.000000  1
  Mo  Mo5  1  0.553284  0.553284  0.000000  1
  Mo  Mo6  1  0.446716  0.000000  0.000000  1
  Mo  Mo7  1  0.000000  0.446716  0.000000  1
  P  P8  1  0.818776  0.818776  0.000000  1
  P  P9  1  0.181224  0.000000  0.000000  1
  P  P10  1  0.000000  0.181224  0.000000  1
  P  P11  1  0.166354  0.477125  0.500000  1
  P  P12  1  0.522875  0.689229  0.500000  1
  P  P13  1  0.310771  0.833646  0.500000  1
  P  P14  1  0.689229  0.522875  0.500000  1
  P  P15  1  0.833646  0.310771  0.500000  1
  P  P16  1  0.477125  0.166354  0.500000  1
  P  P17  1  0.366450  0.366450  0.000000  1
  P  P18  1  0.633550  0.000000  0.000000  1
  P  P19  1  0.000000  0.633550  0.000000  1
  Ru  Ru20  1  0.180214  0.377368  0.000000  1
  Ru  Ru21  1  0.622632  0.802846  0.000000  1
  Ru  Ru22  1  0.197154  0.819786  0.000000  1
  Ru  Ru23  1  0.802846  0.622632  0.000000  1
  Ru  Ru24  1  0.819786  0.197154  0.000000  1
  Ru  Ru25  1  0.377368  0.180214  0.000000  1
  Ru  Ru26  1  0.000000  0.000000  0.000000  1
  Rh  Rh27  1  0.718811  0.718811  0.500000  1
  Rh  Rh28  1  0.281189  0.000000  0.500000  1
  Rh  Rh29  1  0.000000  0.281189  0.500000  1
  Rh  Rh30  1  0.361645  0.491164  0.500000  1
  Rh  Rh31  1  0.508836  0.870481  0.500000  1
  Rh  Rh32  1  0.129519  0.638355  0.500000  1
  Rh  Rh33  1  0.870481  0.508836  0.500000  1
  Rh  Rh34  1  0.638355  0.129519  0.500000  1
  Rh  Rh35  1  0.491164  0.361645  0.500000  1
