# generated using pymatgen
data_Er2TmZn2In3Ir
_symmetry_space_group_name_H-M   'P 1'
_cell_length_a   7.70414501
_cell_length_b   7.71961856
_cell_length_c   3.79909300
_cell_angle_alpha   90.00000000
_cell_angle_beta   90.00000000
_cell_angle_gamma   119.94177918
_symmetry_Int_Tables_number   1
_chemical_formula_structural   Er2TmZn2In3Ir
_chemical_formula_sum   'Er2 Tm1 Zn2 In3 Ir1'
_cell_volume   195.78766939
_cell_formula_units_Z   1
loop_
 _symmetry_equiv_pos_site_id
 _symmetry_equiv_pos_as_xyz
  1  'x, y, z'
loop_
 _atom_site_type_symbol
 _atom_site_label
 _atom_site_symmetry_multiplicity
 _atom_site_fract_x
 _atom_site_fract_y
 _atom_site_fract_z
 _atom_site_occupancy
  Er  Er0  1  0.389371  0.414940  0.500000  1
  Er  Er1  1  0.584554  0.974325  0.500000  1
  Tm  Tm2  1  0.027244  0.611099  0.500000  1
  Zn  Zn3  1  0.999539  0.999664  0.500000  1
  Zn  Zn4  1  0.667208  0.333864  0.000000  1
  In  In5  1  0.739669  0.731637  0.000000  1
  In  In6  1  0.992619  0.260744  0.000000  1
  In  In7  1  0.267754  0.007551  0.000000  1
  Ir  Ir8  1  0.332043  0.666176  0.000000  1
