# generated using pymatgen
data_Sc6Zn21SiNi2
_symmetry_space_group_name_H-M   'P 1'
_cell_length_a   8.78655441
_cell_length_b   8.73508221
_cell_length_c   8.73508275
_cell_angle_alpha   59.92992535
_cell_angle_beta   59.80488880
_cell_angle_gamma   59.80488674
_symmetry_Int_Tables_number   1
_chemical_formula_structural   Sc6Zn21SiNi2
_chemical_formula_sum   'Sc6 Zn21 Si1 Ni2'
_cell_volume   472.41248146
_cell_formula_units_Z   1
loop_
 _symmetry_equiv_pos_site_id
 _symmetry_equiv_pos_as_xyz
  1  'x, y, z'
loop_
 _atom_site_type_symbol
 _atom_site_label
 _atom_site_symmetry_multiplicity
 _atom_site_fract_x
 _atom_site_fract_y
 _atom_site_fract_z
 _atom_site_occupancy
  Sc  Sc0  1  0.714778  0.285222  0.285222  1
  Sc  Sc1  1  0.285222  0.714778  0.714778  1
  Sc  Sc2  1  0.286581  0.711330  0.288670  1
  Sc  Sc3  1  0.713419  0.288670  0.711330  1
  Sc  Sc4  1  0.286581  0.288670  0.711330  1
  Sc  Sc5  1  0.713419  0.711330  0.288670  1
  Zn  Zn6  1  0.117931  0.118659  0.118659  1
  Zn  Zn7  1  0.882069  0.881341  0.881341  1
  Zn  Zn8  1  0.114613  0.129776  0.640998  1
  Zn  Zn9  1  0.114613  0.640998  0.129776  1
  Zn  Zn10  1  0.885387  0.870224  0.359002  1
  Zn  Zn11  1  0.885387  0.359002  0.870224  1
  Zn  Zn12  1  0.644753  0.118659  0.118659  1
  Zn  Zn13  1  0.355247  0.881341  0.881341  1
  Zn  Zn14  1  0.500000  0.000000  0.000000  1
  Zn  Zn15  1  0.000000  0.500000  0.000000  1
  Zn  Zn16  1  0.500000  0.000000  0.500000  1
  Zn  Zn17  1  0.000000  0.000000  0.500000  1
  Zn  Zn18  1  0.500000  0.500000  0.000000  1
  Zn  Zn19  1  0.327992  0.339014  0.339014  1
  Zn  Zn20  1  0.672008  0.660986  0.660986  1
  Zn  Zn21  1  0.336193  0.336631  0.990983  1
  Zn  Zn22  1  0.336193  0.990983  0.336631  1
  Zn  Zn23  1  0.663807  0.663369  0.009017  1
  Zn  Zn24  1  0.663807  0.009017  0.663369  1
  Zn  Zn25  1  0.993981  0.339014  0.339014  1
  Zn  Zn26  1  0.006019  0.660986  0.660986  1
  Si  Si27  1  0.500000  0.500000  0.500000  1
  Ni  Ni28  1  0.000000  0.500000  0.500000  1
  Ni  Ni29  1  0.000000  0.000000  0.000000  1
