# generated using pymatgen
data_Sc6Zn17Ni6Ge
_symmetry_space_group_name_H-M   'P 1'
_cell_length_a   8.67870028
_cell_length_b   8.67870013
_cell_length_c   8.67870000
_cell_angle_alpha   60.00000050
_cell_angle_beta   60.00000108
_cell_angle_gamma   60.00000014
_symmetry_Int_Tables_number   1
_chemical_formula_structural   Sc6Zn17Ni6Ge
_chemical_formula_sum   'Sc6 Zn17 Ni6 Ge1'
_cell_volume   462.22034489
_cell_formula_units_Z   1
loop_
 _symmetry_equiv_pos_site_id
 _symmetry_equiv_pos_as_xyz
  1  'x, y, z'
loop_
 _atom_site_type_symbol
 _atom_site_label
 _atom_site_symmetry_multiplicity
 _atom_site_fract_x
 _atom_site_fract_y
 _atom_site_fract_z
 _atom_site_occupancy
  Sc  Sc0  1  0.722072  0.277928  0.277928  1
  Sc  Sc1  1  0.277928  0.722072  0.722072  1
  Sc  Sc2  1  0.277928  0.722072  0.277928  1
  Sc  Sc3  1  0.722072  0.277928  0.722072  1
  Sc  Sc4  1  0.277928  0.277928  0.722072  1
  Sc  Sc5  1  0.722072  0.722072  0.277928  1
  Zn  Zn6  1  0.126198  0.126198  0.126198  1
  Zn  Zn7  1  0.873802  0.873802  0.873802  1
  Zn  Zn8  1  0.126198  0.126198  0.621408  1
  Zn  Zn9  1  0.126198  0.621408  0.126198  1
  Zn  Zn10  1  0.873802  0.873802  0.378592  1
  Zn  Zn11  1  0.873802  0.378592  0.873802  1
  Zn  Zn12  1  0.621408  0.126198  0.126198  1
  Zn  Zn13  1  0.378592  0.873802  0.873802  1
  Zn  Zn14  1  0.339201  0.339201  0.339201  1
  Zn  Zn15  1  0.660799  0.660799  0.660799  1
  Zn  Zn16  1  0.339201  0.339201  0.982395  1
  Zn  Zn17  1  0.339201  0.982395  0.339201  1
  Zn  Zn18  1  0.660799  0.660799  0.017605  1
  Zn  Zn19  1  0.660799  0.017605  0.660799  1
  Zn  Zn20  1  0.982395  0.339201  0.339201  1
  Zn  Zn21  1  0.017605  0.660799  0.660799  1
  Zn  Zn22  1  0.000000  0.000000  0.000000  1
  Ni  Ni23  1  0.500000  0.000000  0.000000  1
  Ni  Ni24  1  0.000000  0.500000  0.500000  1
  Ni  Ni25  1  0.000000  0.500000  0.000000  1
  Ni  Ni26  1  0.500000  0.000000  0.500000  1
  Ni  Ni27  1  0.000000  0.000000  0.500000  1
  Ni  Ni28  1  0.500000  0.500000  0.000000  1
  Ge  Ge29  1  0.500000  0.500000  0.500000  1
