# generated using pymatgen
data_Y3Er3Mn2(Si4Ru)6
_symmetry_space_group_name_H-M   'P 1'
_cell_length_a   10.08454310
_cell_length_b   10.08454288
_cell_length_c   8.07912529
_cell_angle_alpha   90.01722375
_cell_angle_beta   89.98278500
_cell_angle_gamma   132.70055459
_symmetry_Int_Tables_number   1
_chemical_formula_structural   Y3Er3Mn2(Si4Ru)6
_chemical_formula_sum   'Y3 Er3 Mn2 Si24 Ru6'
_cell_volume   603.82314534
_cell_formula_units_Z   1
loop_
 _symmetry_equiv_pos_site_id
 _symmetry_equiv_pos_as_xyz
  1  'x, y, z'
loop_
 _atom_site_type_symbol
 _atom_site_label
 _atom_site_symmetry_multiplicity
 _atom_site_fract_x
 _atom_site_fract_y
 _atom_site_fract_z
 _atom_site_occupancy
  Y  Y0  1  0.498223  0.998223  0.250000  1
  Y  Y1  1  0.002494  0.502494  0.750000  1
  Y  Y2  1  0.502744  0.002744  0.750000  1
  Er  Er3  1  0.998300  0.498300  0.250000  1
  Er  Er4  1  0.501880  0.501880  0.502830  1
  Er  Er5  1  0.001880  0.001880  0.997170  1
  Mn  Mn6  1  0.623761  0.623854  0.872853  1
  Mn  Mn7  1  0.123854  0.123761  0.627147  1
  Si  Si8  1  0.386696  0.153734  0.005522  1
  Si  Si9  1  0.653734  0.886696  0.494478  1
  Si  Si10  1  0.115072  0.341701  0.512053  1
  Si  Si11  1  0.841701  0.615072  0.987947  1
  Si  Si12  1  0.615566  0.842415  0.987140  1
  Si  Si13  1  0.342415  0.115566  0.512860  1
  Si  Si14  1  0.886798  0.654062  0.493749  1
  Si  Si15  1  0.154062  0.386798  0.006251  1
  Si  Si16  1  0.610497  0.377766  0.229106  1
  Si  Si17  1  0.877766  0.110497  0.270894  1
  Si  Si18  1  0.897484  0.124488  0.728632  1
  Si  Si19  1  0.624488  0.397484  0.771368  1
  Si  Si20  1  0.397767  0.624781  0.771196  1
  Si  Si21  1  0.124781  0.897767  0.728804  1
  Si  Si22  1  0.704540  0.295319  0.000529  1
  Si  Si23  1  0.795319  0.204540  0.499471  1
  Si  Si24  1  0.294343  0.703475  0.000443  1
  Si  Si25  1  0.203475  0.794343  0.499557  1
  Si  Si26  1  0.167090  0.166735  0.339631  1
  Si  Si27  1  0.666735  0.667090  0.160369  1
  Si  Si28  1  0.331703  0.331762  0.826236  1
  Si  Si29  1  0.831762  0.831703  0.673764  1
  Si  Si30  1  0.376307  0.609128  0.229372  1
  Si  Si31  1  0.109128  0.876307  0.270628  1
  Ru  Ru32  1  0.871544  0.871708  0.374382  1
  Ru  Ru33  1  0.371708  0.371544  0.125618  1
  Ru  Ru34  1  0.328174  0.667576  0.501187  1
  Ru  Ru35  1  0.167576  0.828174  0.998813  1
  Ru  Ru36  1  0.668958  0.329672  0.501159  1
  Ru  Ru37  1  0.829672  0.168958  0.998841  1
