# generated using pymatgen
data_Pb(AuF4)2
_symmetry_space_group_name_H-M   'P 1'
_cell_length_a   6.08361800
_cell_length_b   6.08361800
_cell_length_c   11.40156800
_cell_angle_alpha   90.00000000
_cell_angle_beta   90.00000000
_cell_angle_gamma   90.00000000
_symmetry_Int_Tables_number   1
_chemical_formula_structural   Pb(AuF4)2
_chemical_formula_sum   'Pb2 Au4 F16'
_cell_volume   421.97668318
_cell_formula_units_Z   2
loop_
 _symmetry_equiv_pos_site_id
 _symmetry_equiv_pos_as_xyz
  1  'x, y, z'
loop_
 _atom_site_type_symbol
 _atom_site_label
 _atom_site_symmetry_multiplicity
 _atom_site_fract_x
 _atom_site_fract_y
 _atom_site_fract_z
 _atom_site_occupancy
  Pb  Pb0  1  0.000000  0.000000  0.750000  1
  Pb  Pb1  1  0.000000  0.000000  0.250000  1
  Au  Au2  1  0.500000  0.000000  0.500000  1
  Au  Au3  1  0.000000  0.500000  0.500000  1
  Au  Au4  1  0.500000  0.000000  0.000000  1
  Au  Au5  1  0.000000  0.500000  0.000000  1
  F  F6  1  0.685424  0.860727  0.620543  1
  F  F7  1  0.314576  0.139273  0.620543  1
  F  F8  1  0.860727  0.685424  0.879457  1
  F  F9  1  0.860727  0.314576  0.620543  1
  F  F10  1  0.139273  0.685424  0.620543  1
  F  F11  1  0.314576  0.860727  0.879457  1
  F  F12  1  0.860727  0.685424  0.120543  1
  F  F13  1  0.314576  0.860727  0.120543  1
  F  F14  1  0.685424  0.139273  0.120543  1
  F  F15  1  0.860727  0.314576  0.379457  1
  F  F16  1  0.139273  0.685424  0.379457  1
  F  F17  1  0.139273  0.314576  0.120543  1
  F  F18  1  0.685424  0.860727  0.379457  1
  F  F19  1  0.314576  0.139273  0.379457  1
  F  F20  1  0.139273  0.314576  0.879457  1
  F  F21  1  0.685424  0.139273  0.879457  1
