# generated using pymatgen
data_Tb3Tm13(CdRh)4
_symmetry_space_group_name_H-M   'P 1'
_cell_length_a   9.55531171
_cell_length_b   9.55330947
_cell_length_c   9.55336400
_cell_angle_alpha   60.01367469
_cell_angle_beta   59.99288104
_cell_angle_gamma   60.04236425
_symmetry_Int_Tables_number   1
_chemical_formula_structural   Tb3Tm13(CdRh)4
_chemical_formula_sum   'Tb3 Tm13 Cd4 Rh4'
_cell_volume   616.87957099
_cell_formula_units_Z   1
loop_
 _symmetry_equiv_pos_site_id
 _symmetry_equiv_pos_as_xyz
  1  'x, y, z'
loop_
 _atom_site_type_symbol
 _atom_site_label
 _atom_site_symmetry_multiplicity
 _atom_site_fract_x
 _atom_site_fract_y
 _atom_site_fract_z
 _atom_site_occupancy
  Tb  Tb0  1  0.062325  0.062325  0.437675  1
  Tb  Tb1  1  0.436688  0.063769  0.435672  1
  Tb  Tb2  1  0.063769  0.436688  0.063872  1
  Tm  Tm3  1  0.048670  0.649009  0.651161  1
  Tm  Tm4  1  0.437345  0.437345  0.062655  1
  Tm  Tm5  1  0.649009  0.048670  0.651160  1
  Tm  Tm6  1  0.188620  0.811602  0.187351  1
  Tm  Tm7  1  0.187636  0.187636  0.812364  1
  Tm  Tm8  1  0.811880  0.811880  0.188120  1
  Tm  Tm9  1  0.438708  0.061607  0.061409  1
  Tm  Tm10  1  0.811741  0.188695  0.186963  1
  Tm  Tm11  1  0.061607  0.438708  0.438276  1
  Tm  Tm12  1  0.811602  0.188620  0.812429  1
  Tm  Tm13  1  0.188695  0.811741  0.812601  1
  Tm  Tm14  1  0.650606  0.650242  0.047001  1
  Tm  Tm15  1  0.650242  0.650606  0.652152  1
  Cd  Cd16  1  0.417936  0.420118  0.417888  1
  Cd  Cd17  1  0.743186  0.419800  0.419255  1
  Cd  Cd18  1  0.419800  0.743186  0.417756  1
  Cd  Cd19  1  0.420118  0.417936  0.744057  1
  Rh  Rh20  1  0.857934  0.856649  0.428367  1
  Rh  Rh21  1  0.856649  0.857934  0.857050  1
  Rh  Rh22  1  0.428218  0.857018  0.858224  1
  Rh  Rh23  1  0.857018  0.428218  0.856540  1
