# generated using pymatgen
data_Tm8Cu3Si12Rh
_symmetry_space_group_name_H-M   'P 1'
_cell_length_a   7.98141500
_cell_length_b   7.98143995
_cell_length_c   7.93815000
_cell_angle_alpha   90.00019539
_cell_angle_beta   89.99976357
_cell_angle_gamma   120.00046312
_symmetry_Int_Tables_number   1
_chemical_formula_structural   Tm8Cu3Si12Rh
_chemical_formula_sum   'Tm8 Cu3 Si12 Rh1'
_cell_volume   437.93438883
_cell_formula_units_Z   1
loop_
 _symmetry_equiv_pos_site_id
 _symmetry_equiv_pos_as_xyz
  1  'x, y, z'
loop_
 _atom_site_type_symbol
 _atom_site_label
 _atom_site_symmetry_multiplicity
 _atom_site_fract_x
 _atom_site_fract_y
 _atom_site_fract_z
 _atom_site_occupancy
  Tm  Tm0  1  0.000001  0.000000  0.250095  1
  Tm  Tm1  1  0.999999  0.999999  0.750084  1
  Tm  Tm2  1  0.500217  0.499780  0.248221  1
  Tm  Tm3  1  0.500219  0.000439  0.248222  1
  Tm  Tm4  1  0.999565  0.499781  0.248220  1
  Tm  Tm5  1  0.498252  0.501747  0.751789  1
  Tm  Tm6  1  0.498253  0.996506  0.751789  1
  Tm  Tm7  1  0.003494  0.501747  0.751790  1
  Cu  Cu8  1  0.333336  0.666670  0.496440  1
  Cu  Cu9  1  0.666664  0.333332  0.504106  1
  Cu  Cu10  1  0.666664  0.333331  0.996759  1
  Si  Si11  1  0.168898  0.831103  0.500236  1
  Si  Si12  1  0.168898  0.337797  0.500236  1
  Si  Si13  1  0.662207  0.831103  0.500236  1
  Si  Si14  1  0.830960  0.169040  0.499757  1
  Si  Si15  1  0.830961  0.661921  0.499757  1
  Si  Si16  1  0.338079  0.169039  0.499757  1
  Si  Si17  1  0.831860  0.168139  0.999053  1
  Si  Si18  1  0.831859  0.663719  0.999054  1
  Si  Si19  1  0.336280  0.168140  0.999053  1
  Si  Si20  1  0.167521  0.832480  0.001172  1
  Si  Si21  1  0.167521  0.335041  0.001172  1
  Si  Si22  1  0.664956  0.832478  0.001172  1
  Rh  Rh23  1  0.333335  0.666667  0.001832  1
