# generated using pymatgen
data_Sr6NpTaO12
_symmetry_space_group_name_H-M   'P 1'
_cell_length_a   7.01549940
_cell_length_b   7.01549850
_cell_length_c   7.01549881
_cell_angle_alpha   92.09489295
_cell_angle_beta   92.09490270
_cell_angle_gamma   92.09490318
_symmetry_Int_Tables_number   1
_chemical_formula_structural   Sr6NpTaO12
_chemical_formula_sum   'Sr6 Np1 Ta1 O12'
_cell_volume   344.57371448
_cell_formula_units_Z   1
loop_
 _symmetry_equiv_pos_site_id
 _symmetry_equiv_pos_as_xyz
  1  'x, y, z'
loop_
 _atom_site_type_symbol
 _atom_site_label
 _atom_site_symmetry_multiplicity
 _atom_site_fract_x
 _atom_site_fract_y
 _atom_site_fract_z
 _atom_site_occupancy
  Sr  Sr0  1  0.070650  0.264906  0.558983  1
  Sr  Sr1  1  0.441017  0.929350  0.735094  1
  Sr  Sr2  1  0.735094  0.441017  0.929350  1
  Sr  Sr3  1  0.264906  0.558983  0.070650  1
  Sr  Sr4  1  0.558983  0.070650  0.264906  1
  Sr  Sr5  1  0.929350  0.735094  0.441017  1
  Np  Np6  1  0.000000  0.000000  0.000000  1
  Ta  Ta7  1  0.500000  0.500000  0.500000  1
  O  O8  1  0.060975  0.276886  0.940056  1
  O  O9  1  0.059944  0.939025  0.723114  1
  O  O10  1  0.453111  0.578866  0.775555  1
  O  O11  1  0.723114  0.059944  0.939025  1
  O  O12  1  0.224445  0.546889  0.421134  1
  O  O13  1  0.421134  0.224445  0.546889  1
  O  O14  1  0.578866  0.775555  0.453111  1
  O  O15  1  0.775555  0.453111  0.578866  1
  O  O16  1  0.276886  0.940056  0.060975  1
  O  O17  1  0.546889  0.421134  0.224445  1
  O  O18  1  0.940056  0.060975  0.276886  1
  O  O19  1  0.939025  0.723114  0.059944  1
