# generated using pymatgen
data_Li2Yb3MgPt3
_symmetry_space_group_name_H-M   'P 1'
_cell_length_a   7.10831309
_cell_length_b   7.10831388
_cell_length_c   4.16457000
_cell_angle_alpha   90.00000000
_cell_angle_beta   90.00000000
_cell_angle_gamma   119.49256401
_symmetry_Int_Tables_number   1
_chemical_formula_structural   Li2Yb3MgPt3
_chemical_formula_sum   'Li2 Yb3 Mg1 Pt3'
_cell_volume   183.16056361
_cell_formula_units_Z   1
loop_
 _symmetry_equiv_pos_site_id
 _symmetry_equiv_pos_as_xyz
  1  'x, y, z'
loop_
 _atom_site_type_symbol
 _atom_site_label
 _atom_site_symmetry_multiplicity
 _atom_site_fract_x
 _atom_site_fract_y
 _atom_site_fract_z
 _atom_site_occupancy
  Li  Li0  1  0.757191  0.998679  0.500000  1
  Li  Li1  1  0.998679  0.757191  0.500000  1
  Yb  Yb2  1  0.420039  0.999099  0.000000  1
  Yb  Yb3  1  0.999099  0.420039  0.000000  1
  Yb  Yb4  1  0.590088  0.590088  0.000000  1
  Mg  Mg5  1  0.239030  0.239030  0.500000  1
  Pt  Pt6  1  0.331329  0.663640  0.500000  1
  Pt  Pt7  1  0.663640  0.331329  0.500000  1
  Pt  Pt8  1  0.000907  0.000907  0.000000  1
