# generated using pymatgen
data_Dy3Ho5(RuI4)2
_symmetry_space_group_name_H-M   'P 1'
_cell_length_a   11.13903841
_cell_length_b   11.15100239
_cell_length_c   6.18125100
_cell_angle_alpha   89.49525532
_cell_angle_beta   89.54943882
_cell_angle_gamma   88.47979926
_symmetry_Int_Tables_number   1
_chemical_formula_structural   Dy3Ho5(RuI4)2
_chemical_formula_sum   'Dy3 Ho5 Ru2 I8'
_cell_volume   767.45973891
_cell_formula_units_Z   1
loop_
 _symmetry_equiv_pos_site_id
 _symmetry_equiv_pos_as_xyz
  1  'x, y, z'
loop_
 _atom_site_type_symbol
 _atom_site_label
 _atom_site_symmetry_multiplicity
 _atom_site_fract_x
 _atom_site_fract_y
 _atom_site_fract_z
 _atom_site_occupancy
  Dy  Dy0  1  0.202368  0.914769  0.998110  1
  Dy  Dy1  1  0.797835  0.085656  0.001695  1
  Dy  Dy2  1  0.085520  0.797796  0.502181  1
  Ho  Ho3  1  0.915286  0.200110  0.497589  1
  Ho  Ho4  1  0.801822  0.920405  0.504716  1
  Ho  Ho5  1  0.198304  0.079208  0.495114  1
  Ho  Ho6  1  0.079241  0.198157  0.994975  1
  Ho  Ho7  1  0.920348  0.801986  0.004909  1
  Ru  Ru8  1  0.000092  0.999788  0.249920  1
  Ru  Ru9  1  0.000105  0.999772  0.749965  1
  I  I10  1  0.363717  0.846018  0.500801  1
  I  I11  1  0.637748  0.155223  0.499392  1
  I  I12  1  0.154063  0.636882  0.999293  1
  I  I13  1  0.845890  0.363449  0.001522  1
  I  I14  1  0.357457  0.148562  0.002346  1
  I  I15  1  0.642264  0.852316  0.997748  1
  I  I16  1  0.851717  0.642931  0.497734  1
  I  I17  1  0.146222  0.356972  0.501991  1
