# generated using pymatgen
data_Hf6Ti3NbGa6
_symmetry_space_group_name_H-M   'P 1'
_cell_length_a   7.90915600
_cell_length_b   7.90915598
_cell_length_c   5.44228500
_cell_angle_alpha   90.00000000
_cell_angle_beta   90.00000000
_cell_angle_gamma   120.00000007
_symmetry_Int_Tables_number   1
_chemical_formula_structural   Hf6Ti3NbGa6
_chemical_formula_sum   'Hf6 Ti3 Nb1 Ga6'
_cell_volume   294.83035465
_cell_formula_units_Z   1
loop_
 _symmetry_equiv_pos_site_id
 _symmetry_equiv_pos_as_xyz
  1  'x, y, z'
loop_
 _atom_site_type_symbol
 _atom_site_label
 _atom_site_symmetry_multiplicity
 _atom_site_fract_x
 _atom_site_fract_y
 _atom_site_fract_z
 _atom_site_occupancy
  Hf  Hf0  1  0.755872  0.757462  0.248891  1
  Hf  Hf1  1  0.755872  0.998409  0.751109  1
  Hf  Hf2  1  0.001591  0.244128  0.248891  1
  Hf  Hf3  1  0.242538  0.244128  0.751109  1
  Hf  Hf4  1  0.242538  0.998409  0.248891  1
  Hf  Hf5  1  0.001591  0.757462  0.751109  1
  Ti  Ti6  1  0.666667  0.333333  0.000000  1
  Ti  Ti7  1  0.666667  0.333333  0.500000  1
  Ti  Ti8  1  0.333333  0.666667  0.500000  1
  Nb  Nb9  1  0.333333  0.666667  0.000000  1
  Ga  Ga10  1  0.603141  0.002297  0.251678  1
  Ga  Ga11  1  0.603141  0.600844  0.748322  1
  Ga  Ga12  1  0.997703  0.396859  0.748322  1
  Ga  Ga13  1  0.997703  0.600844  0.251678  1
  Ga  Ga14  1  0.399156  0.396859  0.251678  1
  Ga  Ga15  1  0.399156  0.002297  0.748322  1
