# generated using pymatgen
data_YHoTh2(Al8Pt3)3
_symmetry_space_group_name_H-M   'P 1'
_cell_length_a   7.58615347
_cell_length_b   7.60023952
_cell_length_c   13.19509548
_cell_angle_alpha   84.50028391
_cell_angle_beta   78.93349049
_cell_angle_gamma   59.95660657
_symmetry_Int_Tables_number   1
_chemical_formula_structural   YHoTh2(Al8Pt3)3
_chemical_formula_sum   'Y1 Ho1 Th2 Al24 Pt9'
_cell_volume   646.32397327
_cell_formula_units_Z   1
loop_
 _symmetry_equiv_pos_site_id
 _symmetry_equiv_pos_as_xyz
  1  'x, y, z'
loop_
 _atom_site_type_symbol
 _atom_site_label
 _atom_site_symmetry_multiplicity
 _atom_site_fract_x
 _atom_site_fract_y
 _atom_site_fract_z
 _atom_site_occupancy
  Y  Y0  1  0.733535  0.498478  0.806849  1
  Ho  Ho1  1  0.266407  0.501522  0.193280  1
  Th  Th2  1  0.394809  0.168127  0.806769  1
  Th  Th3  1  0.605171  0.831875  0.193233  1
  Al  Al4  1  0.687926  0.830357  0.943838  1
  Al  Al5  1  0.312070  0.169741  0.056212  1
  Al  Al6  1  0.145689  0.832875  0.561483  1
  Al  Al7  1  0.854314  0.167123  0.438529  1
  Al  Al8  1  0.480787  0.167252  0.557633  1
  Al  Al9  1  0.519204  0.832751  0.442375  1
  Al  Al10  1  0.212850  0.168872  0.333122  1
  Al  Al11  1  0.787182  0.831202  0.666836  1
  Al  Al12  1  0.438247  0.510296  0.667302  1
  Al  Al13  1  0.561663  0.489721  0.332656  1
  Al  Al14  1  0.107686  0.159951  0.665587  1
  Al  Al15  1  0.892421  0.839950  0.334363  1
  Al  Al16  1  0.352117  0.502371  0.946039  1
  Al  Al17  1  0.647732  0.497646  0.054065  1
  Al  Al18  1  0.012473  0.167611  0.954354  1
  Al  Al19  1  0.987595  0.832296  0.045688  1
  Al  Al20  1  0.186191  0.500073  0.441004  1
  Al  Al21  1  0.813825  0.499928  0.558959  1
  Al  Al22  1  0.734630  0.167610  0.183547  1
  Al  Al23  1  0.265290  0.832487  0.816448  1
  Al  Al24  1  0.059273  0.634324  0.814944  1
  Al  Al25  1  0.940830  0.365660  0.185051  1
  Al  Al26  1  0.859971  0.040910  0.815866  1
  Al  Al27  1  0.140029  0.958983  0.184134  1
  Pt  Pt28  1  0.120626  0.491482  0.638658  1
  Pt  Pt29  1  0.879565  0.508503  0.361261  1
  Pt  Pt30  1  0.656446  0.171117  0.999845  1
  Pt  Pt31  1  0.343441  0.828922  0.000221  1
  Pt  Pt32  1  0.537627  0.166143  0.361194  1
  Pt  Pt33  1  0.462281  0.834005  0.638710  1
  Pt  Pt34  1  0.778272  0.175167  0.637615  1
  Pt  Pt35  1  0.221752  0.824683  0.362290  1
  Pt  Pt36  1  0.000073  0.499984  0.000038  1
