# generated using pymatgen
data_La9Pr7(MgIr)4
_symmetry_space_group_name_H-M   'P 1'
_cell_length_a   10.14389230
_cell_length_b   10.14389257
_cell_length_c   10.14496400
_cell_angle_alpha   59.99651246
_cell_angle_beta   59.99651160
_cell_angle_gamma   60.32743395
_symmetry_Int_Tables_number   1
_chemical_formula_structural   La9Pr7(MgIr)4
_chemical_formula_sum   'La9 Pr7 Mg4 Ir4'
_cell_volume   739.92032124
_cell_formula_units_Z   1
loop_
 _symmetry_equiv_pos_site_id
 _symmetry_equiv_pos_as_xyz
  1  'x, y, z'
loop_
 _atom_site_type_symbol
 _atom_site_label
 _atom_site_symmetry_multiplicity
 _atom_site_fract_x
 _atom_site_fract_y
 _atom_site_fract_z
 _atom_site_occupancy
  La  La0  1  0.345474  0.345474  0.345485  1
  La  La1  1  0.345474  0.345474  0.963568  1
  La  La2  1  0.346691  0.963231  0.345039  1
  La  La3  1  0.963231  0.346691  0.345039  1
  La  La4  1  0.810664  0.187719  0.189322  1
  La  La5  1  0.187719  0.810664  0.812296  1
  La  La6  1  0.187719  0.810664  0.189322  1
  La  La7  1  0.810664  0.187719  0.812296  1
  La  La8  1  0.188533  0.188533  0.811467  1
  Pr  Pr9  1  0.809298  0.809298  0.190702  1
  Pr  Pr10  1  0.936934  0.563170  0.562870  1
  Pr  Pr11  1  0.563170  0.936934  0.937026  1
  Pr  Pr12  1  0.563170  0.936934  0.562870  1
  Pr  Pr13  1  0.936934  0.563170  0.937026  1
  Pr  Pr14  1  0.562942  0.562942  0.937058  1
  Pr  Pr15  1  0.937614  0.937614  0.562386  1
  Mg  Mg16  1  0.579413  0.579413  0.578394  1
  Mg  Mg17  1  0.579413  0.579413  0.262779  1
  Mg  Mg18  1  0.579080  0.262510  0.579205  1
  Mg  Mg19  1  0.262510  0.579080  0.579205  1
  Ir  Ir20  1  0.141008  0.141008  0.140544  1
  Ir  Ir21  1  0.141008  0.141008  0.577441  1
  Ir  Ir22  1  0.145010  0.576328  0.139331  1
  Ir  Ir23  1  0.576328  0.145010  0.139331  1
