# generated using pymatgen
data_Lu5(Tl2Pd)2
_symmetry_space_group_name_H-M   'P 1'
_cell_length_a   18.02032800
_cell_length_b   8.02432200
_cell_length_c   3.56773900
_cell_angle_alpha   90.00000000
_cell_angle_beta   90.00000000
_cell_angle_gamma   90.00000000
_symmetry_Int_Tables_number   1
_chemical_formula_structural   Lu5(Tl2Pd)2
_chemical_formula_sum   'Lu10 Tl8 Pd4'
_cell_volume   515.89832180
_cell_formula_units_Z   2
loop_
 _symmetry_equiv_pos_site_id
 _symmetry_equiv_pos_as_xyz
  1  'x, y, z'
loop_
 _atom_site_type_symbol
 _atom_site_label
 _atom_site_symmetry_multiplicity
 _atom_site_fract_x
 _atom_site_fract_y
 _atom_site_fract_z
 _atom_site_occupancy
  Lu  Lu0  1  0.000000  0.000000  0.000000  1
  Lu  Lu1  1  0.414497  0.115966  0.000000  1
  Lu  Lu2  1  0.219914  0.241506  0.000000  1
  Lu  Lu3  1  0.719914  0.258495  0.000000  1
  Lu  Lu4  1  0.914497  0.384033  0.000000  1
  Lu  Lu5  1  0.500000  0.500000  0.000000  1
  Lu  Lu6  1  0.085503  0.615967  0.000000  1
  Lu  Lu7  1  0.280086  0.741506  0.000000  1
  Lu  Lu8  1  0.780086  0.758494  0.000000  1
  Lu  Lu9  1  0.585503  0.884033  0.000000  1
  Tl  Tl10  1  0.851861  0.081270  0.499999  1
  Tl  Tl11  1  0.564826  0.207701  0.499999  1
  Tl  Tl12  1  0.064826  0.292298  0.499999  1
  Tl  Tl13  1  0.351861  0.418730  0.499999  1
  Tl  Tl14  1  0.648139  0.581270  0.499999  1
  Tl  Tl15  1  0.935174  0.707702  0.499999  1
  Tl  Tl16  1  0.435174  0.792298  0.499999  1
  Tl  Tl17  1  0.148139  0.918730  0.499999  1
  Pd  Pd18  1  0.303933  0.025369  0.499999  1
  Pd  Pd19  1  0.803933  0.474631  0.499999  1
  Pd  Pd20  1  0.196067  0.525370  0.499999  1
  Pd  Pd21  1  0.696067  0.974631  0.499999  1
