# generated using pymatgen
data_Y15Er5Si15Pt
_symmetry_space_group_name_H-M   'P 1'
_cell_length_a   7.38733116
_cell_length_b   7.72614853
_cell_length_c   14.62039261
_cell_angle_alpha   90.02415736
_cell_angle_beta   90.02245538
_cell_angle_gamma   90.08967295
_symmetry_Int_Tables_number   1
_chemical_formula_structural   Y15Er5Si15Pt
_chemical_formula_sum   'Y15 Er5 Si15 Pt1'
_cell_volume   834.46678017
_cell_formula_units_Z   1
loop_
 _symmetry_equiv_pos_site_id
 _symmetry_equiv_pos_as_xyz
  1  'x, y, z'
loop_
 _atom_site_type_symbol
 _atom_site_label
 _atom_site_symmetry_multiplicity
 _atom_site_fract_x
 _atom_site_fract_y
 _atom_site_fract_z
 _atom_site_occupancy
  Y  Y0  1  0.186770  0.323637  0.876540  1
  Y  Y1  1  0.317853  0.820104  0.123524  1
  Y  Y2  1  0.817161  0.677860  0.376425  1
  Y  Y3  1  0.317958  0.820326  0.376711  1
  Y  Y4  1  0.817125  0.677815  0.123810  1
  Y  Y5  1  0.679905  0.178944  0.876838  1
  Y  Y6  1  0.186923  0.323551  0.623290  1
  Y  Y7  1  0.525213  0.681791  0.594389  1
  Y  Y8  1  0.027037  0.817614  0.904058  1
  Y  Y9  1  0.473189  0.315955  0.097822  1
  Y  Y10  1  0.972841  0.182816  0.402286  1
  Y  Y11  1  0.473511  0.316132  0.402407  1
  Y  Y12  1  0.972964  0.182758  0.097794  1
  Y  Y13  1  0.525190  0.681933  0.905514  1
  Y  Y14  1  0.026893  0.817676  0.595802  1
  Er  Er15  1  0.678984  0.179555  0.623596  1
  Er  Er16  1  0.843395  0.509354  0.749751  1
  Er  Er17  1  0.355918  0.984780  0.749834  1
  Er  Er18  1  0.148673  0.485624  0.250029  1
  Er  Er19  1  0.648575  0.013057  0.250074  1
  Si  Si20  1  0.647636  0.972769  0.459587  1
  Si  Si21  1  0.146182  0.527561  0.040588  1
  Si  Si22  1  0.351715  0.026312  0.960096  1
  Si  Si23  1  0.851603  0.470912  0.540283  1
  Si  Si24  1  0.353209  0.026644  0.540321  1
  Si  Si25  1  0.852697  0.472453  0.959865  1
  Si  Si26  1  0.646832  0.971997  0.041214  1
  Si  Si27  1  0.146111  0.527449  0.459465  1
  Si  Si28  1  0.980076  0.102133  0.749259  1
  Si  Si29  1  0.520114  0.602441  0.250030  1
  Si  Si30  1  0.019914  0.895927  0.250035  1
  Si  Si31  1  0.740252  0.875513  0.749390  1
  Si  Si32  1  0.229158  0.632362  0.749993  1
  Si  Si33  1  0.267633  0.128653  0.250022  1
  Si  Si34  1  0.767516  0.370962  0.250019  1
  Pt  Pt35  1  0.483273  0.404631  0.749338  1
