# generated using pymatgen
data_Dy2Ho14Cd4Ru3Pt
_symmetry_space_group_name_H-M   'P 1'
_cell_length_a   9.58563355
_cell_length_b   9.62106571
_cell_length_c   9.64273200
_cell_angle_alpha   59.92441627
_cell_angle_beta   59.80146698
_cell_angle_gamma   59.69628256
_symmetry_Int_Tables_number   1
_chemical_formula_structural   Dy2Ho14Cd4Ru3Pt
_chemical_formula_sum   'Dy2 Ho14 Cd4 Ru3 Pt1'
_cell_volume   626.06961590
_cell_formula_units_Z   1
loop_
 _symmetry_equiv_pos_site_id
 _symmetry_equiv_pos_as_xyz
  1  'x, y, z'
loop_
 _atom_site_type_symbol
 _atom_site_label
 _atom_site_symmetry_multiplicity
 _atom_site_fract_x
 _atom_site_fract_y
 _atom_site_fract_z
 _atom_site_occupancy
  Dy  Dy0  1  0.557920  0.565840  0.938130  1
  Dy  Dy1  1  0.936750  0.938851  0.562191  1
  Ho  Ho2  1  0.345686  0.350539  0.349755  1
  Ho  Ho3  1  0.345725  0.350549  0.953985  1
  Ho  Ho4  1  0.346208  0.954485  0.349661  1
  Ho  Ho5  1  0.963508  0.345676  0.345412  1
  Ho  Ho6  1  0.814439  0.189294  0.189881  1
  Ho  Ho7  1  0.187071  0.811105  0.811944  1
  Ho  Ho8  1  0.187063  0.811105  0.189880  1
  Ho  Ho9  1  0.814435  0.189297  0.806375  1
  Ho  Ho10  1  0.187908  0.188794  0.811654  1
  Ho  Ho11  1  0.814387  0.805509  0.190053  1
  Ho  Ho12  1  0.936743  0.562005  0.562174  1
  Ho  Ho13  1  0.557756  0.938451  0.938180  1
  Ho  Ho14  1  0.557717  0.938451  0.565620  1
  Ho  Ho15  1  0.936730  0.562019  0.939085  1
  Cd  Cd16  1  0.580726  0.580240  0.580346  1
  Cd  Cd17  1  0.580721  0.580236  0.258685  1
  Cd  Cd18  1  0.580491  0.258430  0.580542  1
  Cd  Cd19  1  0.255608  0.581022  0.581678  1
  Ru  Ru20  1  0.145602  0.138800  0.137182  1
  Ru  Ru21  1  0.145593  0.138787  0.578440  1
  Ru  Ru22  1  0.145642  0.578143  0.138113  1
  Pt  Pt23  1  0.575576  0.142368  0.141032  1
