# generated using pymatgen
data_Tb3Ni2RhPb3
_symmetry_space_group_name_H-M   'P 1'
_cell_length_a   7.71654300
_cell_length_b   7.71654338
_cell_length_c   3.78050300
_cell_angle_alpha   90.00000000
_cell_angle_beta   90.00000000
_cell_angle_gamma   119.99998664
_symmetry_Int_Tables_number   1
_chemical_formula_structural   Tb3Ni2RhPb3
_chemical_formula_sum   'Tb3 Ni2 Rh1 Pb3'
_cell_volume   194.95117633
_cell_formula_units_Z   1
loop_
 _symmetry_equiv_pos_site_id
 _symmetry_equiv_pos_as_xyz
  1  'x, y, z'
loop_
 _atom_site_type_symbol
 _atom_site_label
 _atom_site_symmetry_multiplicity
 _atom_site_fract_x
 _atom_site_fract_y
 _atom_site_fract_z
 _atom_site_occupancy
  Tb  Tb0  1  0.400598  0.994640  0.500000  1
  Tb  Tb1  1  0.005360  0.405958  0.500000  1
  Tb  Tb2  1  0.594042  0.599402  0.500000  1
  Ni  Ni3  1  0.666667  0.333333  0.000000  1
  Ni  Ni4  1  0.000000  0.000000  0.500000  1
  Rh  Rh5  1  0.333333  0.666667  0.000000  1
  Pb  Pb6  1  0.742737  0.007423  0.000000  1
  Pb  Pb7  1  0.992577  0.735313  0.000000  1
  Pb  Pb8  1  0.264687  0.257263  0.000000  1
