# generated using pymatgen
data_NpBr6
_symmetry_space_group_name_H-M   'P 1'
_cell_length_a   7.88047160
_cell_length_b   7.88047097
_cell_length_c   7.88047205
_cell_angle_alpha   55.83918396
_cell_angle_beta   55.83919315
_cell_angle_gamma   55.83918097
_symmetry_Int_Tables_number   1
_chemical_formula_structural   NpBr6
_chemical_formula_sum   'Np1 Br6'
_cell_volume   312.67084727
_cell_formula_units_Z   1
loop_
 _symmetry_equiv_pos_site_id
 _symmetry_equiv_pos_as_xyz
  1  'x, y, z'
loop_
 _atom_site_type_symbol
 _atom_site_label
 _atom_site_symmetry_multiplicity
 _atom_site_fract_x
 _atom_site_fract_y
 _atom_site_fract_z
 _atom_site_occupancy
  Np  Np0  1  0.000000  0.000000  0.000000  1
  Br  Br1  1  0.080695  0.364294  0.783423  1
  Br  Br2  1  0.635706  0.216577  0.919305  1
  Br  Br3  1  0.216577  0.919305  0.635706  1
  Br  Br4  1  0.919305  0.635706  0.216577  1
  Br  Br5  1  0.364294  0.783423  0.080695  1
  Br  Br6  1  0.783423  0.080695  0.364294  1
