# generated using pymatgen
data_LaTmTh7Se17
_symmetry_space_group_name_H-M   'P 1'
_cell_length_a   8.49383157
_cell_length_b   8.47979933
_cell_length_c   11.24713000
_cell_angle_alpha   80.63323778
_cell_angle_beta   80.61848926
_cell_angle_gamma   65.18031533
_symmetry_Int_Tables_number   1
_chemical_formula_structural   LaTmTh7Se17
_chemical_formula_sum   'La1 Tm1 Th7 Se17'
_cell_volume   721.39059326
_cell_formula_units_Z   1
loop_
 _symmetry_equiv_pos_site_id
 _symmetry_equiv_pos_as_xyz
  1  'x, y, z'
loop_
 _atom_site_type_symbol
 _atom_site_label
 _atom_site_symmetry_multiplicity
 _atom_site_fract_x
 _atom_site_fract_y
 _atom_site_fract_z
 _atom_site_occupancy
  La  La0  1  0.811264  0.305192  0.299018  1
  Tm  Tm1  1  0.998529  0.002000  0.001876  1
  Th  Th2  1  0.302914  0.813322  0.298442  1
  Th  Th3  1  0.186155  0.697109  0.699727  1
  Th  Th4  1  0.698016  0.187214  0.700083  1
  Th  Th5  1  0.206284  0.203628  0.538709  1
  Th  Th6  1  0.794449  0.792398  0.460557  1
  Th  Th7  1  0.680448  0.682433  0.981075  1
  Th  Th8  1  0.315789  0.320330  0.020686  1
  Se  Se9  1  0.825597  0.430930  0.538465  1
  Se  Se10  1  0.431960  0.819644  0.533457  1
  Se  Se11  1  0.178234  0.566327  0.467438  1
  Se  Se12  1  0.569170  0.171603  0.471901  1
  Se  Se13  1  0.943048  0.335631  0.031824  1
  Se  Se14  1  0.332351  0.945128  0.034250  1
  Se  Se15  1  0.056678  0.668962  0.961462  1
  Se  Se16  1  0.666047  0.059816  0.962892  1
  Se  Se17  1  0.218907  0.202832  0.277607  1
  Se  Se18  1  0.790801  0.791486  0.723397  1
  Se  Se19  1  0.065326  0.061767  0.763285  1
  Se  Se20  1  0.943127  0.927144  0.238235  1
  Se  Se21  1  0.304824  0.304124  0.752479  1
  Se  Se22  1  0.688943  0.706351  0.245760  1
  Se  Se23  1  0.519375  0.521650  0.831733  1
  Se  Se24  1  0.470061  0.488596  0.162326  1
  Se  Se25  1  0.001702  0.994386  0.503319  1
