# generated using pymatgen
data_Ho2Mg3PaIr3
_symmetry_space_group_name_H-M   'P 1'
_cell_length_a   7.22043782
_cell_length_b   7.22043636
_cell_length_c   4.00489500
_cell_angle_alpha   90.00000000
_cell_angle_beta   90.00000000
_cell_angle_gamma   117.65566328
_symmetry_Int_Tables_number   1
_chemical_formula_structural   Ho2Mg3PaIr3
_chemical_formula_sum   'Ho2 Mg3 Pa1 Ir3'
_cell_volume   184.93996698
_cell_formula_units_Z   1
loop_
 _symmetry_equiv_pos_site_id
 _symmetry_equiv_pos_as_xyz
  1  'x, y, z'
loop_
 _atom_site_type_symbol
 _atom_site_label
 _atom_site_symmetry_multiplicity
 _atom_site_fract_x
 _atom_site_fract_y
 _atom_site_fract_z
 _atom_site_occupancy
  Ho  Ho0  1  0.593091  0.998405  0.500000  1
  Ho  Ho1  1  0.998405  0.593091  0.500000  1
  Mg  Mg2  1  0.767004  0.767004  0.000000  1
  Mg  Mg3  1  0.247085  0.991638  0.000000  1
  Mg  Mg4  1  0.991638  0.247085  0.000000  1
  Pa  Pa5  1  0.412705  0.412705  0.500000  1
  Ir  Ir6  1  0.641257  0.335737  0.000000  1
  Ir  Ir7  1  0.335737  0.641257  0.000000  1
  Ir  Ir8  1  0.013077  0.013077  0.500000  1
