# generated using pymatgen
data_Dy2Zr2IrPt
_symmetry_space_group_name_H-M   'P 1'
_cell_length_a   4.68732400
_cell_length_b   7.12455300
_cell_length_c   8.20833200
_cell_angle_alpha   90.00000000
_cell_angle_beta   90.00000000
_cell_angle_gamma   90.00000000
_symmetry_Int_Tables_number   1
_chemical_formula_structural   Dy2Zr2IrPt
_chemical_formula_sum   'Dy4 Zr4 Ir2 Pt2'
_cell_volume   274.11797166
_cell_formula_units_Z   2
loop_
 _symmetry_equiv_pos_site_id
 _symmetry_equiv_pos_as_xyz
  1  'x, y, z'
loop_
 _atom_site_type_symbol
 _atom_site_label
 _atom_site_symmetry_multiplicity
 _atom_site_fract_x
 _atom_site_fract_y
 _atom_site_fract_z
 _atom_site_occupancy
  Dy  Dy0  1  0.250000  0.017091  0.678928  1
  Dy  Dy1  1  0.250000  0.517091  0.821072  1
  Dy  Dy2  1  0.750000  0.985279  0.324188  1
  Dy  Dy3  1  0.750000  0.485279  0.175812  1
  Zr  Zr4  1  0.250000  0.141424  0.083324  1
  Zr  Zr5  1  0.250000  0.641424  0.416676  1
  Zr  Zr6  1  0.750000  0.853760  0.923626  1
  Zr  Zr7  1  0.750000  0.353760  0.576374  1
  Ir  Ir8  1  0.250000  0.270946  0.412905  1
  Ir  Ir9  1  0.250000  0.770946  0.087095  1
  Pt  Pt10  1  0.750000  0.731499  0.591916  1
  Pt  Pt11  1  0.750000  0.231499  0.908084  1
