# generated using pymatgen
data_Ce3Er9Tc3Ir
_symmetry_space_group_name_H-M   'P 1'
_cell_length_a   6.30651500
_cell_length_b   7.17748865
_cell_length_c   9.35339600
_cell_angle_alpha   90.00000000
_cell_angle_beta   90.00000000
_cell_angle_gamma   90.80797239
_symmetry_Int_Tables_number   1
_chemical_formula_structural   Ce3Er9Tc3Ir
_chemical_formula_sum   'Ce3 Er9 Tc3 Ir1'
_cell_volume   423.33881087
_cell_formula_units_Z   1
loop_
 _symmetry_equiv_pos_site_id
 _symmetry_equiv_pos_as_xyz
  1  'x, y, z'
loop_
 _atom_site_type_symbol
 _atom_site_label
 _atom_site_symmetry_multiplicity
 _atom_site_fract_x
 _atom_site_fract_y
 _atom_site_fract_z
 _atom_site_occupancy
  Ce  Ce0  1  0.864517  0.557248  0.250000  1
  Ce  Ce1  1  0.630142  0.052122  0.250000  1
  Ce  Ce2  1  0.131761  0.440093  0.750000  1
  Er  Er3  1  0.329637  0.678136  0.061094  1
  Er  Er4  1  0.164307  0.176987  0.436301  1
  Er  Er5  1  0.665640  0.325610  0.562352  1
  Er  Er6  1  0.832171  0.819963  0.933100  1
  Er  Er7  1  0.665640  0.325610  0.937648  1
  Er  Er8  1  0.832171  0.819963  0.566900  1
  Er  Er9  1  0.329637  0.678136  0.438906  1
  Er  Er10  1  0.164307  0.176987  0.063699  1
  Er  Er11  1  0.373495  0.964449  0.750000  1
  Tc  Tc12  1  0.005956  0.863721  0.250000  1
  Tc  Tc13  1  0.495406  0.361001  0.250000  1
  Tc  Tc14  1  0.976774  0.143126  0.750000  1
  Ir  Ir15  1  0.538440  0.616847  0.750000  1
