# generated using pymatgen
data_Hf4Cr2Re5Mo
_symmetry_space_group_name_H-M   'P 1'
_cell_length_a   5.23789140
_cell_length_b   5.24278962
_cell_length_c   8.59697800
_cell_angle_alpha   90.00000000
_cell_angle_beta   90.00000000
_cell_angle_gamma   120.75580444
_symmetry_Int_Tables_number   1
_chemical_formula_structural   Hf4Cr2Re5Mo
_chemical_formula_sum   'Hf4 Cr2 Re5 Mo1'
_cell_volume   202.87902379
_cell_formula_units_Z   1
loop_
 _symmetry_equiv_pos_site_id
 _symmetry_equiv_pos_as_xyz
  1  'x, y, z'
loop_
 _atom_site_type_symbol
 _atom_site_label
 _atom_site_symmetry_multiplicity
 _atom_site_fract_x
 _atom_site_fract_y
 _atom_site_fract_z
 _atom_site_occupancy
  Hf  Hf0  1  0.335025  0.667232  0.061571  1
  Hf  Hf1  1  0.667610  0.335660  0.559074  1
  Hf  Hf2  1  0.667610  0.335660  0.940926  1
  Hf  Hf3  1  0.335025  0.667232  0.438429  1
  Cr  Cr4  1  0.828565  0.657513  0.250000  1
  Cr  Cr5  1  0.658616  0.827887  0.750000  1
  Re  Re6  1  0.992634  0.994480  0.000066  1
  Re  Re7  1  0.992634  0.994480  0.499934  1
  Re  Re8  1  0.343989  0.173002  0.250000  1
  Re  Re9  1  0.828691  0.173188  0.250000  1
  Re  Re10  1  0.175013  0.344080  0.750000  1
  Mo  Mo11  1  0.174584  0.829588  0.750000  1
