# generated using pymatgen
data_Tb2Ga9NiOs2
_symmetry_space_group_name_H-M   'P 1'
_cell_length_a   7.54842425
_cell_length_b   7.54842336
_cell_length_c   9.57770100
_cell_angle_alpha   90.00000000
_cell_angle_beta   90.00000000
_cell_angle_gamma   120.51803180
_symmetry_Int_Tables_number   1
_chemical_formula_structural   Tb2Ga9NiOs2
_chemical_formula_sum   'Tb4 Ga18 Ni2 Os4'
_cell_volume   470.12535653
_cell_formula_units_Z   2
loop_
 _symmetry_equiv_pos_site_id
 _symmetry_equiv_pos_as_xyz
  1  'x, y, z'
loop_
 _atom_site_type_symbol
 _atom_site_label
 _atom_site_symmetry_multiplicity
 _atom_site_fract_x
 _atom_site_fract_y
 _atom_site_fract_z
 _atom_site_occupancy
  Tb  Tb0  1  0.996184  0.658101  0.250000  1
  Tb  Tb1  1  0.003816  0.341899  0.750000  1
  Tb  Tb2  1  0.658101  0.996184  0.250000  1
  Tb  Tb3  1  0.341899  0.003816  0.750000  1
  Ga  Ga4  1  0.114177  0.114177  0.250000  1
  Ga  Ga5  1  0.885823  0.885823  0.750000  1
  Ga  Ga6  1  0.000084  0.326159  0.074865  1
  Ga  Ga7  1  0.999916  0.673841  0.925135  1
  Ga  Ga8  1  0.999916  0.673841  0.574865  1
  Ga  Ga9  1  0.326159  0.000084  0.425135  1
  Ga  Ga10  1  0.000084  0.326159  0.425135  1
  Ga  Ga11  1  0.673841  0.999916  0.574865  1
  Ga  Ga12  1  0.673841  0.999916  0.925135  1
  Ga  Ga13  1  0.326159  0.000084  0.074865  1
  Ga  Ga14  1  0.333665  0.333665  0.560296  1
  Ga  Ga15  1  0.666335  0.666335  0.439704  1
  Ga  Ga16  1  0.666335  0.666335  0.060296  1
  Ga  Ga17  1  0.333665  0.333665  0.939704  1
  Ga  Ga18  1  0.334960  0.541873  0.250000  1
  Ga  Ga19  1  0.665040  0.458127  0.750000  1
  Ga  Ga20  1  0.541873  0.334960  0.250000  1
  Ga  Ga21  1  0.458127  0.665040  0.750000  1
  Ni  Ni22  1  0.000000  0.000000  0.000000  1
  Ni  Ni23  1  0.000000  0.000000  0.500000  1
  Os  Os24  1  0.672937  0.327063  0.000000  1
  Os  Os25  1  0.327063  0.672937  0.000000  1
  Os  Os26  1  0.327063  0.672937  0.500000  1
  Os  Os27  1  0.672937  0.327063  0.500000  1
