# generated using pymatgen
data_PrTh3(GePd14)2
_symmetry_space_group_name_H-M   'P 1'
_cell_length_a   9.06420100
_cell_length_b   9.06420100
_cell_length_c   7.12916600
_cell_angle_alpha   90.00000000
_cell_angle_beta   90.00000000
_cell_angle_gamma   90.00000000
_symmetry_Int_Tables_number   1
_chemical_formula_structural   PrTh3(GePd14)2
_chemical_formula_sum   'Pr1 Th3 Ge2 Pd28'
_cell_volume   585.73042333
_cell_formula_units_Z   1
loop_
 _symmetry_equiv_pos_site_id
 _symmetry_equiv_pos_as_xyz
  1  'x, y, z'
loop_
 _atom_site_type_symbol
 _atom_site_label
 _atom_site_symmetry_multiplicity
 _atom_site_fract_x
 _atom_site_fract_y
 _atom_site_fract_z
 _atom_site_occupancy
  Pr  Pr0  1  0.000000  0.500000  0.065409  1
  Th  Th1  1  0.500000  0.000000  0.931905  1
  Th  Th2  1  0.000000  0.000000  0.499426  1
  Th  Th3  1  0.500000  0.500000  0.499426  1
  Ge  Ge4  1  0.500000  0.000000  0.448047  1
  Ge  Ge5  1  0.000000  0.500000  0.550102  1
  Pd  Pd6  1  0.332174  0.832174  0.621850  1
  Pd  Pd7  1  0.332174  0.167826  0.621850  1
  Pd  Pd8  1  0.667826  0.832174  0.621850  1
  Pd  Pd9  1  0.667826  0.167826  0.621850  1
  Pd  Pd10  1  0.169395  0.669395  0.380955  1
  Pd  Pd11  1  0.169395  0.330605  0.380955  1
  Pd  Pd12  1  0.830605  0.669395  0.380955  1
  Pd  Pd13  1  0.830605  0.330605  0.380955  1
  Pd  Pd14  1  0.500000  0.766936  0.254102  1
  Pd  Pd15  1  0.500000  0.233064  0.254102  1
  Pd  Pd16  1  0.266936  0.000000  0.254102  1
  Pd  Pd17  1  0.733064  0.000000  0.254102  1
  Pd  Pd18  1  0.000000  0.735700  0.742609  1
  Pd  Pd19  1  0.000000  0.264300  0.742609  1
  Pd  Pd20  1  0.235700  0.500000  0.742609  1
  Pd  Pd21  1  0.764300  0.500000  0.742609  1
  Pd  Pd22  1  0.500000  0.349540  0.853970  1
  Pd  Pd23  1  0.500000  0.650460  0.853970  1
  Pd  Pd24  1  0.849540  0.000000  0.853970  1
  Pd  Pd25  1  0.150460  0.000000  0.853970  1
  Pd  Pd26  1  0.000000  0.150208  0.147300  1
  Pd  Pd27  1  0.000000  0.849792  0.147300  1
  Pd  Pd28  1  0.650208  0.500000  0.147300  1
  Pd  Pd29  1  0.349792  0.500000  0.147300  1
  Pd  Pd30  1  0.251389  0.751389  0.000636  1
  Pd  Pd31  1  0.251389  0.248611  0.000636  1
  Pd  Pd32  1  0.748611  0.751389  0.000636  1
  Pd  Pd33  1  0.748611  0.248611  0.000636  1
