# generated using pymatgen
data_PrNd2Y13(CdRu)4
_symmetry_space_group_name_H-M   'P 1'
_cell_length_a   9.73373542
_cell_length_b   9.72305160
_cell_length_c   9.71983844
_cell_angle_alpha   59.94283114
_cell_angle_beta   59.98025110
_cell_angle_gamma   59.94919513
_symmetry_Int_Tables_number   1
_chemical_formula_structural   PrNd2Y13(CdRu)4
_chemical_formula_sum   'Pr1 Nd2 Y13 Cd4 Ru4'
_cell_volume   649.84015910
_cell_formula_units_Z   1
loop_
 _symmetry_equiv_pos_site_id
 _symmetry_equiv_pos_as_xyz
  1  'x, y, z'
loop_
 _atom_site_type_symbol
 _atom_site_label
 _atom_site_symmetry_multiplicity
 _atom_site_fract_x
 _atom_site_fract_y
 _atom_site_fract_z
 _atom_site_occupancy
  Pr  Pr0  1  0.437354  0.439074  0.062575  1
  Nd  Nd1  1  0.060866  0.062459  0.439241  1
  Nd  Nd2  1  0.438906  0.060832  0.061105  1
  Y  Y3  1  0.846904  0.846084  0.845223  1
  Y  Y4  1  0.688830  0.311315  0.311416  1
  Y  Y5  1  0.059570  0.440154  0.440428  1
  Y  Y6  1  0.311509  0.688631  0.688216  1
  Y  Y7  1  0.310705  0.311036  0.688525  1
  Y  Y8  1  0.846746  0.845106  0.461674  1
  Y  Y9  1  0.689721  0.688525  0.311043  1
  Y  Y10  1  0.461939  0.845414  0.845913  1
  Y  Y11  1  0.057290  0.441991  0.059921  1
  Y  Y12  1  0.846692  0.461767  0.844927  1
  Y  Y13  1  0.440540  0.059678  0.442190  1
  Y  Y14  1  0.311845  0.686978  0.312283  1
  Y  Y15  1  0.689307  0.312164  0.686559  1
  Cd  Cd16  1  0.077588  0.760565  0.080857  1
  Cd  Cd17  1  0.080953  0.080812  0.760226  1
  Cd  Cd18  1  0.762643  0.077909  0.081242  1
  Cd  Cd19  1  0.078161  0.081196  0.078303  1
  Ru  Ru20  1  0.637483  0.081377  0.638835  1
  Ru  Ru21  1  0.639820  0.641091  0.636882  1
  Ru  Ru22  1  0.642392  0.638856  0.081384  1
  Ru  Ru23  1  0.082235  0.636979  0.641027  1
