# generated using pymatgen
data_Tm7PaTiPd24
_symmetry_space_group_name_H-M   'P 1'
_cell_length_a   8.31201526
_cell_length_b   8.31201581
_cell_length_c   8.31201600
_cell_angle_alpha   89.66126977
_cell_angle_beta   89.66126975
_cell_angle_gamma   89.66127213
_symmetry_Int_Tables_number   1
_chemical_formula_structural   Tm7PaTiPd24
_chemical_formula_sum   'Tm7 Pa1 Ti1 Pd24'
_cell_volume   574.24388999
_cell_formula_units_Z   1
loop_
 _symmetry_equiv_pos_site_id
 _symmetry_equiv_pos_as_xyz
  1  'x, y, z'
loop_
 _atom_site_type_symbol
 _atom_site_label
 _atom_site_symmetry_multiplicity
 _atom_site_fract_x
 _atom_site_fract_y
 _atom_site_fract_z
 _atom_site_occupancy
  Tm  Tm0  1  0.745846  0.745846  0.745846  1
  Tm  Tm1  1  0.747025  0.747025  0.252226  1
  Tm  Tm2  1  0.747025  0.252226  0.747025  1
  Tm  Tm3  1  0.253215  0.253215  0.749685  1
  Tm  Tm4  1  0.253215  0.749685  0.253215  1
  Tm  Tm5  1  0.252226  0.747025  0.747025  1
  Tm  Tm6  1  0.749685  0.253215  0.253215  1
  Pa  Pa7  1  0.254562  0.254562  0.254562  1
  Ti  Ti8  1  0.997455  0.997455  0.997455  1
  Pd  Pd9  1  0.261116  0.498750  0.004849  1
  Pd  Pd10  1  0.738718  0.499221  0.999696  1
  Pd  Pd11  1  0.004849  0.261116  0.498750  1
  Pd  Pd12  1  0.498750  0.261116  0.004849  1
  Pd  Pd13  1  0.999696  0.738718  0.499221  1
  Pd  Pd14  1  0.499221  0.738718  0.999696  1
  Pd  Pd15  1  0.498750  0.004849  0.261116  1
  Pd  Pd16  1  0.261116  0.004849  0.498750  1
  Pd  Pd17  1  0.499221  0.999696  0.738718  1
  Pd  Pd18  1  0.738718  0.999696  0.499221  1
  Pd  Pd19  1  0.004849  0.498750  0.261116  1
  Pd  Pd20  1  0.999696  0.499221  0.738718  1
  Pd  Pd21  1  0.254242  0.498390  0.498390  1
  Pd  Pd22  1  0.746926  0.499256  0.499256  1
  Pd  Pd23  1  0.498390  0.254242  0.498390  1
  Pd  Pd24  1  0.499256  0.746926  0.499256  1
  Pd  Pd25  1  0.498390  0.498390  0.254242  1
  Pd  Pd26  1  0.499256  0.499256  0.746926  1
  Pd  Pd27  1  0.293114  0.001424  0.001424  1
  Pd  Pd28  1  0.704920  0.998852  0.998852  1
  Pd  Pd29  1  0.001424  0.293114  0.001424  1
  Pd  Pd30  1  0.998852  0.704920  0.998852  1
  Pd  Pd31  1  0.001424  0.001424  0.293114  1
  Pd  Pd32  1  0.998852  0.998852  0.704920  1
