# generated using pymatgen
data_PrNdMn3PtO10
_symmetry_space_group_name_H-M   'P 1'
_cell_length_a   5.94321900
_cell_length_b   7.62250329
_cell_length_c   8.81794750
_cell_angle_alpha   89.93327775
_cell_angle_beta   90.00000000
_cell_angle_gamma   90.00000000
_symmetry_Int_Tables_number   1
_chemical_formula_structural   PrNdMn3PtO10
_chemical_formula_sum   'Pr2 Nd2 Mn6 Pt2 O20'
_cell_volume   399.47220651
_cell_formula_units_Z   2
loop_
 _symmetry_equiv_pos_site_id
 _symmetry_equiv_pos_as_xyz
  1  'x, y, z'
loop_
 _atom_site_type_symbol
 _atom_site_label
 _atom_site_symmetry_multiplicity
 _atom_site_fract_x
 _atom_site_fract_y
 _atom_site_fract_z
 _atom_site_occupancy
  Pr  Pr0  1  0.003161  0.360437  0.671590  1
  Pr  Pr1  1  0.003161  0.639563  0.328410  1
  Nd  Nd2  1  0.996920  0.860838  0.828936  1
  Nd  Nd3  1  0.996920  0.139162  0.171064  1
  Mn  Mn4  1  0.495405  0.086268  0.851309  1
  Mn  Mn5  1  0.495405  0.913732  0.148691  1
  Mn  Mn6  1  0.504620  0.587617  0.649154  1
  Mn  Mn7  1  0.504620  0.412383  0.350846  1
  Mn  Mn8  1  0.740893  0.500000  0.000000  1
  Mn  Mn9  1  0.258842  0.000000  0.500000  1
  Pt  Pt10  1  0.254297  0.500000  0.000000  1
  Pt  Pt11  1  0.745766  0.000000  0.500000  1
  O  O12  1  0.246889  0.901864  0.292472  1
  O  O13  1  0.246889  0.098136  0.707528  1
  O  O14  1  0.753065  0.399398  0.206913  1
  O  O15  1  0.753065  0.600602  0.793087  1
  O  O16  1  0.753389  0.100295  0.714267  1
  O  O17  1  0.753389  0.899705  0.285733  1
  O  O18  1  0.246815  0.603495  0.786573  1
  O  O19  1  0.246815  0.396505  0.213427  1
  O  O20  1  0.511100  0.344061  0.934321  1
  O  O21  1  0.511100  0.655939  0.065679  1
  O  O22  1  0.488928  0.844064  0.565248  1
  O  O23  1  0.488928  0.155936  0.434752  1
  O  O24  1  0.272516  0.000000  0.000000  1
  O  O25  1  0.725660  0.500000  0.500000  1
  O  O26  1  0.717248  0.000000  0.000000  1
  O  O27  1  0.284434  0.500000  0.500000  1
  O  O28  1  0.012460  0.161517  0.444261  1
  O  O29  1  0.012460  0.838483  0.555739  1
  O  O30  1  0.987421  0.662186  0.053575  1
  O  O31  1  0.987421  0.337814  0.946425  1
