# generated using pymatgen
data_NdTm3Pd4F28
_symmetry_space_group_name_H-M   'P 1'
_cell_length_a   5.50029473
_cell_length_b   8.85814577
_cell_length_c   11.95468800
_cell_angle_alpha   62.48748992
_cell_angle_beta   90.14953414
_cell_angle_gamma   90.06988460
_symmetry_Int_Tables_number   1
_chemical_formula_structural   NdTm3Pd4F28
_chemical_formula_sum   'Nd1 Tm3 Pd4 F28'
_cell_volume   516.58893497
_cell_formula_units_Z   1
loop_
 _symmetry_equiv_pos_site_id
 _symmetry_equiv_pos_as_xyz
  1  'x, y, z'
loop_
 _atom_site_type_symbol
 _atom_site_label
 _atom_site_symmetry_multiplicity
 _atom_site_fract_x
 _atom_site_fract_y
 _atom_site_fract_z
 _atom_site_occupancy
  Nd  Nd0  1  0.737992  0.815701  0.264589  1
  Tm  Tm1  1  0.761966  0.816248  0.763642  1
  Tm  Tm2  1  0.262709  0.184456  0.736667  1
  Tm  Tm3  1  0.235045  0.192365  0.235413  1
  Pd  Pd4  1  0.760610  0.276674  0.954068  1
  Pd  Pd5  1  0.258600  0.725166  0.548609  1
  Pd  Pd6  1  0.243891  0.726250  0.037482  1
  Pd  Pd7  1  0.740989  0.267257  0.459993  1
  F  F8  1  0.435212  0.703307  0.909790  1
  F  F9  1  0.938140  0.293703  0.585157  1
  F  F10  1  0.564551  0.298416  0.081267  1
  F  F11  1  0.070725  0.702172  0.419611  1
  F  F12  1  0.442148  0.276339  0.545448  1
  F  F13  1  0.939174  0.720862  0.954404  1
  F  F14  1  0.557995  0.714790  0.466723  1
  F  F15  1  0.059293  0.282770  0.041279  1
  F  F16  1  0.773007  0.524388  0.856328  1
  F  F17  1  0.268697  0.476166  0.645818  1
  F  F18  1  0.229722  0.478396  0.138202  1
  F  F19  1  0.727138  0.513344  0.360821  1
  F  F20  1  0.757569  0.030345  0.045173  1
  F  F21  1  0.258802  0.971875  0.453235  1
  F  F22  1  0.245627  0.973503  0.947148  1
  F  F23  1  0.743549  0.020301  0.552873  1
  F  F24  1  0.963024  0.727685  0.637578  1
  F  F25  1  0.468026  0.273782  0.862276  1
  F  F26  1  0.035616  0.271290  0.367696  1
  F  F27  1  0.540354  0.723903  0.126299  1
  F  F28  1  0.063318  0.740803  0.172141  1
  F  F29  1  0.547419  0.250838  0.327795  1
  F  F30  1  0.953050  0.256988  0.823379  1
  F  F31  1  0.446628  0.744528  0.680013  1
  F  F32  1  0.393893  0.978161  0.229514  1
  F  F33  1  0.911043  0.046031  0.269128  1
  F  F34  1  0.582669  0.028364  0.767481  1
  F  F35  1  0.081809  0.972832  0.732960  1
