# generated using pymatgen
data_Nd2Mn3Tc14C3
_symmetry_space_group_name_H-M   'P 1'
_cell_length_a   6.94711405
_cell_length_b   6.94711362
_cell_length_c   6.94711391
_cell_angle_alpha   82.58875707
_cell_angle_beta   82.58875787
_cell_angle_gamma   82.58875544
_symmetry_Int_Tables_number   1
_chemical_formula_structural   Nd2Mn3Tc14C3
_chemical_formula_sum   'Nd2 Mn3 Tc14 C3'
_cell_volume   327.54670149
_cell_formula_units_Z   1
loop_
 _symmetry_equiv_pos_site_id
 _symmetry_equiv_pos_as_xyz
  1  'x, y, z'
loop_
 _atom_site_type_symbol
 _atom_site_label
 _atom_site_symmetry_multiplicity
 _atom_site_fract_x
 _atom_site_fract_y
 _atom_site_fract_z
 _atom_site_occupancy
  Nd  Nd0  1  0.651239  0.651239  0.651239  1
  Nd  Nd1  1  0.348761  0.348761  0.348761  1
  Mn  Mn2  1  0.000000  0.000000  0.500000  1
  Mn  Mn3  1  0.500000  0.000000  0.000000  1
  Mn  Mn4  1  0.000000  0.500000  0.000000  1
  Tc  Tc5  1  0.723767  0.276233  0.000000  1
  Tc  Tc6  1  0.000000  0.723767  0.276233  1
  Tc  Tc7  1  0.276233  0.000000  0.723767  1
  Tc  Tc8  1  0.000000  0.276233  0.723767  1
  Tc  Tc9  1  0.723767  0.000000  0.276233  1
  Tc  Tc10  1  0.276233  0.723767  0.000000  1
  Tc  Tc11  1  0.347318  0.347318  0.860768  1
  Tc  Tc12  1  0.860768  0.347318  0.347318  1
  Tc  Tc13  1  0.347318  0.860768  0.347318  1
  Tc  Tc14  1  0.652682  0.652682  0.139232  1
  Tc  Tc15  1  0.139232  0.652682  0.652682  1
  Tc  Tc16  1  0.652682  0.139232  0.652682  1
  Tc  Tc17  1  0.901692  0.901692  0.901692  1
  Tc  Tc18  1  0.098308  0.098308  0.098308  1
  C  C19  1  0.500000  0.500000  0.000000  1
  C  C20  1  0.000000  0.500000  0.500000  1
  C  C21  1  0.500000  0.000000  0.500000  1
