# generated using pymatgen
data_Ho7Er3(InSb)3
_symmetry_space_group_name_H-M   'P 1'
_cell_length_a   8.91733502
_cell_length_b   8.90014120
_cell_length_c   6.52427402
_cell_angle_alpha   89.99074659
_cell_angle_beta   90.00218092
_cell_angle_gamma   120.05604882
_symmetry_Int_Tables_number   1
_chemical_formula_structural   Ho7Er3(InSb)3
_chemical_formula_sum   'Ho7 Er3 In3 Sb3'
_cell_volume   448.17666328
_cell_formula_units_Z   1
loop_
 _symmetry_equiv_pos_site_id
 _symmetry_equiv_pos_as_xyz
  1  'x, y, z'
loop_
 _atom_site_type_symbol
 _atom_site_label
 _atom_site_symmetry_multiplicity
 _atom_site_fract_x
 _atom_site_fract_y
 _atom_site_fract_z
 _atom_site_occupancy
  Ho  Ho0  1  0.002840  0.763848  0.750121  1
  Ho  Ho1  1  0.003487  0.238953  0.249965  1
  Ho  Ho2  1  0.764551  0.760974  0.249922  1
  Ho  Ho3  1  0.761903  0.999965  0.750099  1
  Ho  Ho4  1  0.239046  0.236214  0.750126  1
  Ho  Ho5  1  0.237431  0.000010  0.249911  1
  Ho  Ho6  1  0.330527  0.666072  0.499094  1
  Er  Er7  1  0.664473  0.333918  0.001074  1
  Er  Er8  1  0.664357  0.333885  0.498840  1
  Er  Er9  1  0.330517  0.666098  0.000997  1
  In  In10  1  0.398150  0.000424  0.750325  1
  In  In11  1  0.396299  0.398221  0.249641  1
  In  In12  1  0.997354  0.601387  0.249561  1
  Sb  Sb13  1  0.996736  0.391617  0.750275  1
  Sb  Sb14  1  0.605493  0.608179  0.750312  1
  Sb  Sb15  1  0.606834  0.000234  0.249738  1
