# generated using pymatgen
data_Dy2Ta2NbSi4
_symmetry_space_group_name_H-M   'P 1'
_cell_length_a   7.04803385
_cell_length_b   7.04971897
_cell_length_c   13.02284326
_cell_angle_alpha   89.98038399
_cell_angle_beta   89.97849771
_cell_angle_gamma   90.00492660
_symmetry_Int_Tables_number   1
_chemical_formula_structural   Dy2Ta2NbSi4
_chemical_formula_sum   'Dy8 Ta8 Nb4 Si16'
_cell_volume   647.06147216
_cell_formula_units_Z   4
loop_
 _symmetry_equiv_pos_site_id
 _symmetry_equiv_pos_as_xyz
  1  'x, y, z'
loop_
 _atom_site_type_symbol
 _atom_site_label
 _atom_site_symmetry_multiplicity
 _atom_site_fract_x
 _atom_site_fract_y
 _atom_site_fract_z
 _atom_site_occupancy
  Dy  Dy0  1  0.998018  0.341140  0.217951  1
  Dy  Dy1  1  0.002165  0.658676  0.717963  1
  Dy  Dy2  1  0.158834  0.497813  0.468100  1
  Dy  Dy3  1  0.501440  0.841123  0.032086  1
  Dy  Dy4  1  0.841278  0.502183  0.968041  1
  Dy  Dy5  1  0.498461  0.158790  0.532119  1
  Dy  Dy6  1  0.341218  0.998262  0.781855  1
  Dy  Dy7  1  0.658905  0.001591  0.281901  1
  Ta  Ta8  1  0.170593  0.171053  0.999449  1
  Ta  Ta9  1  0.829354  0.829102  0.500180  1
  Ta  Ta10  1  0.328828  0.670715  0.250149  1
  Ta  Ta11  1  0.670940  0.329454  0.750163  1
  Ta  Ta12  1  0.153811  0.991796  0.376161  1
  Ta  Ta13  1  0.845810  0.008201  0.875862  1
  Ta  Ta14  1  0.507794  0.654583  0.626632  1
  Ta  Ta15  1  0.345768  0.492641  0.873591  1
  Nb  Nb16  1  0.492331  0.346011  0.126201  1
  Nb  Nb17  1  0.653617  0.507157  0.374111  1
  Nb  Nb18  1  0.993024  0.154364  0.624108  1
  Nb  Nb19  1  0.007090  0.846081  0.123763  1
  Si  Si20  1  0.293223  0.044537  0.186350  1
  Si  Si21  1  0.706481  0.955587  0.686322  1
  Si  Si22  1  0.455285  0.793645  0.436549  1
  Si  Si23  1  0.206123  0.544185  0.063554  1
  Si  Si24  1  0.544726  0.206020  0.936192  1
  Si  Si25  1  0.794258  0.455747  0.563946  1
  Si  Si26  1  0.044640  0.294418  0.813748  1
  Si  Si27  1  0.955275  0.705831  0.313762  1
  Si  Si28  1  0.366439  0.295566  0.317917  1
  Si  Si29  1  0.633124  0.704090  0.818210  1
  Si  Si30  1  0.204316  0.867107  0.567859  1
  Si  Si31  1  0.132747  0.795929  0.931565  1
  Si  Si32  1  0.796636  0.133111  0.067501  1
  Si  Si33  1  0.867084  0.203107  0.431903  1
  Si  Si34  1  0.296880  0.367462  0.681976  1
  Si  Si35  1  0.703481  0.632922  0.182260  1
