# generated using pymatgen
data_ScTlSe2O7
_symmetry_space_group_name_H-M   'P 1'
_cell_length_a   5.66131625
_cell_length_b   5.66131670
_cell_length_c   15.15187700
_cell_angle_alpha   79.23279253
_cell_angle_beta   100.76720833
_cell_angle_gamma   119.99999584
_symmetry_Int_Tables_number   1
_chemical_formula_structural   ScTlSe2O7
_chemical_formula_sum   'Sc2 Tl2 Se4 O14'
_cell_volume   410.66178690
_cell_formula_units_Z   2
loop_
 _symmetry_equiv_pos_site_id
 _symmetry_equiv_pos_as_xyz
  1  'x, y, z'
loop_
 _atom_site_type_symbol
 _atom_site_label
 _atom_site_symmetry_multiplicity
 _atom_site_fract_x
 _atom_site_fract_y
 _atom_site_fract_z
 _atom_site_occupancy
  Sc  Sc0  1  0.097363  0.902621  0.292082  1
  Sc  Sc1  1  0.902625  0.097384  0.707915  1
  Tl  Tl2  1  0.000009  0.000006  0.000001  1
  Tl  Tl3  1  0.500007  0.500005  0.500003  1
  Se  Se4  1  0.386867  0.613126  0.160675  1
  Se  Se5  1  0.771837  0.228154  0.315365  1
  Se  Se6  1  0.228156  0.771846  0.684636  1
  Se  Se7  1  0.613133  0.386871  0.839327  1
  O  O8  1  0.349839  0.650161  0.049545  1
  O  O9  1  0.721401  0.760798  0.199812  1
  O  O10  1  0.239204  0.278598  0.199814  1
  O  O11  1  0.239189  0.760812  0.199823  1
  O  O12  1  0.946638  0.053360  0.369042  1
  O  O13  1  0.946528  0.524104  0.369000  1
  O  O14  1  0.475889  0.053469  0.368999  1
  O  O15  1  0.524105  0.946523  0.631001  1
  O  O16  1  0.053473  0.475898  0.630999  1
  O  O17  1  0.053361  0.946641  0.630958  1
  O  O18  1  0.760816  0.239180  0.800177  1
  O  O19  1  0.760805  0.721414  0.800185  1
  O  O20  1  0.278590  0.239194  0.800185  1
  O  O21  1  0.650159  0.349832  0.950458  1
