# generated using pymatgen
data_Pr7Y9Cd4PdRu3
_symmetry_space_group_name_H-M   'P 1'
_cell_length_a   9.82421005
_cell_length_b   9.85696175
_cell_length_c   9.87525200
_cell_angle_alpha   59.93859933
_cell_angle_beta   59.82798400
_cell_angle_gamma   59.74687979
_symmetry_Int_Tables_number   1
_chemical_formula_structural   Pr7Y9Cd4PdRu3
_chemical_formula_sum   'Pr7 Y9 Cd4 Pd1 Ru3'
_cell_volume   673.70529973
_cell_formula_units_Z   1
loop_
 _symmetry_equiv_pos_site_id
 _symmetry_equiv_pos_as_xyz
  1  'x, y, z'
loop_
 _atom_site_type_symbol
 _atom_site_label
 _atom_site_symmetry_multiplicity
 _atom_site_fract_x
 _atom_site_fract_y
 _atom_site_fract_z
 _atom_site_occupancy
  Pr  Pr0  1  0.819718  0.805248  0.187517  1
  Pr  Pr1  1  0.939186  0.558472  0.560869  1
  Pr  Pr2  1  0.554690  0.941418  0.940481  1
  Pr  Pr3  1  0.554690  0.941418  0.563410  1
  Pr  Pr4  1  0.939186  0.558472  0.941473  1
  Pr  Pr5  1  0.555767  0.563749  0.940242  1
  Pr  Pr6  1  0.938463  0.940989  0.560274  1
  Y  Y7  1  0.342315  0.351157  0.349864  1
  Y  Y8  1  0.342315  0.351157  0.956667  1
  Y  Y9  1  0.341564  0.958125  0.350157  1
  Y  Y10  1  0.968224  0.341508  0.345134  1
  Y  Y11  1  0.818010  0.190132  0.187865  1
  Y  Y12  1  0.188855  0.812640  0.810633  1
  Y  Y13  1  0.188855  0.812640  0.187871  1
  Y  Y14  1  0.818010  0.190132  0.803994  1
  Y  Y15  1  0.186299  0.186826  0.813437  1
  Cd  Cd16  1  0.578349  0.577157  0.580940  1
  Cd  Cd17  1  0.578349  0.577157  0.263553  1
  Cd  Cd18  1  0.579099  0.262316  0.579292  1
  Cd  Cd19  1  0.260719  0.579606  0.579836  1
  Pd  Pd20  1  0.573356  0.145598  0.140523  1
  Ru  Ru21  1  0.144539  0.138038  0.138616  1
  Ru  Ru22  1  0.144539  0.138038  0.578806  1
  Ru  Ru23  1  0.144903  0.578005  0.138546  1
