# generated using pymatgen
data_Sr8Cu3Si12Hg
_symmetry_space_group_name_H-M   'P 1'
_cell_length_a   11.79920100
_cell_length_b   10.23381267
_cell_length_c   8.30400320
_cell_angle_alpha   78.28913610
_cell_angle_beta   58.03903626
_cell_angle_gamma   43.65298137
_symmetry_Int_Tables_number   1
_chemical_formula_structural   Sr8Cu3Si12Hg
_chemical_formula_sum   'Sr8 Cu3 Si12 Hg1'
_cell_volume   558.80504117
_cell_formula_units_Z   1
loop_
 _symmetry_equiv_pos_site_id
 _symmetry_equiv_pos_as_xyz
  1  'x, y, z'
loop_
 _atom_site_type_symbol
 _atom_site_label
 _atom_site_symmetry_multiplicity
 _atom_site_fract_x
 _atom_site_fract_y
 _atom_site_fract_z
 _atom_site_occupancy
  Sr  Sr0  1  0.125340  0.120522  0.378772  1
  Sr  Sr1  1  0.874555  0.882706  0.123751  1
  Sr  Sr2  1  0.124220  0.119152  0.874423  1
  Sr  Sr3  1  0.378404  0.374696  0.125973  1
  Sr  Sr4  1  0.616355  0.624103  0.381400  1
  Sr  Sr5  1  0.381179  0.378094  0.616760  1
  Sr  Sr6  1  0.624693  0.623677  0.875431  1
  Sr  Sr7  1  0.875040  0.876981  0.624355  1
  Cu  Cu8  1  0.167430  0.832695  0.166095  1
  Cu  Cu9  1  0.417842  0.082420  0.415703  1
  Cu  Cu10  1  0.832333  0.167681  0.834054  1
  Si  Si11  1  0.332155  0.665788  0.836391  1
  Si  Si12  1  0.164724  0.834805  0.667307  1
  Si  Si13  1  0.836661  0.166573  0.331788  1
  Si  Si14  1  0.667286  0.333395  0.164682  1
  Si  Si15  1  0.909014  0.593589  0.433037  1
  Si  Si16  1  0.087055  0.409309  0.582495  1
  Si  Si17  1  0.431980  0.063636  0.909540  1
  Si  Si18  1  0.908845  0.592670  0.906903  1
  Si  Si19  1  0.667383  0.332036  0.668290  1
  Si  Si20  1  0.331778  0.667954  0.332225  1
  Si  Si21  1  0.581324  0.919888  0.579727  1
  Si  Si22  1  0.582053  0.920148  0.087183  1
  Hg  Hg23  1  0.082350  0.417482  0.083713  1
