# generated using pymatgen
data_Hf8Ti9Nb(Ge8W)2
_symmetry_space_group_name_H-M   'P 1'
_cell_length_a   6.76819524
_cell_length_b   6.88041472
_cell_length_c   13.11972100
_cell_angle_alpha   90.00000000
_cell_angle_beta   90.00000000
_cell_angle_gamma   89.99671468
_symmetry_Int_Tables_number   1
_chemical_formula_structural   Hf8Ti9Nb(Ge8W)2
_chemical_formula_sum   'Hf8 Ti9 Nb1 Ge16 W2'
_cell_volume   610.95903731
_cell_formula_units_Z   1
loop_
 _symmetry_equiv_pos_site_id
 _symmetry_equiv_pos_as_xyz
  1  'x, y, z'
loop_
 _atom_site_type_symbol
 _atom_site_label
 _atom_site_symmetry_multiplicity
 _atom_site_fract_x
 _atom_site_fract_y
 _atom_site_fract_z
 _atom_site_occupancy
  Hf  Hf0  1  0.488596  0.675658  0.592940  1
  Hf  Hf1  1  0.990734  0.826016  0.906968  1
  Hf  Hf2  1  0.509622  0.325447  0.092597  1
  Hf  Hf3  1  0.010774  0.175443  0.406998  1
  Hf  Hf4  1  0.509622  0.325447  0.407403  1
  Hf  Hf5  1  0.010774  0.175443  0.093002  1
  Hf  Hf6  1  0.488596  0.675658  0.907060  1
  Hf  Hf7  1  0.990734  0.826016  0.593032  1
  Ti  Ti8  1  0.656829  0.166148  0.625795  1
  Ti  Ti9  1  0.160108  0.332313  0.875168  1
  Ti  Ti10  1  0.341541  0.833032  0.124397  1
  Ti  Ti11  1  0.842624  0.666292  0.375575  1
  Ti  Ti12  1  0.341541  0.833032  0.375603  1
  Ti  Ti13  1  0.842624  0.666292  0.124425  1
  Ti  Ti14  1  0.656829  0.166148  0.874205  1
  Ti  Ti15  1  0.160108  0.332313  0.624832  1
  Ti  Ti16  1  0.831167  0.491758  0.750000  1
  Nb  Nb17  1  0.669341  0.993229  0.250000  1
  Ge  Ge18  1  0.682971  0.959603  0.461821  1
  Ge  Ge19  1  0.183115  0.540703  0.039240  1
  Ge  Ge20  1  0.316666  0.040959  0.960282  1
  Ge  Ge21  1  0.817026  0.459403  0.540492  1
  Ge  Ge22  1  0.316666  0.040959  0.539718  1
  Ge  Ge23  1  0.817026  0.459403  0.959508  1
  Ge  Ge24  1  0.682971  0.959603  0.038179  1
  Ge  Ge25  1  0.183115  0.540703  0.460760  1
  Ge  Ge26  1  0.460978  0.382119  0.750000  1
  Ge  Ge27  1  0.959477  0.121308  0.750000  1
  Ge  Ge28  1  0.539438  0.618286  0.250000  1
  Ge  Ge29  1  0.041952  0.879489  0.250000  1
  Ge  Ge30  1  0.693227  0.851190  0.750000  1
  Ge  Ge31  1  0.187686  0.643388  0.750000  1
  Ge  Ge32  1  0.306753  0.146344  0.250000  1
  Ge  Ge33  1  0.808708  0.356740  0.250000  1
  W  W34  1  0.331909  0.006510  0.750000  1
  W  W35  1  0.168155  0.507601  0.250000  1
