# generated using pymatgen
data_KB(SeO4)2
_symmetry_space_group_name_H-M   'P 1'
_cell_length_a   8.44079200
_cell_length_b   6.29451829
_cell_length_c   8.39310133
_cell_angle_alpha   74.35139485
_cell_angle_beta   90.00000000
_cell_angle_gamma   90.00000000
_symmetry_Int_Tables_number   1
_chemical_formula_structural   KB(SeO4)2
_chemical_formula_sum   'K2 B2 Se4 O16'
_cell_volume   429.40265621
_cell_formula_units_Z   2
loop_
 _symmetry_equiv_pos_site_id
 _symmetry_equiv_pos_as_xyz
  1  'x, y, z'
loop_
 _atom_site_type_symbol
 _atom_site_label
 _atom_site_symmetry_multiplicity
 _atom_site_fract_x
 _atom_site_fract_y
 _atom_site_fract_z
 _atom_site_occupancy
  K  K0  1  0.559626  0.500000  0.750000  1
  K  K1  1  0.440374  0.500000  0.250000  1
  B  B2  1  0.958905  0.000000  0.250000  1
  B  B3  1  0.041095  0.000000  0.750000  1
  Se  Se4  1  0.215825  0.885381  0.491205  1
  Se  Se5  1  0.215825  0.114619  0.008795  1
  Se  Se6  1  0.784175  0.114619  0.508795  1
  Se  Se7  1  0.784175  0.885381  0.991205  1
  O  O8  1  0.288223  0.132230  0.416612  1
  O  O9  1  0.288223  0.867770  0.083388  1
  O  O10  1  0.711777  0.867770  0.583388  1
  O  O11  1  0.711777  0.132230  0.916612  1
  O  O12  1  0.048947  0.841615  0.381666  1
  O  O13  1  0.048947  0.158385  0.118334  1
  O  O14  1  0.951053  0.158385  0.618334  1
  O  O15  1  0.951053  0.841615  0.881666  1
  O  O16  1  0.142542  0.842383  0.690460  1
  O  O17  1  0.142542  0.157617  0.809540  1
  O  O18  1  0.857458  0.157617  0.309540  1
  O  O19  1  0.857458  0.842383  0.190460  1
  O  O20  1  0.331439  0.673803  0.504497  1
  O  O21  1  0.331439  0.326197  0.995503  1
  O  O22  1  0.668561  0.326197  0.495503  1
  O  O23  1  0.668561  0.673803  0.004497  1
