# generated using pymatgen
data_Pa2TcP4Rh3
_symmetry_space_group_name_H-M   'P 1'
_cell_length_a   4.16247500
_cell_length_b   4.16247500
_cell_length_c   9.40218200
_cell_angle_alpha   90.00000000
_cell_angle_beta   90.00000000
_cell_angle_gamma   90.00000000
_symmetry_Int_Tables_number   1
_chemical_formula_structural   Pa2TcP4Rh3
_chemical_formula_sum   'Pa2 Tc1 P4 Rh3'
_cell_volume   162.90406815
_cell_formula_units_Z   1
loop_
 _symmetry_equiv_pos_site_id
 _symmetry_equiv_pos_as_xyz
  1  'x, y, z'
loop_
 _atom_site_type_symbol
 _atom_site_label
 _atom_site_symmetry_multiplicity
 _atom_site_fract_x
 _atom_site_fract_y
 _atom_site_fract_z
 _atom_site_occupancy
  Pa  Pa0  1  0.000000  0.500000  0.253540  1
  Pa  Pa1  1  0.500000  0.000000  0.746460  1
  Tc  Tc2  1  0.000000  0.000000  0.000000  1
  P  P3  1  0.000000  0.000000  0.500000  1
  P  P4  1  0.500000  0.500000  0.500000  1
  P  P5  1  0.000000  0.500000  0.865355  1
  P  P6  1  0.500000  0.000000  0.134645  1
  Rh  Rh7  1  0.500000  0.500000  0.000000  1
  Rh  Rh8  1  0.000000  0.500000  0.615731  1
  Rh  Rh9  1  0.500000  0.000000  0.384269  1
