# generated using pymatgen
data_Mn6Al6PdRh11
_symmetry_space_group_name_H-M   'P 1'
_cell_length_a   4.29484500
_cell_length_b   6.04506800
_cell_length_c   12.87899101
_cell_angle_alpha   89.99649818
_cell_angle_beta   90.00160122
_cell_angle_gamma   90.00005514
_symmetry_Int_Tables_number   1
_chemical_formula_structural   Mn6Al6PdRh11
_chemical_formula_sum   'Mn6 Al6 Pd1 Rh11'
_cell_volume   334.37247869
_cell_formula_units_Z   1
loop_
 _symmetry_equiv_pos_site_id
 _symmetry_equiv_pos_as_xyz
  1  'x, y, z'
loop_
 _atom_site_type_symbol
 _atom_site_label
 _atom_site_symmetry_multiplicity
 _atom_site_fract_x
 _atom_site_fract_y
 _atom_site_fract_z
 _atom_site_occupancy
  Mn  Mn0  1  0.000001  0.503326  0.999991  1
  Mn  Mn1  1  0.499780  0.998172  0.167931  1
  Mn  Mn2  1  0.999780  0.500228  0.333669  1
  Mn  Mn3  1  0.500000  0.999973  0.500011  1
  Mn  Mn4  1  0.000220  0.500229  0.666350  1
  Mn  Mn5  1  0.500219  0.998150  0.832026  1
  Al  Al6  1  0.000001  0.993996  0.999989  1
  Al  Al7  1  0.499798  0.503138  0.169480  1
  Al  Al8  1  0.999758  0.999687  0.333857  1
  Al  Al9  1  0.500001  0.500008  0.500001  1
  Al  Al10  1  0.000244  0.999693  0.666149  1
  Al  Al11  1  0.500202  0.503137  0.830507  1
  Pd  Pd12  1  0.499999  0.249524  0.999990  1
  Rh  Rh13  1  0.500001  0.750252  0.999964  1
  Rh  Rh14  1  0.999793  0.250681  0.166097  1
  Rh  Rh15  1  0.999799  0.749427  0.166465  1
  Rh  Rh16  1  0.499792  0.249490  0.333170  1
  Rh  Rh17  1  0.499787  0.750583  0.333439  1
  Rh  Rh18  1  0.000002  0.250658  0.500044  1
  Rh  Rh19  1  0.000005  0.749475  0.500040  1
  Rh  Rh20  1  0.500203  0.249504  0.666864  1
  Rh  Rh21  1  0.500212  0.750572  0.666567  1
  Rh  Rh22  1  0.000209  0.250721  0.833899  1
  Rh  Rh23  1  0.000196  0.749379  0.833499  1
