# generated using pymatgen
data_Dy3Y5Re3B24Os
_symmetry_space_group_name_H-M   'P 1'
_cell_length_a   3.68129700
_cell_length_b   9.18388624
_cell_length_c   11.57112800
_cell_angle_alpha   90.07529052
_cell_angle_beta   90.00000000
_cell_angle_gamma   90.00000000
_symmetry_Int_Tables_number   1
_chemical_formula_structural   Dy3Y5Re3B24Os
_chemical_formula_sum   'Dy3 Y5 Re3 B24 Os1'
_cell_volume   391.20344917
_cell_formula_units_Z   1
loop_
 _symmetry_equiv_pos_site_id
 _symmetry_equiv_pos_as_xyz
  1  'x, y, z'
loop_
 _atom_site_type_symbol
 _atom_site_label
 _atom_site_symmetry_multiplicity
 _atom_site_fract_x
 _atom_site_fract_y
 _atom_site_fract_z
 _atom_site_occupancy
  Dy  Dy0  1  0.000000  0.056551  0.629544  1
  Dy  Dy1  1  0.000000  0.442730  0.129965  1
  Dy  Dy2  1  0.000000  0.556930  0.870743  1
  Y  Y3  1  0.000000  0.322066  0.414205  1
  Y  Y4  1  0.000000  0.677293  0.587590  1
  Y  Y5  1  0.000000  0.824591  0.084417  1
  Y  Y6  1  0.000000  0.176548  0.913614  1
  Y  Y7  1  0.000000  0.942719  0.370049  1
  Re  Re8  1  0.000000  0.361982  0.678173  1
  Re  Re9  1  0.000000  0.138590  0.179563  1
  Re  Re10  1  0.000000  0.861462  0.820726  1
  B  B11  1  0.500000  0.553861  0.432643  1
  B  B12  1  0.500000  0.446937  0.567014  1
  B  B13  1  0.500000  0.053256  0.066984  1
  B  B14  1  0.500000  0.946867  0.932766  1
  B  B15  1  0.500000  0.748246  0.418332  1
  B  B16  1  0.500000  0.250944  0.581405  1
  B  B17  1  0.500000  0.248977  0.081471  1
  B  B18  1  0.500000  0.751522  0.918595  1
  B  B19  1  0.500000  0.790737  0.265689  1
  B  B20  1  0.500000  0.208273  0.734047  1
  B  B21  1  0.500000  0.291570  0.234562  1
  B  B22  1  0.500000  0.708141  0.766075  1
  B  B23  1  0.500000  0.631400  0.186138  1
  B  B24  1  0.500000  0.369246  0.813755  1
  B  B25  1  0.500000  0.131320  0.314544  1
  B  B26  1  0.500000  0.868718  0.685959  1
  B  B27  1  0.500000  0.982867  0.211827  1
  B  B28  1  0.500000  0.017231  0.787716  1
  B  B29  1  0.500000  0.483699  0.288090  1
  B  B30  1  0.500000  0.517660  0.712057  1
  B  B31  1  0.500000  0.602037  0.028911  1
  B  B32  1  0.500000  0.398204  0.971841  1
  B  B33  1  0.500000  0.101296  0.471433  1
  B  B34  1  0.500000  0.897365  0.528373  1
  Os  Os35  1  0.000000  0.638164  0.321183  1
