# generated using pymatgen
data_Sr5NpPa2O12
_symmetry_space_group_name_H-M   'P 1'
_cell_length_a   6.08311746
_cell_length_b   6.24985576
_cell_length_c   8.70622079
_cell_angle_alpha   89.62627500
_cell_angle_beta   89.92414126
_cell_angle_gamma   89.94166784
_symmetry_Int_Tables_number   1
_chemical_formula_structural   Sr5NpPa2O12
_chemical_formula_sum   'Sr5 Np1 Pa2 O12'
_cell_volume   330.99088405
_cell_formula_units_Z   1
loop_
 _symmetry_equiv_pos_site_id
 _symmetry_equiv_pos_as_xyz
  1  'x, y, z'
loop_
 _atom_site_type_symbol
 _atom_site_label
 _atom_site_symmetry_multiplicity
 _atom_site_fract_x
 _atom_site_fract_y
 _atom_site_fract_z
 _atom_site_occupancy
  Sr  Sr0  1  0.000000  0.000000  0.000000  1
  Sr  Sr1  1  0.983483  0.451962  0.243924  1
  Sr  Sr2  1  0.513165  0.955812  0.247397  1
  Sr  Sr3  1  0.486835  0.044188  0.752603  1
  Sr  Sr4  1  0.016517  0.548038  0.756076  1
  Np  Np5  1  0.500000  0.500000  0.500000  1
  Pa  Pa6  1  0.500000  0.500000  0.000000  1
  Pa  Pa7  1  0.000000  0.000000  0.500000  1
  O  O8  1  0.887237  0.951966  0.725496  1
  O  O9  1  0.789688  0.713521  0.433462  1
  O  O10  1  0.788415  0.675302  0.052945  1
  O  O11  1  0.711301  0.209300  0.440961  1
  O  O12  1  0.672844  0.213819  0.061853  1
  O  O13  1  0.610272  0.455508  0.743455  1
  O  O14  1  0.389728  0.544492  0.256545  1
  O  O15  1  0.327156  0.786181  0.938147  1
  O  O16  1  0.288699  0.790700  0.559039  1
  O  O17  1  0.211585  0.324698  0.947055  1
  O  O18  1  0.210312  0.286479  0.566538  1
  O  O19  1  0.112763  0.048034  0.274504  1
