# generated using pymatgen
data_Pr2Sm2PI5
_symmetry_space_group_name_H-M   'P 1'
_cell_length_a   9.92746250
_cell_length_b   9.92746300
_cell_length_c   9.13049347
_cell_angle_alpha   77.37378406
_cell_angle_beta   77.37378337
_cell_angle_gamma   24.32094971
_symmetry_Int_Tables_number   1
_chemical_formula_structural   Pr2Sm2PI5
_chemical_formula_sum   'Pr2 Sm2 P1 I5'
_cell_volume   361.21773269
_cell_formula_units_Z   1
loop_
 _symmetry_equiv_pos_site_id
 _symmetry_equiv_pos_as_xyz
  1  'x, y, z'
loop_
 _atom_site_type_symbol
 _atom_site_label
 _atom_site_symmetry_multiplicity
 _atom_site_fract_x
 _atom_site_fract_y
 _atom_site_fract_z
 _atom_site_occupancy
  Pr  Pr0  1  0.500815  0.500815  0.210779  1
  Pr  Pr1  1  0.499185  0.499185  0.789221  1
  Sm  Sm2  1  0.855356  0.855356  0.073463  1
  Sm  Sm3  1  0.144644  0.144644  0.926537  1
  P  P4  1  0.000000  0.000000  0.000000  1
  I  I5  1  0.673337  0.673337  0.168485  1
  I  I6  1  0.326663  0.326663  0.831515  1
  I  I7  1  0.667689  0.667689  0.663447  1
  I  I8  1  0.332311  0.332311  0.336553  1
  I  I9  1  0.000000  0.000000  0.500000  1
