# generated using pymatgen
data_KSnIrS4
_symmetry_space_group_name_H-M   'P 1'
_cell_length_a   3.72442500
_cell_length_b   7.74934830
_cell_length_c   6.35357893
_cell_angle_alpha   73.84123072
_cell_angle_beta   90.00000000
_cell_angle_gamma   90.00000000
_symmetry_Int_Tables_number   1
_chemical_formula_structural   KSnIrS4
_chemical_formula_sum   'K1 Sn1 Ir1 S4'
_cell_volume   176.13172626
_cell_formula_units_Z   1
loop_
 _symmetry_equiv_pos_site_id
 _symmetry_equiv_pos_as_xyz
  1  'x, y, z'
loop_
 _atom_site_type_symbol
 _atom_site_label
 _atom_site_symmetry_multiplicity
 _atom_site_fract_x
 _atom_site_fract_y
 _atom_site_fract_z
 _atom_site_occupancy
  K  K0  1  0.500000  0.494753  0.655463  1
  Sn  Sn1  1  0.000000  0.997538  0.002692  1
  Ir  Ir2  1  0.500000  0.002732  0.502324  1
  S  S3  1  0.000000  0.836181  0.415300  1
  S  S4  1  0.500000  0.815274  0.872361  1
  S  S5  1  0.000000  0.167877  0.591128  1
  S  S6  1  0.500000  0.184764  0.127691  1
