# generated using pymatgen
data_Pr2Gd3Er(RuO7)2
_symmetry_space_group_name_H-M   'P 1'
_cell_length_a   6.49739984
_cell_length_b   6.50000324
_cell_length_c   7.56326400
_cell_angle_alpha   90.00000000
_cell_angle_beta   90.00000000
_cell_angle_gamma   110.37624768
_symmetry_Int_Tables_number   1
_chemical_formula_structural   Pr2Gd3Er(RuO7)2
_chemical_formula_sum   'Pr2 Gd3 Er1 Ru2 O14'
_cell_volume   299.43296601
_cell_formula_units_Z   1
loop_
 _symmetry_equiv_pos_site_id
 _symmetry_equiv_pos_as_xyz
  1  'x, y, z'
loop_
 _atom_site_type_symbol
 _atom_site_label
 _atom_site_symmetry_multiplicity
 _atom_site_fract_x
 _atom_site_fract_y
 _atom_site_fract_z
 _atom_site_occupancy
  Pr  Pr0  1  0.001034  0.999900  0.498679  1
  Pr  Pr1  1  0.001034  0.999900  0.001321  1
  Gd  Gd2  1  0.481026  0.928329  0.750000  1
  Gd  Gd3  1  0.519955  0.071096  0.250000  1
  Gd  Gd4  1  0.928221  0.480570  0.750000  1
  Er  Er5  1  0.067095  0.516702  0.250000  1
  Ru  Ru6  1  0.499905  0.500734  0.498888  1
  Ru  Ru7  1  0.499905  0.500734  0.001112  1
  O  O8  1  0.585630  0.584495  0.750000  1
  O  O9  1  0.409246  0.416292  0.250000  1
  O  O10  1  0.840841  0.115196  0.750000  1
  O  O11  1  0.161290  0.876961  0.250000  1
  O  O12  1  0.114636  0.838779  0.750000  1
  O  O13  1  0.887891  0.164595  0.250000  1
  O  O14  1  0.437646  0.183549  0.963446  1
  O  O15  1  0.564616  0.817981  0.463332  1
  O  O16  1  0.182774  0.443535  0.967802  1
  O  O17  1  0.816110  0.557795  0.459651  1
  O  O18  1  0.437646  0.183549  0.536554  1
  O  O19  1  0.564616  0.817981  0.036668  1
  O  O20  1  0.816110  0.557795  0.040349  1
  O  O21  1  0.182774  0.443535  0.532198  1
