# generated using pymatgen
data_Ca6Nd13USn16
_symmetry_space_group_name_H-M   'P 1'
_cell_length_a   8.07086485
_cell_length_b   8.51562393
_cell_length_c   16.14656930
_cell_angle_alpha   90.15141755
_cell_angle_beta   90.16893457
_cell_angle_gamma   89.90315260
_symmetry_Int_Tables_number   1
_chemical_formula_structural   Ca6Nd13USn16
_chemical_formula_sum   'Ca6 Nd13 U1 Sn16'
_cell_volume   1109.71840935
_cell_formula_units_Z   1
loop_
 _symmetry_equiv_pos_site_id
 _symmetry_equiv_pos_as_xyz
  1  'x, y, z'
loop_
 _atom_site_type_symbol
 _atom_site_label
 _atom_site_symmetry_multiplicity
 _atom_site_fract_x
 _atom_site_fract_y
 _atom_site_fract_z
 _atom_site_occupancy
  Ca  Ca0  1  0.996865  0.182884  0.408543  1
  Ca  Ca1  1  0.333903  0.830094  0.123084  1
  Ca  Ca2  1  0.164462  0.496237  0.249536  1
  Ca  Ca3  1  0.665703  0.005499  0.249812  1
  Ca  Ca4  1  0.334865  0.994555  0.750000  1
  Ca  Ca5  1  0.833602  0.503814  0.750107  1
  Nd  Nd6  1  0.506684  0.682986  0.903444  1
  Nd  Nd7  1  0.834746  0.673526  0.124542  1
  Nd  Nd8  1  0.166323  0.327459  0.875713  1
  Nd  Nd9  1  0.506709  0.682108  0.595521  1
  Nd  Nd10  1  0.663908  0.171508  0.623010  1
  Nd  Nd11  1  0.838443  0.669807  0.377492  1
  Nd  Nd12  1  0.992969  0.182441  0.092699  1
  Nd  Nd13  1  0.007676  0.817488  0.902597  1
  Nd  Nd14  1  0.666153  0.170647  0.874980  1
  Nd  Nd15  1  0.489398  0.314504  0.095507  1
  Nd  Nd16  1  0.334302  0.831040  0.375705  1
  Nd  Nd17  1  0.006433  0.816475  0.596837  1
  Nd  Nd18  1  0.493375  0.315534  0.404146  1
  U  U19  1  0.164627  0.331347  0.624479  1
  Sn  Sn20  1  0.826263  0.466625  0.542153  1
  Sn  Sn21  1  0.671744  0.962424  0.462006  1
  Sn  Sn22  1  0.707106  0.858951  0.750004  1
  Sn  Sn23  1  0.185182  0.541024  0.466439  1
  Sn  Sn24  1  0.326428  0.034275  0.961030  1
  Sn  Sn25  1  0.792423  0.362369  0.249615  1
  Sn  Sn26  1  0.824386  0.462443  0.962703  1
  Sn  Sn27  1  0.533567  0.601925  0.250444  1
  Sn  Sn28  1  0.172346  0.535475  0.038477  1
  Sn  Sn29  1  0.464448  0.391881  0.749007  1
  Sn  Sn30  1  0.203471  0.639506  0.748665  1
  Sn  Sn31  1  0.968921  0.108309  0.746721  1
  Sn  Sn32  1  0.321913  0.038717  0.540206  1
  Sn  Sn33  1  0.675207  0.961975  0.036162  1
  Sn  Sn34  1  0.291114  0.142441  0.249282  1
  Sn  Sn35  1  0.034336  0.891708  0.249331  1
