# generated using pymatgen
data_Ho2TmFe8Os
_symmetry_space_group_name_H-M   'P 1'
_cell_length_a   8.73834234
_cell_length_b   8.73834278
_cell_length_c   8.73834281
_cell_angle_alpha   33.81800599
_cell_angle_beta   33.81800071
_cell_angle_gamma   33.81800365
_symmetry_Int_Tables_number   1
_chemical_formula_structural   Ho2TmFe8Os
_chemical_formula_sum   'Ho2 Tm1 Fe8 Os1'
_cell_volume   184.17717934
_cell_formula_units_Z   1
loop_
 _symmetry_equiv_pos_site_id
 _symmetry_equiv_pos_as_xyz
  1  'x, y, z'
loop_
 _atom_site_type_symbol
 _atom_site_label
 _atom_site_symmetry_multiplicity
 _atom_site_fract_x
 _atom_site_fract_y
 _atom_site_fract_z
 _atom_site_occupancy
  Ho  Ho0  1  0.000116  0.000116  0.000116  1
  Ho  Ho1  1  0.858017  0.858017  0.858017  1
  Tm  Tm2  1  0.141860  0.141860  0.141860  1
  Fe  Fe3  1  0.332756  0.332756  0.332756  1
  Fe  Fe4  1  0.667232  0.667232  0.667232  1
  Fe  Fe5  1  0.077872  0.581848  0.581848  1
  Fe  Fe6  1  0.581848  0.581848  0.077872  1
  Fe  Fe7  1  0.581848  0.077872  0.581848  1
  Fe  Fe8  1  0.418226  0.922089  0.418226  1
  Fe  Fe9  1  0.922089  0.418226  0.418226  1
  Fe  Fe10  1  0.418226  0.418226  0.922089  1
  Os  Os11  1  0.499909  0.499909  0.499909  1
