# generated using pymatgen
data_Tm7Lu3Si5As
_symmetry_space_group_name_H-M   'P 1'
_cell_length_a   8.29216501
_cell_length_b   8.30424328
_cell_length_c   6.17137903
_cell_angle_alpha   90.00544850
_cell_angle_beta   90.00572014
_cell_angle_gamma   119.95077791
_symmetry_Int_Tables_number   1
_chemical_formula_structural   Tm7Lu3Si5As
_chemical_formula_sum   'Tm7 Lu3 Si5 As1'
_cell_volume   368.21038874
_cell_formula_units_Z   1
loop_
 _symmetry_equiv_pos_site_id
 _symmetry_equiv_pos_as_xyz
  1  'x, y, z'
loop_
 _atom_site_type_symbol
 _atom_site_label
 _atom_site_symmetry_multiplicity
 _atom_site_fract_x
 _atom_site_fract_y
 _atom_site_fract_z
 _atom_site_occupancy
  Tm  Tm0  1  0.668834  0.335851  0.001025  1
  Tm  Tm1  1  0.759147  0.999925  0.749899  1
  Tm  Tm2  1  0.757150  0.756873  0.250107  1
  Tm  Tm3  1  0.000480  0.243220  0.250146  1
  Tm  Tm4  1  0.996569  0.754617  0.749908  1
  Tm  Tm5  1  0.241900  0.245485  0.749854  1
  Tm  Tm6  1  0.242202  0.999914  0.250082  1
  Lu  Lu7  1  0.332989  0.664051  0.498780  1
  Lu  Lu8  1  0.332949  0.663970  0.001254  1
  Lu  Lu9  1  0.668950  0.335972  0.498875  1
  Si  Si10  1  0.394689  0.393852  0.250386  1
  Si  Si11  1  0.001589  0.606549  0.250359  1
  Si  Si12  1  0.000046  0.394940  0.749646  1
  Si  Si13  1  0.604787  0.605476  0.749640  1
  Si  Si14  1  0.606049  0.999632  0.250309  1
  As  As15  1  0.391670  0.999674  0.749731  1
