# generated using pymatgen
data_Pa4Ta3TcC8
_symmetry_space_group_name_H-M   'P 1'
_cell_length_a   3.35608700
_cell_length_b   5.79619647
_cell_length_c   11.18144759
_cell_angle_alpha   89.85782133
_cell_angle_beta   90.00000000
_cell_angle_gamma   90.00000000
_symmetry_Int_Tables_number   1
_chemical_formula_structural   Pa4Ta3TcC8
_chemical_formula_sum   'Pa4 Ta3 Tc1 C8'
_cell_volume   217.50688260
_cell_formula_units_Z   1
loop_
 _symmetry_equiv_pos_site_id
 _symmetry_equiv_pos_as_xyz
  1  'x, y, z'
loop_
 _atom_site_type_symbol
 _atom_site_label
 _atom_site_symmetry_multiplicity
 _atom_site_fract_x
 _atom_site_fract_y
 _atom_site_fract_z
 _atom_site_occupancy
  Pa  Pa0  1  0.250000  0.085956  0.855386  1
  Pa  Pa1  1  0.250000  0.579344  0.639838  1
  Pa  Pa2  1  0.750000  0.915643  0.142091  1
  Pa  Pa3  1  0.750000  0.418744  0.361011  1
  Ta  Ta4  1  0.250000  0.413431  0.104040  1
  Ta  Ta5  1  0.250000  0.918903  0.401764  1
  Ta  Ta6  1  0.750000  0.585622  0.893398  1
  Tc  Tc7  1  0.750000  0.082189  0.602862  1
  C  C8  1  0.250000  0.161022  0.246413  1
  C  C9  1  0.250000  0.662387  0.256370  1
  C  C10  1  0.750000  0.841878  0.749703  1
  C  C11  1  0.750000  0.337670  0.744673  1
  C  C12  1  0.250000  0.745107  0.991212  1
  C  C13  1  0.250000  0.240843  0.510962  1
  C  C14  1  0.750000  0.258074  0.006400  1
  C  C15  1  0.750000  0.753189  0.493878  1
