# generated using pymatgen
data_ReGeP
_symmetry_space_group_name_H-M   'P 1'
_cell_length_a   4.70890239
_cell_length_b   4.70890297
_cell_length_c   7.59774087
_cell_angle_alpha   60.74983599
_cell_angle_beta   60.74983199
_cell_angle_gamma   39.29486189
_symmetry_Int_Tables_number   1
_chemical_formula_structural   ReGeP
_chemical_formula_sum   'Re2 Ge2 P2'
_cell_volume   91.21053549
_cell_formula_units_Z   2
loop_
 _symmetry_equiv_pos_site_id
 _symmetry_equiv_pos_as_xyz
  1  'x, y, z'
loop_
 _atom_site_type_symbol
 _atom_site_label
 _atom_site_symmetry_multiplicity
 _atom_site_fract_x
 _atom_site_fract_y
 _atom_site_fract_z
 _atom_site_occupancy
  Re  Re0  1  0.167949  0.167949  0.777032  1
  Re  Re1  1  0.832051  0.832051  0.222968  1
  Ge  Ge2  1  0.397876  0.397876  0.890479  1
  Ge  Ge3  1  0.602124  0.602124  0.109521  1
  P  P4  1  0.864634  0.864634  0.523239  1
  P  P5  1  0.135366  0.135366  0.476761  1
