# generated using pymatgen
data_Sc4Co19As11PRu
_symmetry_space_group_name_H-M   'P 1'
_cell_length_a   3.71070000
_cell_length_b   10.57096584
_cell_length_c   12.05738235
_cell_angle_alpha   90.15372437
_cell_angle_beta   90.00000000
_cell_angle_gamma   90.00000000
_symmetry_Int_Tables_number   1
_chemical_formula_structural   Sc4Co19As11PRu
_chemical_formula_sum   'Sc4 Co19 As11 P1 Ru1'
_cell_volume   472.95735495
_cell_formula_units_Z   1
loop_
 _symmetry_equiv_pos_site_id
 _symmetry_equiv_pos_as_xyz
  1  'x, y, z'
loop_
 _atom_site_type_symbol
 _atom_site_label
 _atom_site_symmetry_multiplicity
 _atom_site_fract_x
 _atom_site_fract_y
 _atom_site_fract_z
 _atom_site_occupancy
  Sc  Sc0  1  0.250000  0.580395  0.701767  1
  Sc  Sc1  1  0.250000  0.922476  0.198641  1
  Sc  Sc2  1  0.750000  0.420507  0.297967  1
  Sc  Sc3  1  0.750000  0.075655  0.800036  1
  Co  Co4  1  0.250000  0.785106  0.495002  1
  Co  Co5  1  0.750000  0.284808  0.007570  1
  Co  Co6  1  0.750000  0.213759  0.507657  1
  Co  Co7  1  0.250000  0.407750  0.486016  1
  Co  Co8  1  0.250000  0.085428  0.982025  1
  Co  Co9  1  0.750000  0.592164  0.514884  1
  Co  Co10  1  0.750000  0.909357  0.006047  1
  Co  Co11  1  0.250000  0.214728  0.176210  1
  Co  Co12  1  0.250000  0.283923  0.676667  1
  Co  Co13  1  0.750000  0.788938  0.826151  1
  Co  Co14  1  0.750000  0.716623  0.323608  1
  Co  Co15  1  0.250000  0.886694  0.705319  1
  Co  Co16  1  0.250000  0.614211  0.199923  1
  Co  Co17  1  0.750000  0.114875  0.301408  1
  Co  Co18  1  0.750000  0.383132  0.801558  1
  Co  Co19  1  0.250000  0.465144  0.931304  1
  Co  Co20  1  0.250000  0.032307  0.432291  1
  Co  Co21  1  0.750000  0.534714  0.068688  1
  Co  Co22  1  0.750000  0.966771  0.570673  1
  As  As23  1  0.250000  0.415049  0.116558  1
  As  As24  1  0.250000  0.084152  0.617497  1
  As  As25  1  0.750000  0.583340  0.881579  1
  As  As26  1  0.750000  0.915970  0.384212  1
  As  As27  1  0.250000  0.262151  0.867974  1
  As  As28  1  0.250000  0.235080  0.367840  1
  As  As29  1  0.750000  0.737888  0.133635  1
  As  As30  1  0.750000  0.764925  0.633579  1
  As  As31  1  0.250000  0.597815  0.390588  1
  As  As32  1  0.750000  0.402150  0.610670  1
  As  As33  1  0.750000  0.097057  0.109052  1
  P  P34  1  0.250000  0.905571  0.887575  1
  Ru  Ru35  1  0.250000  0.719387  0.987827  1
