# generated using pymatgen
data_Hf2Zr4SiSn2
_symmetry_space_group_name_H-M   'P 1'
_cell_length_a   7.65172373
_cell_length_b   7.65172404
_cell_length_c   3.85970700
_cell_angle_alpha   90.00000000
_cell_angle_beta   90.00000000
_cell_angle_gamma   119.90316629
_symmetry_Int_Tables_number   1
_chemical_formula_structural   Hf2Zr4SiSn2
_chemical_formula_sum   'Hf2 Zr4 Si1 Sn2'
_cell_volume   195.89641599
_cell_formula_units_Z   1
loop_
 _symmetry_equiv_pos_site_id
 _symmetry_equiv_pos_as_xyz
  1  'x, y, z'
loop_
 _atom_site_type_symbol
 _atom_site_label
 _atom_site_symmetry_multiplicity
 _atom_site_fract_x
 _atom_site_fract_y
 _atom_site_fract_z
 _atom_site_occupancy
  Hf  Hf0  1  0.243424  0.000618  0.500000  1
  Hf  Hf1  1  0.000618  0.243424  0.500000  1
  Zr  Zr2  1  0.757036  0.757036  0.500000  1
  Zr  Zr3  1  0.608966  0.000073  0.000000  1
  Zr  Zr4  1  0.000073  0.608966  0.000000  1
  Zr  Zr5  1  0.389371  0.389371  0.000000  1
  Si  Si6  1  0.001216  0.001216  0.000000  1
  Sn  Sn7  1  0.332611  0.666685  0.500000  1
  Sn  Sn8  1  0.666685  0.332611  0.500000  1
