# generated using pymatgen
data_TbDy3(Tc3Os)2
_symmetry_space_group_name_H-M   'P 1'
_cell_length_a   5.29182900
_cell_length_b   5.29182895
_cell_length_c   9.11491900
_cell_angle_alpha   90.00000000
_cell_angle_beta   90.00000000
_cell_angle_gamma   120.00000656
_symmetry_Int_Tables_number   1
_chemical_formula_structural   TbDy3(Tc3Os)2
_chemical_formula_sum   'Tb1 Dy3 Tc6 Os2'
_cell_volume   221.05228902
_cell_formula_units_Z   1
loop_
 _symmetry_equiv_pos_site_id
 _symmetry_equiv_pos_as_xyz
  1  'x, y, z'
loop_
 _atom_site_type_symbol
 _atom_site_label
 _atom_site_symmetry_multiplicity
 _atom_site_fract_x
 _atom_site_fract_y
 _atom_site_fract_z
 _atom_site_occupancy
  Tb  Tb0  1  0.333333  0.666667  0.436521  1
  Dy  Dy1  1  0.666667  0.333333  0.563613  1
  Dy  Dy2  1  0.666667  0.333333  0.936422  1
  Dy  Dy3  1  0.333333  0.666667  0.063505  1
  Tc  Tc4  1  0.829391  0.170609  0.249863  1
  Tc  Tc5  1  0.829391  0.658781  0.249863  1
  Tc  Tc6  1  0.341219  0.170609  0.249863  1
  Tc  Tc7  1  0.170553  0.829447  0.750108  1
  Tc  Tc8  1  0.170553  0.341106  0.750108  1
  Tc  Tc9  1  0.658894  0.829447  0.750108  1
  Os  Os10  1  0.000000  0.000000  0.500044  1
  Os  Os11  1  0.000000  0.000000  0.999984  1
