# generated using pymatgen
data_Hf6Ga6IrPt3Rh2
_symmetry_space_group_name_H-M   'P 1'
_cell_length_a   7.26049000
_cell_length_b   7.26048846
_cell_length_c   6.79656600
_cell_angle_alpha   90.00000000
_cell_angle_beta   90.00000000
_cell_angle_gamma   120.00000704
_symmetry_Int_Tables_number   1
_chemical_formula_structural   Hf6Ga6IrPt3Rh2
_chemical_formula_sum   'Hf6 Ga6 Ir1 Pt3 Rh2'
_cell_volume   310.27866220
_cell_formula_units_Z   1
loop_
 _symmetry_equiv_pos_site_id
 _symmetry_equiv_pos_as_xyz
  1  'x, y, z'
loop_
 _atom_site_type_symbol
 _atom_site_label
 _atom_site_symmetry_multiplicity
 _atom_site_fract_x
 _atom_site_fract_y
 _atom_site_fract_z
 _atom_site_occupancy
  Hf  Hf0  1  0.398631  0.383909  0.253113  1
  Hf  Hf1  1  0.605146  0.993611  0.746999  1
  Hf  Hf2  1  0.388465  0.394854  0.746999  1
  Hf  Hf3  1  0.006389  0.611535  0.746999  1
  Hf  Hf4  1  0.985277  0.601369  0.253113  1
  Hf  Hf5  1  0.616091  0.014723  0.253113  1
  Ga  Ga6  1  0.264924  0.997565  0.000156  1
  Ga  Ga7  1  0.271670  0.000769  0.500472  1
  Ga  Ga8  1  0.999231  0.270901  0.500472  1
  Ga  Ga9  1  0.002435  0.267359  0.000156  1
  Ga  Ga10  1  0.732641  0.735076  0.000156  1
  Ga  Ga11  1  0.729099  0.728330  0.500472  1
  Ir  Ir12  1  0.666667  0.333333  0.512991  1
  Pt  Pt13  1  0.666667  0.333333  0.984674  1
  Pt  Pt14  1  0.333333  0.666667  0.015161  1
  Pt  Pt15  1  0.333333  0.666667  0.484332  1
  Rh  Rh16  1  0.000000  0.000000  0.744075  1
  Rh  Rh17  1  0.000000  0.000000  0.256550  1
