# generated using pymatgen
data_Sm6Cd4Pd12Pt
_symmetry_space_group_name_H-M   'P 1'
_cell_length_a   8.49913248
_cell_length_b   8.49913299
_cell_length_c   8.49913300
_cell_angle_alpha   109.47121827
_cell_angle_beta   109.47121950
_cell_angle_gamma   109.47122391
_symmetry_Int_Tables_number   1
_chemical_formula_structural   Sm6Cd4Pd12Pt
_chemical_formula_sum   'Sm6 Cd4 Pd12 Pt1'
_cell_volume   472.60896932
_cell_formula_units_Z   1
loop_
 _symmetry_equiv_pos_site_id
 _symmetry_equiv_pos_as_xyz
  1  'x, y, z'
loop_
 _atom_site_type_symbol
 _atom_site_label
 _atom_site_symmetry_multiplicity
 _atom_site_fract_x
 _atom_site_fract_y
 _atom_site_fract_z
 _atom_site_occupancy
  Sm  Sm0  1  0.700730  0.700730  0.000000  1
  Sm  Sm1  1  0.299270  0.000000  0.299270  1
  Sm  Sm2  1  0.000000  0.299270  0.299270  1
  Sm  Sm3  1  0.299270  0.299270  0.000000  1
  Sm  Sm4  1  0.700730  0.000000  0.700730  1
  Sm  Sm5  1  0.000000  0.700730  0.700730  1
  Cd  Cd6  1  0.000000  0.000000  0.500000  1
  Cd  Cd7  1  0.000000  0.500000  0.000000  1
  Cd  Cd8  1  0.500000  0.000000  0.000000  1
  Cd  Cd9  1  0.500000  0.500000  0.500000  1
  Pd  Pd10  1  0.343167  0.343167  0.686335  1
  Pd  Pd11  1  0.656833  0.000000  0.343167  1
  Pd  Pd12  1  0.000000  0.656833  0.343167  1
  Pd  Pd13  1  0.656833  0.343167  0.000000  1
  Pd  Pd14  1  0.343167  0.686335  0.343167  1
  Pd  Pd15  1  0.000000  0.343167  0.656833  1
  Pd  Pd16  1  0.343167  0.656833  0.000000  1
  Pd  Pd17  1  0.343167  0.000000  0.656833  1
  Pd  Pd18  1  0.686335  0.343167  0.343167  1
  Pd  Pd19  1  0.656833  0.656833  0.313665  1
  Pd  Pd20  1  0.656833  0.313665  0.656833  1
  Pd  Pd21  1  0.313665  0.656833  0.656833  1
  Pt  Pt22  1  0.000000  0.000000  0.000000  1
