# generated using pymatgen
data_K2NpTlO6
_symmetry_space_group_name_H-M   'P 1'
_cell_length_a   6.07892817
_cell_length_b   6.07557113
_cell_length_c   6.07892800
_cell_angle_alpha   120.02599032
_cell_angle_beta   89.98664434
_cell_angle_gamma   120.02598577
_symmetry_Int_Tables_number   1
_chemical_formula_structural   K2NpTlO6
_chemical_formula_sum   'K2 Np1 Tl1 O6'
_cell_volume   158.64826323
_cell_formula_units_Z   1
loop_
 _symmetry_equiv_pos_site_id
 _symmetry_equiv_pos_as_xyz
  1  'x, y, z'
loop_
 _atom_site_type_symbol
 _atom_site_label
 _atom_site_symmetry_multiplicity
 _atom_site_fract_x
 _atom_site_fract_y
 _atom_site_fract_z
 _atom_site_occupancy
  K  K0  1  0.749998  0.499999  0.250000  1
  K  K1  1  0.249999  0.499999  0.750001  1
  Np  Np2  1  0.000000  0.000000  0.000000  1
  Tl  Tl3  1  0.500000  0.000000  0.500000  1
  O  O4  1  0.235189  0.470378  0.235189  1
  O  O5  1  0.764898  0.000000  0.235103  1
  O  O6  1  0.235068  0.000000  0.235068  1
  O  O7  1  0.764932  0.000000  0.764932  1
  O  O8  1  0.764811  0.529620  0.764811  1
  O  O9  1  0.235101  0.000000  0.764899  1
