# generated using pymatgen
data_DyHoCdSi2
_symmetry_space_group_name_H-M   'P 1'
_cell_length_a   7.13907600
_cell_length_b   7.13913400
_cell_length_c   4.21075100
_cell_angle_alpha   90.00000000
_cell_angle_beta   90.00000000
_cell_angle_gamma   90.00000000
_symmetry_Int_Tables_number   1
_chemical_formula_structural   DyHoCdSi2
_chemical_formula_sum   'Dy2 Ho2 Cd2 Si4'
_cell_volume   214.60858912
_cell_formula_units_Z   2
loop_
 _symmetry_equiv_pos_site_id
 _symmetry_equiv_pos_as_xyz
  1  'x, y, z'
loop_
 _atom_site_type_symbol
 _atom_site_label
 _atom_site_symmetry_multiplicity
 _atom_site_fract_x
 _atom_site_fract_y
 _atom_site_fract_z
 _atom_site_occupancy
  Dy  Dy0  1  0.322674  0.177239  0.499999  1
  Dy  Dy1  1  0.822674  0.322760  0.499999  1
  Ho  Ho2  1  0.177321  0.677407  0.499999  1
  Ho  Ho3  1  0.677321  0.822592  0.499999  1
  Cd  Cd4  1  0.999922  0.999698  0.000000  1
  Cd  Cd5  1  0.499922  0.500302  0.000000  1
  Si  Si6  1  0.617356  0.116789  0.000000  1
  Si  Si7  1  0.117356  0.383211  0.000000  1
  Si  Si8  1  0.882725  0.617832  0.000000  1
  Si  Si9  1  0.382726  0.882167  0.000000  1
