# generated using pymatgen
data_DyLu2InGa8Ru3
_symmetry_space_group_name_H-M   'P 1'
_cell_length_a   6.34433500
_cell_length_b   6.46125200
_cell_length_c   6.46125200
_cell_angle_alpha   90.00000000
_cell_angle_beta   90.00000000
_cell_angle_gamma   90.00000000
_symmetry_Int_Tables_number   1
_chemical_formula_structural   DyLu2InGa8Ru3
_chemical_formula_sum   'Dy1 Lu2 In1 Ga8 Ru3'
_cell_volume   264.86188538
_cell_formula_units_Z   1
loop_
 _symmetry_equiv_pos_site_id
 _symmetry_equiv_pos_as_xyz
  1  'x, y, z'
loop_
 _atom_site_type_symbol
 _atom_site_label
 _atom_site_symmetry_multiplicity
 _atom_site_fract_x
 _atom_site_fract_y
 _atom_site_fract_z
 _atom_site_occupancy
  Dy  Dy0  1  0.000000  0.500000  0.500000  1
  Lu  Lu1  1  0.500000  0.500000  0.000000  1
  Lu  Lu2  1  0.500000  0.000000  0.500000  1
  In  In3  1  0.500000  0.500000  0.500000  1
  Ga  Ga4  1  0.213339  0.211264  0.788736  1
  Ga  Ga5  1  0.213339  0.788736  0.211264  1
  Ga  Ga6  1  0.786661  0.211264  0.211264  1
  Ga  Ga7  1  0.786661  0.788736  0.788736  1
  Ga  Ga8  1  0.786661  0.788736  0.211264  1
  Ga  Ga9  1  0.786661  0.211264  0.788736  1
  Ga  Ga10  1  0.213339  0.788736  0.788736  1
  Ga  Ga11  1  0.213339  0.211264  0.211264  1
  Ru  Ru12  1  0.000000  0.000000  0.500000  1
  Ru  Ru13  1  0.000000  0.500000  0.000000  1
  Ru  Ru14  1  0.500000  0.000000  0.000000  1
