# generated using pymatgen
data_CaYbCu10
_symmetry_space_group_name_H-M   'P 1'
_cell_length_a   4.08210800
_cell_length_b   5.02331700
_cell_length_c   8.78505300
_cell_angle_alpha   90.00000000
_cell_angle_beta   90.00000000
_cell_angle_gamma   90.00000000
_symmetry_Int_Tables_number   1
_chemical_formula_structural   CaYbCu10
_chemical_formula_sum   'Ca1 Yb1 Cu10'
_cell_volume   180.14385907
_cell_formula_units_Z   1
loop_
 _symmetry_equiv_pos_site_id
 _symmetry_equiv_pos_as_xyz
  1  'x, y, z'
loop_
 _atom_site_type_symbol
 _atom_site_label
 _atom_site_symmetry_multiplicity
 _atom_site_fract_x
 _atom_site_fract_y
 _atom_site_fract_z
 _atom_site_occupancy
  Ca  Ca0  1  0.000000  0.000000  0.000000  1
  Yb  Yb1  1  0.000000  0.500000  0.500000  1
  Cu  Cu2  1  0.000000  0.000000  0.337236  1
  Cu  Cu3  1  0.000000  0.500000  0.829119  1
  Cu  Cu4  1  0.000000  0.500000  0.170881  1
  Cu  Cu5  1  0.000000  0.000000  0.662764  1
  Cu  Cu6  1  0.500000  0.000000  0.500000  1
  Cu  Cu7  1  0.500000  0.500000  0.000000  1
  Cu  Cu8  1  0.500000  0.251742  0.254449  1
  Cu  Cu9  1  0.500000  0.748258  0.745551  1
  Cu  Cu10  1  0.500000  0.748258  0.254449  1
  Cu  Cu11  1  0.500000  0.251742  0.745551  1
