# generated using pymatgen
data_Zr5In2GaBi
_symmetry_space_group_name_H-M   'P 1'
_cell_length_a   8.81908900
_cell_length_b   8.82599091
_cell_length_c   5.94167100
_cell_angle_alpha   90.00000000
_cell_angle_beta   90.00000000
_cell_angle_gamma   119.97413133
_symmetry_Int_Tables_number   1
_chemical_formula_structural   Zr5In2GaBi
_chemical_formula_sum   'Zr10 In4 Ga2 Bi2'
_cell_volume   400.62641603
_cell_formula_units_Z   2
loop_
 _symmetry_equiv_pos_site_id
 _symmetry_equiv_pos_as_xyz
  1  'x, y, z'
loop_
 _atom_site_type_symbol
 _atom_site_label
 _atom_site_symmetry_multiplicity
 _atom_site_fract_x
 _atom_site_fract_y
 _atom_site_fract_z
 _atom_site_occupancy
  Zr  Zr0  1  0.000733  0.264581  0.250000  1
  Zr  Zr1  1  0.738953  0.000000  0.750000  1
  Zr  Zr2  1  0.736152  0.735419  0.250000  1
  Zr  Zr3  1  0.664199  0.330698  0.495951  1
  Zr  Zr4  1  0.002352  0.740753  0.750000  1
  Zr  Zr5  1  0.261600  0.259247  0.750000  1
  Zr  Zr6  1  0.333500  0.669302  0.004049  1
  Zr  Zr7  1  0.664199  0.330698  0.004049  1
  Zr  Zr8  1  0.333500  0.669302  0.495951  1
  Zr  Zr9  1  0.265440  0.000000  0.250000  1
  In  In10  1  0.614141  0.000000  0.250000  1
  In  In11  1  0.389445  0.000000  0.750000  1
  In  In12  1  0.384078  0.385130  0.250000  1
  In  In13  1  0.998948  0.614870  0.250000  1
  Ga  Ga14  1  0.001652  0.000000  0.004915  1
  Ga  Ga15  1  0.001652  0.000000  0.495085  1
  Bi  Bi16  1  0.999859  0.390266  0.750000  1
  Bi  Bi17  1  0.609592  0.609734  0.750000  1
