# generated using pymatgen
data_Na3Yb2PtO6
_symmetry_space_group_name_H-M   'P 1'
_cell_length_a   5.59576202
_cell_length_b   5.68944901
_cell_length_c   5.59576100
_cell_angle_alpha   80.27886870
_cell_angle_beta   119.92810577
_cell_angle_gamma   80.27851700
_symmetry_Int_Tables_number   1
_chemical_formula_structural   Na3Yb2PtO6
_chemical_formula_sum   'Na3 Yb2 Pt1 O6'
_cell_volume   145.34457208
_cell_formula_units_Z   1
loop_
 _symmetry_equiv_pos_site_id
 _symmetry_equiv_pos_as_xyz
  1  'x, y, z'
loop_
 _atom_site_type_symbol
 _atom_site_label
 _atom_site_symmetry_multiplicity
 _atom_site_fract_x
 _atom_site_fract_y
 _atom_site_fract_z
 _atom_site_occupancy
  Na  Na0  1  0.500007  0.500011  0.500007  1
  Na  Na1  1  0.835777  0.500013  0.164235  1
  Na  Na2  1  0.164230  0.500007  0.835768  1
  Yb  Yb3  1  0.332559  0.999992  0.667469  1
  Yb  Yb4  1  0.667480  0.999993  0.332564  1
  Pt  Pt5  1  0.999835  0.999883  0.999869  1
  O  O6  1  0.227019  0.214135  0.227024  1
  O  O7  1  0.773061  0.785954  0.773054  1
  O  O8  1  0.375296  0.778771  0.074436  1
  O  O9  1  0.074439  0.778782  0.375285  1
  O  O10  1  0.925565  0.221230  0.624718  1
  O  O11  1  0.624731  0.221228  0.925571  1
