# generated using pymatgen
data_Sm2HoMg3AgPb2
_symmetry_space_group_name_H-M   'P 1'
_cell_length_a   7.63883991
_cell_length_b   7.63884061
_cell_length_c   4.58789400
_cell_angle_alpha   90.00000000
_cell_angle_beta   90.00000000
_cell_angle_gamma   119.77361141
_symmetry_Int_Tables_number   1
_chemical_formula_structural   Sm2HoMg3AgPb2
_chemical_formula_sum   'Sm2 Ho1 Mg3 Ag1 Pb2'
_cell_volume   232.37268759
_cell_formula_units_Z   1
loop_
 _symmetry_equiv_pos_site_id
 _symmetry_equiv_pos_as_xyz
  1  'x, y, z'
loop_
 _atom_site_type_symbol
 _atom_site_label
 _atom_site_symmetry_multiplicity
 _atom_site_fract_x
 _atom_site_fract_y
 _atom_site_fract_z
 _atom_site_occupancy
  Sm  Sm0  1  0.587565  0.999380  0.000000  1
  Sm  Sm1  1  0.999380  0.587565  0.000000  1
  Ho  Ho2  1  0.411298  0.411298  0.000000  1
  Mg  Mg3  1  0.234334  0.000618  0.500000  1
  Mg  Mg4  1  0.000618  0.234334  0.500000  1
  Mg  Mg5  1  0.765553  0.765553  0.500000  1
  Ag  Ag6  1  0.002597  0.002597  0.000000  1
  Pb  Pb7  1  0.334589  0.664065  0.500000  1
  Pb  Pb8  1  0.664065  0.334589  0.500000  1
