# generated using pymatgen
data_Hf4NbSn4
_symmetry_space_group_name_H-M   'P 1'
_cell_length_a   8.71144500
_cell_length_b   8.71144503
_cell_length_c   5.86928100
_cell_angle_alpha   90.00000000
_cell_angle_beta   90.00000000
_cell_angle_gamma   119.99999608
_symmetry_Int_Tables_number   1
_chemical_formula_structural   Hf4NbSn4
_chemical_formula_sum   'Hf8 Nb2 Sn8'
_cell_volume   385.74113234
_cell_formula_units_Z   2
loop_
 _symmetry_equiv_pos_site_id
 _symmetry_equiv_pos_as_xyz
  1  'x, y, z'
loop_
 _atom_site_type_symbol
 _atom_site_label
 _atom_site_symmetry_multiplicity
 _atom_site_fract_x
 _atom_site_fract_y
 _atom_site_fract_z
 _atom_site_occupancy
  Hf  Hf0  1  0.666667  0.333333  0.000000  1
  Hf  Hf1  1  0.333333  0.666667  0.500000  1
  Hf  Hf2  1  0.283370  0.000000  0.250000  1
  Hf  Hf3  1  0.283370  0.283370  0.750000  1
  Hf  Hf4  1  0.000000  0.716630  0.750000  1
  Hf  Hf5  1  0.000000  0.283370  0.250000  1
  Hf  Hf6  1  0.716630  0.716630  0.250000  1
  Hf  Hf7  1  0.716630  0.000000  0.750000  1
  Nb  Nb8  1  0.333333  0.666667  0.000000  1
  Nb  Nb9  1  0.666667  0.333333  0.500000  1
  Sn  Sn10  1  0.000000  0.000000  0.000000  1
  Sn  Sn11  1  0.000000  0.000000  0.500000  1
  Sn  Sn12  1  0.613218  0.000000  0.250000  1
  Sn  Sn13  1  0.613218  0.613218  0.750000  1
  Sn  Sn14  1  0.000000  0.386782  0.750000  1
  Sn  Sn15  1  0.000000  0.613218  0.250000  1
  Sn  Sn16  1  0.386782  0.386782  0.250000  1
  Sn  Sn17  1  0.386782  0.000000  0.750000  1
