# generated using pymatgen
data_Cs6VCrSe8
_symmetry_space_group_name_H-M   'P 1'
_cell_length_a   10.20875300
_cell_length_b   10.27520100
_cell_length_c   12.09008000
_cell_angle_alpha   90.00000000
_cell_angle_beta   90.00000000
_cell_angle_gamma   90.00000000
_symmetry_Int_Tables_number   1
_chemical_formula_structural   Cs6VCrSe8
_chemical_formula_sum   'Cs12 V2 Cr2 Se16'
_cell_volume   1268.21298918
_cell_formula_units_Z   2
loop_
 _symmetry_equiv_pos_site_id
 _symmetry_equiv_pos_as_xyz
  1  'x, y, z'
loop_
 _atom_site_type_symbol
 _atom_site_label
 _atom_site_symmetry_multiplicity
 _atom_site_fract_x
 _atom_site_fract_y
 _atom_site_fract_z
 _atom_site_occupancy
  Cs  Cs0  1  0.545691  0.208591  0.042298  1
  Cs  Cs1  1  0.045691  0.291409  0.457702  1
  Cs  Cs2  1  0.454719  0.792531  0.541123  1
  Cs  Cs3  1  0.954719  0.707469  0.958877  1
  Cs  Cs4  1  0.454719  0.792531  0.958877  1
  Cs  Cs5  1  0.954719  0.707469  0.541123  1
  Cs  Cs6  1  0.545691  0.208591  0.457702  1
  Cs  Cs7  1  0.045691  0.291409  0.042298  1
  Cs  Cs8  1  0.648610  0.413412  0.750000  1
  Cs  Cs9  1  0.148610  0.086588  0.750000  1
  Cs  Cs10  1  0.352212  0.586890  0.250000  1
  Cs  Cs11  1  0.852212  0.913110  0.250000  1
  V  V12  1  0.277698  0.016995  0.250000  1
  V  V13  1  0.777698  0.483005  0.250000  1
  Cr  Cr14  1  0.722439  0.983132  0.750000  1
  Cr  Cr15  1  0.222439  0.516868  0.750000  1
  Se  Se16  1  0.828942  0.047970  0.594838  1
  Se  Se17  1  0.328942  0.452030  0.905162  1
  Se  Se18  1  0.168839  0.952285  0.093550  1
  Se  Se19  1  0.668839  0.547715  0.406450  1
  Se  Se20  1  0.168839  0.952285  0.406450  1
  Se  Se21  1  0.668839  0.547715  0.093550  1
  Se  Se22  1  0.828942  0.047970  0.905162  1
  Se  Se23  1  0.328942  0.452030  0.594838  1
  Se  Se24  1  0.516239  0.067898  0.750000  1
  Se  Se25  1  0.016239  0.432102  0.750000  1
  Se  Se26  1  0.486207  0.931039  0.250000  1
  Se  Se27  1  0.986207  0.568961  0.250000  1
  Se  Se28  1  0.709898  0.762207  0.750000  1
  Se  Se29  1  0.209898  0.737793  0.750000  1
  Se  Se30  1  0.290317  0.240120  0.250000  1
  Se  Se31  1  0.790317  0.259880  0.250000  1
