# generated using pymatgen
data_Pa2SnPt2
_symmetry_space_group_name_H-M   'P 1'
_cell_length_a   7.71877100
_cell_length_b   7.71877100
_cell_length_c   3.79491800
_cell_angle_alpha   90.00000000
_cell_angle_beta   90.00000000
_cell_angle_gamma   90.00000000
_symmetry_Int_Tables_number   1
_chemical_formula_structural   Pa2SnPt2
_chemical_formula_sum   'Pa4 Sn2 Pt4'
_cell_volume   226.09903521
_cell_formula_units_Z   2
loop_
 _symmetry_equiv_pos_site_id
 _symmetry_equiv_pos_as_xyz
  1  'x, y, z'
loop_
 _atom_site_type_symbol
 _atom_site_label
 _atom_site_symmetry_multiplicity
 _atom_site_fract_x
 _atom_site_fract_y
 _atom_site_fract_z
 _atom_site_occupancy
  Pa  Pa0  1  0.326837  0.173163  0.499999  1
  Pa  Pa1  1  0.826837  0.326837  0.499999  1
  Pa  Pa2  1  0.173163  0.673163  0.499999  1
  Pa  Pa3  1  0.673163  0.826837  0.499999  1
  Sn  Sn4  1  0.000000  0.000000  0.000000  1
  Sn  Sn5  1  0.500000  0.500000  0.000000  1
  Pt  Pt6  1  0.630267  0.130267  0.000000  1
  Pt  Pt7  1  0.130267  0.369733  0.000000  1
  Pt  Pt8  1  0.869733  0.630267  0.000000  1
  Pt  Pt9  1  0.369733  0.869733  0.000000  1
