# generated using pymatgen
data_Y3Zn2Hg3Ir
_symmetry_space_group_name_H-M   'P 1'
_cell_length_a   3.77458500
_cell_length_b   7.98022638
_cell_length_c   7.77890363
_cell_angle_alpha   119.95633847
_cell_angle_beta   90.00000000
_cell_angle_gamma   90.00000000
_symmetry_Int_Tables_number   1
_chemical_formula_structural   Y3Zn2Hg3Ir
_chemical_formula_sum   'Y3 Zn2 Hg3 Ir1'
_cell_volume   203.01323393
_cell_formula_units_Z   1
loop_
 _symmetry_equiv_pos_site_id
 _symmetry_equiv_pos_as_xyz
  1  'x, y, z'
loop_
 _atom_site_type_symbol
 _atom_site_label
 _atom_site_symmetry_multiplicity
 _atom_site_fract_x
 _atom_site_fract_y
 _atom_site_fract_z
 _atom_site_occupancy
  Y  Y0  1  0.000000  0.426024  0.035442  1
  Y  Y1  1  0.000000  0.611339  0.589381  1
  Y  Y2  1  0.000000  0.957858  0.387722  1
  Zn  Zn3  1  0.500000  0.291124  0.277283  1
  Zn  Zn4  1  0.500000  0.988297  0.713795  1
  Hg  Hg5  1  0.500000  0.313627  0.650210  1
  Hg  Hg6  1  0.000000  0.025439  0.003598  1
  Hg  Hg7  1  0.500000  0.723195  0.995790  1
  Ir  Ir8  1  0.500000  0.663200  0.346780  1
