# generated using pymatgen
data_Y11Er5Cd2(InPd2)2
_symmetry_space_group_name_H-M   'P 1'
_cell_length_a   9.69357641
_cell_length_b   9.68427148
_cell_length_c   9.71552901
_cell_angle_alpha   60.07707493
_cell_angle_beta   60.24862685
_cell_angle_gamma   60.16359784
_symmetry_Int_Tables_number   1
_chemical_formula_structural   Y11Er5Cd2(InPd2)2
_chemical_formula_sum   'Y11 Er5 Cd2 In2 Pd4'
_cell_volume   647.29442431
_cell_formula_units_Z   1
loop_
 _symmetry_equiv_pos_site_id
 _symmetry_equiv_pos_as_xyz
  1  'x, y, z'
loop_
 _atom_site_type_symbol
 _atom_site_label
 _atom_site_symmetry_multiplicity
 _atom_site_fract_x
 _atom_site_fract_y
 _atom_site_fract_z
 _atom_site_occupancy
  Y  Y0  1  0.191498  0.808589  0.808820  1
  Y  Y1  1  0.191157  0.810094  0.190091  1
  Y  Y2  1  0.809555  0.190834  0.809581  1
  Y  Y3  1  0.189484  0.189420  0.811627  1
  Y  Y4  1  0.808103  0.807796  0.192711  1
  Y  Y5  1  0.937542  0.565520  0.564761  1
  Y  Y6  1  0.563270  0.938390  0.934264  1
  Y  Y7  1  0.566957  0.937414  0.564305  1
  Y  Y8  1  0.937915  0.562063  0.935027  1
  Y  Y9  1  0.566131  0.564417  0.935449  1
  Y  Y10  1  0.937832  0.938755  0.559824  1
  Er  Er11  1  0.351397  0.350758  0.351903  1
  Er  Er12  1  0.354193  0.352641  0.941415  1
  Er  Er13  1  0.353748  0.940939  0.352859  1
  Er  Er14  1  0.938351  0.354283  0.354445  1
  Er  Er15  1  0.809967  0.190871  0.190361  1
  Cd  Cd16  1  0.580178  0.253402  0.582252  1
  Cd  Cd17  1  0.252884  0.580527  0.582401  1
  In  In18  1  0.581579  0.581521  0.584784  1
  In  In19  1  0.581567  0.582814  0.251342  1
  Pd  Pd20  1  0.142495  0.146790  0.147311  1
  Pd  Pd21  1  0.143791  0.144412  0.564485  1
  Pd  Pd22  1  0.143889  0.563200  0.144789  1
  Pd  Pd23  1  0.566515  0.144549  0.145195  1
