# generated using pymatgen
data_Y10In8CoPd3
_symmetry_space_group_name_H-M   'P 1'
_cell_length_a   3.62887800
_cell_length_b   8.14088303
_cell_length_c   18.30541156
_cell_angle_alpha   90.13948156
_cell_angle_beta   90.00000000
_cell_angle_gamma   90.00000000
_symmetry_Int_Tables_number   1
_chemical_formula_structural   Y10In8CoPd3
_chemical_formula_sum   'Y10 In8 Co1 Pd3'
_cell_volume   540.78183270
_cell_formula_units_Z   1
loop_
 _symmetry_equiv_pos_site_id
 _symmetry_equiv_pos_as_xyz
  1  'x, y, z'
loop_
 _atom_site_type_symbol
 _atom_site_label
 _atom_site_symmetry_multiplicity
 _atom_site_fract_x
 _atom_site_fract_y
 _atom_site_fract_z
 _atom_site_occupancy
  Y  Y0  1  0.500000  0.226563  0.776441  1
  Y  Y1  1  0.500000  0.760381  0.218867  1
  Y  Y2  1  0.500000  0.259250  0.280896  1
  Y  Y3  1  0.500000  0.760061  0.718696  1
  Y  Y4  1  0.500000  0.113494  0.590171  1
  Y  Y5  1  0.500000  0.881403  0.418079  1
  Y  Y6  1  0.500000  0.380805  0.082306  1
  Y  Y7  1  0.500000  0.619416  0.915157  1
  Y  Y8  1  0.500000  0.999859  0.999118  1
  Y  Y9  1  0.500000  0.500170  0.501464  1
  In  In10  1  0.000000  0.079253  0.150521  1
  In  In11  1  0.000000  0.923818  0.847035  1
  In  In12  1  0.000000  0.421363  0.651462  1
  In  In13  1  0.000000  0.579638  0.349664  1
  In  In14  1  0.000000  0.207501  0.433436  1
  In  In15  1  0.000000  0.795030  0.570491  1
  In  In16  1  0.000000  0.292166  0.930401  1
  In  In17  1  0.000000  0.707532  0.067477  1
  Co  Co18  1  0.000000  0.019094  0.694779  1
  Pd  Pd19  1  0.000000  0.975406  0.304451  1
  Pd  Pd20  1  0.000000  0.475611  0.195904  1
  Pd  Pd21  1  0.000000  0.522186  0.803185  1
