# generated using pymatgen
data_Tm11(SbO8)3
_symmetry_space_group_name_H-M   'P 1'
_cell_length_a   8.24542732
_cell_length_b   8.30022304
_cell_length_c   8.34470122
_cell_angle_alpha   71.26966725
_cell_angle_beta   72.44564718
_cell_angle_gamma   71.76986913
_symmetry_Int_Tables_number   1
_chemical_formula_structural   Tm11(SbO8)3
_chemical_formula_sum   'Tm11 Sb3 O24'
_cell_volume   500.69994483
_cell_formula_units_Z   1
loop_
 _symmetry_equiv_pos_site_id
 _symmetry_equiv_pos_as_xyz
  1  'x, y, z'
loop_
 _atom_site_type_symbol
 _atom_site_label
 _atom_site_symmetry_multiplicity
 _atom_site_fract_x
 _atom_site_fract_y
 _atom_site_fract_z
 _atom_site_occupancy
  Tm  Tm0  1  0.386744  0.915624  0.225170  1
  Tm  Tm1  1  0.718400  0.888273  0.423850  1
  Tm  Tm2  1  0.421365  0.726118  0.889253  1
  Tm  Tm3  1  0.077220  0.784243  0.610647  1
  Tm  Tm4  1  0.889368  0.419997  0.718842  1
  Tm  Tm5  1  0.774635  0.615145  0.081216  1
  Tm  Tm6  1  0.109073  0.580641  0.288665  1
  Tm  Tm7  1  0.919637  0.215585  0.392996  1
  Tm  Tm8  1  0.587987  0.280985  0.107761  1
  Tm  Tm9  1  0.285644  0.109756  0.564195  1
  Tm  Tm10  1  0.610268  0.081431  0.772429  1
  Sb  Sb11  1  0.001312  0.999758  0.003928  1
  Sb  Sb12  1  0.500453  0.493074  0.499731  1
  Sb  Sb13  1  0.208122  0.394614  0.940404  1
  O  O14  1  0.136362  0.916426  0.787403  1
  O  O15  1  0.591454  0.709061  0.371729  1
  O  O16  1  0.510702  0.914874  0.663826  1
  O  O17  1  0.214310  0.860114  0.095688  1
  O  O18  1  0.831592  0.988705  0.582274  1
  O  O19  1  0.922798  0.666578  0.517208  1
  O  O20  1  0.577344  0.841516  0.991554  1
  O  O21  1  0.670061  0.517826  0.918564  1
  O  O22  1  0.288321  0.641342  0.405268  1
  O  O23  1  0.008345  0.571363  0.842143  1
  O  O24  1  0.640334  0.410564  0.282046  1
  O  O25  1  0.908109  0.783560  0.139449  1
  O  O26  1  0.099203  0.228357  0.874939  1
  O  O27  1  0.352874  0.565598  0.730107  1
  O  O28  1  0.021575  0.406151  0.159890  1
  O  O29  1  0.711949  0.358927  0.596968  1
  O  O30  1  0.320957  0.490872  0.071569  1
  O  O31  1  0.401853  0.188945  0.994138  1
  O  O32  1  0.075130  0.333274  0.489485  1
  O  O33  1  0.166066  0.007992  0.418388  1
  O  O34  1  0.790397  0.142992  0.904241  1
  O  O35  1  0.490746  0.079497  0.319881  1
  O  O36  1  0.418469  0.276385  0.611902  1
  O  O37  1  0.860822  0.093836  0.212245  1
