# generated using pymatgen
data_Yb19Cd(IrAu2)4
_symmetry_space_group_name_H-M   'P 1'
_cell_length_a   11.23241700
_cell_length_b   11.23241700
_cell_length_c   6.28411100
_cell_angle_alpha   90.00000000
_cell_angle_beta   90.00000000
_cell_angle_gamma   90.00000000
_symmetry_Int_Tables_number   1
_chemical_formula_structural   Yb19Cd(IrAu2)4
_chemical_formula_sum   'Yb19 Cd1 Ir4 Au8'
_cell_volume   792.84863696
_cell_formula_units_Z   1
loop_
 _symmetry_equiv_pos_site_id
 _symmetry_equiv_pos_as_xyz
  1  'x, y, z'
loop_
 _atom_site_type_symbol
 _atom_site_label
 _atom_site_symmetry_multiplicity
 _atom_site_fract_x
 _atom_site_fract_y
 _atom_site_fract_z
 _atom_site_occupancy
  Yb  Yb0  1  0.294127  0.080100  0.355298  1
  Yb  Yb1  1  0.299356  0.916905  0.854172  1
  Yb  Yb2  1  0.700644  0.083095  0.854172  1
  Yb  Yb3  1  0.705873  0.919900  0.355298  1
  Yb  Yb4  1  0.584327  0.798902  0.854016  1
  Yb  Yb5  1  0.580506  0.200948  0.352672  1
  Yb  Yb6  1  0.419494  0.799052  0.352672  1
  Yb  Yb7  1  0.415673  0.201098  0.854016  1
  Yb  Yb8  1  0.200948  0.419494  0.647328  1
  Yb  Yb9  1  0.201098  0.584327  0.145984  1
  Yb  Yb10  1  0.798902  0.415673  0.145984  1
  Yb  Yb11  1  0.799052  0.580506  0.647328  1
  Yb  Yb12  1  0.916905  0.700644  0.145828  1
  Yb  Yb13  1  0.919900  0.294127  0.644702  1
  Yb  Yb14  1  0.080100  0.705873  0.644702  1
  Yb  Yb15  1  0.083095  0.299356  0.145828  1
  Yb  Yb16  1  0.000000  0.000000  0.000000  1
  Yb  Yb17  1  0.500000  0.500000  0.000000  1
  Yb  Yb18  1  0.500000  0.500000  0.500000  1
  Cd  Cd19  1  0.000000  0.000000  0.500000  1
  Ir  Ir20  1  0.500000  0.000000  0.104166  1
  Ir  Ir21  1  0.500000  0.000000  0.603199  1
  Ir  Ir22  1  0.000000  0.500000  0.895834  1
  Ir  Ir23  1  0.000000  0.500000  0.396801  1
  Au  Au24  1  0.843872  0.155054  0.248983  1
  Au  Au25  1  0.844946  0.843872  0.751017  1
  Au  Au26  1  0.155054  0.156128  0.751017  1
  Au  Au27  1  0.156128  0.844946  0.248983  1
  Au  Au28  1  0.654471  0.344489  0.748018  1
  Au  Au29  1  0.655511  0.654471  0.251982  1
  Au  Au30  1  0.344489  0.345529  0.251982  1
  Au  Au31  1  0.345529  0.655511  0.748018  1
