# generated using pymatgen
data_LiTh4Sc5Si8
_symmetry_space_group_name_H-M   'P 1'
_cell_length_a   7.16093900
_cell_length_b   7.47080700
_cell_length_c   14.34386800
_cell_angle_alpha   90.00000000
_cell_angle_beta   90.00000000
_cell_angle_gamma   90.00000000
_symmetry_Int_Tables_number   1
_chemical_formula_structural   LiTh4Sc5Si8
_chemical_formula_sum   'Li2 Th8 Sc10 Si16'
_cell_volume   767.36815284
_cell_formula_units_Z   2
loop_
 _symmetry_equiv_pos_site_id
 _symmetry_equiv_pos_as_xyz
  1  'x, y, z'
loop_
 _atom_site_type_symbol
 _atom_site_label
 _atom_site_symmetry_multiplicity
 _atom_site_fract_x
 _atom_site_fract_y
 _atom_site_fract_z
 _atom_site_occupancy
  Li  Li0  1  0.656643  0.005152  0.750000  1
  Li  Li1  1  0.843357  0.505152  0.250000  1
  Th  Th2  1  0.003145  0.179043  0.400381  1
  Th  Th3  1  0.509750  0.329780  0.400909  1
  Th  Th4  1  0.496855  0.679043  0.900381  1
  Th  Th5  1  0.496855  0.679043  0.599619  1
  Th  Th6  1  0.990250  0.829780  0.599091  1
  Th  Th7  1  0.990250  0.829780  0.900909  1
  Th  Th8  1  0.509750  0.329780  0.099091  1
  Th  Th9  1  0.003145  0.179043  0.099619  1
  Sc  Sc10  1  0.344495  0.173777  0.624082  1
  Sc  Sc11  1  0.667926  0.813738  0.374722  1
  Sc  Sc12  1  0.155505  0.673777  0.375918  1
  Sc  Sc13  1  0.832074  0.313738  0.874722  1
  Sc  Sc14  1  0.832074  0.313738  0.625278  1
  Sc  Sc15  1  0.334990  0.001888  0.250000  1
  Sc  Sc16  1  0.344495  0.173777  0.875918  1
  Sc  Sc17  1  0.155505  0.673777  0.124082  1
  Sc  Sc18  1  0.667926  0.813738  0.125278  1
  Sc  Sc19  1  0.165010  0.501888  0.750000  1
  Si  Si20  1  0.284470  0.878757  0.750000  1
  Si  Si21  1  0.450846  0.624802  0.250000  1
  Si  Si22  1  0.049154  0.124802  0.750000  1
  Si  Si23  1  0.537768  0.386259  0.750000  1
  Si  Si24  1  0.163516  0.463214  0.539910  1
  Si  Si25  1  0.962232  0.886259  0.250000  1
  Si  Si26  1  0.703801  0.107318  0.250000  1
  Si  Si27  1  0.836048  0.538359  0.029028  1
  Si  Si28  1  0.336484  0.963214  0.039910  1
  Si  Si29  1  0.163516  0.463214  0.960090  1
  Si  Si30  1  0.663952  0.038359  0.529028  1
  Si  Si31  1  0.336484  0.963214  0.460090  1
  Si  Si32  1  0.836048  0.538359  0.470972  1
  Si  Si33  1  0.796199  0.607318  0.750000  1
  Si  Si34  1  0.215530  0.378757  0.250000  1
  Si  Si35  1  0.663952  0.038359  0.970972  1
