# generated using pymatgen
data_ErPa3(InPt2)2
_symmetry_space_group_name_H-M   'P 1'
_cell_length_a   7.83010658
_cell_length_b   7.83010600
_cell_length_c   3.65251300
_cell_angle_alpha   90.00000000
_cell_angle_beta   90.00000000
_cell_angle_gamma   89.35693773
_symmetry_Int_Tables_number   1
_chemical_formula_structural   ErPa3(InPt2)2
_chemical_formula_sum   'Er1 Pa3 In2 Pt4'
_cell_volume   223.92352945
_cell_formula_units_Z   1
loop_
 _symmetry_equiv_pos_site_id
 _symmetry_equiv_pos_as_xyz
  1  'x, y, z'
loop_
 _atom_site_type_symbol
 _atom_site_label
 _atom_site_symmetry_multiplicity
 _atom_site_fract_x
 _atom_site_fract_y
 _atom_site_fract_z
 _atom_site_occupancy
  Er  Er0  1  0.674352  0.174352  0.500000  1
  Pa  Pa1  1  0.331034  0.831034  0.500000  1
  Pa  Pa2  1  0.826415  0.672629  0.500000  1
  Pa  Pa3  1  0.172629  0.326415  0.500000  1
  In  In4  1  0.992824  0.002943  0.000000  1
  In  In5  1  0.502943  0.492824  0.000000  1
  Pt  Pt6  1  0.361136  0.125179  0.000000  1
  Pt  Pt7  1  0.878888  0.378888  0.000000  1
  Pt  Pt8  1  0.134602  0.634602  0.000000  1
  Pt  Pt9  1  0.625179  0.861136  0.000000  1
