# generated using pymatgen
data_Sc4Cu2IrAu
_symmetry_space_group_name_H-M   'P 1'
_cell_length_a   6.57937300
_cell_length_b   4.64508000
_cell_length_c   9.30645900
_cell_angle_alpha   90.00000000
_cell_angle_beta   89.99952566
_cell_angle_gamma   90.00000000
_symmetry_Int_Tables_number   1
_chemical_formula_structural   Sc4Cu2IrAu
_chemical_formula_sum   'Sc8 Cu4 Ir2 Au2'
_cell_volume   284.42133770
_cell_formula_units_Z   2
loop_
 _symmetry_equiv_pos_site_id
 _symmetry_equiv_pos_as_xyz
  1  'x, y, z'
loop_
 _atom_site_type_symbol
 _atom_site_label
 _atom_site_symmetry_multiplicity
 _atom_site_fract_x
 _atom_site_fract_y
 _atom_site_fract_z
 _atom_site_occupancy
  Sc  Sc0  1  0.005392  0.749999  0.133786  1
  Sc  Sc1  1  0.494612  0.749999  0.133789  1
  Sc  Sc2  1  0.994608  0.250000  0.366212  1
  Sc  Sc3  1  0.505389  0.250000  0.366212  1
  Sc  Sc4  1  0.506811  0.749999  0.619403  1
  Sc  Sc5  1  0.993195  0.749999  0.619404  1
  Sc  Sc6  1  0.493189  0.250000  0.880596  1
  Sc  Sc7  1  0.006805  0.250000  0.880597  1
  Cu  Cu8  1  0.750010  0.250000  0.121249  1
  Cu  Cu9  1  0.249991  0.749999  0.378751  1
  Cu  Cu10  1  0.749994  0.250000  0.616311  1
  Cu  Cu11  1  0.250003  0.749999  0.883689  1
  Ir  Ir12  1  0.249999  0.250000  0.121746  1
  Ir  Ir13  1  0.750002  0.749999  0.378254  1
  Au  Au14  1  0.250001  0.250000  0.619378  1
  Au  Au15  1  0.749998  0.749999  0.880622  1
