# generated using pymatgen
data_MgZn3CdPd
_symmetry_space_group_name_H-M   'P 1'
_cell_length_a   5.24326747
_cell_length_b   5.24326720
_cell_length_c   5.24326724
_cell_angle_alpha   59.15813415
_cell_angle_beta   59.15811776
_cell_angle_gamma   59.15813452
_symmetry_Int_Tables_number   1
_chemical_formula_structural   MgZn3CdPd
_chemical_formula_sum   'Mg1 Zn3 Cd1 Pd1'
_cell_volume   99.97186893
_cell_formula_units_Z   1
loop_
 _symmetry_equiv_pos_site_id
 _symmetry_equiv_pos_as_xyz
  1  'x, y, z'
loop_
 _atom_site_type_symbol
 _atom_site_label
 _atom_site_symmetry_multiplicity
 _atom_site_fract_x
 _atom_site_fract_y
 _atom_site_fract_z
 _atom_site_occupancy
  Mg  Mg0  1  0.497278  0.497278  0.497278  1
  Zn  Zn1  1  0.625255  0.124972  0.124972  1
  Zn  Zn2  1  0.124972  0.124972  0.625255  1
  Zn  Zn3  1  0.124972  0.625255  0.124972  1
  Cd  Cd4  1  0.752085  0.752085  0.752085  1
  Pd  Pd5  1  0.125438  0.125438  0.125438  1
