# generated using pymatgen
data_Y2Er7TmCd3Ni
_symmetry_space_group_name_H-M   'P 1'
_cell_length_a   9.55190302
_cell_length_b   9.54823465
_cell_length_c   9.68519500
_cell_angle_alpha   90.00000000
_cell_angle_beta   90.00000000
_cell_angle_gamma   119.98774437
_symmetry_Int_Tables_number   1
_chemical_formula_structural   Y2Er7TmCd3Ni
_chemical_formula_sum   'Y4 Er14 Tm2 Cd6 Ni2'
_cell_volume   765.07781528
_cell_formula_units_Z   2
loop_
 _symmetry_equiv_pos_site_id
 _symmetry_equiv_pos_as_xyz
  1  'x, y, z'
loop_
 _atom_site_type_symbol
 _atom_site_label
 _atom_site_symmetry_multiplicity
 _atom_site_fract_x
 _atom_site_fract_y
 _atom_site_fract_z
 _atom_site_occupancy
  Y  Y0  1  0.912623  0.456310  0.250000  1
  Y  Y1  1  0.456891  0.543011  0.750000  1
  Y  Y2  1  0.456873  0.913869  0.750000  1
  Y  Y3  1  0.085892  0.542945  0.750000  1
  Er  Er4  1  0.542916  0.456570  0.250000  1
  Er  Er5  1  0.542913  0.086339  0.250000  1
  Er  Er6  1  0.211285  0.790001  0.436866  1
  Er  Er7  1  0.211284  0.421286  0.436867  1
  Er  Er8  1  0.578917  0.789457  0.436636  1
  Er  Er9  1  0.788802  0.210309  0.562267  1
  Er  Er10  1  0.788804  0.578495  0.562268  1
  Er  Er11  1  0.421776  0.210890  0.561818  1
  Er  Er12  1  0.788802  0.210309  0.937733  1
  Er  Er13  1  0.788804  0.578495  0.937732  1
  Er  Er14  1  0.421776  0.210890  0.938182  1
  Er  Er15  1  0.211285  0.790001  0.063134  1
  Er  Er16  1  0.211284  0.421286  0.063133  1
  Er  Er17  1  0.578917  0.789457  0.063364  1
  Tm  Tm18  1  0.000106  0.000053  0.499991  1
  Tm  Tm19  1  0.000106  0.000053  0.000009  1
  Cd  Cd20  1  0.884203  0.114337  0.250000  1
  Cd  Cd21  1  0.884205  0.769869  0.250000  1
  Cd  Cd22  1  0.230929  0.115462  0.250000  1
  Cd  Cd23  1  0.114690  0.885606  0.750000  1
  Cd  Cd24  1  0.114678  0.229081  0.750000  1
  Cd  Cd25  1  0.770722  0.885362  0.750000  1
  Ni  Ni26  1  0.333732  0.666867  0.250000  1
  Ni  Ni27  1  0.666786  0.333390  0.750000  1
