# generated using pymatgen
data_Mg2In5Sn7Ir6
_symmetry_space_group_name_H-M   'P 1'
_cell_length_a   8.19227288
_cell_length_b   8.20921673
_cell_length_c   8.20082122
_cell_angle_alpha   109.24629963
_cell_angle_beta   109.16216598
_cell_angle_gamma   110.00615409
_symmetry_Int_Tables_number   1
_chemical_formula_structural   Mg2In5Sn7Ir6
_chemical_formula_sum   'Mg2 In5 Sn7 Ir6'
_cell_volume   424.53642692
_cell_formula_units_Z   1
loop_
 _symmetry_equiv_pos_site_id
 _symmetry_equiv_pos_as_xyz
  1  'x, y, z'
loop_
 _atom_site_type_symbol
 _atom_site_label
 _atom_site_symmetry_multiplicity
 _atom_site_fract_x
 _atom_site_fract_y
 _atom_site_fract_z
 _atom_site_occupancy
  Mg  Mg0  1  0.689171  0.999567  0.000622  1
  Mg  Mg1  1  0.311451  0.001055  0.000622  1
  In  In2  1  0.500743  0.757123  0.243444  1
  In  In3  1  0.500829  0.245099  0.756166  1
  In  In4  1  0.255337  0.511068  0.756166  1
  In  In5  1  0.742701  0.486320  0.243444  1
  In  In6  1  0.743803  0.243803  0.487606  1
  Sn  Sn7  1  0.256122  0.756122  0.512244  1
  Sn  Sn8  1  0.327227  0.320061  0.320133  1
  Sn  Sn9  1  0.674124  0.678557  0.679883  1
  Sn  Sn10  1  0.005759  0.001326  0.679883  1
  Sn  Sn11  1  0.004808  0.679288  0.999015  1
  Sn  Sn12  1  0.992906  0.000072  0.320133  1
  Sn  Sn13  1  0.994207  0.319727  0.999015  1
  Ir  Ir14  1  0.010509  0.348533  0.345713  1
  Ir  Ir15  1  0.996101  0.658033  0.655012  1
  Ir  Ir16  1  0.335205  0.997180  0.345713  1
  Ir  Ir17  1  0.658911  0.996979  0.655012  1
  Ir  Ir18  1  0.338406  0.345576  0.000086  1
  Ir  Ir19  1  0.661679  0.654510  0.000086  1
