# generated using pymatgen
data_Dy4Y3Ho5Co5Bi
_symmetry_space_group_name_H-M   'P 1'
_cell_length_a   8.31991343
_cell_length_b   8.31991321
_cell_length_c   8.30595022
_cell_angle_alpha   110.75395720
_cell_angle_beta   110.72196653
_cell_angle_gamma   107.03761272
_symmetry_Int_Tables_number   1
_chemical_formula_structural   Dy4Y3Ho5Co5Bi
_chemical_formula_sum   'Dy4 Y3 Ho5 Co5 Bi1'
_cell_volume   441.59099655
_cell_formula_units_Z   1
loop_
 _symmetry_equiv_pos_site_id
 _symmetry_equiv_pos_as_xyz
  1  'x, y, z'
loop_
 _atom_site_type_symbol
 _atom_site_label
 _atom_site_symmetry_multiplicity
 _atom_site_fract_x
 _atom_site_fract_y
 _atom_site_fract_z
 _atom_site_occupancy
  Dy  Dy0  1  0.600667  0.795052  0.806767  1
  Dy  Dy1  1  0.401441  0.206231  0.194433  1
  Dy  Dy2  1  0.988202  0.792991  0.194433  1
  Dy  Dy3  1  0.011715  0.206100  0.806767  1
  Y  Y4  1  0.814778  0.710094  0.524874  1
  Y  Y5  1  0.184696  0.289388  0.474083  1
  Y  Y6  1  0.184781  0.709613  0.894393  1
  Ho  Ho7  1  0.816285  0.290422  0.106708  1
  Ho  Ho8  1  0.688393  0.378059  0.690736  1
  Ho  Ho9  1  0.311608  0.621455  0.309874  1
  Ho  Ho10  1  0.688420  0.998267  0.309874  1
  Ho  Ho11  1  0.312678  0.002343  0.690736  1
  Co  Co12  1  0.623680  0.999932  0.623614  1
  Co  Co13  1  0.376188  0.000248  0.376437  1
  Co  Co14  1  0.109873  0.610941  0.497394  1
  Co  Co15  1  0.886454  0.387521  0.497394  1
  Co  Co16  1  0.000550  0.001172  0.001721  1
  Bi  Bi17  1  0.499590  0.500172  0.999763  1
