# generated using pymatgen
data_Er2U(SnIr)3
_symmetry_space_group_name_H-M   'P 1'
_cell_length_a   7.41587619
_cell_length_b   7.54957734
_cell_length_c   3.94118600
_cell_angle_alpha   90.00000000
_cell_angle_beta   90.00000000
_cell_angle_gamma   120.59821558
_symmetry_Int_Tables_number   1
_chemical_formula_structural   Er2U(SnIr)3
_chemical_formula_sum   'Er2 U1 Sn3 Ir3'
_cell_volume   189.92977238
_cell_formula_units_Z   1
loop_
 _symmetry_equiv_pos_site_id
 _symmetry_equiv_pos_as_xyz
  1  'x, y, z'
loop_
 _atom_site_type_symbol
 _atom_site_label
 _atom_site_symmetry_multiplicity
 _atom_site_fract_x
 _atom_site_fract_y
 _atom_site_fract_z
 _atom_site_occupancy
  Er  Er0  1  0.406168  0.404422  0.500000  1
  Er  Er1  1  0.593832  0.998254  0.500000  1
  U  U2  1  0.000000  0.585107  0.500000  1
  Sn  Sn3  1  0.728943  0.742581  0.000000  1
  Sn  Sn4  1  0.271057  0.013638  0.000000  1
  Sn  Sn5  1  0.000000  0.244964  0.000000  1
  Ir  Ir6  1  0.697822  0.361779  0.000000  1
  Ir  Ir7  1  0.302178  0.663957  0.000000  1
  Ir  Ir8  1  0.000000  0.985298  0.500000  1
