# generated using pymatgen
data_TmPa7H24
_symmetry_space_group_name_H-M   'P 1'
_cell_length_a   6.59473000
_cell_length_b   6.59473000
_cell_length_c   6.59473000
_cell_angle_alpha   90.00000000
_cell_angle_beta   90.00000000
_cell_angle_gamma   90.00000000
_symmetry_Int_Tables_number   1
_chemical_formula_structural   TmPa7H24
_chemical_formula_sum   'Tm1 Pa7 H24'
_cell_volume   286.80786616
_cell_formula_units_Z   1
loop_
 _symmetry_equiv_pos_site_id
 _symmetry_equiv_pos_as_xyz
  1  'x, y, z'
loop_
 _atom_site_type_symbol
 _atom_site_label
 _atom_site_symmetry_multiplicity
 _atom_site_fract_x
 _atom_site_fract_y
 _atom_site_fract_z
 _atom_site_occupancy
  Tm  Tm0  1  0.000000  0.000000  0.000000  1
  Pa  Pa1  1  0.500000  0.500000  0.500000  1
  Pa  Pa2  1  0.246437  0.000000  0.500000  1
  Pa  Pa3  1  0.753563  0.000000  0.500000  1
  Pa  Pa4  1  0.000000  0.500000  0.246437  1
  Pa  Pa5  1  0.000000  0.500000  0.753563  1
  Pa  Pa6  1  0.500000  0.753563  0.000000  1
  Pa  Pa7  1  0.500000  0.246437  0.000000  1
  H  H8  1  0.000000  0.154307  0.304365  1
  H  H9  1  0.500000  0.194349  0.655034  1
  H  H10  1  0.500000  0.805651  0.344966  1
  H  H11  1  0.805651  0.655034  0.500000  1
  H  H12  1  0.194349  0.655034  0.500000  1
  H  H13  1  0.344966  0.500000  0.805651  1
  H  H14  1  0.655034  0.500000  0.805651  1
  H  H15  1  0.304365  0.000000  0.154307  1
  H  H16  1  0.154307  0.304365  0.000000  1
  H  H17  1  0.845693  0.695635  0.000000  1
  H  H18  1  0.304365  0.000000  0.845693  1
  H  H19  1  0.845693  0.304365  0.000000  1
  H  H20  1  0.695635  0.000000  0.154307  1
  H  H21  1  0.695635  0.000000  0.845693  1
  H  H22  1  0.154307  0.695635  0.000000  1
  H  H23  1  0.000000  0.845693  0.695635  1
  H  H24  1  0.000000  0.154307  0.695635  1
  H  H25  1  0.000000  0.845693  0.304365  1
  H  H26  1  0.655034  0.500000  0.194349  1
  H  H27  1  0.344966  0.500000  0.194349  1
  H  H28  1  0.805651  0.344966  0.500000  1
  H  H29  1  0.194349  0.344966  0.500000  1
  H  H30  1  0.500000  0.805651  0.655034  1
  H  H31  1  0.500000  0.194349  0.344966  1
