# generated using pymatgen
data_Li3Pr5(Cu4P3)4
_symmetry_space_group_name_H-M   'P 1'
_cell_length_a   12.50347700
_cell_length_b   12.50347786
_cell_length_c   3.92874800
_cell_angle_alpha   90.00000000
_cell_angle_beta   90.00000000
_cell_angle_gamma   119.99999508
_symmetry_Int_Tables_number   1
_chemical_formula_structural   Li3Pr5(Cu4P3)4
_chemical_formula_sum   'Li3 Pr5 Cu16 P12'
_cell_volume   531.92016565
_cell_formula_units_Z   1
loop_
 _symmetry_equiv_pos_site_id
 _symmetry_equiv_pos_as_xyz
  1  'x, y, z'
loop_
 _atom_site_type_symbol
 _atom_site_label
 _atom_site_symmetry_multiplicity
 _atom_site_fract_x
 _atom_site_fract_y
 _atom_site_fract_z
 _atom_site_occupancy
  Li  Li0  1  0.000000  0.434738  0.500000  1
  Li  Li1  1  0.565262  0.565262  0.500000  1
  Li  Li2  1  0.434738  0.000000  0.500000  1
  Pr  Pr3  1  0.333333  0.666667  0.500000  1
  Pr  Pr4  1  0.666667  0.333333  0.500000  1
  Pr  Pr5  1  0.000000  0.810266  0.000000  1
  Pr  Pr6  1  0.189734  0.189734  0.000000  1
  Pr  Pr7  1  0.810266  0.000000  0.000000  1
  Cu  Cu8  1  0.519169  0.882116  0.000000  1
  Cu  Cu9  1  0.117884  0.637053  0.000000  1
  Cu  Cu10  1  0.362947  0.480831  0.000000  1
  Cu  Cu11  1  0.480831  0.362947  0.000000  1
  Cu  Cu12  1  0.882116  0.519169  0.000000  1
  Cu  Cu13  1  0.637053  0.117884  0.000000  1
  Cu  Cu14  1  0.000000  0.283492  0.000000  1
  Cu  Cu15  1  0.716508  0.716508  0.000000  1
  Cu  Cu16  1  0.283492  0.000000  0.000000  1
  Cu  Cu17  1  0.619358  0.800721  0.500000  1
  Cu  Cu18  1  0.199279  0.818637  0.500000  1
  Cu  Cu19  1  0.181363  0.380642  0.500000  1
  Cu  Cu20  1  0.380642  0.181363  0.500000  1
  Cu  Cu21  1  0.800721  0.619358  0.500000  1
  Cu  Cu22  1  0.818637  0.199279  0.500000  1
  Cu  Cu23  1  0.000000  0.000000  0.500000  1
  P  P24  1  0.000000  0.631497  0.500000  1
  P  P25  1  0.368503  0.368503  0.500000  1
  P  P26  1  0.631497  0.000000  0.500000  1
  P  P27  1  0.519952  0.689448  0.000000  1
  P  P28  1  0.310552  0.830503  0.000000  1
  P  P29  1  0.169497  0.480048  0.000000  1
  P  P30  1  0.480048  0.169497  0.000000  1
  P  P31  1  0.689448  0.519952  0.000000  1
  P  P32  1  0.830503  0.310552  0.000000  1
  P  P33  1  0.000000  0.178939  0.500000  1
  P  P34  1  0.821061  0.821061  0.500000  1
  P  P35  1  0.178939  0.000000  0.500000  1
