# generated using pymatgen
data_Ho4Ga3Tc5
_symmetry_space_group_name_H-M   'P 1'
_cell_length_a   5.39832433
_cell_length_b   5.39832384
_cell_length_c   8.94813700
_cell_angle_alpha   90.00000000
_cell_angle_beta   90.00000000
_cell_angle_gamma   121.29427164
_symmetry_Int_Tables_number   1
_chemical_formula_structural   Ho4Ga3Tc5
_chemical_formula_sum   'Ho4 Ga3 Tc5'
_cell_volume   222.82713215
_cell_formula_units_Z   1
loop_
 _symmetry_equiv_pos_site_id
 _symmetry_equiv_pos_as_xyz
  1  'x, y, z'
loop_
 _atom_site_type_symbol
 _atom_site_label
 _atom_site_symmetry_multiplicity
 _atom_site_fract_x
 _atom_site_fract_y
 _atom_site_fract_z
 _atom_site_occupancy
  Ho  Ho0  1  0.333533  0.666467  0.432352  1
  Ho  Ho1  1  0.664160  0.335840  0.569356  1
  Ho  Ho2  1  0.664160  0.335840  0.930644  1
  Ho  Ho3  1  0.333533  0.666467  0.067648  1
  Ga  Ga4  1  0.006023  0.993977  0.503465  1
  Ga  Ga5  1  0.006023  0.993977  0.996535  1
  Ga  Ga6  1  0.829630  0.170370  0.250000  1
  Tc  Tc7  1  0.810015  0.654667  0.250000  1
  Tc  Tc8  1  0.345333  0.189985  0.250000  1
  Tc  Tc9  1  0.176104  0.823896  0.750000  1
  Tc  Tc10  1  0.176483  0.344997  0.750000  1
  Tc  Tc11  1  0.655003  0.823517  0.750000  1
