# generated using pymatgen
data_Li27Al3(Si3Ge)2
_symmetry_space_group_name_H-M   'P 1'
_cell_length_a   9.16524891
_cell_length_b   9.00646073
_cell_length_c   9.08048069
_cell_angle_alpha   109.20569857
_cell_angle_beta   109.31033693
_cell_angle_gamma   109.40994658
_symmetry_Int_Tables_number   1
_chemical_formula_structural   Li27Al3(Si3Ge)2
_chemical_formula_sum   'Li27 Al3 Si6 Ge2'
_cell_volume   580.45816167
_cell_formula_units_Z   1
loop_
 _symmetry_equiv_pos_site_id
 _symmetry_equiv_pos_as_xyz
  1  'x, y, z'
loop_
 _atom_site_type_symbol
 _atom_site_label
 _atom_site_symmetry_multiplicity
 _atom_site_fract_x
 _atom_site_fract_y
 _atom_site_fract_z
 _atom_site_occupancy
  Li  Li0  1  0.774519  0.587085  0.616082  1
  Li  Li1  1  0.584364  0.615102  0.774676  1
  Li  Li2  1  0.616153  0.771902  0.578396  1
  Li  Li3  1  0.658887  0.965853  0.384919  1
  Li  Li4  1  0.425184  0.540619  0.199279  1
  Li  Li5  1  0.626481  0.376423  0.258454  1
  Li  Li6  1  0.248991  0.626752  0.373938  1
  Li  Li7  1  0.752678  0.884763  0.126402  1
  Li  Li8  1  0.124597  0.749318  0.869112  1
  Li  Li9  1  0.370722  0.246254  0.615170  1
  Li  Li10  1  0.873742  0.125809  0.750008  1
  Li  Li11  1  0.086918  0.276727  0.120091  1
  Li  Li12  1  0.690392  0.024826  0.913670  1
  Li  Li13  1  0.883470  0.459198  0.158601  1
  Li  Li14  1  0.165204  0.890302  0.473325  1
  Li  Li15  1  0.335761  0.798831  0.718009  1
  Li  Li16  1  0.726237  0.340177  0.807259  1
  Li  Li17  1  0.047864  0.927496  0.704676  1
  Li  Li18  1  0.222210  0.298663  0.834649  1
  Li  Li19  1  0.184484  0.410724  0.521607  1
  Li  Li20  1  0.960664  0.382514  0.655627  1
  Li  Li21  1  0.303155  0.847976  0.224796  1
  Li  Li22  1  0.531864  0.192948  0.416316  1
  Li  Li23  1  0.380833  0.659729  0.966329  1
  Li  Li24  1  0.112393  0.074145  0.273555  1
  Li  Li25  1  0.276484  0.117834  0.081809  1
  Li  Li26  1  0.837046  0.224198  0.307212  1
  Al  Al27  1  0.461360  0.155670  0.885904  1
  Al  Al28  1  0.925707  0.696265  0.040059  1
  Al  Al29  1  0.819109  0.729795  0.346753  1
  Si  Si30  1  0.910415  0.905463  0.915349  1
  Si  Si31  1  0.500231  0.001140  0.082899  1
  Si  Si32  1  0.989438  0.083446  0.495052  1
  Si  Si33  1  0.084662  0.504357  0.999882  1
  Si  Si34  1  0.993416  0.590896  0.495607  1
  Si  Si35  1  0.603500  0.501900  0.005124  1
  Ge  Ge36  1  0.501683  0.004383  0.596775  1
  Ge  Ge37  1  0.409177  0.410512  0.412630  1
