# generated using pymatgen
data_Er5Ga6P6Ir19
_symmetry_space_group_name_H-M   'P 1'
_cell_length_a   12.94931300
_cell_length_b   12.94931273
_cell_length_c   3.97565500
_cell_angle_alpha   90.00000000
_cell_angle_beta   90.00000000
_cell_angle_gamma   120.00000255
_symmetry_Int_Tables_number   1
_chemical_formula_structural   Er5Ga6P6Ir19
_chemical_formula_sum   'Er5 Ga6 P6 Ir19'
_cell_volume   577.34147638
_cell_formula_units_Z   1
loop_
 _symmetry_equiv_pos_site_id
 _symmetry_equiv_pos_as_xyz
  1  'x, y, z'
loop_
 _atom_site_type_symbol
 _atom_site_label
 _atom_site_symmetry_multiplicity
 _atom_site_fract_x
 _atom_site_fract_y
 _atom_site_fract_z
 _atom_site_occupancy
  Er  Er0  1  0.666667  0.333333  0.000000  1
  Er  Er1  1  0.333333  0.666667  0.000000  1
  Er  Er2  1  0.816741  0.812270  0.500000  1
  Er  Er3  1  0.187730  0.004471  0.500000  1
  Er  Er4  1  0.995529  0.183259  0.500000  1
  Ga  Ga5  1  0.677196  0.158684  0.500000  1
  Ga  Ga6  1  0.841316  0.518512  0.500000  1
  Ga  Ga7  1  0.481488  0.322804  0.500000  1
  Ga  Ga8  1  0.635425  0.637070  0.000000  1
  Ga  Ga9  1  0.362930  0.998356  0.000000  1
  Ga  Ga10  1  0.001644  0.364575  0.000000  1
  P  P11  1  0.180224  0.697255  0.500000  1
  P  P12  1  0.517030  0.819776  0.500000  1
  P  P13  1  0.302745  0.482970  0.500000  1
  P  P14  1  0.175436  0.181088  0.000000  1
  P  P15  1  0.818912  0.994347  0.000000  1
  P  P16  1  0.005653  0.824564  0.000000  1
  Ir  Ir17  1  0.809320  0.169282  0.000000  1
  Ir  Ir18  1  0.830718  0.640038  0.000000  1
  Ir  Ir19  1  0.359962  0.190680  0.000000  1
  Ir  Ir20  1  0.182142  0.793804  0.000000  1
  Ir  Ir21  1  0.611662  0.817858  0.000000  1
  Ir  Ir22  1  0.206196  0.388338  0.000000  1
  Ir  Ir23  1  0.446479  0.440540  0.000000  1
  Ir  Ir24  1  0.559460  0.005939  0.000000  1
  Ir  Ir25  1  0.994061  0.553521  0.000000  1
  Ir  Ir26  1  0.267739  0.280538  0.500000  1
  Ir  Ir27  1  0.719462  0.987201  0.500000  1
  Ir  Ir28  1  0.012799  0.732261  0.500000  1
  Ir  Ir29  1  0.872808  0.348584  0.500000  1
  Ir  Ir30  1  0.651416  0.524225  0.500000  1
  Ir  Ir31  1  0.475775  0.127192  0.500000  1
  Ir  Ir32  1  0.371339  0.868635  0.500000  1
  Ir  Ir33  1  0.497298  0.628661  0.500000  1
  Ir  Ir34  1  0.131365  0.502702  0.500000  1
  Ir  Ir35  1  0.000000  0.000000  0.000000  1
