# generated using pymatgen
data_Er(Al3Pd)3
_symmetry_space_group_name_H-M   'P 1'
_cell_length_a   10.42129972
_cell_length_b   10.42129926
_cell_length_c   10.42130100
_cell_angle_alpha   42.21671716
_cell_angle_beta   42.21672235
_cell_angle_gamma   42.21671859
_symmetry_Int_Tables_number   1
_chemical_formula_structural   Er(Al3Pd)3
_chemical_formula_sum   'Er2 Al18 Pd6'
_cell_volume   462.43823095
_cell_formula_units_Z   2
loop_
 _symmetry_equiv_pos_site_id
 _symmetry_equiv_pos_as_xyz
  1  'x, y, z'
loop_
 _atom_site_type_symbol
 _atom_site_label
 _atom_site_symmetry_multiplicity
 _atom_site_fract_x
 _atom_site_fract_y
 _atom_site_fract_z
 _atom_site_occupancy
  Er  Er0  1  0.166848  0.166848  0.166848  1
  Er  Er1  1  0.833152  0.833152  0.833152  1
  Al  Al2  1  0.107247  0.435305  0.763976  1
  Al  Al3  1  0.435305  0.763976  0.107247  1
  Al  Al4  1  0.564695  0.892753  0.236024  1
  Al  Al5  1  0.949968  0.949968  0.949968  1
  Al  Al6  1  0.050032  0.050032  0.050032  1
  Al  Al7  1  0.295149  0.704851  0.500000  1
  Al  Al8  1  0.892753  0.236024  0.564695  1
  Al  Al9  1  0.384750  0.384750  0.384750  1
  Al  Al10  1  0.500000  0.295149  0.704851  1
  Al  Al11  1  0.236024  0.564695  0.892753  1
  Al  Al12  1  0.716285  0.716285  0.716285  1
  Al  Al13  1  0.615250  0.615250  0.615250  1
  Al  Al14  1  0.334428  0.000000  0.665572  1
  Al  Al15  1  0.704851  0.500000  0.295149  1
  Al  Al16  1  0.665572  0.334428  0.000000  1
  Al  Al17  1  0.283715  0.283715  0.283715  1
  Al  Al18  1  0.000000  0.665572  0.334428  1
  Al  Al19  1  0.763976  0.107247  0.435305  1
  Pd  Pd20  1  0.418882  0.077254  0.760258  1
  Pd  Pd21  1  0.581118  0.239742  0.922746  1
  Pd  Pd22  1  0.077254  0.760258  0.418882  1
  Pd  Pd23  1  0.760258  0.418882  0.077254  1
  Pd  Pd24  1  0.922746  0.581118  0.239742  1
  Pd  Pd25  1  0.239742  0.922746  0.581118  1
