# generated using pymatgen
data_Ti8Al14GaOs5Rh2
_symmetry_space_group_name_H-M   'P 1'
_cell_length_a   8.65475432
_cell_length_b   8.65475330
_cell_length_c   8.65475352
_cell_angle_alpha   119.76477991
_cell_angle_beta   119.76947929
_cell_angle_gamma   90.40381832
_symmetry_Int_Tables_number   1
_chemical_formula_structural   Ti8Al14GaOs5Rh2
_chemical_formula_sum   'Ti8 Al14 Ga1 Os5 Rh2'
_cell_volume   460.00592360
_cell_formula_units_Z   1
loop_
 _symmetry_equiv_pos_site_id
 _symmetry_equiv_pos_as_xyz
  1  'x, y, z'
loop_
 _atom_site_type_symbol
 _atom_site_label
 _atom_site_symmetry_multiplicity
 _atom_site_fract_x
 _atom_site_fract_y
 _atom_site_fract_z
 _atom_site_occupancy
  Ti  Ti0  1  0.787626  0.293572  0.070393  1
  Ti  Ti1  1  0.223180  0.293572  0.505946  1
  Ti  Ti2  1  0.210929  0.710929  0.500000  1
  Ti  Ti3  1  0.223180  0.717234  0.929607  1
  Ti  Ti4  1  0.787626  0.717234  0.494054  1
  Ti  Ti5  1  0.779966  0.279966  0.500000  1
  Ti  Ti6  1  0.376679  0.121155  0.744476  1
  Ti  Ti7  1  0.376679  0.632203  0.255524  1
  Al  Al8  1  0.154839  0.340412  0.185571  1
  Al  Al9  1  0.154839  0.969268  0.814429  1
  Al  Al10  1  0.153004  0.343615  0.809390  1
  Al  Al11  1  0.534224  0.343615  0.190610  1
  Al  Al12  1  0.847093  0.655805  0.808713  1
  Al  Al13  1  0.847093  0.038381  0.191287  1
  Al  Al14  1  0.841318  0.658787  0.182530  1
  Al  Al15  1  0.476257  0.658787  0.817470  1
  Al  Al16  1  0.379519  0.120281  0.259239  1
  Al  Al17  1  0.861043  0.120281  0.740761  1
  Al  Al18  1  0.620081  0.876398  0.256318  1
  Al  Al19  1  0.620081  0.363764  0.743682  1
  Al  Al20  1  0.619463  0.878137  0.741326  1
  Al  Al21  1  0.136809  0.878137  0.258674  1
  Ga  Ga22  1  0.996013  0.496013  0.500000  1
  Os  Os23  1  0.999734  0.999059  0.501180  1
  Os  Os24  1  0.497880  0.999059  0.999325  1
  Os  Os25  1  0.497983  0.497983  0.000000  1
  Os  Os26  1  0.497880  0.498554  0.498820  1
  Os  Os27  1  0.999734  0.498554  0.000675  1
  Rh  Rh28  1  0.999960  0.999960  0.000000  1
  Rh  Rh29  1  0.499283  0.999283  0.500000  1
