# generated using pymatgen
data_Tm12Fe2Sn2Os
_symmetry_space_group_name_H-M   'P 1'
_cell_length_a   8.26243429
_cell_length_b   8.26243608
_cell_length_c   8.26243489
_cell_angle_alpha   108.75465711
_cell_angle_beta   108.75465494
_cell_angle_gamma   110.91405628
_symmetry_Int_Tables_number   1
_chemical_formula_structural   Tm12Fe2Sn2Os
_chemical_formula_sum   'Tm12 Fe2 Sn2 Os1'
_cell_volume   434.00536283
_cell_formula_units_Z   1
loop_
 _symmetry_equiv_pos_site_id
 _symmetry_equiv_pos_as_xyz
  1  'x, y, z'
loop_
 _atom_site_type_symbol
 _atom_site_label
 _atom_site_symmetry_multiplicity
 _atom_site_fract_x
 _atom_site_fract_y
 _atom_site_fract_z
 _atom_site_occupancy
  Tm  Tm0  1  0.193106  0.430014  0.236907  1
  Tm  Tm1  1  0.806894  0.569986  0.763093  1
  Tm  Tm2  1  0.193106  0.956200  0.763093  1
  Tm  Tm3  1  0.956200  0.193106  0.763093  1
  Tm  Tm4  1  0.806894  0.043800  0.236907  1
  Tm  Tm5  1  0.043800  0.806894  0.236907  1
  Tm  Tm6  1  0.430014  0.193106  0.236907  1
  Tm  Tm7  1  0.569986  0.806894  0.763093  1
  Tm  Tm8  1  0.308448  0.308448  0.616895  1
  Tm  Tm9  1  0.691552  0.691552  0.383105  1
  Tm  Tm10  1  0.691552  0.308448  0.000000  1
  Tm  Tm11  1  0.308448  0.691552  0.000000  1
  Fe  Fe12  1  0.384940  0.384940  0.000000  1
  Fe  Fe13  1  0.615060  0.615060  0.000000  1
  Sn  Sn14  1  0.000000  0.500000  0.500000  1
  Sn  Sn15  1  0.500000  0.000000  0.500000  1
  Os  Os16  1  0.000000  0.000000  0.000000  1
