# generated using pymatgen
data_EuDy4HfH18
_symmetry_space_group_name_H-M   'P 1'
_cell_length_a   6.28378656
_cell_length_b   6.29347297
_cell_length_c   6.54493430
_cell_angle_alpha   89.77928442
_cell_angle_beta   90.15165441
_cell_angle_gamma   119.93671785
_symmetry_Int_Tables_number   1
_chemical_formula_structural   EuDy4HfH18
_chemical_formula_sum   'Eu1 Dy4 Hf1 H18'
_cell_volume   224.29569084
_cell_formula_units_Z   1
loop_
 _symmetry_equiv_pos_site_id
 _symmetry_equiv_pos_as_xyz
  1  'x, y, z'
loop_
 _atom_site_type_symbol
 _atom_site_label
 _atom_site_symmetry_multiplicity
 _atom_site_fract_x
 _atom_site_fract_y
 _atom_site_fract_z
 _atom_site_occupancy
  Eu  Eu0  1  0.334414  0.335830  0.750133  1
  Dy  Dy1  1  0.997619  0.661705  0.749841  1
  Dy  Dy2  1  0.664084  0.665594  0.252441  1
  Dy  Dy3  1  0.999353  0.333767  0.246711  1
  Dy  Dy4  1  0.337024  0.000923  0.250870  1
  Hf  Hf5  1  0.659395  0.999596  0.750136  1
  H  H6  1  0.345095  0.965829  0.902602  1
  H  H7  1  0.653024  0.707687  0.902465  1
  H  H8  1  0.006963  0.342405  0.907251  1
  H  H9  1  0.319209  0.344773  0.401166  1
  H  H10  1  0.027159  0.676851  0.409226  1
  H  H11  1  0.656637  0.976135  0.423669  1
  H  H12  1  0.678965  0.023927  0.076561  1
  H  H13  1  0.349594  0.323015  0.098991  1
  H  H14  1  0.974495  0.657164  0.090534  1
  H  H15  1  0.684316  0.665871  0.592822  1
  H  H16  1  0.940981  0.299885  0.598448  1
  H  H17  1  0.375716  0.020718  0.596056  1
  H  H18  1  0.971024  0.992298  0.750080  1
  H  H19  1  0.001358  0.999881  0.250154  1
  H  H20  1  0.671551  0.310887  0.810476  1
  H  H21  1  0.667210  0.334687  0.306600  1
  H  H22  1  0.332139  0.665834  0.193197  1
  H  H23  1  0.352673  0.694737  0.689569  1
