# generated using pymatgen
data_BaCu12Rh
_symmetry_space_group_name_H-M   'P 1'
_cell_length_a   8.32612893
_cell_length_b   8.32616230
_cell_length_c   8.32640204
_cell_angle_alpha   59.99650542
_cell_angle_beta   59.99712166
_cell_angle_gamma   59.99987443
_symmetry_Int_Tables_number   1
_chemical_formula_structural   BaCu12Rh
_chemical_formula_sum   'Ba2 Cu24 Rh2'
_cell_volume   408.13989805
_cell_formula_units_Z   2
loop_
 _symmetry_equiv_pos_site_id
 _symmetry_equiv_pos_as_xyz
  1  'x, y, z'
loop_
 _atom_site_type_symbol
 _atom_site_label
 _atom_site_symmetry_multiplicity
 _atom_site_fract_x
 _atom_site_fract_y
 _atom_site_fract_z
 _atom_site_occupancy
  Ba  Ba0  1  0.750002  0.750002  0.749997  1
  Ba  Ba1  1  0.249998  0.249998  0.250003  1
  Cu  Cu2  1  0.701452  0.935134  0.298550  1
  Cu  Cu3  1  0.935130  0.701449  0.064868  1
  Cu  Cu4  1  0.064870  0.298551  0.935132  1
  Cu  Cu5  1  0.798506  0.564846  0.435156  1
  Cu  Cu6  1  0.564843  0.798523  0.201492  1
  Cu  Cu7  1  0.201492  0.564829  0.798519  1
  Cu  Cu8  1  0.798508  0.435171  0.201481  1
  Cu  Cu9  1  0.564856  0.435142  0.798473  1
  Cu  Cu10  1  0.201512  0.798487  0.435148  1
  Cu  Cu11  1  0.935135  0.064867  0.298525  1
  Cu  Cu12  1  0.298541  0.935140  0.064855  1
  Cu  Cu13  1  0.064858  0.701457  0.298541  1
  Cu  Cu14  1  0.064865  0.935133  0.701475  1
  Cu  Cu15  1  0.298531  0.701462  0.935143  1
  Cu  Cu16  1  0.701459  0.064860  0.935145  1
  Cu  Cu17  1  0.701469  0.298538  0.064857  1
  Cu  Cu18  1  0.935142  0.298543  0.701459  1
  Cu  Cu19  1  0.435170  0.798510  0.564834  1
  Cu  Cu20  1  0.435157  0.201477  0.798508  1
  Cu  Cu21  1  0.798488  0.201513  0.564852  1
  Cu  Cu22  1  0.435144  0.564858  0.201527  1
  Cu  Cu23  1  0.201494  0.435154  0.564844  1
  Cu  Cu24  1  0.564830  0.201490  0.435166  1
  Cu  Cu25  1  0.298548  0.064866  0.701450  1
  Rh  Rh26  1  0.000000  0.000000  0.000000  1
  Rh  Rh27  1  0.500000  0.500000  0.500000  1
