# generated using pymatgen
data_Nd2SiOsBr
_symmetry_space_group_name_H-M   'P 1'
_cell_length_a   4.15434600
_cell_length_b   4.15434635
_cell_length_c   17.07789900
_cell_angle_alpha   90.00000000
_cell_angle_beta   90.00000000
_cell_angle_gamma   120.00001313
_symmetry_Int_Tables_number   1
_chemical_formula_structural   Nd2SiOsBr
_chemical_formula_sum   'Nd4 Si2 Os2 Br2'
_cell_volume   255.25272116
_cell_formula_units_Z   2
loop_
 _symmetry_equiv_pos_site_id
 _symmetry_equiv_pos_as_xyz
  1  'x, y, z'
loop_
 _atom_site_type_symbol
 _atom_site_label
 _atom_site_symmetry_multiplicity
 _atom_site_fract_x
 _atom_site_fract_y
 _atom_site_fract_z
 _atom_site_occupancy
  Nd  Nd0  1  0.000000  0.000000  0.112053  1
  Nd  Nd1  1  0.000000  0.000000  0.612053  1
  Nd  Nd2  1  0.000000  0.000000  0.889428  1
  Nd  Nd3  1  0.000000  0.000000  0.389428  1
  Si  Si4  1  0.333333  0.666667  0.000982  1
  Si  Si5  1  0.666667  0.333333  0.500982  1
  Os  Os6  1  0.666667  0.333333  0.998843  1
  Os  Os7  1  0.333333  0.666667  0.498843  1
  Br  Br8  1  0.666667  0.333333  0.248695  1
  Br  Br9  1  0.333333  0.666667  0.748695  1
