# generated using pymatgen
data_Sr6YV(BO3)6
_symmetry_space_group_name_H-M   'P 1'
_cell_length_a   7.78309285
_cell_length_b   7.78309353
_cell_length_c   7.78309411
_cell_angle_alpha   105.25091345
_cell_angle_beta   105.25091061
_cell_angle_gamma   105.25092278
_symmetry_Int_Tables_number   1
_chemical_formula_structural   Sr6YV(BO3)6
_chemical_formula_sum   'Sr6 Y1 V1 B6 O18'
_cell_volume   409.94214466
_cell_formula_units_Z   1
loop_
 _symmetry_equiv_pos_site_id
 _symmetry_equiv_pos_as_xyz
  1  'x, y, z'
loop_
 _atom_site_type_symbol
 _atom_site_label
 _atom_site_symmetry_multiplicity
 _atom_site_fract_x
 _atom_site_fract_y
 _atom_site_fract_z
 _atom_site_occupancy
  Sr  Sr0  1  0.648602  0.265941  0.162493  1
  Sr  Sr1  1  0.162493  0.648602  0.265940  1
  Sr  Sr2  1  0.734059  0.837507  0.351398  1
  Sr  Sr3  1  0.265941  0.162493  0.648602  1
  Sr  Sr4  1  0.837507  0.351398  0.734059  1
  Sr  Sr5  1  0.351398  0.734059  0.837507  1
  Y  Y6  1  0.000000  0.000000  0.000000  1
  V  V7  1  0.500000  0.500000  0.500000  1
  B  B8  1  0.296304  0.378637  0.045895  1
  B  B9  1  0.378637  0.045896  0.296304  1
  B  B10  1  0.045896  0.296304  0.378637  1
  B  B11  1  0.954104  0.703696  0.621363  1
  B  B12  1  0.621363  0.954104  0.703696  1
  B  B13  1  0.703696  0.621363  0.954104  1
  O  O14  1  0.726078  0.814148  0.016004  1
  O  O15  1  0.804265  0.547720  0.069180  1
  O  O16  1  0.983996  0.273922  0.185852  1
  O  O17  1  0.452279  0.930819  0.195735  1
  O  O18  1  0.431127  0.498557  0.226045  1
  O  O19  1  0.185852  0.983996  0.273922  1
  O  O20  1  0.498557  0.226045  0.431126  1
  O  O21  1  0.930819  0.195736  0.452279  1
  O  O22  1  0.226045  0.431127  0.498557  1
  O  O23  1  0.773955  0.568873  0.501443  1
  O  O24  1  0.069181  0.804264  0.547721  1
  O  O25  1  0.501443  0.773955  0.568874  1
  O  O26  1  0.814148  0.016004  0.726078  1
  O  O27  1  0.568873  0.501443  0.773955  1
  O  O28  1  0.547721  0.069181  0.804265  1
  O  O29  1  0.016004  0.726078  0.814148  1
  O  O30  1  0.195735  0.452280  0.930820  1
  O  O31  1  0.273922  0.185852  0.983996  1
