# generated using pymatgen
data_Sm3Th(Ni5Sn)4
_symmetry_space_group_name_H-M   'P 1'
_cell_length_a   4.89803600
_cell_length_b   4.89803498
_cell_length_c   19.74492600
_cell_angle_alpha   90.00000000
_cell_angle_beta   90.00000000
_cell_angle_gamma   119.99999341
_symmetry_Int_Tables_number   1
_chemical_formula_structural   Sm3Th(Ni5Sn)4
_chemical_formula_sum   'Sm3 Th1 Ni20 Sn4'
_cell_volume   410.23246428
_cell_formula_units_Z   1
loop_
 _symmetry_equiv_pos_site_id
 _symmetry_equiv_pos_as_xyz
  1  'x, y, z'
loop_
 _atom_site_type_symbol
 _atom_site_label
 _atom_site_symmetry_multiplicity
 _atom_site_fract_x
 _atom_site_fract_y
 _atom_site_fract_z
 _atom_site_occupancy
  Sm  Sm0  1  0.333333  0.666667  0.250000  1
  Sm  Sm1  1  0.000000  0.000000  0.499475  1
  Sm  Sm2  1  0.000000  0.000000  0.000525  1
  Th  Th3  1  0.666667  0.333333  0.750000  1
  Ni  Ni4  1  0.833993  0.166007  0.353651  1
  Ni  Ni5  1  0.833993  0.667986  0.353651  1
  Ni  Ni6  1  0.332014  0.166007  0.353651  1
  Ni  Ni7  1  0.166110  0.833890  0.645540  1
  Ni  Ni8  1  0.166110  0.332218  0.645540  1
  Ni  Ni9  1  0.667782  0.833890  0.645540  1
  Ni  Ni10  1  0.166110  0.833890  0.854460  1
  Ni  Ni11  1  0.166110  0.332218  0.854460  1
  Ni  Ni12  1  0.667782  0.833890  0.854460  1
  Ni  Ni13  1  0.833993  0.166007  0.146349  1
  Ni  Ni14  1  0.833993  0.667986  0.146349  1
  Ni  Ni15  1  0.332014  0.166007  0.146349  1
  Ni  Ni16  1  0.333333  0.666667  0.957429  1
  Ni  Ni17  1  0.666667  0.333333  0.043587  1
  Ni  Ni18  1  0.666667  0.333333  0.456413  1
  Ni  Ni19  1  0.333333  0.666667  0.542571  1
  Ni  Ni20  1  0.333333  0.666667  0.750000  1
  Ni  Ni21  1  0.666667  0.333333  0.250000  1
  Ni  Ni22  1  0.000000  0.000000  0.250000  1
  Ni  Ni23  1  0.000000  0.000000  0.750000  1
  Sn  Sn24  1  0.333333  0.666667  0.412349  1
  Sn  Sn25  1  0.666667  0.333333  0.585532  1
  Sn  Sn26  1  0.666667  0.333333  0.914468  1
  Sn  Sn27  1  0.333333  0.666667  0.087651  1
