# generated using pymatgen
data_KHfH5
_symmetry_space_group_name_H-M   'P 1'
_cell_length_a   5.55849300
_cell_length_b   5.78700600
_cell_length_c   13.21067600
_cell_angle_alpha   90.00000000
_cell_angle_beta   90.00000000
_cell_angle_gamma   90.00000000
_symmetry_Int_Tables_number   1
_chemical_formula_structural   KHfH5
_chemical_formula_sum   'K4 Hf4 H20'
_cell_volume   424.94824215
_cell_formula_units_Z   4
loop_
 _symmetry_equiv_pos_site_id
 _symmetry_equiv_pos_as_xyz
  1  'x, y, z'
loop_
 _atom_site_type_symbol
 _atom_site_label
 _atom_site_symmetry_multiplicity
 _atom_site_fract_x
 _atom_site_fract_y
 _atom_site_fract_z
 _atom_site_occupancy
  K  K0  1  0.309613  0.250230  0.662540  1
  K  K1  1  0.809613  0.249770  0.337460  1
  K  K2  1  0.190387  0.749770  0.162540  1
  K  K3  1  0.690387  0.750230  0.837460  1
  Hf  Hf4  1  0.243405  0.250020  0.949367  1
  Hf  Hf5  1  0.743405  0.249980  0.050633  1
  Hf  Hf6  1  0.256595  0.749980  0.449367  1
  Hf  Hf7  1  0.756595  0.750020  0.550633  1
  H  H8  1  0.550840  0.552409  0.462552  1
  H  H9  1  0.050840  0.947591  0.537448  1
  H  H10  1  0.949160  0.447591  0.962552  1
  H  H11  1  0.449160  0.052409  0.037448  1
  H  H12  1  0.274687  0.015156  0.848073  1
  H  H13  1  0.774687  0.484844  0.151927  1
  H  H14  1  0.225313  0.984844  0.348073  1
  H  H15  1  0.725313  0.515156  0.651927  1
  H  H16  1  0.274676  0.484918  0.848088  1
  H  H17  1  0.774676  0.015082  0.151912  1
  H  H18  1  0.225324  0.515082  0.348088  1
  H  H19  1  0.725324  0.984918  0.651912  1
  H  H20  1  0.592301  0.250019  0.914263  1
  H  H21  1  0.092301  0.249981  0.085737  1
  H  H22  1  0.907699  0.749981  0.414263  1
  H  H23  1  0.407699  0.750019  0.585737  1
  H  H24  1  0.949189  0.052437  0.962536  1
  H  H25  1  0.449189  0.447563  0.037464  1
  H  H26  1  0.550811  0.947563  0.462536  1
  H  H27  1  0.050811  0.552437  0.537464  1
