# generated using pymatgen
data_Tm3Lu3(Zn3C)2
_symmetry_space_group_name_H-M   'P 1'
_cell_length_a   8.99473078
_cell_length_b   8.99473111
_cell_length_c   8.99473200
_cell_angle_alpha   59.99999672
_cell_angle_beta   59.99999550
_cell_angle_gamma   59.99999822
_symmetry_Int_Tables_number   1
_chemical_formula_structural   Tm3Lu3(Zn3C)2
_chemical_formula_sum   'Tm6 Lu6 Zn12 C4'
_cell_volume   514.57603080
_cell_formula_units_Z   2
loop_
 _symmetry_equiv_pos_site_id
 _symmetry_equiv_pos_as_xyz
  1  'x, y, z'
loop_
 _atom_site_type_symbol
 _atom_site_label
 _atom_site_symmetry_multiplicity
 _atom_site_fract_x
 _atom_site_fract_y
 _atom_site_fract_z
 _atom_site_occupancy
  Tm  Tm0  1  0.446780  0.446780  0.053220  1
  Tm  Tm1  1  0.053220  0.446780  0.053220  1
  Tm  Tm2  1  0.446780  0.053220  0.053220  1
  Tm  Tm3  1  0.053220  0.053220  0.446780  1
  Tm  Tm4  1  0.446780  0.053220  0.446780  1
  Tm  Tm5  1  0.053220  0.446780  0.446780  1
  Lu  Lu6  1  0.804202  0.804202  0.195798  1
  Lu  Lu7  1  0.195798  0.804202  0.195798  1
  Lu  Lu8  1  0.804202  0.195798  0.195798  1
  Lu  Lu9  1  0.195798  0.195798  0.804202  1
  Lu  Lu10  1  0.804202  0.195798  0.804202  1
  Lu  Lu11  1  0.195798  0.804202  0.804202  1
  Zn  Zn12  1  0.827649  0.827649  0.517055  1
  Zn  Zn13  1  0.827649  0.517055  0.827649  1
  Zn  Zn14  1  0.517055  0.827649  0.827649  1
  Zn  Zn15  1  0.827649  0.827649  0.827649  1
  Zn  Zn16  1  0.422631  0.422631  0.732106  1
  Zn  Zn17  1  0.422631  0.732106  0.422631  1
  Zn  Zn18  1  0.732106  0.422631  0.422631  1
  Zn  Zn19  1  0.422631  0.422631  0.422631  1
  Zn  Zn20  1  0.625033  0.625033  0.124902  1
  Zn  Zn21  1  0.625033  0.124902  0.625033  1
  Zn  Zn22  1  0.124902  0.625033  0.625033  1
  Zn  Zn23  1  0.625033  0.625033  0.625033  1
  C  C24  1  0.123989  0.123989  0.628034  1
  C  C25  1  0.123989  0.628034  0.123989  1
  C  C26  1  0.628034  0.123989  0.123989  1
  C  C27  1  0.123989  0.123989  0.123989  1
