# generated using pymatgen
data_Tb9HoIr5Pt
_symmetry_space_group_name_H-M   'P 1'
_cell_length_a   10.99003978
_cell_length_b   10.99323900
_cell_length_c   6.36583802
_cell_angle_alpha   90.00000000
_cell_angle_beta   89.96376867
_cell_angle_gamma   90.00000000
_symmetry_Int_Tables_number   1
_chemical_formula_structural   Tb9HoIr5Pt
_chemical_formula_sum   'Tb18 Ho2 Ir10 Pt2'
_cell_volume   769.09578501
_cell_formula_units_Z   2
loop_
 _symmetry_equiv_pos_site_id
 _symmetry_equiv_pos_as_xyz
  1  'x, y, z'
loop_
 _atom_site_type_symbol
 _atom_site_label
 _atom_site_symmetry_multiplicity
 _atom_site_fract_x
 _atom_site_fract_y
 _atom_site_fract_z
 _atom_site_occupancy
  Tb  Tb0  1  0.291371  0.088467  0.376270  1
  Tb  Tb1  1  0.291371  0.911533  0.876270  1
  Tb  Tb2  1  0.705203  0.090255  0.874179  1
  Tb  Tb3  1  0.705203  0.909745  0.374179  1
  Tb  Tb4  1  0.584586  0.790660  0.878622  1
  Tb  Tb5  1  0.584586  0.209340  0.378622  1
  Tb  Tb6  1  0.410702  0.791107  0.377754  1
  Tb  Tb7  1  0.410702  0.208893  0.877754  1
  Tb  Tb8  1  0.209134  0.411379  0.622085  1
  Tb  Tb9  1  0.209134  0.588621  0.122085  1
  Tb  Tb10  1  0.790633  0.414514  0.122405  1
  Tb  Tb11  1  0.790633  0.585486  0.622405  1
  Tb  Tb12  1  0.913367  0.707089  0.126591  1
  Tb  Tb13  1  0.913367  0.292911  0.626591  1
  Tb  Tb14  1  0.091699  0.706748  0.622284  1
  Tb  Tb15  1  0.091699  0.293252  0.122284  1
  Tb  Tb16  1  0.003020  0.999525  0.499953  1
  Tb  Tb17  1  0.003020  0.000475  0.999953  1
  Ho  Ho18  1  0.499796  0.499515  0.999950  1
  Ho  Ho19  1  0.499796  0.500485  0.499950  1
  Ir  Ir20  1  0.153105  0.153944  0.750024  1
  Ir  Ir21  1  0.153105  0.846056  0.250024  1
  Ir  Ir22  1  0.654397  0.346430  0.749467  1
  Ir  Ir23  1  0.654397  0.653570  0.249467  1
  Ir  Ir24  1  0.347186  0.346744  0.250385  1
  Ir  Ir25  1  0.347186  0.653256  0.750385  1
  Ir  Ir26  1  0.500691  0.999802  0.123329  1
  Ir  Ir27  1  0.500691  0.000198  0.623329  1
  Ir  Ir28  1  0.999588  0.500242  0.876863  1
  Ir  Ir29  1  0.999588  0.499758  0.376863  1
  Pt  Pt30  1  0.845524  0.153552  0.249839  1
  Pt  Pt31  1  0.845524  0.846448  0.749839  1
