# generated using pymatgen
data_Nb2CdFe2(PO4)6
_symmetry_space_group_name_H-M   'P 1'
_cell_length_a   8.74564635
_cell_length_b   8.74564684
_cell_length_c   8.90790691
_cell_angle_alpha   119.39924996
_cell_angle_beta   60.60074894
_cell_angle_gamma   120.00000443
_symmetry_Int_Tables_number   1
_chemical_formula_structural   Nb2CdFe2(PO4)6
_chemical_formula_sum   'Nb2 Cd1 Fe2 P6 O24'
_cell_volume   486.10370149
_cell_formula_units_Z   1
loop_
 _symmetry_equiv_pos_site_id
 _symmetry_equiv_pos_as_xyz
  1  'x, y, z'
loop_
 _atom_site_type_symbol
 _atom_site_label
 _atom_site_symmetry_multiplicity
 _atom_site_fract_x
 _atom_site_fract_y
 _atom_site_fract_z
 _atom_site_occupancy
  Nb  Nb0  1  0.639111  0.360888  0.082664  1
  Nb  Nb1  1  0.360888  0.639111  0.917336  1
  Cd  Cd2  1  0.000000  0.000000  0.000000  1
  Fe  Fe3  1  0.852972  0.147028  0.441083  1
  Fe  Fe4  1  0.147028  0.852972  0.558917  1
  P  P5  1  0.238922  0.030740  0.250628  1
  P  P6  1  0.969260  0.458811  0.250628  1
  P  P7  1  0.541189  0.761077  0.250628  1
  P  P8  1  0.458811  0.238923  0.749371  1
  P  P9  1  0.030740  0.541189  0.749371  1
  P  P10  1  0.761077  0.969260  0.749371  1
  O  O11  1  0.141948  0.494055  0.080978  1
  O  O12  1  0.505945  0.728870  0.080978  1
  O  O13  1  0.271130  0.858052  0.080978  1
  O  O14  1  0.424148  0.201873  0.225309  1
  O  O15  1  0.798128  0.447586  0.225309  1
  O  O16  1  0.552415  0.575852  0.225309  1
  O  O17  1  0.086367  0.068834  0.247565  1
  O  O18  1  0.931167  0.265099  0.247565  1
  O  O19  1  0.734901  0.913633  0.247565  1
  O  O20  1  0.195779  0.004448  0.424933  1
  O  O21  1  0.995551  0.616263  0.424933  1
  O  O22  1  0.383736  0.804221  0.424933  1
  O  O23  1  0.616263  0.195779  0.575068  1
  O  O24  1  0.004448  0.383737  0.575068  1
  O  O25  1  0.804220  0.995551  0.575068  1
  O  O26  1  0.265098  0.086367  0.752435  1
  O  O27  1  0.068834  0.734902  0.752435  1
  O  O28  1  0.913633  0.931167  0.752435  1
  O  O29  1  0.447586  0.424149  0.774691  1
  O  O30  1  0.201874  0.552415  0.774691  1
  O  O31  1  0.575851  0.798127  0.774691  1
  O  O32  1  0.728870  0.141948  0.919023  1
  O  O33  1  0.494054  0.271130  0.919023  1
  O  O34  1  0.858052  0.505946  0.919023  1
