# generated using pymatgen
data_Tm12Fe2Hg2Ru
_symmetry_space_group_name_H-M   'P 1'
_cell_length_a   8.17464129
_cell_length_b   8.17464142
_cell_length_c   8.17464250
_cell_angle_alpha   108.66607456
_cell_angle_beta   108.66607259
_cell_angle_gamma   111.09380066
_symmetry_Int_Tables_number   1
_chemical_formula_structural   Tm12Fe2Hg2Ru
_chemical_formula_sum   'Tm12 Fe2 Hg2 Ru1'
_cell_volume   420.26397063
_cell_formula_units_Z   1
loop_
 _symmetry_equiv_pos_site_id
 _symmetry_equiv_pos_as_xyz
  1  'x, y, z'
loop_
 _atom_site_type_symbol
 _atom_site_label
 _atom_site_symmetry_multiplicity
 _atom_site_fract_x
 _atom_site_fract_y
 _atom_site_fract_z
 _atom_site_occupancy
  Tm  Tm0  1  0.190816  0.431828  0.241010  1
  Tm  Tm1  1  0.809184  0.568172  0.758990  1
  Tm  Tm2  1  0.190816  0.949807  0.758990  1
  Tm  Tm3  1  0.949807  0.190816  0.758990  1
  Tm  Tm4  1  0.809184  0.050193  0.241010  1
  Tm  Tm5  1  0.050193  0.809184  0.241010  1
  Tm  Tm6  1  0.431828  0.190816  0.241010  1
  Tm  Tm7  1  0.568172  0.809184  0.758990  1
  Tm  Tm8  1  0.308803  0.308803  0.617607  1
  Tm  Tm9  1  0.691197  0.691197  0.382393  1
  Tm  Tm10  1  0.691197  0.308803  0.000000  1
  Tm  Tm11  1  0.308803  0.691197  0.000000  1
  Fe  Fe12  1  0.382026  0.382026  0.000000  1
  Fe  Fe13  1  0.617974  0.617974  0.000000  1
  Hg  Hg14  1  0.000000  0.500000  0.500000  1
  Hg  Hg15  1  0.500000  0.000000  0.500000  1
  Ru  Ru16  1  0.000000  0.000000  0.000000  1
