# generated using pymatgen
data_Ti2Re3Si3Mo
_symmetry_space_group_name_H-M   'P 1'
_cell_length_a   6.91818100
_cell_length_b   6.78745197
_cell_length_c   3.22731400
_cell_angle_alpha   90.00000000
_cell_angle_beta   90.00000000
_cell_angle_gamma   120.63921538
_symmetry_Int_Tables_number   1
_chemical_formula_structural   Ti2Re3Si3Mo
_chemical_formula_sum   'Ti2 Re3 Si3 Mo1'
_cell_volume   130.38781001
_cell_formula_units_Z   1
loop_
 _symmetry_equiv_pos_site_id
 _symmetry_equiv_pos_as_xyz
  1  'x, y, z'
loop_
 _atom_site_type_symbol
 _atom_site_label
 _atom_site_symmetry_multiplicity
 _atom_site_fract_x
 _atom_site_fract_y
 _atom_site_fract_z
 _atom_site_occupancy
  Ti  Ti0  1  0.008676  0.606310  0.500000  1
  Ti  Ti1  1  0.402366  0.393690  0.500000  1
  Re  Re2  1  0.255423  0.000000  0.000000  1
  Re  Re3  1  0.002719  0.265970  0.000000  1
  Re  Re4  1  0.736749  0.734031  0.000000  1
  Si  Si5  1  0.992484  0.000000  0.500000  1
  Si  Si6  1  0.339037  0.668046  0.000000  1
  Si  Si7  1  0.670991  0.331953  0.000000  1
  Mo  Mo8  1  0.591454  0.000000  0.500000  1
