# generated using pymatgen
data_Sr4Cr(TcO4)3
_symmetry_space_group_name_H-M   'P 1'
_cell_length_a   5.61792849
_cell_length_b   5.65340912
_cell_length_c   7.93269403
_cell_angle_alpha   90.00654211
_cell_angle_beta   90.08054119
_cell_angle_gamma   89.97644394
_symmetry_Int_Tables_number   1
_chemical_formula_structural   Sr4Cr(TcO4)3
_chemical_formula_sum   'Sr4 Cr1 Tc3 O12'
_cell_volume   251.94564575
_cell_formula_units_Z   1
loop_
 _symmetry_equiv_pos_site_id
 _symmetry_equiv_pos_as_xyz
  1  'x, y, z'
loop_
 _atom_site_type_symbol
 _atom_site_label
 _atom_site_symmetry_multiplicity
 _atom_site_fract_x
 _atom_site_fract_y
 _atom_site_fract_z
 _atom_site_occupancy
  Sr  Sr0  1  0.493209  0.002382  0.743476  1
  Sr  Sr1  1  0.992206  0.497764  0.743222  1
  Sr  Sr2  1  0.506791  0.997618  0.256524  1
  Sr  Sr3  1  0.007794  0.502236  0.256778  1
  Cr  Cr4  1  0.500000  0.500000  0.500000  1
  Tc  Tc5  1  0.000000  0.000000  0.000000  1
  Tc  Tc6  1  0.500000  0.500000  0.000000  1
  Tc  Tc7  1  0.000000  0.000000  0.500000  1
  O  O8  1  0.001953  0.954362  0.748887  1
  O  O9  1  0.502893  0.553443  0.750598  1
  O  O10  1  0.998047  0.045638  0.251113  1
  O  O11  1  0.497107  0.446557  0.249402  1
  O  O12  1  0.739180  0.236797  0.527068  1
  O  O13  1  0.240180  0.260980  0.975465  1
  O  O14  1  0.260419  0.759052  0.024480  1
  O  O15  1  0.762976  0.739655  0.472619  1
  O  O16  1  0.260820  0.763203  0.472932  1
  O  O17  1  0.759820  0.739020  0.024535  1
  O  O18  1  0.739581  0.240948  0.975520  1
  O  O19  1  0.237024  0.260345  0.527381  1
