# generated using pymatgen
data_Pr4SiNi13
_symmetry_space_group_name_H-M   'P 1'
_cell_length_a   4.97368417
_cell_length_b   4.97368394
_cell_length_c   12.59994892
_cell_angle_alpha   78.67295197
_cell_angle_beta   78.67293962
_cell_angle_gamma   62.10230803
_symmetry_Int_Tables_number   1
_chemical_formula_structural   Pr4SiNi13
_chemical_formula_sum   'Pr4 Si1 Ni13'
_cell_volume   268.13117303
_cell_formula_units_Z   1
loop_
 _symmetry_equiv_pos_site_id
 _symmetry_equiv_pos_as_xyz
  1  'x, y, z'
loop_
 _atom_site_type_symbol
 _atom_site_label
 _atom_site_symmetry_multiplicity
 _atom_site_fract_x
 _atom_site_fract_y
 _atom_site_fract_z
 _atom_site_occupancy
  Pr  Pr0  1  0.947908  0.947908  0.155808  1
  Pr  Pr1  1  0.052092  0.052092  0.844192  1
  Pr  Pr2  1  0.852422  0.852422  0.440869  1
  Pr  Pr3  1  0.147578  0.147578  0.559131  1
  Si  Si4  1  0.500000  0.500000  0.000000  1
  Ni  Ni5  1  0.500000  0.500000  0.500000  1
  Ni  Ni6  1  0.713547  0.713547  0.837252  1
  Ni  Ni7  1  0.286453  0.286453  0.162748  1
  Ni  Ni8  1  0.604989  0.604989  0.161636  1
  Ni  Ni9  1  0.395011  0.395011  0.838364  1
  Ni  Ni10  1  0.000000  0.500000  0.000000  1
  Ni  Ni11  1  0.500000  0.000000  0.000000  1
  Ni  Ni12  1  0.389918  0.389918  0.327878  1
  Ni  Ni13  1  0.889809  0.392935  0.323058  1
  Ni  Ni14  1  0.392935  0.889809  0.323058  1
  Ni  Ni15  1  0.610082  0.610082  0.672122  1
  Ni  Ni16  1  0.110191  0.607065  0.676942  1
  Ni  Ni17  1  0.607065  0.110191  0.676942  1
