# generated using pymatgen
data_TbDy3(B4Mo)4
_symmetry_space_group_name_H-M   'P 1'
_cell_length_a   3.62711800
_cell_length_b   6.03538404
_cell_length_c   11.65983508
_cell_angle_alpha   90.01350150
_cell_angle_beta   90.00000000
_cell_angle_gamma   90.00000000
_symmetry_Int_Tables_number   1
_chemical_formula_structural   TbDy3(B4Mo)4
_chemical_formula_sum   'Tb1 Dy3 B16 Mo4'
_cell_volume   255.24602677
_cell_formula_units_Z   1
loop_
 _symmetry_equiv_pos_site_id
 _symmetry_equiv_pos_as_xyz
  1  'x, y, z'
loop_
 _atom_site_type_symbol
 _atom_site_label
 _atom_site_symmetry_multiplicity
 _atom_site_fract_x
 _atom_site_fract_y
 _atom_site_fract_z
 _atom_site_occupancy
  Tb  Tb0  1  0.000000  0.127009  0.149913  1
  Dy  Dy1  1  0.000000  0.872940  0.850167  1
  Dy  Dy2  1  0.000000  0.627100  0.350253  1
  Dy  Dy3  1  0.000000  0.372871  0.649807  1
  B  B4  1  0.500000  0.476775  0.193504  1
  B  B5  1  0.500000  0.523434  0.806502  1
  B  B6  1  0.500000  0.976371  0.306781  1
  B  B7  1  0.500000  0.023489  0.693512  1
  B  B8  1  0.500000  0.287088  0.314062  1
  B  B9  1  0.500000  0.712941  0.686171  1
  B  B10  1  0.500000  0.786683  0.186212  1
  B  B11  1  0.500000  0.212982  0.813834  1
  B  B12  1  0.500000  0.366631  0.468105  1
  B  B13  1  0.500000  0.633353  0.531918  1
  B  B14  1  0.500000  0.866427  0.031765  1
  B  B15  1  0.500000  0.133455  0.967884  1
  B  B16  1  0.500000  0.386411  0.047275  1
  B  B17  1  0.500000  0.613932  0.952404  1
  B  B18  1  0.500000  0.886080  0.452517  1
  B  B19  1  0.500000  0.113958  0.547491  1
  Mo  Mo20  1  0.000000  0.129836  0.416575  1
  Mo  Mo21  1  0.000000  0.870179  0.583599  1
  Mo  Mo22  1  0.000000  0.629791  0.083504  1
  Mo  Mo23  1  0.000000  0.370264  0.916246  1
