# generated using pymatgen
data_Nd3Sm3Co16(TcP6)2
_symmetry_space_group_name_H-M   'P 1'
_cell_length_a   3.75209300
_cell_length_b   10.64811160
_cell_length_c   12.37186672
_cell_angle_alpha   89.96127943
_cell_angle_beta   90.00000000
_cell_angle_gamma   90.00000000
_symmetry_Int_Tables_number   1
_chemical_formula_structural   Nd3Sm3Co16(TcP6)2
_chemical_formula_sum   'Nd3 Sm3 Co16 Tc2 P12'
_cell_volume   494.28942828
_cell_formula_units_Z   1
loop_
 _symmetry_equiv_pos_site_id
 _symmetry_equiv_pos_as_xyz
  1  'x, y, z'
loop_
 _atom_site_type_symbol
 _atom_site_label
 _atom_site_symmetry_multiplicity
 _atom_site_fract_x
 _atom_site_fract_y
 _atom_site_fract_z
 _atom_site_occupancy
  Nd  Nd0  1  0.000000  0.500170  0.523007  1
  Nd  Nd1  1  0.500000  0.999876  0.476557  1
  Nd  Nd2  1  0.000000  0.317965  0.794040  1
  Sm  Sm3  1  0.500000  0.817085  0.205602  1
  Sm  Sm4  1  0.500000  0.182389  0.205388  1
  Sm  Sm5  1  0.000000  0.683107  0.794821  1
  Co  Co6  1  0.500000  0.501286  0.704808  1
  Co  Co7  1  0.000000  0.999762  0.294977  1
  Co  Co8  1  0.000000  0.500741  0.988111  1
  Co  Co9  1  0.500000  0.999369  0.013069  1
  Co  Co10  1  0.500000  0.332366  0.992248  1
  Co  Co11  1  0.500000  0.668504  0.991689  1
  Co  Co12  1  0.000000  0.167298  0.009132  1
  Co  Co13  1  0.000000  0.831990  0.009128  1
  Co  Co14  1  0.500000  0.296592  0.429263  1
  Co  Co15  1  0.500000  0.703541  0.430094  1
  Co  Co16  1  0.000000  0.203190  0.568691  1
  Co  Co17  1  0.000000  0.796527  0.569793  1
  Co  Co18  1  0.500000  0.880472  0.710038  1
  Co  Co19  1  0.500000  0.118516  0.709379  1
  Co  Co20  1  0.000000  0.619183  0.290176  1
  Co  Co21  1  0.000000  0.380611  0.289598  1
  Tc  Tc22  1  0.500000  0.500370  0.154558  1
  Tc  Tc23  1  0.000000  0.999476  0.845681  1
  P  P24  1  0.500000  0.501212  0.885176  1
  P  P25  1  0.000000  0.999600  0.116058  1
  P  P26  1  0.500000  0.499847  0.343841  1
  P  P27  1  0.000000  0.000005  0.656016  1
  P  P28  1  0.500000  0.307138  0.613654  1
  P  P29  1  0.500000  0.692730  0.615440  1
  P  P30  1  0.000000  0.192284  0.383951  1
  P  P31  1  0.000000  0.807392  0.384555  1
  P  P32  1  0.500000  0.847353  0.894890  1
  P  P33  1  0.500000  0.151989  0.895629  1
  P  P34  1  0.000000  0.652984  0.105735  1
  P  P35  1  0.000000  0.347081  0.105206  1
