# generated using pymatgen
data_Ho8Lu8In5GaCo2
_symmetry_space_group_name_H-M   'P 1'
_cell_length_a   10.12220200
_cell_length_b   10.12277030
_cell_length_c   7.00443569
_cell_angle_alpha   89.95604817
_cell_angle_beta   90.00000000
_cell_angle_gamma   119.99813638
_symmetry_Int_Tables_number   1
_chemical_formula_structural   Ho8Lu8In5GaCo2
_chemical_formula_sum   'Ho8 Lu8 In5 Ga1 Co2'
_cell_volume   621.56442641
_cell_formula_units_Z   1
loop_
 _symmetry_equiv_pos_site_id
 _symmetry_equiv_pos_as_xyz
  1  'x, y, z'
loop_
 _atom_site_type_symbol
 _atom_site_label
 _atom_site_symmetry_multiplicity
 _atom_site_fract_x
 _atom_site_fract_y
 _atom_site_fract_z
 _atom_site_occupancy
  Ho  Ho0  1  0.462665  0.532887  0.212399  1
  Ho  Ho1  1  0.070222  0.532887  0.212399  1
  Ho  Ho2  1  0.465296  0.930592  0.215891  1
  Ho  Ho3  1  0.543696  0.470864  0.712346  1
  Ho  Ho4  1  0.927168  0.470864  0.712346  1
  Ho  Ho5  1  0.533951  0.067903  0.712043  1
  Ho  Ho6  1  0.999518  0.999036  0.227285  1
  Ho  Ho7  1  0.996414  0.992828  0.724258  1
  Lu  Lu8  1  0.170734  0.816966  0.503100  1
  Lu  Lu9  1  0.646231  0.816966  0.503100  1
  Lu  Lu10  1  0.178942  0.357886  0.511743  1
  Lu  Lu11  1  0.819902  0.179895  0.007330  1
  Lu  Lu12  1  0.359994  0.179895  0.007330  1
  Lu  Lu13  1  0.821327  0.642652  0.024551  1
  Lu  Lu14  1  0.333630  0.667261  0.817547  1
  Lu  Lu15  1  0.669611  0.339220  0.324011  1
  In  In16  1  0.163653  0.835850  0.960006  1
  In  In17  1  0.672195  0.835850  0.960006  1
  In  In18  1  0.162299  0.324600  0.959488  1
  In  In19  1  0.835806  0.163126  0.462028  1
  In  In20  1  0.327322  0.163126  0.462028  1
  Ga  Ga21  1  0.837876  0.675751  0.459300  1
  Co  Co22  1  0.333610  0.667220  0.440103  1
  Co  Co23  1  0.667939  0.335876  0.943401  1
