# generated using pymatgen
data_Tb9Tm5(LuBi2)6
_symmetry_space_group_name_H-M   'P 1'
_cell_length_a   8.22187447
_cell_length_b   9.40944681
_cell_length_c   12.03411553
_cell_angle_alpha   90.00247433
_cell_angle_beta   89.91181600
_cell_angle_gamma   90.02433995
_symmetry_Int_Tables_number   1
_chemical_formula_structural   Tb9Tm5(LuBi2)6
_chemical_formula_sum   'Tb9 Tm5 Lu6 Bi12'
_cell_volume   930.99758778
_cell_formula_units_Z   1
loop_
 _symmetry_equiv_pos_site_id
 _symmetry_equiv_pos_as_xyz
  1  'x, y, z'
loop_
 _atom_site_type_symbol
 _atom_site_label
 _atom_site_symmetry_multiplicity
 _atom_site_fract_x
 _atom_site_fract_y
 _atom_site_fract_z
 _atom_site_occupancy
  Tb  Tb0  1  0.525336  0.249932  0.988210  1
  Tb  Tb1  1  0.354360  0.249925  0.283930  1
  Tb  Tb2  1  0.644916  0.750609  0.716651  1
  Tb  Tb3  1  0.145382  0.750416  0.783200  1
  Tb  Tb4  1  0.855583  0.249940  0.216844  1
  Tb  Tb5  1  0.187216  0.249890  0.781205  1
  Tb  Tb6  1  0.813143  0.750212  0.218667  1
  Tb  Tb7  1  0.312916  0.750178  0.281879  1
  Tb  Tb8  1  0.686912  0.249941  0.718333  1
  Tm  Tm9  1  0.807218  0.565793  0.940628  1
  Tm  Tm10  1  0.693842  0.065550  0.440739  1
  Tm  Tm11  1  0.192170  0.434542  0.059356  1
  Tm  Tm12  1  0.693274  0.434234  0.440859  1
  Tm  Tm13  1  0.306793  0.565710  0.559282  1
  Lu  Lu14  1  0.024963  0.250187  0.511108  1
  Lu  Lu15  1  0.975993  0.750001  0.488905  1
  Lu  Lu16  1  0.474959  0.750203  0.010917  1
  Lu  Lu17  1  0.192552  0.066193  0.059452  1
  Lu  Lu18  1  0.806835  0.933435  0.940610  1
  Lu  Lu19  1  0.306626  0.933339  0.559301  1
  Bi  Bi20  1  0.405718  0.248955  0.542683  1
  Bi  Bi21  1  0.593953  0.750145  0.457797  1
  Bi  Bi22  1  0.094474  0.751237  0.042642  1
  Bi  Bi23  1  0.907927  0.248710  0.957338  1
  Bi  Bi24  1  0.065943  0.003904  0.327670  1
  Bi  Bi25  1  0.933607  0.996157  0.672246  1
  Bi  Bi26  1  0.432865  0.994765  0.826622  1
  Bi  Bi27  1  0.933540  0.504083  0.672198  1
  Bi  Bi28  1  0.565916  0.003025  0.173264  1
  Bi  Bi29  1  0.066145  0.496325  0.327740  1
  Bi  Bi30  1  0.566163  0.497125  0.173170  1
  Bi  Bi31  1  0.432760  0.505337  0.826553  1
