# generated using pymatgen
data_Y4Er7TmOs4
_symmetry_space_group_name_H-M   'P 1'
_cell_length_a   6.27764303
_cell_length_b   7.37782513
_cell_length_c   8.97902989
_cell_angle_alpha   89.99762675
_cell_angle_beta   89.98409978
_cell_angle_gamma   89.97778634
_symmetry_Int_Tables_number   1
_chemical_formula_structural   Y4Er7TmOs4
_chemical_formula_sum   'Y4 Er7 Tm1 Os4'
_cell_volume   415.86688694
_cell_formula_units_Z   1
loop_
 _symmetry_equiv_pos_site_id
 _symmetry_equiv_pos_as_xyz
  1  'x, y, z'
loop_
 _atom_site_type_symbol
 _atom_site_label
 _atom_site_symmetry_multiplicity
 _atom_site_fract_x
 _atom_site_fract_y
 _atom_site_fract_z
 _atom_site_occupancy
  Y  Y0  1  0.870595  0.537923  0.249992  1
  Y  Y1  1  0.629097  0.037749  0.249997  1
  Y  Y2  1  0.129476  0.462296  0.749942  1
  Y  Y3  1  0.370756  0.962173  0.749914  1
  Er  Er4  1  0.167275  0.175345  0.437146  1
  Er  Er5  1  0.667193  0.324649  0.562799  1
  Er  Er6  1  0.832506  0.824805  0.937168  1
  Er  Er7  1  0.667278  0.324847  0.937084  1
  Er  Er8  1  0.832818  0.824772  0.562847  1
  Er  Er9  1  0.332848  0.675130  0.436914  1
  Er  Er10  1  0.167378  0.175211  0.062879  1
  Tm  Tm11  1  0.332781  0.675220  0.063005  1
  Os  Os12  1  0.044266  0.883228  0.250207  1
  Os  Os13  1  0.455619  0.383487  0.250269  1
  Os  Os14  1  0.955699  0.116556  0.750077  1
  Os  Os15  1  0.544413  0.616612  0.749759  1
