# generated using pymatgen
data_Tm3Mn4P6Ir5
_symmetry_space_group_name_H-M   'P 1'
_cell_length_a   3.82466500
_cell_length_b   10.89919500
_cell_length_c   12.83071600
_cell_angle_alpha   90.00000000
_cell_angle_beta   90.00000000
_cell_angle_gamma   90.00000000
_symmetry_Int_Tables_number   1
_chemical_formula_structural   Tm3Mn4P6Ir5
_chemical_formula_sum   'Tm6 Mn8 P12 Ir10'
_cell_volume   534.85827155
_cell_formula_units_Z   2
loop_
 _symmetry_equiv_pos_site_id
 _symmetry_equiv_pos_as_xyz
  1  'x, y, z'
loop_
 _atom_site_type_symbol
 _atom_site_label
 _atom_site_symmetry_multiplicity
 _atom_site_fract_x
 _atom_site_fract_y
 _atom_site_fract_z
 _atom_site_occupancy
  Tm  Tm0  1  0.000000  0.500000  0.518911  1
  Tm  Tm1  1  0.500000  0.000000  0.481089  1
  Tm  Tm2  1  0.500000  0.820064  0.201843  1
  Tm  Tm3  1  0.500000  0.179936  0.201843  1
  Tm  Tm4  1  0.000000  0.679936  0.798157  1
  Tm  Tm5  1  0.000000  0.320064  0.798157  1
  Mn  Mn6  1  0.500000  0.500000  0.167794  1
  Mn  Mn7  1  0.000000  0.000000  0.832206  1
  Mn  Mn8  1  0.000000  0.500000  0.987872  1
  Mn  Mn9  1  0.500000  0.000000  0.012128  1
  Mn  Mn10  1  0.500000  0.335157  0.998660  1
  Mn  Mn11  1  0.500000  0.664843  0.998660  1
  Mn  Mn12  1  0.000000  0.164843  0.001340  1
  Mn  Mn13  1  0.000000  0.835157  0.001340  1
  P  P14  1  0.500000  0.500000  0.885822  1
  P  P15  1  0.000000  0.000000  0.114178  1
  P  P16  1  0.500000  0.500000  0.347063  1
  P  P17  1  0.000000  0.000000  0.652937  1
  P  P18  1  0.500000  0.315193  0.620267  1
  P  P19  1  0.500000  0.684807  0.620267  1
  P  P20  1  0.000000  0.184807  0.379733  1
  P  P21  1  0.000000  0.815193  0.379733  1
  P  P22  1  0.500000  0.843187  0.895749  1
  P  P23  1  0.500000  0.156813  0.895749  1
  P  P24  1  0.000000  0.656813  0.104251  1
  P  P25  1  0.000000  0.343187  0.104251  1
  Ir  Ir26  1  0.500000  0.500000  0.703328  1
  Ir  Ir27  1  0.000000  0.000000  0.296672  1
  Ir  Ir28  1  0.500000  0.295798  0.430658  1
  Ir  Ir29  1  0.500000  0.704202  0.430658  1
  Ir  Ir30  1  0.000000  0.204202  0.569342  1
  Ir  Ir31  1  0.000000  0.795798  0.569342  1
  Ir  Ir32  1  0.500000  0.872501  0.716463  1
  Ir  Ir33  1  0.500000  0.127499  0.716463  1
  Ir  Ir34  1  0.000000  0.627499  0.283537  1
  Ir  Ir35  1  0.000000  0.372501  0.283537  1
