# generated using pymatgen
data_Pr4Mn5Cu(PtO10)2
_symmetry_space_group_name_H-M   'P 1'
_cell_length_a   5.91459246
_cell_length_b   7.69613418
_cell_length_c   8.79150643
_cell_angle_alpha   89.56851569
_cell_angle_beta   90.04468132
_cell_angle_gamma   90.00443609
_symmetry_Int_Tables_number   1
_chemical_formula_structural   Pr4Mn5Cu(PtO10)2
_chemical_formula_sum   'Pr4 Mn5 Cu1 Pt2 O20'
_cell_volume   400.17348141
_cell_formula_units_Z   1
loop_
 _symmetry_equiv_pos_site_id
 _symmetry_equiv_pos_as_xyz
  1  'x, y, z'
loop_
 _atom_site_type_symbol
 _atom_site_label
 _atom_site_symmetry_multiplicity
 _atom_site_fract_x
 _atom_site_fract_y
 _atom_site_fract_z
 _atom_site_occupancy
  Pr  Pr0  1  0.004297  0.360401  0.673336  1
  Pr  Pr1  1  0.003358  0.641276  0.327760  1
  Pr  Pr2  1  0.997437  0.858082  0.829546  1
  Pr  Pr3  1  0.997478  0.143685  0.170145  1
  Mn  Mn4  1  0.495680  0.914098  0.147431  1
  Mn  Mn5  1  0.505287  0.586210  0.648959  1
  Mn  Mn6  1  0.505254  0.412461  0.352128  1
  Mn  Mn7  1  0.738860  0.500333  0.000107  1
  Mn  Mn8  1  0.258692  0.999722  0.500126  1
  Cu  Cu9  1  0.495528  0.070346  0.847296  1
  Pt  Pt10  1  0.255110  0.501749  0.000797  1
  Pt  Pt11  1  0.743820  0.999984  0.501428  1
  O  O12  1  0.246732  0.903481  0.291611  1
  O  O13  1  0.250490  0.094458  0.707520  1
  O  O14  1  0.753719  0.401690  0.208645  1
  O  O15  1  0.753886  0.598813  0.791970  1
  O  O16  1  0.748612  0.099520  0.713477  1
  O  O17  1  0.753833  0.901585  0.286300  1
  O  O18  1  0.246915  0.601392  0.785521  1
  O  O19  1  0.247072  0.399020  0.215066  1
  O  O20  1  0.511557  0.348293  0.937137  1
  O  O21  1  0.511275  0.657347  0.065817  1
  O  O22  1  0.488777  0.842834  0.562665  1
  O  O23  1  0.488070  0.156314  0.435361  1
  O  O24  1  0.276143  0.001398  0.998228  1
  O  O25  1  0.727387  0.500038  0.500394  1
  O  O26  1  0.713939  0.001210  0.997294  1
  O  O27  1  0.283654  0.500153  0.500254  1
  O  O28  1  0.011659  0.161024  0.447777  1
  O  O29  1  0.011949  0.839227  0.554699  1
  O  O30  1  0.985964  0.663111  0.054737  1
  O  O31  1  0.987564  0.340746  0.946469  1
