# generated using pymatgen
data_Tb4VZn2Os5
_symmetry_space_group_name_H-M   'P 1'
_cell_length_a   5.27201878
_cell_length_b   5.28000704
_cell_length_c   8.93148000
_cell_angle_alpha   90.00000000
_cell_angle_beta   90.00000000
_cell_angle_gamma   118.13318769
_symmetry_Int_Tables_number   1
_chemical_formula_structural   Tb4VZn2Os5
_chemical_formula_sum   'Tb4 V1 Zn2 Os5'
_cell_volume   219.24591772
_cell_formula_units_Z   1
loop_
 _symmetry_equiv_pos_site_id
 _symmetry_equiv_pos_as_xyz
  1  'x, y, z'
loop_
 _atom_site_type_symbol
 _atom_site_label
 _atom_site_symmetry_multiplicity
 _atom_site_fract_x
 _atom_site_fract_y
 _atom_site_fract_z
 _atom_site_occupancy
  Tb  Tb0  1  0.321653  0.666490  0.434316  1
  Tb  Tb1  1  0.658902  0.328919  0.557895  1
  Tb  Tb2  1  0.658902  0.328919  0.942105  1
  Tb  Tb3  1  0.321653  0.666490  0.065684  1
  V  V4  1  0.838179  0.155485  0.250000  1
  Zn  Zn5  1  0.193691  0.841715  0.750000  1
  Zn  Zn6  1  0.189550  0.348968  0.750000  1
  Os  Os7  1  0.979437  0.997348  0.502309  1
  Os  Os8  1  0.979437  0.997348  0.997691  1
  Os  Os9  1  0.818179  0.652438  0.250000  1
  Os  Os10  1  0.346693  0.172330  0.250000  1
  Os  Os11  1  0.693726  0.843549  0.750000  1
