# generated using pymatgen
data_Dy8Nb11Si16Rh
_symmetry_space_group_name_H-M   'P 1'
_cell_length_a   7.05846432
_cell_length_b   7.05846437
_cell_length_c   13.00971649
_cell_angle_alpha   89.82238870
_cell_angle_beta   90.17761136
_cell_angle_gamma   89.71869957
_symmetry_Int_Tables_number   1
_chemical_formula_structural   Dy8Nb11Si16Rh
_chemical_formula_sum   'Dy8 Nb11 Si16 Rh1'
_cell_volume   648.15496911
_cell_formula_units_Z   1
loop_
 _symmetry_equiv_pos_site_id
 _symmetry_equiv_pos_as_xyz
  1  'x, y, z'
loop_
 _atom_site_type_symbol
 _atom_site_label
 _atom_site_symmetry_multiplicity
 _atom_site_fract_x
 _atom_site_fract_y
 _atom_site_fract_z
 _atom_site_occupancy
  Dy  Dy0  1  0.996659  0.658590  0.032482  1
  Dy  Dy1  1  0.002229  0.343257  0.532055  1
  Dy  Dy2  1  0.658590  0.996659  0.967518  1
  Dy  Dy3  1  0.157756  0.504466  0.781156  1
  Dy  Dy4  1  0.841555  0.498479  0.283495  1
  Dy  Dy5  1  0.504466  0.157756  0.218844  1
  Dy  Dy6  1  0.498479  0.841555  0.716505  1
  Dy  Dy7  1  0.343257  0.002229  0.467945  1
  Nb  Nb8  1  0.341696  0.504904  0.375641  1
  Nb  Nb9  1  0.850538  0.996636  0.375051  1
  Nb  Nb10  1  0.006384  0.151987  0.126060  1
  Nb  Nb11  1  0.996636  0.850538  0.624949  1
  Nb  Nb12  1  0.504904  0.341696  0.624359  1
  Nb  Nb13  1  0.151987  0.006384  0.873940  1
  Nb  Nb14  1  0.825167  0.171876  0.747454  1
  Nb  Nb15  1  0.171876  0.825167  0.252546  1
  Nb  Nb16  1  0.328554  0.328554  0.000000  1
  Nb  Nb17  1  0.494830  0.652385  0.125648  1
  Nb  Nb18  1  0.652385  0.494830  0.874352  1
  Si  Si19  1  0.045074  0.710296  0.439082  1
  Si  Si20  1  0.953733  0.293670  0.935681  1
  Si  Si21  1  0.710296  0.045074  0.560918  1
  Si  Si22  1  0.206260  0.453783  0.186573  1
  Si  Si23  1  0.790307  0.551550  0.682939  1
  Si  Si24  1  0.453783  0.206260  0.813427  1
  Si  Si25  1  0.551550  0.790307  0.317061  1
  Si  Si26  1  0.293670  0.953733  0.064319  1
  Si  Si27  1  0.797398  0.864423  0.183964  1
  Si  Si28  1  0.298284  0.631160  0.566350  1
  Si  Si29  1  0.704055  0.365122  0.067212  1
  Si  Si30  1  0.631160  0.298284  0.433650  1
  Si  Si31  1  0.365122  0.704055  0.932788  1
  Si  Si32  1  0.133958  0.204197  0.316853  1
  Si  Si33  1  0.204197  0.133958  0.683147  1
  Si  Si34  1  0.864423  0.797398  0.816036  1
  Rh  Rh35  1  0.668784  0.668784  0.500000  1
