# generated using pymatgen
data_Ba8Dy3Er(FeO5)4
_symmetry_space_group_name_H-M   'P 1'
_cell_length_a   6.15107104
_cell_length_b   7.91506118
_cell_length_c   12.75604953
_cell_angle_alpha   92.00847749
_cell_angle_beta   89.99806742
_cell_angle_gamma   90.01296408
_symmetry_Int_Tables_number   1
_chemical_formula_structural   Ba8Dy3Er(FeO5)4
_chemical_formula_sum   'Ba8 Dy3 Er1 Fe4 O20'
_cell_volume   620.66079737
_cell_formula_units_Z   1
loop_
 _symmetry_equiv_pos_site_id
 _symmetry_equiv_pos_as_xyz
  1  'x, y, z'
loop_
 _atom_site_type_symbol
 _atom_site_label
 _atom_site_symmetry_multiplicity
 _atom_site_fract_x
 _atom_site_fract_y
 _atom_site_fract_z
 _atom_site_occupancy
  Ba  Ba0  1  0.762304  0.483099  0.347336  1
  Ba  Ba1  1  0.737374  0.983701  0.846586  1
  Ba  Ba2  1  0.237625  0.516108  0.652837  1
  Ba  Ba3  1  0.262512  0.016929  0.153136  1
  Ba  Ba4  1  0.754125  0.993000  0.381535  1
  Ba  Ba5  1  0.745615  0.492378  0.880503  1
  Ba  Ba6  1  0.246035  0.007698  0.618794  1
  Ba  Ba7  1  0.254232  0.507244  0.118862  1
  Dy  Dy8  1  0.749646  0.768012  0.129514  1
  Dy  Dy9  1  0.249699  0.732062  0.370537  1
  Dy  Dy10  1  0.250272  0.232130  0.869828  1
  Er  Er11  1  0.750516  0.267306  0.629765  1
  Fe  Fe12  1  0.734200  0.742564  0.583710  1
  Fe  Fe13  1  0.765963  0.242409  0.083151  1
  Fe  Fe14  1  0.265967  0.257832  0.417924  1
  Fe  Fe15  1  0.233848  0.757627  0.916709  1
  O  O16  1  0.757321  0.975473  0.629319  1
  O  O17  1  0.742444  0.474072  0.129703  1
  O  O18  1  0.242721  0.026457  0.370632  1
  O  O19  1  0.257491  0.525805  0.870143  1
  O  O20  1  0.727757  0.063856  0.177137  1
  O  O21  1  0.771784  0.561732  0.676196  1
  O  O22  1  0.272168  0.936375  0.822733  1
  O  O23  1  0.228229  0.435793  0.323467  1
  O  O24  1  0.544424  0.743547  0.272906  1
  O  O25  1  0.955625  0.243886  0.771360  1
  O  O26  1  0.458396  0.256378  0.726781  1
  O  O27  1  0.044733  0.756320  0.227108  1
  O  O28  1  0.551690  0.221991  0.974892  1
  O  O29  1  0.948011  0.722250  0.475201  1
  O  O30  1  0.448026  0.778000  0.024868  1
  O  O31  1  0.049225  0.277676  0.525507  1
  O  O32  1  0.047744  0.228168  0.020826  1
  O  O33  1  0.452305  0.728496  0.521382  1
  O  O34  1  0.951840  0.771789  0.978482  1
  O  O35  1  0.548131  0.271839  0.480633  1
