# generated using pymatgen
data_Dy9Y(Cd2Pt)4
_symmetry_space_group_name_H-M   'P 1'
_cell_length_a   3.67092800
_cell_length_b   7.96518501
_cell_length_c   18.35031003
_cell_angle_alpha   89.99318487
_cell_angle_beta   90.00000000
_cell_angle_gamma   90.00000000
_symmetry_Int_Tables_number   1
_chemical_formula_structural   Dy9Y(Cd2Pt)4
_chemical_formula_sum   'Dy9 Y1 Cd8 Pt4'
_cell_volume   536.55610116
_cell_formula_units_Z   1
loop_
 _symmetry_equiv_pos_site_id
 _symmetry_equiv_pos_as_xyz
  1  'x, y, z'
loop_
 _atom_site_type_symbol
 _atom_site_label
 _atom_site_symmetry_multiplicity
 _atom_site_fract_x
 _atom_site_fract_y
 _atom_site_fract_z
 _atom_site_occupancy
  Dy  Dy0  1  0.000000  0.114701  0.414148  1
  Dy  Dy1  1  0.000000  0.885299  0.585852  1
  Dy  Dy2  1  0.000000  0.385519  0.914059  1
  Dy  Dy3  1  0.000000  0.614481  0.085941  1
  Dy  Dy4  1  0.000000  0.243163  0.219329  1
  Dy  Dy5  1  0.000000  0.756837  0.780671  1
  Dy  Dy6  1  0.000000  0.256822  0.719339  1
  Dy  Dy7  1  0.000000  0.743178  0.280661  1
  Dy  Dy8  1  0.000000  0.500000  0.500000  1
  Y  Y9  1  0.000000  0.000000  0.000000  1
  Cd  Cd10  1  0.500000  0.429072  0.353065  1
  Cd  Cd11  1  0.500000  0.570928  0.646935  1
  Cd  Cd12  1  0.500000  0.070969  0.852986  1
  Cd  Cd13  1  0.500000  0.929031  0.147014  1
  Cd  Cd14  1  0.500000  0.287623  0.066551  1
  Cd  Cd15  1  0.500000  0.712377  0.933449  1
  Cd  Cd16  1  0.500000  0.212619  0.566488  1
  Cd  Cd17  1  0.500000  0.787381  0.433512  1
  Pt  Pt18  1  0.500000  0.027559  0.303733  1
  Pt  Pt19  1  0.500000  0.972441  0.696267  1
  Pt  Pt20  1  0.500000  0.472400  0.803783  1
  Pt  Pt21  1  0.500000  0.527600  0.196217  1
