# generated using pymatgen
data_La3NdTe7Pd
_symmetry_space_group_name_H-M   'P 1'
_cell_length_a   4.37085060
_cell_length_b   8.93443200
_cell_length_c   9.49116534
_cell_angle_alpha   90.00000000
_cell_angle_beta   90.06125455
_cell_angle_gamma   90.00000000
_symmetry_Int_Tables_number   1
_chemical_formula_structural   La3NdTe7Pd
_chemical_formula_sum   'La3 Nd1 Te7 Pd1'
_cell_volume   370.63992652
_cell_formula_units_Z   1
loop_
 _symmetry_equiv_pos_site_id
 _symmetry_equiv_pos_as_xyz
  1  'x, y, z'
loop_
 _atom_site_type_symbol
 _atom_site_label
 _atom_site_symmetry_multiplicity
 _atom_site_fract_x
 _atom_site_fract_y
 _atom_site_fract_z
 _atom_site_occupancy
  La  La0  1  0.004187  0.250000  0.740809  1
  La  La1  1  0.499203  0.002675  0.269645  1
  La  La2  1  0.499203  0.497325  0.269645  1
  Nd  Nd3  1  0.000653  0.750000  0.710518  1
  Te  Te4  1  0.996504  0.940315  0.999764  1
  Te  Te5  1  0.996504  0.559685  0.999764  1
  Te  Te6  1  0.505533  0.250000  0.000918  1
  Te  Te7  1  0.999508  0.750000  0.369139  1
  Te  Te8  1  0.000273  0.250000  0.372728  1
  Te  Te9  1  0.501857  0.999734  0.630980  1
  Te  Te10  1  0.501857  0.500266  0.630980  1
  Pd  Pd11  1  0.494716  0.750000  0.006034  1
