# generated using pymatgen
data_BaAs12(IrOs)2
_symmetry_space_group_name_H-M   'P 1'
_cell_length_a   7.51197039
_cell_length_b   7.51695820
_cell_length_c   7.51696207
_cell_angle_alpha   109.49225802
_cell_angle_beta   109.47292326
_cell_angle_gamma   109.47538120
_symmetry_Int_Tables_number   1
_chemical_formula_structural   BaAs12(IrOs)2
_chemical_formula_sum   'Ba1 As12 Ir2 Os2'
_cell_volume   326.64212707
_cell_formula_units_Z   1
loop_
 _symmetry_equiv_pos_site_id
 _symmetry_equiv_pos_as_xyz
  1  'x, y, z'
loop_
 _atom_site_type_symbol
 _atom_site_label
 _atom_site_symmetry_multiplicity
 _atom_site_fract_x
 _atom_site_fract_y
 _atom_site_fract_z
 _atom_site_occupancy
  Ba  Ba0  1  0.000000  0.000000  0.000000  1
  As  As1  1  0.848676  0.647581  0.499615  1
  As  As2  1  0.151324  0.352419  0.500385  1
  As  As3  1  0.151324  0.650939  0.798906  1
  As  As4  1  0.848676  0.349061  0.201094  1
  As  As5  1  0.647242  0.499536  0.848312  1
  As  As6  1  0.352758  0.500464  0.151688  1
  As  As7  1  0.647242  0.798931  0.147706  1
  As  As8  1  0.352758  0.201069  0.852294  1
  As  As9  1  0.499758  0.848951  0.650806  1
  As  As10  1  0.500242  0.151049  0.349194  1
  As  As11  1  0.203729  0.851638  0.352092  1
  As  As12  1  0.796271  0.148362  0.647908  1
  Ir  Ir13  1  0.000000  0.500000  0.000000  1
  Ir  Ir14  1  0.000000  0.000000  0.500000  1
  Os  Os15  1  0.500000  0.500000  0.500000  1
  Os  Os16  1  0.500000  0.000000  0.000000  1
