# generated using pymatgen
data_Cd22Pt2Rh
_symmetry_space_group_name_H-M   'P 1'
_cell_length_a   8.71877654
_cell_length_b   8.71877793
_cell_length_c   8.70482042
_cell_angle_alpha   72.18065345
_cell_angle_beta   72.18064908
_cell_angle_gamma   58.35017347
_symmetry_Int_Tables_number   1
_chemical_formula_structural   Cd22Pt2Rh
_chemical_formula_sum   'Cd22 Pt2 Rh1'
_cell_volume   527.56864141
_cell_formula_units_Z   1
loop_
 _symmetry_equiv_pos_site_id
 _symmetry_equiv_pos_as_xyz
  1  'x, y, z'
loop_
 _atom_site_type_symbol
 _atom_site_label
 _atom_site_symmetry_multiplicity
 _atom_site_fract_x
 _atom_site_fract_y
 _atom_site_fract_z
 _atom_site_occupancy
  Cd  Cd0  1  0.344005  0.738326  0.311974  1
  Cd  Cd1  1  0.655995  0.261674  0.688026  1
  Cd  Cd2  1  0.261674  0.655995  0.688026  1
  Cd  Cd3  1  0.738326  0.344005  0.311974  1
  Cd  Cd4  1  0.678644  0.321356  0.000000  1
  Cd  Cd5  1  0.321356  0.678644  0.000000  1
  Cd  Cd6  1  0.832394  0.832394  0.780497  1
  Cd  Cd7  1  0.167606  0.167606  0.219503  1
  Cd  Cd8  1  0.976882  0.976882  0.176135  1
  Cd  Cd9  1  0.023118  0.023118  0.823865  1
  Cd  Cd10  1  0.354271  0.354271  0.272132  1
  Cd  Cd11  1  0.645729  0.645729  0.727868  1
  Cd  Cd12  1  0.684795  0.684795  0.377567  1
  Cd  Cd13  1  0.315205  0.315205  0.622433  1
  Cd  Cd14  1  0.663209  0.023610  0.460960  1
  Cd  Cd15  1  0.336791  0.976390  0.539040  1
  Cd  Cd16  1  0.976390  0.336791  0.539040  1
  Cd  Cd17  1  0.023610  0.663209  0.460960  1
  Cd  Cd18  1  0.615185  0.999458  0.102083  1
  Cd  Cd19  1  0.384815  0.000542  0.897917  1
  Cd  Cd20  1  0.000542  0.384815  0.897917  1
  Cd  Cd21  1  0.999458  0.615185  0.102083  1
  Pt  Pt22  1  0.659552  0.659552  0.053257  1
  Pt  Pt23  1  0.340448  0.340448  0.946743  1
  Rh  Rh24  1  0.000000  0.000000  0.500000  1
