# generated using pymatgen
data_Dy2Ho18Ir5Rh7
_symmetry_space_group_name_H-M   'P 1'
_cell_length_a   10.85723310
_cell_length_b   10.85720999
_cell_length_c   6.36157101
_cell_angle_alpha   89.99285935
_cell_angle_beta   89.99963230
_cell_angle_gamma   90.06626540
_symmetry_Int_Tables_number   1
_chemical_formula_structural   Dy2Ho18Ir5Rh7
_chemical_formula_sum   'Dy2 Ho18 Ir5 Rh7'
_cell_volume   749.89677359
_cell_formula_units_Z   1
loop_
 _symmetry_equiv_pos_site_id
 _symmetry_equiv_pos_as_xyz
  1  'x, y, z'
loop_
 _atom_site_type_symbol
 _atom_site_label
 _atom_site_symmetry_multiplicity
 _atom_site_fract_x
 _atom_site_fract_y
 _atom_site_fract_z
 _atom_site_occupancy
  Dy  Dy0  1  0.290614  0.088335  0.377976  1
  Dy  Dy1  1  0.290609  0.909669  0.879277  1
  Ho  Ho2  1  0.708608  0.089899  0.879021  1
  Ho  Ho3  1  0.708319  0.910024  0.378346  1
  Ho  Ho4  1  0.587727  0.789892  0.879442  1
  Ho  Ho5  1  0.587512  0.209998  0.379174  1
  Ho  Ho6  1  0.411015  0.790125  0.379423  1
  Ho  Ho7  1  0.412473  0.210037  0.879113  1
  Ho  Ho8  1  0.210028  0.412525  0.620575  1
  Ho  Ho9  1  0.209675  0.589116  0.120601  1
  Ho  Ho10  1  0.790059  0.412703  0.120769  1
  Ho  Ho11  1  0.790180  0.587675  0.620867  1
  Ho  Ho12  1  0.911782  0.709184  0.121827  1
  Ho  Ho13  1  0.910119  0.291394  0.620952  1
  Ho  Ho14  1  0.090114  0.709066  0.620271  1
  Ho  Ho15  1  0.089791  0.291805  0.121549  1
  Ho  Ho16  1  0.999815  0.999714  0.500234  1
  Ho  Ho17  1  0.000014  0.000011  0.999935  1
  Ho  Ho18  1  0.499939  0.499697  0.000204  1
  Ho  Ho19  1  0.500339  0.500112  0.499894  1
  Ir  Ir20  1  0.152985  0.846365  0.250382  1
  Ir  Ir21  1  0.654567  0.345433  0.750003  1
  Ir  Ir22  1  0.654823  0.654410  0.249753  1
  Ir  Ir23  1  0.345640  0.345489  0.250113  1
  Ir  Ir24  1  0.346181  0.653596  0.749870  1
  Rh  Rh25  1  0.846724  0.153285  0.249976  1
  Rh  Rh26  1  0.845896  0.846648  0.749885  1
  Rh  Rh27  1  0.153138  0.154402  0.750414  1
  Rh  Rh28  1  0.501010  0.000232  0.122802  1
  Rh  Rh29  1  0.500830  0.000229  0.623450  1
  Rh  Rh30  1  0.999748  0.499516  0.876636  1
  Rh  Rh31  1  0.999724  0.499415  0.377264  1
