# generated using pymatgen
data_YEr5(TcB7)2
_symmetry_space_group_name_H-M   'P 1'
_cell_length_a   8.02172033
_cell_length_b   8.02171939
_cell_length_c   9.32147000
_cell_angle_alpha   90.00000000
_cell_angle_beta   90.00000000
_cell_angle_gamma   154.64069902
_symmetry_Int_Tables_number   1
_chemical_formula_structural   YEr5(TcB7)2
_chemical_formula_sum   'Y1 Er5 Tc2 B14'
_cell_volume   256.89800230
_cell_formula_units_Z   1
loop_
 _symmetry_equiv_pos_site_id
 _symmetry_equiv_pos_as_xyz
  1  'x, y, z'
loop_
 _atom_site_type_symbol
 _atom_site_label
 _atom_site_symmetry_multiplicity
 _atom_site_fract_x
 _atom_site_fract_y
 _atom_site_fract_z
 _atom_site_occupancy
  Y  Y0  1  0.243274  0.756726  0.750000  1
  Er  Er1  1  0.895197  0.104803  0.941282  1
  Er  Er2  1  0.105046  0.894954  0.059781  1
  Er  Er3  1  0.757896  0.242104  0.250000  1
  Er  Er4  1  0.895197  0.104803  0.558718  1
  Er  Er5  1  0.105046  0.894954  0.440219  1
  Tc  Tc6  1  0.052270  0.947730  0.750000  1
  Tc  Tc7  1  0.947607  0.052393  0.250000  1
  B  B8  1  0.544420  0.455580  0.250000  1
  B  B9  1  0.455304  0.544696  0.750000  1
  B  B10  1  0.520133  0.479867  0.904825  1
  B  B11  1  0.479759  0.520241  0.095262  1
  B  B12  1  0.479759  0.520241  0.404738  1
  B  B13  1  0.520133  0.479867  0.595175  1
  B  B14  1  0.631714  0.368286  0.849520  1
  B  B15  1  0.368023  0.631977  0.151101  1
  B  B16  1  0.727078  0.272922  0.968140  1
  B  B17  1  0.272665  0.727335  0.034623  1
  B  B18  1  0.272665  0.727335  0.465377  1
  B  B19  1  0.727078  0.272922  0.531860  1
  B  B20  1  0.631714  0.368286  0.650480  1
  B  B21  1  0.368023  0.631977  0.348899  1
