# generated using pymatgen
data_DyAgRh2O7
_symmetry_space_group_name_H-M   'P 1'
_cell_length_a   7.19306207
_cell_length_b   7.19306140
_cell_length_c   7.11713100
_cell_angle_alpha   60.34858624
_cell_angle_beta   60.34858927
_cell_angle_gamma   61.48708345
_symmetry_Int_Tables_number   1
_chemical_formula_structural   DyAgRh2O7
_chemical_formula_sum   'Dy2 Ag2 Rh4 O14'
_cell_volume   264.59539859
_cell_formula_units_Z   2
loop_
 _symmetry_equiv_pos_site_id
 _symmetry_equiv_pos_as_xyz
  1  'x, y, z'
loop_
 _atom_site_type_symbol
 _atom_site_label
 _atom_site_symmetry_multiplicity
 _atom_site_fract_x
 _atom_site_fract_y
 _atom_site_fract_z
 _atom_site_occupancy
  Dy  Dy0  1  0.125000  0.625000  0.125000  1
  Dy  Dy1  1  0.625000  0.125000  0.125000  1
  Ag  Ag2  1  0.125000  0.125000  0.625000  1
  Ag  Ag3  1  0.125000  0.125000  0.125000  1
  Rh  Rh4  1  0.625000  0.625000  0.625000  1
  Rh  Rh5  1  0.125000  0.625000  0.625000  1
  Rh  Rh6  1  0.625000  0.125000  0.625000  1
  Rh  Rh7  1  0.625000  0.625000  0.125000  1
  O  O8  1  0.298241  0.695209  0.712595  1
  O  O9  1  0.554791  0.951759  0.956046  1
  O  O10  1  0.695209  0.298241  0.712595  1
  O  O11  1  0.300832  0.300832  0.699168  1
  O  O12  1  0.715457  0.715457  0.284543  1
  O  O13  1  0.009127  0.009127  0.990873  1
  O  O14  1  0.298241  0.695209  0.293954  1
  O  O15  1  0.951759  0.554791  0.956046  1
  O  O16  1  0.949168  0.949168  0.550832  1
  O  O17  1  0.534543  0.534543  0.965457  1
  O  O18  1  0.240873  0.240873  0.259127  1
  O  O19  1  0.554791  0.951759  0.537405  1
  O  O20  1  0.695209  0.298241  0.293954  1
  O  O21  1  0.951759  0.554791  0.537405  1
