# generated using pymatgen
data_Gd4Zn(RhO4)3
_symmetry_space_group_name_H-M   'P 1'
_cell_length_a   5.36816310
_cell_length_b   5.81934940
_cell_length_c   7.72551840
_cell_angle_alpha   89.81780018
_cell_angle_beta   90.11230956
_cell_angle_gamma   90.46413756
_symmetry_Int_Tables_number   1
_chemical_formula_structural   Gd4Zn(RhO4)3
_chemical_formula_sum   'Gd4 Zn1 Rh3 O12'
_cell_volume   241.32955332
_cell_formula_units_Z   1
loop_
 _symmetry_equiv_pos_site_id
 _symmetry_equiv_pos_as_xyz
  1  'x, y, z'
loop_
 _atom_site_type_symbol
 _atom_site_label
 _atom_site_symmetry_multiplicity
 _atom_site_fract_x
 _atom_site_fract_y
 _atom_site_fract_z
 _atom_site_occupancy
  Gd  Gd0  1  0.473332  0.581338  0.742866  1
  Gd  Gd1  1  0.976883  0.924467  0.256146  1
  Gd  Gd2  1  0.023117  0.075533  0.743854  1
  Gd  Gd3  1  0.526668  0.418662  0.257134  1
  Zn  Zn4  1  0.500000  0.000000  0.500000  1
  Rh  Rh5  1  0.000000  0.500000  0.500000  1
  Rh  Rh6  1  0.000000  0.500000  0.000000  1
  Rh  Rh7  1  0.500000  0.000000  0.000000  1
  O  O8  1  0.823414  0.195007  0.442309  1
  O  O9  1  0.313703  0.312216  0.554636  1
  O  O10  1  0.684630  0.694630  0.063579  1
  O  O11  1  0.183553  0.806476  0.938516  1
  O  O12  1  0.176586  0.804993  0.557691  1
  O  O13  1  0.686297  0.687784  0.445364  1
  O  O14  1  0.315370  0.305370  0.936421  1
  O  O15  1  0.816447  0.193524  0.061484  1
  O  O16  1  0.379141  0.043783  0.248078  1
  O  O17  1  0.876009  0.454195  0.749445  1
  O  O18  1  0.123991  0.545805  0.250555  1
  O  O19  1  0.620859  0.956217  0.751922  1
