# generated using pymatgen
data_ErCdGaNi3
_symmetry_space_group_name_H-M   'P 1'
_cell_length_a   5.11605200
_cell_length_b   5.11605203
_cell_length_c   4.96613988
_cell_angle_alpha   58.99630508
_cell_angle_beta   58.99630140
_cell_angle_gamma   60.00000018
_symmetry_Int_Tables_number   1
_chemical_formula_structural   ErCdGaNi3
_chemical_formula_sum   'Er1 Cd1 Ga1 Ni3'
_cell_volume   90.49318373
_cell_formula_units_Z   1
loop_
 _symmetry_equiv_pos_site_id
 _symmetry_equiv_pos_as_xyz
  1  'x, y, z'
loop_
 _atom_site_type_symbol
 _atom_site_label
 _atom_site_symmetry_multiplicity
 _atom_site_fract_x
 _atom_site_fract_y
 _atom_site_fract_z
 _atom_site_occupancy
  Er  Er0  1  0.246067  0.246067  0.261798  1
  Cd  Cd1  1  0.996726  0.996726  0.009822  1
  Ga  Ga2  1  0.628460  0.628460  0.114620  1
  Ni  Ni3  1  0.626133  0.126480  0.621253  1
  Ni  Ni4  1  0.126480  0.626133  0.621253  1
  Ni  Ni5  1  0.626133  0.626133  0.621253  1
