# generated using pymatgen
data_CeDyHo10Co5Sn
_symmetry_space_group_name_H-M   'P 1'
_cell_length_a   8.24068844
_cell_length_b   8.24068669
_cell_length_c   8.25896686
_cell_angle_alpha   107.65027814
_cell_angle_beta   110.44096608
_cell_angle_gamma   110.24923426
_symmetry_Int_Tables_number   1
_chemical_formula_structural   CeDyHo10Co5Sn
_chemical_formula_sum   'Ce1 Dy1 Ho10 Co5 Sn1'
_cell_volume   431.89967322
_cell_formula_units_Z   1
loop_
 _symmetry_equiv_pos_site_id
 _symmetry_equiv_pos_as_xyz
  1  'x, y, z'
loop_
 _atom_site_type_symbol
 _atom_site_label
 _atom_site_symmetry_multiplicity
 _atom_site_fract_x
 _atom_site_fract_y
 _atom_site_fract_z
 _atom_site_occupancy
  Ce  Ce0  1  0.195564  0.805687  0.001250  1
  Dy  Dy1  1  0.813148  0.194401  0.007549  1
  Ho  Ho2  1  0.485313  0.299922  0.190502  1
  Ho  Ho3  1  0.112774  0.297960  0.816741  1
  Ho  Ho4  1  0.890579  0.705189  0.190502  1
  Ho  Ho5  1  0.518782  0.703968  0.816741  1
  Ho  Ho6  1  0.307055  0.620937  0.318946  1
  Ho  Ho7  1  0.310578  0.992271  0.685244  1
  Ho  Ho8  1  0.692973  0.374665  0.685244  1
  Ho  Ho9  1  0.698009  0.011888  0.318946  1
  Ho  Ho10  1  0.196165  0.221368  0.417533  1
  Ho  Ho11  1  0.803773  0.796491  0.600263  1
  Co  Co12  1  0.504063  0.614445  0.118508  1
  Co  Co13  1  0.492753  0.385798  0.878552  1
  Co  Co14  1  0.344594  0.988209  0.332802  1
  Co  Co15  1  0.609405  0.997154  0.606561  1
  Co  Co16  1  0.024385  0.986024  0.010409  1
  Sn  Sn17  1  0.000085  0.503625  0.503711  1
