# generated using pymatgen
data_La5RuRhO12
_symmetry_space_group_name_H-M   'P 1'
_cell_length_a   7.15225764
_cell_length_b   7.15225809
_cell_length_c   7.74902695
_cell_angle_alpha   74.45856242
_cell_angle_beta   74.45856221
_cell_angle_gamma   51.44789352
_symmetry_Int_Tables_number   1
_chemical_formula_structural   La5RuRhO12
_chemical_formula_sum   'La5 Ru1 Rh1 O12'
_cell_volume   295.97364340
_cell_formula_units_Z   1
loop_
 _symmetry_equiv_pos_site_id
 _symmetry_equiv_pos_as_xyz
  1  'x, y, z'
loop_
 _atom_site_type_symbol
 _atom_site_label
 _atom_site_symmetry_multiplicity
 _atom_site_fract_x
 _atom_site_fract_y
 _atom_site_fract_z
 _atom_site_occupancy
  La  La0  1  0.689411  0.695389  0.665322  1
  La  La1  1  0.683119  0.700979  0.143724  1
  La  La2  1  0.994796  0.005204  0.000000  1
  La  La3  1  0.299021  0.316881  0.856276  1
  La  La4  1  0.304611  0.310589  0.334678  1
  Ru  Ru5  1  0.763890  0.236110  0.500000  1
  Rh  Rh6  1  0.252704  0.747296  0.500000  1
  O  O7  1  0.397348  0.912875  0.920605  1
  O  O8  1  0.581212  0.107799  0.579247  1
  O  O9  1  0.892201  0.418788  0.420753  1
  O  O10  1  0.087125  0.602652  0.079395  1
  O  O11  1  0.004317  0.995501  0.336225  1
  O  O12  1  0.509115  0.493603  0.671204  1
  O  O13  1  0.900319  0.403853  0.925059  1
  O  O14  1  0.101370  0.567604  0.581196  1
  O  O15  1  0.432396  0.898630  0.418804  1
  O  O16  1  0.596147  0.099681  0.074941  1
  O  O17  1  0.506397  0.490885  0.328796  1
  O  O18  1  0.004499  0.995683  0.663775  1
