# generated using pymatgen
data_Y3Tm(Si5Os3)2
_symmetry_space_group_name_H-M   'P 1'
_cell_length_a   8.13496535
_cell_length_b   8.13123978
_cell_length_c   5.80011400
_cell_angle_alpha   70.56486832
_cell_angle_beta   70.50964745
_cell_angle_gamma   93.96601132
_symmetry_Int_Tables_number   1
_chemical_formula_structural   Y3Tm(Si5Os3)2
_chemical_formula_sum   'Y3 Tm1 Si10 Os6'
_cell_volume   333.98947808
_cell_formula_units_Z   1
loop_
 _symmetry_equiv_pos_site_id
 _symmetry_equiv_pos_as_xyz
  1  'x, y, z'
loop_
 _atom_site_type_symbol
 _atom_site_label
 _atom_site_symmetry_multiplicity
 _atom_site_fract_x
 _atom_site_fract_y
 _atom_site_fract_z
 _atom_site_occupancy
  Y  Y0  1  0.869217  0.602019  0.751810  1
  Y  Y1  1  0.398054  0.131705  0.746832  1
  Y  Y2  1  0.131828  0.397404  0.247402  1
  Tm  Tm3  1  0.600797  0.869397  0.254165  1
  Si  Si4  1  0.067376  0.261492  0.834054  1
  Si  Si5  1  0.737866  0.932302  0.667334  1
  Si  Si6  1  0.930816  0.739259  0.165699  1
  Si  Si7  1  0.261933  0.066425  0.333694  1
  Si  Si8  1  0.207051  0.793686  0.748897  1
  Si  Si9  1  0.792700  0.205747  0.251074  1
  Si  Si10  1  0.513333  0.487698  0.749802  1
  Si  Si11  1  0.488263  0.513587  0.249363  1
  Si  Si12  1  0.774015  0.225240  0.750162  1
  Si  Si13  1  0.226388  0.774541  0.250250  1
  Os  Os14  1  0.256949  0.543834  0.630626  1
  Os  Os15  1  0.456430  0.744379  0.868679  1
  Os  Os16  1  0.744170  0.456477  0.368615  1
  Os  Os17  1  0.544043  0.255087  0.130966  1
  Os  Os18  1  0.002064  0.997519  0.750122  1
  Os  Os19  1  0.996710  0.002201  0.250454  1
