# generated using pymatgen
data_La2YIn3Cu2Rh
_symmetry_space_group_name_H-M   'P 1'
_cell_length_a   7.68693217
_cell_length_b   7.70129200
_cell_length_c   4.05667400
_cell_angle_alpha   90.00000000
_cell_angle_beta   90.00000000
_cell_angle_gamma   120.67458484
_symmetry_Int_Tables_number   1
_chemical_formula_structural   La2YIn3Cu2Rh
_chemical_formula_sum   'La2 Y1 In3 Cu2 Rh1'
_cell_volume   206.54986543
_cell_formula_units_Z   1
loop_
 _symmetry_equiv_pos_site_id
 _symmetry_equiv_pos_as_xyz
  1  'x, y, z'
loop_
 _atom_site_type_symbol
 _atom_site_label
 _atom_site_symmetry_multiplicity
 _atom_site_fract_x
 _atom_site_fract_y
 _atom_site_fract_z
 _atom_site_occupancy
  La  La0  1  0.410040  0.987830  0.500000  1
  La  La1  1  0.012899  0.420207  0.500000  1
  Y  Y2  1  0.581822  0.594860  0.500000  1
  In  In3  1  0.754532  0.996562  0.000000  1
  In  In4  1  0.989378  0.749596  0.000000  1
  In  In5  1  0.255511  0.250335  0.000000  1
  Cu  Cu6  1  0.664650  0.338156  0.000000  1
  Cu  Cu7  1  0.997530  0.997604  0.500000  1
  Rh  Rh8  1  0.333638  0.664851  0.000000  1
