# generated using pymatgen
data_Dy16Cd4CoNiRu2
_symmetry_space_group_name_H-M   'P 1'
_cell_length_a   9.55208628
_cell_length_b   9.57234024
_cell_length_c   9.57217444
_cell_angle_alpha   60.08505916
_cell_angle_beta   59.94176612
_cell_angle_gamma   59.94217300
_symmetry_Int_Tables_number   1
_chemical_formula_structural   Dy16Cd4CoNiRu2
_chemical_formula_sum   'Dy16 Cd4 Co1 Ni1 Ru2'
_cell_volume   618.74028101
_cell_formula_units_Z   1
loop_
 _symmetry_equiv_pos_site_id
 _symmetry_equiv_pos_as_xyz
  1  'x, y, z'
loop_
 _atom_site_type_symbol
 _atom_site_label
 _atom_site_symmetry_multiplicity
 _atom_site_fract_x
 _atom_site_fract_y
 _atom_site_fract_z
 _atom_site_occupancy
  Dy  Dy0  1  0.151985  0.539978  0.156368  1
  Dy  Dy1  1  0.690131  0.311137  0.688730  1
  Dy  Dy2  1  0.686974  0.311151  0.311165  1
  Dy  Dy3  1  0.937885  0.563889  0.563887  1
  Dy  Dy4  1  0.542232  0.155363  0.155349  1
  Dy  Dy5  1  0.151974  0.156391  0.539978  1
  Dy  Dy6  1  0.941745  0.933806  0.561826  1
  Dy  Dy7  1  0.311610  0.685749  0.311267  1
  Dy  Dy8  1  0.559427  0.940050  0.940061  1
  Dy  Dy9  1  0.561490  0.936728  0.561013  1
  Dy  Dy10  1  0.690128  0.688719  0.311150  1
  Dy  Dy11  1  0.561498  0.561017  0.936727  1
  Dy  Dy12  1  0.941726  0.561827  0.933809  1
  Dy  Dy13  1  0.313602  0.688615  0.688619  1
  Dy  Dy14  1  0.149206  0.153880  0.153867  1
  Dy  Dy15  1  0.311612  0.311255  0.685763  1
  Cd  Cd16  1  0.919567  0.242451  0.919012  1
  Cd  Cd17  1  0.920274  0.919749  0.919758  1
  Cd  Cd18  1  0.919568  0.919008  0.242449  1
  Cd  Cd19  1  0.242194  0.919028  0.919039  1
  Co  Co20  1  0.357282  0.360479  0.360463  1
  Ni  Ni21  1  0.922545  0.358564  0.358542  1
  Ru  Ru22  1  0.357675  0.358918  0.922239  1
  Ru  Ru23  1  0.357670  0.922248  0.358920  1
