# generated using pymatgen
data_Zr2ScSnRu4
_symmetry_space_group_name_H-M   'P 1'
_cell_length_a   6.45487500
_cell_length_b   6.45907100
_cell_length_c   6.52351300
_cell_angle_alpha   90.00000000
_cell_angle_beta   89.99969970
_cell_angle_gamma   90.00000000
_symmetry_Int_Tables_number   1
_chemical_formula_structural   Zr2ScSnRu4
_chemical_formula_sum   'Zr4 Sc2 Sn2 Ru8'
_cell_volume   271.98153914
_cell_formula_units_Z   2
loop_
 _symmetry_equiv_pos_site_id
 _symmetry_equiv_pos_as_xyz
  1  'x, y, z'
loop_
 _atom_site_type_symbol
 _atom_site_label
 _atom_site_symmetry_multiplicity
 _atom_site_fract_x
 _atom_site_fract_y
 _atom_site_fract_z
 _atom_site_occupancy
  Zr  Zr0  1  0.749928  0.249999  0.000171  1
  Zr  Zr1  1  0.249925  0.750000  0.499836  1
  Zr  Zr2  1  0.750089  0.249999  0.500109  1
  Zr  Zr3  1  0.250093  0.750000  0.999886  1
  Sc  Sc4  1  0.750005  0.750000  0.500651  1
  Sc  Sc5  1  0.249961  0.249999  0.999343  1
  Sn  Sn6  1  0.749991  0.750000  0.000350  1
  Sn  Sn7  1  0.249994  0.249999  0.499662  1
  Ru  Ru8  1  0.999999  0.999992  0.249942  1
  Ru  Ru9  1  0.999999  0.500009  0.249942  1
  Ru  Ru10  1  0.499994  0.499994  0.250057  1
  Ru  Ru11  1  0.499994  0.000006  0.250057  1
  Ru  Ru12  1  0.500007  0.999990  0.749943  1
  Ru  Ru13  1  0.500007  0.500011  0.749943  1
  Ru  Ru14  1  0.000006  0.499990  0.750056  1
  Ru  Ru15  1  0.000006  0.000010  0.750056  1
