# generated using pymatgen
data_Nd8Sm2B2I15
_symmetry_space_group_name_H-M   'P 1'
_cell_length_a   9.90338115
_cell_length_b   10.67752422
_cell_length_c   11.61437396
_cell_angle_alpha   91.68946440
_cell_angle_beta   114.32119265
_cell_angle_gamma   110.37481028
_symmetry_Int_Tables_number   1
_chemical_formula_structural   Nd8Sm2B2I15
_chemical_formula_sum   'Nd8 Sm2 B2 I15'
_cell_volume   1027.42206064
_cell_formula_units_Z   1
loop_
 _symmetry_equiv_pos_site_id
 _symmetry_equiv_pos_as_xyz
  1  'x, y, z'
loop_
 _atom_site_type_symbol
 _atom_site_label
 _atom_site_symmetry_multiplicity
 _atom_site_fract_x
 _atom_site_fract_y
 _atom_site_fract_z
 _atom_site_occupancy
  Nd  Nd0  1  0.789939  0.398329  0.270312  1
  Nd  Nd1  1  0.210061  0.601671  0.729688  1
  Nd  Nd2  1  0.666232  0.750512  0.823559  1
  Nd  Nd3  1  0.333768  0.249488  0.176441  1
  Nd  Nd4  1  0.524063  0.710447  0.088904  1
  Nd  Nd5  1  0.475937  0.289553  0.911096  1
  Nd  Nd6  1  0.583233  0.041879  0.314591  1
  Nd  Nd7  1  0.416767  0.958121  0.685409  1
  Sm  Sm8  1  0.709598  0.070072  0.045214  1
  Sm  Sm9  1  0.290402  0.929928  0.954786  1
  B  B10  1  0.467530  0.821960  0.878482  1
  B  B11  1  0.532470  0.178040  0.121518  1
  I  I12  1  0.000000  0.000000  0.000000  1
  I  I13  1  0.638606  0.882186  0.580866  1
  I  I14  1  0.361394  0.117814  0.419134  1
  I  I15  1  0.885849  0.299328  0.532289  1
  I  I16  1  0.114151  0.700672  0.467711  1
  I  I17  1  0.281360  0.761347  0.175125  1
  I  I18  1  0.718640  0.238653  0.824875  1
  I  I19  1  0.051930  0.336520  0.222124  1
  I  I20  1  0.156543  0.053444  0.704643  1
  I  I21  1  0.843457  0.946556  0.295357  1
  I  I22  1  0.226572  0.409147  0.942654  1
  I  I23  1  0.773428  0.590853  0.057346  1
  I  I24  1  0.408405  0.459351  0.657590  1
  I  I25  1  0.591595  0.540649  0.342410  1
  I  I26  1  0.948070  0.663480  0.777876  1
