# generated using pymatgen
data_AcAl2GaHg
_symmetry_space_group_name_H-M   'P 1'
_cell_length_a   6.45805844
_cell_length_b   6.45805903
_cell_length_c   6.45805832
_cell_angle_alpha   138.75524879
_cell_angle_beta   138.75524618
_cell_angle_gamma   59.74824171
_symmetry_Int_Tables_number   1
_chemical_formula_structural   AcAl2GaHg
_chemical_formula_sum   'Ac1 Al2 Ga1 Hg1'
_cell_volume   115.88907110
_cell_formula_units_Z   1
loop_
 _symmetry_equiv_pos_site_id
 _symmetry_equiv_pos_as_xyz
  1  'x, y, z'
loop_
 _atom_site_type_symbol
 _atom_site_label
 _atom_site_symmetry_multiplicity
 _atom_site_fract_x
 _atom_site_fract_y
 _atom_site_fract_z
 _atom_site_occupancy
  Ac  Ac0  1  0.995058  0.995058  0.000000  1
  Al  Al1  1  0.753743  0.253743  0.500000  1
  Al  Al2  1  0.253743  0.753743  0.500000  1
  Ga  Ga3  1  0.377715  0.377715  0.000000  1
  Hg  Hg4  1  0.619740  0.619740  0.000000  1
