# generated using pymatgen
data_Li3Dy5P12(Ir3Rh)4
_symmetry_space_group_name_H-M   'P 1'
_cell_length_a   12.71001244
_cell_length_b   12.71848195
_cell_length_c   3.97074200
_cell_angle_alpha   90.00000000
_cell_angle_beta   90.00000000
_cell_angle_gamma   120.12477266
_symmetry_Int_Tables_number   1
_chemical_formula_structural   Li3Dy5P12(Ir3Rh)4
_chemical_formula_sum   'Li3 Dy5 P12 Ir12 Rh4'
_cell_volume   555.18298271
_cell_formula_units_Z   1
loop_
 _symmetry_equiv_pos_site_id
 _symmetry_equiv_pos_as_xyz
  1  'x, y, z'
loop_
 _atom_site_type_symbol
 _atom_site_label
 _atom_site_symmetry_multiplicity
 _atom_site_fract_x
 _atom_site_fract_y
 _atom_site_fract_z
 _atom_site_occupancy
  Li  Li0  1  0.000416  0.441493  0.500000  1
  Li  Li1  1  0.558612  0.559069  0.500000  1
  Li  Li2  1  0.441053  0.000007  0.500000  1
  Dy  Dy3  1  0.333382  0.666982  0.500000  1
  Dy  Dy4  1  0.666491  0.333046  0.500000  1
  Dy  Dy5  1  0.000318  0.809367  0.000000  1
  Dy  Dy6  1  0.191067  0.190728  0.000000  1
  Dy  Dy7  1  0.808781  0.999913  0.000000  1
  P  P8  1  0.999330  0.628677  0.500000  1
  P  P9  1  0.371794  0.371393  0.500000  1
  P  P10  1  0.629262  0.000447  0.500000  1
  P  P11  1  0.517039  0.687444  0.000000  1
  P  P12  1  0.312649  0.829855  0.000000  1
  P  P13  1  0.170661  0.483205  0.000000  1
  P  P14  1  0.482765  0.170085  0.000000  1
  P  P15  1  0.686697  0.516428  0.000000  1
  P  P16  1  0.829582  0.313082  0.000000  1
  P  P17  1  0.999940  0.179935  0.500000  1
  P  P18  1  0.820085  0.820236  0.500000  1
  P  P19  1  0.179856  0.999606  0.500000  1
  Ir  Ir20  1  0.509843  0.868163  0.000000  1
  Ir  Ir21  1  0.131672  0.641198  0.000000  1
  Ir  Ir22  1  0.358380  0.489870  0.000000  1
  Ir  Ir23  1  0.488961  0.357822  0.000000  1
  Ir  Ir24  1  0.868599  0.510235  0.000000  1
  Ir  Ir25  1  0.641053  0.131385  0.000000  1
  Ir  Ir26  1  0.000408  0.280191  0.000000  1
  Ir  Ir27  1  0.719907  0.720145  0.000000  1
  Ir  Ir28  1  0.279828  0.999852  0.000000  1
  Ir  Ir29  1  0.806283  0.626311  0.500000  1
  Ir  Ir30  1  0.819912  0.193501  0.500000  1
  Ir  Ir31  1  0.000190  0.000533  0.500000  1
  Rh  Rh32  1  0.625601  0.805323  0.500000  1
  Rh  Rh33  1  0.194884  0.820082  0.500000  1
  Rh  Rh34  1  0.180101  0.374868  0.500000  1
  Rh  Rh35  1  0.374600  0.179524  0.500000  1
