# generated using pymatgen
data_Eu4LuW3O14
_symmetry_space_group_name_H-M   'P 1'
_cell_length_a   7.59212328
_cell_length_b   7.53155440
_cell_length_c   7.59212500
_cell_angle_alpha   59.73361940
_cell_angle_beta   60.00000558
_cell_angle_gamma   59.73362007
_symmetry_Int_Tables_number   1
_chemical_formula_structural   Eu4LuW3O14
_chemical_formula_sum   'Eu4 Lu1 W3 O14'
_cell_volume   305.72843875
_cell_formula_units_Z   1
loop_
 _symmetry_equiv_pos_site_id
 _symmetry_equiv_pos_as_xyz
  1  'x, y, z'
loop_
 _atom_site_type_symbol
 _atom_site_label
 _atom_site_symmetry_multiplicity
 _atom_site_fract_x
 _atom_site_fract_y
 _atom_site_fract_z
 _atom_site_occupancy
  Eu  Eu0  1  0.125000  0.625000  0.125000  1
  Eu  Eu1  1  0.125000  0.125000  0.625000  1
  Eu  Eu2  1  0.625000  0.125000  0.125000  1
  Eu  Eu3  1  0.125000  0.125000  0.125000  1
  Lu  Lu4  1  0.625000  0.125000  0.625000  1
  W  W5  1  0.625000  0.625000  0.625000  1
  W  W6  1  0.125000  0.625000  0.625000  1
  W  W7  1  0.625000  0.625000  0.125000  1
  O  O8  1  0.304420  0.681732  0.709427  1
  O  O9  1  0.543238  0.940559  0.972965  1
  O  O10  1  0.709427  0.681732  0.304420  1
  O  O11  1  0.277035  0.309441  0.706762  1
  O  O12  1  0.999735  0.000795  0.999735  1
  O  O13  1  0.304420  0.681732  0.304420  1
  O  O14  1  0.706762  0.309441  0.706762  1
  O  O15  1  0.945580  0.568268  0.945580  1
  O  O16  1  0.540573  0.568268  0.945580  1
  O  O17  1  0.972965  0.940559  0.543238  1
  O  O18  1  0.250265  0.249205  0.250265  1
  O  O19  1  0.543238  0.940559  0.543238  1
  O  O20  1  0.706762  0.309441  0.277035  1
  O  O21  1  0.945580  0.568268  0.540573  1
