# generated using pymatgen
data_Hf6Zr4Sn3Ge2Sb3
_symmetry_space_group_name_H-M   'P 1'
_cell_length_a   8.66428250
_cell_length_b   8.67311792
_cell_length_c   5.84375000
_cell_angle_alpha   90.00000000
_cell_angle_beta   90.00000000
_cell_angle_gamma   120.03373155
_symmetry_Int_Tables_number   1
_chemical_formula_structural   Hf6Zr4Sn3Ge2Sb3
_chemical_formula_sum   'Hf6 Zr4 Sn3 Ge2 Sb3'
_cell_volume   380.17398695
_cell_formula_units_Z   1
loop_
 _symmetry_equiv_pos_site_id
 _symmetry_equiv_pos_as_xyz
  1  'x, y, z'
loop_
 _atom_site_type_symbol
 _atom_site_label
 _atom_site_symmetry_multiplicity
 _atom_site_fract_x
 _atom_site_fract_y
 _atom_site_fract_z
 _atom_site_occupancy
  Hf  Hf0  1  0.666373  0.333539  0.997424  1
  Hf  Hf1  1  0.333627  0.667167  0.997424  1
  Hf  Hf2  1  0.333627  0.667167  0.502576  1
  Hf  Hf3  1  0.666373  0.333539  0.502576  1
  Hf  Hf4  1  0.731143  0.731568  0.750000  1
  Hf  Hf5  1  0.268857  0.000425  0.750000  1
  Zr  Zr6  1  0.000000  0.269062  0.750000  1
  Zr  Zr7  1  0.260999  0.260515  0.250000  1
  Zr  Zr8  1  0.739001  0.999516  0.250000  1
  Zr  Zr9  1  0.000000  0.738568  0.250000  1
  Sn  Sn10  1  0.390467  0.390105  0.750000  1
  Sn  Sn11  1  0.609533  0.999639  0.750000  1
  Sn  Sn12  1  0.000000  0.611263  0.750000  1
  Ge  Ge13  1  0.000000  0.999011  0.992603  1
  Ge  Ge14  1  0.000000  0.999011  0.507397  1
  Sb  Sb15  1  0.602828  0.602902  0.250000  1
  Sb  Sb16  1  0.397172  0.000074  0.250000  1
  Sb  Sb17  1  0.000000  0.396930  0.250000  1
