# generated using pymatgen
data_La4Tb3ThTe12
_symmetry_space_group_name_H-M   'P 1'
_cell_length_a   4.48522500
_cell_length_b   11.94636752
_cell_length_c   12.26876015
_cell_angle_alpha   90.32711368
_cell_angle_beta   90.00000000
_cell_angle_gamma   90.00000000
_symmetry_Int_Tables_number   1
_chemical_formula_structural   La4Tb3ThTe12
_chemical_formula_sum   'La4 Tb3 Th1 Te12'
_cell_volume   657.37578682
_cell_formula_units_Z   1
loop_
 _symmetry_equiv_pos_site_id
 _symmetry_equiv_pos_as_xyz
  1  'x, y, z'
loop_
 _atom_site_type_symbol
 _atom_site_label
 _atom_site_symmetry_multiplicity
 _atom_site_fract_x
 _atom_site_fract_y
 _atom_site_fract_z
 _atom_site_occupancy
  La  La0  1  0.750000  0.506039  0.698523  1
  La  La1  1  0.750000  0.995094  0.196864  1
  La  La2  1  0.250000  0.500282  0.300423  1
  La  La3  1  0.250000  0.000146  0.805934  1
  Tb  Tb4  1  0.250000  0.312140  0.986072  1
  Tb  Tb5  1  0.750000  0.809928  0.513904  1
  Tb  Tb6  1  0.750000  0.688449  0.014224  1
  Th  Th7  1  0.250000  0.189072  0.486528  1
  Te  Te8  1  0.250000  0.630099  0.541905  1
  Te  Te9  1  0.250000  0.869060  0.042056  1
  Te  Te10  1  0.750000  0.373953  0.455444  1
  Te  Te11  1  0.750000  0.131039  0.958220  1
  Te  Te12  1  0.250000  0.296854  0.727982  1
  Te  Te13  1  0.250000  0.203238  0.228316  1
  Te  Te14  1  0.750000  0.703962  0.271202  1
  Te  Te15  1  0.750000  0.796250  0.770873  1
  Te  Te16  1  0.750000  0.053166  0.616027  1
  Te  Te17  1  0.750000  0.444937  0.112340  1
  Te  Te18  1  0.250000  0.941799  0.385881  1
  Te  Te19  1  0.250000  0.554493  0.887282  1
