# generated using pymatgen
data_SrEr5IO12
_symmetry_space_group_name_H-M   'P 1'
_cell_length_a   6.54775457
_cell_length_b   6.52438555
_cell_length_c   6.54077900
_cell_angle_alpha   98.24169270
_cell_angle_beta   98.94568205
_cell_angle_gamma   98.22418733
_symmetry_Int_Tables_number   1
_chemical_formula_structural   SrEr5IO12
_chemical_formula_sum   'Sr1 Er5 I1 O12'
_cell_volume   269.23808859
_cell_formula_units_Z   1
loop_
 _symmetry_equiv_pos_site_id
 _symmetry_equiv_pos_as_xyz
  1  'x, y, z'
loop_
 _atom_site_type_symbol
 _atom_site_label
 _atom_site_symmetry_multiplicity
 _atom_site_fract_x
 _atom_site_fract_y
 _atom_site_fract_z
 _atom_site_occupancy
  Sr  Sr0  1  0.314187  0.143897  0.607134  1
  Er  Er1  1  0.394333  0.678782  0.849811  1
  Er  Er2  1  0.849773  0.393307  0.671889  1
  Er  Er3  1  0.677082  0.850043  0.385602  1
  Er  Er4  1  0.612404  0.324965  0.145218  1
  Er  Er5  1  0.151347  0.608412  0.326089  1
  I  I6  1  0.994808  0.995884  0.002038  1
  O  O7  1  0.169175  0.454954  0.605277  1
  O  O8  1  0.624746  0.176869  0.424033  1
  O  O9  1  0.426724  0.591253  0.172496  1
  O  O10  1  0.822269  0.568328  0.394807  1
  O  O11  1  0.418825  0.805063  0.560057  1
  O  O12  1  0.586820  0.428411  0.832217  1
  O  O13  1  0.919767  0.032705  0.714978  1
  O  O14  1  0.968020  0.287742  0.080620  1
  O  O15  1  0.287571  0.070122  0.990869  1
  O  O16  1  0.052245  0.949677  0.287514  1
  O  O17  1  0.028698  0.709776  0.922960  1
  O  O18  1  0.701203  0.929812  0.026388  1
