# generated using pymatgen
data_Tb7Tm(InRu)2
_symmetry_space_group_name_H-M   'P 1'
_cell_length_a   9.63591847
_cell_length_b   9.65357464
_cell_length_c   9.66386500
_cell_angle_alpha   59.96480911
_cell_angle_beta   59.90404919
_cell_angle_gamma   59.88881742
_symmetry_Int_Tables_number   1
_chemical_formula_structural   Tb7Tm(InRu)2
_chemical_formula_sum   'Tb14 Tm2 In4 Ru4'
_cell_volume   634.48333268
_cell_formula_units_Z   2
loop_
 _symmetry_equiv_pos_site_id
 _symmetry_equiv_pos_as_xyz
  1  'x, y, z'
loop_
 _atom_site_type_symbol
 _atom_site_label
 _atom_site_symmetry_multiplicity
 _atom_site_fract_x
 _atom_site_fract_y
 _atom_site_fract_z
 _atom_site_occupancy
  Tb  Tb0  1  0.941329  0.558494  0.942684  1
  Tb  Tb1  1  0.306329  0.692277  0.308502  1
  Tb  Tb2  1  0.941328  0.558502  0.557487  1
  Tb  Tb3  1  0.308131  0.308892  0.691488  1
  Tb  Tb4  1  0.097324  0.097367  0.098518  1
  Tb  Tb5  1  0.556923  0.557148  0.942963  1
  Tb  Tb6  1  0.097332  0.097373  0.706782  1
  Tb  Tb7  1  0.691470  0.307639  0.692025  1
  Tb  Tb8  1  0.693228  0.693010  0.306879  1
  Tb  Tb9  1  0.691465  0.307646  0.308867  1
  Tb  Tb10  1  0.306325  0.692279  0.692895  1
  Tb  Tb11  1  0.558817  0.940628  0.558417  1
  Tb  Tb12  1  0.707708  0.098815  0.096744  1
  Tb  Tb13  1  0.558810  0.940629  0.942139  1
  Tm  Tm14  1  0.098183  0.708879  0.096473  1
  Tm  Tm15  1  0.941964  0.941660  0.558184  1
  In  In16  1  0.331550  0.332835  0.331508  1
  In  In17  1  0.002840  0.332523  0.332318  1
  In  In18  1  0.331329  0.002951  0.332860  1
  In  In19  1  0.331549  0.332834  0.004110  1
  Ru  Ru20  1  0.891072  0.887188  0.887542  1
  Ru  Ru21  1  0.891077  0.887184  0.334191  1
  Ru  Ru22  1  0.333222  0.888806  0.888988  1
  Ru  Ru23  1  0.890694  0.334439  0.887435  1
