# generated using pymatgen
data_Dy2Ho14MgIn3Ir4
_symmetry_space_group_name_H-M   'P 1'
_cell_length_a   9.64096331
_cell_length_b   9.64096275
_cell_length_c   9.63375404
_cell_angle_alpha   60.00300664
_cell_angle_beta   60.00300829
_cell_angle_gamma   60.06385957
_symmetry_Int_Tables_number   1
_chemical_formula_structural   Dy2Ho14MgIn3Ir4
_chemical_formula_sum   'Dy2 Ho14 Mg1 In3 Ir4'
_cell_volume   633.50538582
_cell_formula_units_Z   1
loop_
 _symmetry_equiv_pos_site_id
 _symmetry_equiv_pos_as_xyz
  1  'x, y, z'
loop_
 _atom_site_type_symbol
 _atom_site_label
 _atom_site_symmetry_multiplicity
 _atom_site_fract_x
 _atom_site_fract_y
 _atom_site_fract_z
 _atom_site_occupancy
  Dy  Dy0  1  0.437018  0.437018  0.062856  1
  Dy  Dy1  1  0.650828  0.650828  0.046440  1
  Ho  Ho2  1  0.188519  0.811532  0.189132  1
  Ho  Ho3  1  0.059705  0.440095  0.059897  1
  Ho  Ho4  1  0.190729  0.808550  0.809211  1
  Ho  Ho5  1  0.061888  0.437345  0.437782  1
  Ho  Ho6  1  0.811532  0.188519  0.189132  1
  Ho  Ho7  1  0.651750  0.651750  0.651133  1
  Ho  Ho8  1  0.808550  0.190729  0.809211  1
  Ho  Ho9  1  0.189200  0.189200  0.811555  1
  Ho  Ho10  1  0.045059  0.652013  0.650594  1
  Ho  Ho11  1  0.440095  0.059705  0.059897  1
  Ho  Ho12  1  0.060089  0.060089  0.440245  1
  Ho  Ho13  1  0.652013  0.045059  0.650594  1
  Ho  Ho14  1  0.808980  0.808980  0.190957  1
  Ho  Ho15  1  0.437345  0.061888  0.437782  1
  Mg  Mg16  1  0.422426  0.422426  0.423606  1
  In  In17  1  0.417222  0.417222  0.748678  1
  In  In18  1  0.417127  0.749047  0.417275  1
  In  In19  1  0.749047  0.417127  0.417275  1
  Ir  Ir20  1  0.423475  0.859841  0.857970  1
  Ir  Ir21  1  0.858615  0.858615  0.857363  1
  Ir  Ir22  1  0.859841  0.423475  0.857970  1
  Ir  Ir23  1  0.858948  0.858948  0.423443  1
