# generated using pymatgen
data_Y6ScP12Rh17
_symmetry_space_group_name_H-M   'P 1'
_cell_length_a   3.93787600
_cell_length_b   11.23379600
_cell_length_c   12.84511500
_cell_angle_alpha   90.00000000
_cell_angle_beta   90.00000000
_cell_angle_gamma   90.00000000
_symmetry_Int_Tables_number   1
_chemical_formula_structural   Y6ScP12Rh17
_chemical_formula_sum   'Y6 Sc1 P12 Rh17'
_cell_volume   568.23315001
_cell_formula_units_Z   1
loop_
 _symmetry_equiv_pos_site_id
 _symmetry_equiv_pos_as_xyz
  1  'x, y, z'
loop_
 _atom_site_type_symbol
 _atom_site_label
 _atom_site_symmetry_multiplicity
 _atom_site_fract_x
 _atom_site_fract_y
 _atom_site_fract_z
 _atom_site_occupancy
  Y  Y0  1  0.000000  0.500000  0.521045  1
  Y  Y1  1  0.500000  0.000000  0.478039  1
  Y  Y2  1  0.500000  0.816618  0.205860  1
  Y  Y3  1  0.500000  0.183382  0.205860  1
  Y  Y4  1  0.000000  0.682704  0.796999  1
  Y  Y5  1  0.000000  0.317296  0.796999  1
  Sc  Sc6  1  0.500000  0.500000  0.155835  1
  P  P7  1  0.500000  0.500000  0.878267  1
  P  P8  1  0.000000  0.000000  0.121367  1
  P  P9  1  0.500000  0.500000  0.358254  1
  P  P10  1  0.000000  0.000000  0.648449  1
  P  P11  1  0.500000  0.314635  0.619158  1
  P  P12  1  0.500000  0.685365  0.619158  1
  P  P13  1  0.000000  0.186266  0.383408  1
  P  P14  1  0.000000  0.813734  0.383408  1
  P  P15  1  0.500000  0.849791  0.889416  1
  P  P16  1  0.500000  0.150209  0.889416  1
  P  P17  1  0.000000  0.660044  0.106499  1
  P  P18  1  0.000000  0.339956  0.106499  1
  Rh  Rh19  1  0.000000  0.000000  0.829508  1
  Rh  Rh20  1  0.500000  0.500000  0.701029  1
  Rh  Rh21  1  0.000000  0.000000  0.299173  1
  Rh  Rh22  1  0.000000  0.500000  0.983649  1
  Rh  Rh23  1  0.500000  0.000000  0.020946  1
  Rh  Rh24  1  0.500000  0.329686  0.989345  1
  Rh  Rh25  1  0.500000  0.670314  0.989345  1
  Rh  Rh26  1  0.000000  0.163934  0.005578  1
  Rh  Rh27  1  0.000000  0.836066  0.005578  1
  Rh  Rh28  1  0.500000  0.289982  0.434000  1
  Rh  Rh29  1  0.500000  0.710018  0.434000  1
  Rh  Rh30  1  0.000000  0.203822  0.571190  1
  Rh  Rh31  1  0.000000  0.796178  0.571190  1
  Rh  Rh32  1  0.500000  0.874562  0.709633  1
  Rh  Rh33  1  0.500000  0.125438  0.709633  1
  Rh  Rh34  1  0.000000  0.627041  0.291134  1
  Rh  Rh35  1  0.000000  0.372959  0.291134  1
