# generated using pymatgen
data_YLuCu2(AuO4)2
_symmetry_space_group_name_H-M   'P 1'
_cell_length_a   6.45341899
_cell_length_b   6.45341900
_cell_length_c   6.41443074
_cell_angle_alpha   126.11099138
_cell_angle_beta   126.03235142
_cell_angle_gamma   80.18434169
_symmetry_Int_Tables_number   1
_chemical_formula_structural   YLuCu2(AuO4)2
_chemical_formula_sum   'Y1 Lu1 Cu2 Au2 O8'
_cell_volume   168.05951030
_cell_formula_units_Z   1
loop_
 _symmetry_equiv_pos_site_id
 _symmetry_equiv_pos_as_xyz
  1  'x, y, z'
loop_
 _atom_site_type_symbol
 _atom_site_label
 _atom_site_symmetry_multiplicity
 _atom_site_fract_x
 _atom_site_fract_y
 _atom_site_fract_z
 _atom_site_occupancy
  Y  Y0  1  0.750067  0.250067  0.500000  1
  Lu  Lu1  1  0.999472  0.999472  0.000000  1
  Cu  Cu2  1  0.876157  0.624181  0.250424  1
  Cu  Cu3  1  0.373757  0.625734  0.749576  1
  Au  Au4  1  0.372742  0.124219  0.746821  1
  Au  Au5  1  0.377398  0.625921  0.253179  1
  O  O6  1  0.345911  0.991354  0.953761  1
  O  O7  1  0.037593  0.392150  0.046239  1
  O  O8  1  0.722274  0.856914  0.466124  1
  O  O9  1  0.390790  0.256150  0.533876  1
  O  O10  1  0.135958  0.608177  0.846382  1
  O  O11  1  0.761794  0.289575  0.153618  1
  O  O12  1  0.618117  0.654449  0.666481  1
  O  O13  1  0.987969  0.951637  0.333519  1
