# generated using pymatgen
data_TmGaPt3Au
_symmetry_space_group_name_H-M   'P 1'
_cell_length_a   5.15013987
_cell_length_b   5.15013892
_cell_length_c   5.15014100
_cell_angle_alpha   64.49495809
_cell_angle_beta   64.49497543
_cell_angle_gamma   64.49497017
_symmetry_Int_Tables_number   1
_chemical_formula_structural   TmGaPt3Au
_chemical_formula_sum   'Tm1 Ga1 Pt3 Au1'
_cell_volume   106.11485167
_cell_formula_units_Z   1
loop_
 _symmetry_equiv_pos_site_id
 _symmetry_equiv_pos_as_xyz
  1  'x, y, z'
loop_
 _atom_site_type_symbol
 _atom_site_label
 _atom_site_symmetry_multiplicity
 _atom_site_fract_x
 _atom_site_fract_y
 _atom_site_fract_z
 _atom_site_occupancy
  Tm  Tm0  1  0.245581  0.245581  0.245581  1
  Ga  Ga1  1  0.626984  0.626984  0.626984  1
  Pt  Pt2  1  0.626792  0.626792  0.124618  1
  Pt  Pt3  1  0.626792  0.124618  0.626792  1
  Pt  Pt4  1  0.124618  0.626792  0.626792  1
  Au  Au5  1  0.999233  0.999233  0.999233  1
