# generated using pymatgen
data_NdSmUCo2Si7
_symmetry_space_group_name_H-M   'P 1'
_cell_length_a   4.04091765
_cell_length_b   4.10200800
_cell_length_c   12.38426000
_cell_angle_alpha   90.00000000
_cell_angle_beta   99.38962028
_cell_angle_gamma   90.00000000
_symmetry_Int_Tables_number   1
_chemical_formula_structural   NdSmUCo2Si7
_chemical_formula_sum   'Nd1 Sm1 U1 Co2 Si7'
_cell_volume   202.52956918
_cell_formula_units_Z   1
loop_
 _symmetry_equiv_pos_site_id
 _symmetry_equiv_pos_as_xyz
  1  'x, y, z'
loop_
 _atom_site_type_symbol
 _atom_site_label
 _atom_site_symmetry_multiplicity
 _atom_site_fract_x
 _atom_site_fract_y
 _atom_site_fract_z
 _atom_site_occupancy
  Nd  Nd0  1  0.683076  0.000000  0.366151  1
  Sm  Sm1  1  0.317293  0.000000  0.634588  1
  U  U2  1  0.999943  0.500000  0.999886  1
  Co  Co3  1  0.124649  0.500000  0.249297  1
  Co  Co4  1  0.874864  0.500000  0.749729  1
  Si  Si5  1  0.500019  0.000000  0.000039  1
  Si  Si6  1  0.414939  0.500000  0.829877  1
  Si  Si7  1  0.584694  0.500000  0.169390  1
  Si  Si8  1  0.084880  0.000000  0.169759  1
  Si  Si9  1  0.914709  0.000000  0.829419  1
  Si  Si10  1  0.221300  0.500000  0.442599  1
  Si  Si11  1  0.779633  0.500000  0.559267  1
