# generated using pymatgen
data_KNbP4O13
_symmetry_space_group_name_H-M   'P 1'
_cell_length_a   8.15296625
_cell_length_b   10.55302359
_cell_length_c   15.76397800
_cell_angle_alpha   103.53727102
_cell_angle_beta   93.59621882
_cell_angle_gamma   98.71142175
_symmetry_Int_Tables_number   1
_chemical_formula_structural   KNbP4O13
_chemical_formula_sum   'K4 Nb4 P16 O52'
_cell_volume   1296.59523498
_cell_formula_units_Z   4
loop_
 _symmetry_equiv_pos_site_id
 _symmetry_equiv_pos_as_xyz
  1  'x, y, z'
loop_
 _atom_site_type_symbol
 _atom_site_label
 _atom_site_symmetry_multiplicity
 _atom_site_fract_x
 _atom_site_fract_y
 _atom_site_fract_z
 _atom_site_occupancy
  K  K0  1  0.482905  0.334983  0.514839  1
  K  K1  1  0.664042  0.879342  0.511476  1
  K  K2  1  0.405698  0.387339  0.981045  1
  K  K3  1  0.396929  0.863534  0.981304  1
  Nb  Nb4  1  0.044606  0.399006  0.243010  1
  Nb  Nb5  1  0.051171  0.902784  0.242831  1
  Nb  Nb6  1  0.944245  0.590810  0.755203  1
  Nb  Nb7  1  0.949939  0.093140  0.767272  1
  P  P8  1  0.588117  0.681731  0.700558  1
  P  P9  1  0.110472  0.833465  0.655974  1
  P  P10  1  0.333028  0.539557  0.787166  1
  P  P11  1  0.660740  0.952145  0.211620  1
  P  P12  1  0.211667  0.638250  0.138283  1
  P  P13  1  0.877815  0.160516  0.346139  1
  P  P14  1  0.660233  0.457852  0.212034  1
  P  P15  1  0.591332  0.172296  0.706670  1
  P  P16  1  0.785303  0.851254  0.867441  1
  P  P17  1  0.786856  0.357929  0.867799  1
  P  P18  1  0.191713  0.134894  0.125723  1
  P  P19  1  0.335448  0.034393  0.793514  1
  P  P20  1  0.401659  0.299447  0.283471  1
  P  P21  1  0.107980  0.326380  0.654951  1
  P  P22  1  0.408818  0.815158  0.301585  1
  P  P23  1  0.886839  0.663927  0.348474  1
  O  O24  1  0.133444  0.510172  0.164024  1
  O  O25  1  0.578898  0.732787  0.621793  1
  O  O26  1  0.628608  0.793034  0.790594  1
  O  O27  1  0.910711  0.752596  0.842551  1
  O  O28  1  0.863727  0.479666  0.834835  1
  O  O29  1  0.984957  0.429153  0.671674  1
  O  O30  1  0.537019  0.458716  0.140506  1
  O  O31  1  0.009139  0.561468  0.328109  1
  O  O32  1  0.587225  0.217554  0.625437  1
  O  O33  1  0.867412  0.982222  0.845746  1
  O  O34  1  0.366224  0.208125  0.185610  1
  O  O35  1  0.814540  0.884466  0.189837  1
  O  O36  1  0.410972  0.096796  0.716767  1
  O  O37  1  0.455100  0.546230  0.861462  1
  O  O38  1  0.254760  0.887832  0.741214  1
  O  O39  1  0.187057  0.110166  0.815686  1
  O  O40  1  0.532127  0.943470  0.140217  1
  O  O41  1  0.087468  0.738515  0.157586  1
  O  O42  1  0.732689  0.603039  0.270278  1
  O  O43  1  0.714607  0.075365  0.713348  1
  O  O44  1  0.724905  0.865648  0.954322  1
  O  O45  1  0.966611  0.790850  0.322520  1
  O  O46  1  0.258548  0.390671  0.735869  1
  O  O47  1  0.912505  0.257479  0.849746  1
  O  O48  1  0.025806  0.201978  0.682599  1
  O  O49  1  0.007820  0.063391  0.326078  1
  O  O50  1  0.711051  0.582373  0.703253  1
  O  O51  1  0.825132  0.685335  0.435619  1
  O  O52  1  0.404266  0.226226  0.352095  1
  O  O53  1  0.581884  0.384177  0.283701  1
  O  O54  1  0.408733  0.601934  0.710225  1
  O  O55  1  0.812699  0.389551  0.188956  1
  O  O56  1  0.267919  0.616442  0.049412  1
  O  O57  1  0.134298  0.011928  0.162001  1
  O  O58  1  0.456608  0.037855  0.867311  1
  O  O59  1  0.277537  0.399452  0.291087  1
  O  O60  1  0.731140  0.385759  0.955938  1
  O  O61  1  0.176603  0.306306  0.569684  1
  O  O62  1  0.068867  0.234250  0.154616  1
  O  O63  1  0.368697  0.700303  0.212966  1
  O  O64  1  0.421236  0.768914  0.382299  1
  O  O65  1  0.627220  0.287929  0.794785  1
  O  O66  1  0.028396  0.701066  0.675075  1
  O  O67  1  0.179241  0.828506  0.571984  1
  O  O68  1  0.734202  0.101667  0.262223  1
  O  O69  1  0.589437  0.891049  0.290071  1
  O  O70  1  0.807435  0.169381  0.430658  1
  O  O71  1  0.222368  0.105382  0.032429  1
  O  O72  1  0.282941  0.910664  0.295185  1
  O  O73  1  0.181539  0.610483  0.808721  1
  O  O74  1  0.957326  0.292056  0.325177  1
  O  O75  1  0.982012  0.931588  0.680184  1
