# generated using pymatgen
data_Tb3Al3CuNi2
_symmetry_space_group_name_H-M   'P 1'
_cell_length_a   7.04712700
_cell_length_b   7.04712675
_cell_length_c   3.91273900
_cell_angle_alpha   90.00000000
_cell_angle_beta   90.00000000
_cell_angle_gamma   119.99999650
_symmetry_Int_Tables_number   1
_chemical_formula_structural   Tb3Al3CuNi2
_chemical_formula_sum   'Tb3 Al3 Cu1 Ni2'
_cell_volume   168.28124131
_cell_formula_units_Z   1
loop_
 _symmetry_equiv_pos_site_id
 _symmetry_equiv_pos_as_xyz
  1  'x, y, z'
loop_
 _atom_site_type_symbol
 _atom_site_label
 _atom_site_symmetry_multiplicity
 _atom_site_fract_x
 _atom_site_fract_y
 _atom_site_fract_z
 _atom_site_occupancy
  Tb  Tb0  1  0.419683  0.411091  0.500000  1
  Tb  Tb1  1  0.588909  0.008592  0.500000  1
  Tb  Tb2  1  0.991408  0.580317  0.500000  1
  Al  Al3  1  0.768608  0.765062  0.000000  1
  Al  Al4  1  0.234938  0.003546  0.000000  1
  Al  Al5  1  0.996454  0.231392  0.000000  1
  Cu  Cu6  1  0.333333  0.666667  0.000000  1
  Ni  Ni7  1  0.666667  0.333333  0.000000  1
  Ni  Ni8  1  0.000000  0.000000  0.500000  1
