# generated using pymatgen
data_Rb6LuTe4Cl
_symmetry_space_group_name_H-M   'P 1'
_cell_length_a   11.94386200
_cell_length_b   11.94386208
_cell_length_c   8.64332600
_cell_angle_alpha   90.00000000
_cell_angle_beta   90.00000000
_cell_angle_gamma   119.99999979
_symmetry_Int_Tables_number   1
_chemical_formula_structural   Rb6LuTe4Cl
_chemical_formula_sum   'Rb12 Lu2 Te8 Cl2'
_cell_volume   1067.82745481
_cell_formula_units_Z   2
loop_
 _symmetry_equiv_pos_site_id
 _symmetry_equiv_pos_as_xyz
  1  'x, y, z'
loop_
 _atom_site_type_symbol
 _atom_site_label
 _atom_site_symmetry_multiplicity
 _atom_site_fract_x
 _atom_site_fract_y
 _atom_site_fract_z
 _atom_site_occupancy
  Rb  Rb0  1  0.121735  0.878265  0.512185  1
  Rb  Rb1  1  0.756529  0.878265  0.512185  1
  Rb  Rb2  1  0.946207  0.473103  0.318193  1
  Rb  Rb3  1  0.526897  0.473103  0.318193  1
  Rb  Rb4  1  0.878265  0.756529  0.012185  1
  Rb  Rb5  1  0.243471  0.121735  0.012185  1
  Rb  Rb6  1  0.526897  0.053793  0.318193  1
  Rb  Rb7  1  0.121735  0.243471  0.512185  1
  Rb  Rb8  1  0.878265  0.121735  0.012185  1
  Rb  Rb9  1  0.053793  0.526897  0.818193  1
  Rb  Rb10  1  0.473103  0.946207  0.818193  1
  Rb  Rb11  1  0.473103  0.526897  0.818193  1
  Lu  Lu12  1  0.666667  0.333333  0.712907  1
  Lu  Lu13  1  0.333333  0.666667  0.212907  1
  Te  Te14  1  0.402056  0.201029  0.605566  1
  Te  Te15  1  0.597944  0.798971  0.105566  1
  Te  Te16  1  0.666667  0.333333  0.046536  1
  Te  Te17  1  0.798971  0.597944  0.605566  1
  Te  Te18  1  0.201029  0.402056  0.105566  1
  Te  Te19  1  0.333333  0.666667  0.546536  1
  Te  Te20  1  0.201029  0.798971  0.105566  1
  Te  Te21  1  0.798971  0.201029  0.605566  1
  Cl  Cl22  1  0.000000  0.000000  0.273325  1
  Cl  Cl23  1  0.000000  0.000000  0.773325  1
