# generated using pymatgen
data_Yb6WSeO12
_symmetry_space_group_name_H-M   'P 1'
_cell_length_a   6.45540366
_cell_length_b   6.45540272
_cell_length_c   6.45540247
_cell_angle_alpha   92.16335005
_cell_angle_beta   92.16335537
_cell_angle_gamma   92.16335328
_symmetry_Int_Tables_number   1
_chemical_formula_structural   Yb6WSeO12
_chemical_formula_sum   'Yb6 W1 Se1 O12'
_cell_volume   268.42090578
_cell_formula_units_Z   1
loop_
 _symmetry_equiv_pos_site_id
 _symmetry_equiv_pos_as_xyz
  1  'x, y, z'
loop_
 _atom_site_type_symbol
 _atom_site_label
 _atom_site_symmetry_multiplicity
 _atom_site_fract_x
 _atom_site_fract_y
 _atom_site_fract_z
 _atom_site_occupancy
  Yb  Yb0  1  0.934087  0.432294  0.741466  1
  Yb  Yb1  1  0.741466  0.934087  0.432294  1
  Yb  Yb2  1  0.567706  0.258534  0.065913  1
  Yb  Yb3  1  0.432294  0.741466  0.934087  1
  Yb  Yb4  1  0.258534  0.065913  0.567706  1
  Yb  Yb5  1  0.065913  0.567706  0.258534  1
  W  W6  1  0.000000  0.000000  0.000000  1
  Se  Se7  1  0.500000  0.500000  0.500000  1
  O  O8  1  0.936086  0.288990  0.067478  1
  O  O9  1  0.932522  0.063914  0.711010  1
  O  O10  1  0.772740  0.575691  0.453329  1
  O  O11  1  0.711010  0.932522  0.063914  1
  O  O12  1  0.575691  0.453329  0.772740  1
  O  O13  1  0.546671  0.227260  0.424309  1
  O  O14  1  0.453329  0.772740  0.575691  1
  O  O15  1  0.424309  0.546671  0.227260  1
  O  O16  1  0.288990  0.067478  0.936086  1
  O  O17  1  0.227260  0.424309  0.546671  1
  O  O18  1  0.067478  0.936086  0.288990  1
  O  O19  1  0.063914  0.711010  0.932522  1
