# generated using pymatgen
data_Tb4Y3Ho(CdPd)2
_symmetry_space_group_name_H-M   'P 1'
_cell_length_a   9.73244488
_cell_length_b   9.73244568
_cell_length_c   9.72813000
_cell_angle_alpha   60.01466753
_cell_angle_beta   60.01466481
_cell_angle_gamma   59.97066643
_symmetry_Int_Tables_number   1
_chemical_formula_structural   Tb4Y3Ho(CdPd)2
_chemical_formula_sum   'Tb8 Y6 Ho2 Cd4 Pd4'
_cell_volume   651.56558040
_cell_formula_units_Z   2
loop_
 _symmetry_equiv_pos_site_id
 _symmetry_equiv_pos_as_xyz
  1  'x, y, z'
loop_
 _atom_site_type_symbol
 _atom_site_label
 _atom_site_symmetry_multiplicity
 _atom_site_fract_x
 _atom_site_fract_y
 _atom_site_fract_z
 _atom_site_occupancy
  Tb  Tb0  1  0.353783  0.353783  0.353934  1
  Tb  Tb1  1  0.353783  0.353783  0.938499  1
  Tb  Tb2  1  0.353934  0.938499  0.353783  1
  Tb  Tb3  1  0.938499  0.353934  0.353783  1
  Tb  Tb4  1  0.810818  0.189182  0.189182  1
  Tb  Tb5  1  0.189182  0.810818  0.810818  1
  Tb  Tb6  1  0.189182  0.810818  0.189182  1
  Tb  Tb7  1  0.810818  0.189182  0.810818  1
  Y  Y8  1  0.934587  0.565413  0.565413  1
  Y  Y9  1  0.565413  0.934587  0.934587  1
  Y  Y10  1  0.565413  0.934587  0.565413  1
  Y  Y11  1  0.934587  0.565413  0.934587  1
  Y  Y12  1  0.565441  0.565441  0.934559  1
  Y  Y13  1  0.934559  0.934559  0.565441  1
  Ho  Ho14  1  0.189342  0.189342  0.810658  1
  Ho  Ho15  1  0.810658  0.810658  0.189342  1
  Cd  Cd16  1  0.582114  0.582114  0.581986  1
  Cd  Cd17  1  0.582114  0.582114  0.253789  1
  Cd  Cd18  1  0.581986  0.253789  0.582114  1
  Cd  Cd19  1  0.253789  0.581986  0.582114  1
  Pd  Pd20  1  0.144655  0.144655  0.144493  1
  Pd  Pd21  1  0.144655  0.144655  0.566196  1
  Pd  Pd22  1  0.144493  0.566196  0.144655  1
  Pd  Pd23  1  0.566196  0.144493  0.144655  1
