# generated using pymatgen
data_Ho12ZnCo2Si2Sn
_symmetry_space_group_name_H-M   'P 1'
_cell_length_a   8.38863169
_cell_length_b   8.38863263
_cell_length_c   8.38863254
_cell_angle_alpha   113.62181205
_cell_angle_beta   110.68968097
_cell_angle_gamma   104.24068912
_symmetry_Int_Tables_number   1
_chemical_formula_structural   Ho12ZnCo2Si2Sn
_chemical_formula_sum   'Ho12 Zn1 Co2 Si2 Sn1'
_cell_volume   451.28153818
_cell_formula_units_Z   1
loop_
 _symmetry_equiv_pos_site_id
 _symmetry_equiv_pos_as_xyz
  1  'x, y, z'
loop_
 _atom_site_type_symbol
 _atom_site_label
 _atom_site_symmetry_multiplicity
 _atom_site_fract_x
 _atom_site_fract_y
 _atom_site_fract_z
 _atom_site_occupancy
  Ho  Ho0  1  0.431764  0.236136  0.195628  1
  Ho  Ho1  1  0.568236  0.763864  0.804372  1
  Ho  Ho2  1  0.040506  0.236136  0.804372  1
  Ho  Ho3  1  0.959494  0.763864  0.195628  1
  Ho  Ho4  1  0.183491  0.284337  0.467826  1
  Ho  Ho5  1  0.816509  0.715663  0.532174  1
  Ho  Ho6  1  0.183491  0.715663  0.899155  1
  Ho  Ho7  1  0.816509  0.284337  0.100845  1
  Ho  Ho8  1  0.305915  0.618316  0.312401  1
  Ho  Ho9  1  0.694085  0.381684  0.687599  1
  Ho  Ho10  1  0.305915  0.993514  0.687599  1
  Ho  Ho11  1  0.694085  0.006486  0.312401  1
  Zn  Zn12  1  0.000000  0.000000  0.000000  1
  Co  Co13  1  0.108212  0.608212  0.500000  1
  Co  Co14  1  0.891788  0.391788  0.500000  1
  Si  Si15  1  0.357951  0.000000  0.357951  1
  Si  Si16  1  0.642049  0.000000  0.642049  1
  Sn  Sn17  1  0.500000  0.500000  0.000000  1
