# generated using pymatgen
data_Nb10Ga3Ge3N
_symmetry_space_group_name_H-M   'P 1'
_cell_length_a   7.73029100
_cell_length_b   7.73028992
_cell_length_c   5.34706600
_cell_angle_alpha   90.00000000
_cell_angle_beta   90.00000000
_cell_angle_gamma   119.99999180
_symmetry_Int_Tables_number   1
_chemical_formula_structural   Nb10Ga3Ge3N
_chemical_formula_sum   'Nb10 Ga3 Ge3 N1'
_cell_volume   276.71827211
_cell_formula_units_Z   1
loop_
 _symmetry_equiv_pos_site_id
 _symmetry_equiv_pos_as_xyz
  1  'x, y, z'
loop_
 _atom_site_type_symbol
 _atom_site_label
 _atom_site_symmetry_multiplicity
 _atom_site_fract_x
 _atom_site_fract_y
 _atom_site_fract_z
 _atom_site_occupancy
  Nb  Nb0  1  0.000000  0.763075  0.259914  1
  Nb  Nb1  1  0.236925  0.236925  0.259914  1
  Nb  Nb2  1  0.763075  0.000000  0.259914  1
  Nb  Nb3  1  0.000000  0.235558  0.740579  1
  Nb  Nb4  1  0.764442  0.764442  0.740579  1
  Nb  Nb5  1  0.235558  0.000000  0.740579  1
  Nb  Nb6  1  0.333333  0.666667  0.000104  1
  Nb  Nb7  1  0.666667  0.333333  0.000104  1
  Nb  Nb8  1  0.666667  0.333333  0.498406  1
  Nb  Nb9  1  0.333333  0.666667  0.498406  1
  Ga  Ga10  1  0.000000  0.399770  0.244183  1
  Ga  Ga11  1  0.600230  0.600230  0.244183  1
  Ga  Ga12  1  0.399770  0.000000  0.244183  1
  Ge  Ge13  1  0.000000  0.598946  0.756774  1
  Ge  Ge14  1  0.401054  0.401054  0.756774  1
  Ge  Ge15  1  0.598946  0.000000  0.756774  1
  N  N16  1  0.000000  0.000000  0.498625  1
