# generated using pymatgen
data_Sr10Sn5Pb
_symmetry_space_group_name_H-M   'P 1'
_cell_length_a   10.25780254
_cell_length_b   10.25780292
_cell_length_c   10.25780252
_cell_angle_alpha   130.15445086
_cell_angle_beta   130.15445280
_cell_angle_gamma   73.15997055
_symmetry_Int_Tables_number   1
_chemical_formula_structural   Sr10Sn5Pb
_chemical_formula_sum   'Sr10 Sn5 Pb1'
_cell_volume   615.65005414
_cell_formula_units_Z   1
loop_
 _symmetry_equiv_pos_site_id
 _symmetry_equiv_pos_as_xyz
  1  'x, y, z'
loop_
 _atom_site_type_symbol
 _atom_site_label
 _atom_site_symmetry_multiplicity
 _atom_site_fract_x
 _atom_site_fract_y
 _atom_site_fract_z
 _atom_site_occupancy
  Sr  Sr0  1  0.500188  0.500188  0.000000  1
  Sr  Sr1  1  0.999812  0.999812  0.000000  1
  Sr  Sr2  1  0.534735  0.034299  0.851910  1
  Sr  Sr3  1  0.182390  0.682826  0.148090  1
  Sr  Sr4  1  0.034299  0.182390  0.499564  1
  Sr  Sr5  1  0.682826  0.534735  0.500436  1
  Sr  Sr6  1  0.465701  0.965265  0.148090  1
  Sr  Sr7  1  0.817174  0.317610  0.851910  1
  Sr  Sr8  1  0.965265  0.817174  0.499564  1
  Sr  Sr9  1  0.317610  0.465701  0.500436  1
  Sn  Sn10  1  0.750000  0.750000  0.000000  1
  Sn  Sn11  1  0.879270  0.379270  0.258540  1
  Sn  Sn12  1  0.120730  0.620730  0.741460  1
  Sn  Sn13  1  0.379270  0.120730  0.500000  1
  Sn  Sn14  1  0.620730  0.879270  0.500000  1
  Pb  Pb15  1  0.250000  0.250000  0.000000  1
