# generated using pymatgen
data_Er3Tm7(Ga2Bi)2
_symmetry_space_group_name_H-M   'P 1'
_cell_length_a   8.63497827
_cell_length_b   8.66550213
_cell_length_c   6.49158900
_cell_angle_alpha   90.00000000
_cell_angle_beta   90.00000000
_cell_angle_gamma   120.13764656
_symmetry_Int_Tables_number   1
_chemical_formula_structural   Er3Tm7(Ga2Bi)2
_chemical_formula_sum   'Er3 Tm7 Ga4 Bi2'
_cell_volume   420.08055892
_cell_formula_units_Z   1
loop_
 _symmetry_equiv_pos_site_id
 _symmetry_equiv_pos_as_xyz
  1  'x, y, z'
loop_
 _atom_site_type_symbol
 _atom_site_label
 _atom_site_symmetry_multiplicity
 _atom_site_fract_x
 _atom_site_fract_y
 _atom_site_fract_z
 _atom_site_occupancy
  Er  Er0  1  0.768562  0.769343  0.250000  1
  Er  Er1  1  0.233309  0.250727  0.750000  1
  Er  Er2  1  0.233511  0.982684  0.250000  1
  Tm  Tm3  1  0.982177  0.748575  0.750000  1
  Tm  Tm4  1  0.982204  0.233641  0.250000  1
  Tm  Tm5  1  0.768628  0.999350  0.750000  1
  Tm  Tm6  1  0.329744  0.664874  0.500039  1
  Tm  Tm7  1  0.692543  0.346199  0.999971  1
  Tm  Tm8  1  0.692543  0.346199  0.500029  1
  Tm  Tm9  1  0.329744  0.664874  0.999961  1
  Ga  Ga10  1  0.001783  0.600922  0.250000  1
  Ga  Ga11  1  0.001632  0.400531  0.750000  1
  Ga  Ga12  1  0.596618  0.601571  0.750000  1
  Ga  Ga13  1  0.596465  0.995265  0.250000  1
  Bi  Bi14  1  0.395311  0.006096  0.750000  1
  Bi  Bi15  1  0.395226  0.389151  0.250000  1
