# generated using pymatgen
data_Sm8Y11Si16Ag
_symmetry_space_group_name_H-M   'P 1'
_cell_length_a   7.39939971
_cell_length_b   7.75833208
_cell_length_c   14.76893000
_cell_angle_alpha   90.00000000
_cell_angle_beta   90.00000000
_cell_angle_gamma   89.99027358
_symmetry_Int_Tables_number   1
_chemical_formula_structural   Sm8Y11Si16Ag
_chemical_formula_sum   'Sm8 Y11 Si16 Ag1'
_cell_volume   847.83995341
_cell_formula_units_Z   1
loop_
 _symmetry_equiv_pos_site_id
 _symmetry_equiv_pos_as_xyz
  1  'x, y, z'
loop_
 _atom_site_type_symbol
 _atom_site_label
 _atom_site_symmetry_multiplicity
 _atom_site_fract_x
 _atom_site_fract_y
 _atom_site_fract_z
 _atom_site_occupancy
  Sm  Sm0  1  0.020407  0.179669  0.096561  1
  Sm  Sm1  1  0.981123  0.807259  0.898075  1
  Sm  Sm2  1  0.471079  0.676712  0.898677  1
  Sm  Sm3  1  0.981123  0.807259  0.601925  1
  Sm  Sm4  1  0.519428  0.320315  0.095822  1
  Sm  Sm5  1  0.020407  0.179669  0.403439  1
  Sm  Sm6  1  0.519428  0.320315  0.404178  1
  Sm  Sm7  1  0.471079  0.676712  0.601323  1
  Y  Y8  1  0.842522  0.486699  0.250000  1
  Y  Y9  1  0.346759  0.014259  0.250000  1
  Y  Y10  1  0.650155  0.990077  0.750000  1
  Y  Y11  1  0.316437  0.186359  0.626668  1
  Y  Y12  1  0.677916  0.821903  0.378395  1
  Y  Y13  1  0.176371  0.683668  0.376395  1
  Y  Y14  1  0.677916  0.821903  0.121605  1
  Y  Y15  1  0.834831  0.326153  0.626860  1
  Y  Y16  1  0.316437  0.186359  0.873332  1
  Y  Y17  1  0.834831  0.326153  0.873140  1
  Y  Y18  1  0.176371  0.683668  0.123605  1
  Si  Si19  1  0.022563  0.083625  0.750000  1
  Si  Si20  1  0.971010  0.897048  0.250000  1
  Si  Si21  1  0.470199  0.609884  0.250000  1
  Si  Si22  1  0.531587  0.396343  0.750000  1
  Si  Si23  1  0.272781  0.877128  0.750000  1
  Si  Si24  1  0.727682  0.123837  0.250000  1
  Si  Si25  1  0.227192  0.378127  0.250000  1
  Si  Si26  1  0.763882  0.625538  0.750000  1
  Si  Si27  1  0.154455  0.463960  0.530984  1
  Si  Si28  1  0.852792  0.529272  0.461333  1
  Si  Si29  1  0.352416  0.971026  0.464382  1
  Si  Si30  1  0.852792  0.529272  0.038667  1
  Si  Si31  1  0.649464  0.029750  0.541785  1
  Si  Si32  1  0.154455  0.463960  0.969016  1
  Si  Si33  1  0.649464  0.029750  0.958215  1
  Si  Si34  1  0.352416  0.971026  0.035618  1
  Ag  Ag35  1  0.160228  0.525341  0.750000  1
