# generated using pymatgen
data_CsKPbO3
_symmetry_space_group_name_H-M   'P 1'
_cell_length_a   7.27530861
_cell_length_b   7.27530879
_cell_length_c   6.21686500
_cell_angle_alpha   90.00000000
_cell_angle_beta   90.00000000
_cell_angle_gamma   125.62669024
_symmetry_Int_Tables_number   1
_chemical_formula_structural   CsKPbO3
_chemical_formula_sum   'Cs2 K2 Pb2 O6'
_cell_volume   267.46917956
_cell_formula_units_Z   2
loop_
 _symmetry_equiv_pos_site_id
 _symmetry_equiv_pos_as_xyz
  1  'x, y, z'
loop_
 _atom_site_type_symbol
 _atom_site_label
 _atom_site_symmetry_multiplicity
 _atom_site_fract_x
 _atom_site_fract_y
 _atom_site_fract_z
 _atom_site_occupancy
  Cs  Cs0  1  0.759136  0.240865  0.250000  1
  Cs  Cs1  1  0.240865  0.759136  0.750001  1
  K  K2  1  0.084551  0.915450  0.250000  1
  K  K3  1  0.915450  0.084551  0.750001  1
  Pb  Pb4  1  0.446415  0.553586  0.250000  1
  Pb  Pb5  1  0.553586  0.446415  0.750001  1
  O  O6  1  0.286041  0.286041  0.000000  1
  O  O7  1  0.713960  0.713960  0.000000  1
  O  O8  1  0.286310  0.713691  0.250000  1
  O  O9  1  0.286041  0.286041  0.499999  1
  O  O10  1  0.713960  0.713960  0.499999  1
  O  O11  1  0.713691  0.286310  0.750001  1
