# generated using pymatgen
data_Tb2YFeCo3
_symmetry_space_group_name_H-M   'P 1'
_cell_length_a   5.52411181
_cell_length_b   5.52411328
_cell_length_c   12.78875334
_cell_angle_alpha   90.09767425
_cell_angle_beta   89.90232588
_cell_angle_gamma   138.20611159
_symmetry_Int_Tables_number   1
_chemical_formula_structural   Tb2YFeCo3
_chemical_formula_sum   'Tb4 Y2 Fe2 Co6'
_cell_volume   260.08901989
_cell_formula_units_Z   2
loop_
 _symmetry_equiv_pos_site_id
 _symmetry_equiv_pos_as_xyz
  1  'x, y, z'
loop_
 _atom_site_type_symbol
 _atom_site_label
 _atom_site_symmetry_multiplicity
 _atom_site_fract_x
 _atom_site_fract_y
 _atom_site_fract_z
 _atom_site_occupancy
  Tb  Tb0  1  0.788741  0.211259  0.104486  1
  Tb  Tb1  1  0.211259  0.788741  0.895514  1
  Tb  Tb2  1  0.502721  0.497279  0.250099  1
  Tb  Tb3  1  0.497279  0.502721  0.749901  1
  Y  Y4  1  0.788868  0.211132  0.395700  1
  Y  Y5  1  0.211132  0.788868  0.604300  1
  Fe  Fe6  1  0.500000  0.500000  0.500000  1
  Fe  Fe7  1  0.500000  0.500000  0.000000  1
  Co  Co8  1  0.072966  0.927034  0.410469  1
  Co  Co9  1  0.927034  0.072966  0.589531  1
  Co  Co10  1  0.073189  0.926811  0.089207  1
  Co  Co11  1  0.926811  0.073189  0.910793  1
  Co  Co12  1  0.195844  0.804156  0.249815  1
  Co  Co13  1  0.804156  0.195844  0.750185  1
