# generated using pymatgen
data_Ho4Ga4Ni3Ru
_symmetry_space_group_name_H-M   'P 1'
_cell_length_a   4.27849200
_cell_length_b   6.77032200
_cell_length_c   7.46203500
_cell_angle_alpha   90.00215147
_cell_angle_beta   90.00000000
_cell_angle_gamma   90.00000000
_symmetry_Int_Tables_number   1
_chemical_formula_structural   Ho4Ga4Ni3Ru
_chemical_formula_sum   'Ho4 Ga4 Ni3 Ru1'
_cell_volume   216.15104042
_cell_formula_units_Z   1
loop_
 _symmetry_equiv_pos_site_id
 _symmetry_equiv_pos_as_xyz
  1  'x, y, z'
loop_
 _atom_site_type_symbol
 _atom_site_label
 _atom_site_symmetry_multiplicity
 _atom_site_fract_x
 _atom_site_fract_y
 _atom_site_fract_z
 _atom_site_occupancy
  Ho  Ho0  1  0.250000  0.525333  0.688478  1
  Ho  Ho1  1  0.250000  0.020161  0.809348  1
  Ho  Ho2  1  0.750000  0.981770  0.194347  1
  Ho  Ho3  1  0.750000  0.481015  0.304939  1
  Ga  Ga4  1  0.750000  0.333015  0.916788  1
  Ga  Ga5  1  0.250000  0.166286  0.435388  1
  Ga  Ga6  1  0.750000  0.831260  0.573452  1
  Ga  Ga7  1  0.250000  0.671909  0.072795  1
  Ni  Ni8  1  0.250000  0.785388  0.399493  1
  Ni  Ni9  1  0.750000  0.715777  0.898010  1
  Ni  Ni10  1  0.750000  0.213472  0.602031  1
  Ru  Ru11  1  0.250000  0.274613  0.104929  1
