# generated using pymatgen
data_LaNp3(Si4Ni7)2
_symmetry_space_group_name_H-M   'P 1'
_cell_length_a   3.82267100
_cell_length_b   9.26625115
_cell_length_c   10.67589700
_cell_angle_alpha   89.72446602
_cell_angle_beta   90.00000000
_cell_angle_gamma   90.00000000
_symmetry_Int_Tables_number   1
_chemical_formula_structural   LaNp3(Si4Ni7)2
_chemical_formula_sum   'La1 Np3 Si8 Ni14'
_cell_volume   378.15543099
_cell_formula_units_Z   1
loop_
 _symmetry_equiv_pos_site_id
 _symmetry_equiv_pos_as_xyz
  1  'x, y, z'
loop_
 _atom_site_type_symbol
 _atom_site_label
 _atom_site_symmetry_multiplicity
 _atom_site_fract_x
 _atom_site_fract_y
 _atom_site_fract_z
 _atom_site_occupancy
  La  La0  1  0.500000  0.443364  0.511985  1
  Np  Np1  1  0.500000  0.063988  0.278976  1
  Np  Np2  1  0.000000  0.936378  0.779869  1
  Np  Np3  1  0.000000  0.557245  0.012442  1
  Si  Si4  1  0.000000  0.821009  0.278112  1
  Si  Si5  1  0.000000  0.178313  0.465108  1
  Si  Si6  1  0.500000  0.180517  0.777483  1
  Si  Si7  1  0.000000  0.159824  0.089550  1
  Si  Si8  1  0.500000  0.480965  0.223556  1
  Si  Si9  1  0.500000  0.814864  0.965306  1
  Si  Si10  1  0.500000  0.838318  0.591034  1
  Si  Si11  1  0.000000  0.521087  0.734272  1
  Ni  Ni12  1  0.500000  0.314607  0.067454  1
  Ni  Ni13  1  0.500000  0.745002  0.397970  1
  Ni  Ni14  1  0.500000  0.419800  0.829037  1
  Ni  Ni15  1  0.500000  0.069538  0.973722  1
  Ni  Ni16  1  0.500000  0.682435  0.767094  1
  Ni  Ni17  1  0.000000  0.267364  0.668270  1
  Ni  Ni18  1  0.000000  0.258928  0.898620  1
  Ni  Ni19  1  0.000000  0.689605  0.574680  1
  Ni  Ni20  1  0.500000  0.089599  0.575551  1
  Ni  Ni21  1  0.000000  0.317539  0.260790  1
  Ni  Ni22  1  0.000000  0.582116  0.317083  1
  Ni  Ni23  1  0.000000  0.908605  0.075126  1
  Ni  Ni24  1  0.000000  0.929162  0.474317  1
  Ni  Ni25  1  0.500000  0.729831  0.167993  1
