# generated using pymatgen
data_CaLuB6Ir
_symmetry_space_group_name_H-M   'P 1'
_cell_length_a   3.61179700
_cell_length_b   9.11203300
_cell_length_c   11.50375100
_cell_angle_alpha   90.00000000
_cell_angle_beta   90.00000000
_cell_angle_gamma   90.00000000
_symmetry_Int_Tables_number   1
_chemical_formula_structural   CaLuB6Ir
_chemical_formula_sum   'Ca4 Lu4 B24 Ir4'
_cell_volume   378.59780317
_cell_formula_units_Z   4
loop_
 _symmetry_equiv_pos_site_id
 _symmetry_equiv_pos_as_xyz
  1  'x, y, z'
loop_
 _atom_site_type_symbol
 _atom_site_label
 _atom_site_symmetry_multiplicity
 _atom_site_fract_x
 _atom_site_fract_y
 _atom_site_fract_z
 _atom_site_occupancy
  Ca  Ca0  1  0.000000  0.321411  0.413874  1
  Ca  Ca1  1  0.000000  0.678589  0.586126  1
  Ca  Ca2  1  0.000000  0.821411  0.086126  1
  Ca  Ca3  1  0.000000  0.178589  0.913874  1
  Lu  Lu4  1  0.000000  0.944409  0.373984  1
  Lu  Lu5  1  0.000000  0.055591  0.626016  1
  Lu  Lu6  1  0.000000  0.444409  0.126016  1
  Lu  Lu7  1  0.000000  0.555591  0.873984  1
  B  B8  1  0.500000  0.554308  0.432628  1
  B  B9  1  0.500000  0.445692  0.567372  1
  B  B10  1  0.500000  0.054308  0.067372  1
  B  B11  1  0.500000  0.945692  0.932628  1
  B  B12  1  0.500000  0.750071  0.419729  1
  B  B13  1  0.500000  0.249929  0.580271  1
  B  B14  1  0.500000  0.250071  0.080271  1
  B  B15  1  0.500000  0.749929  0.919729  1
  B  B16  1  0.500000  0.791442  0.266376  1
  B  B17  1  0.500000  0.208558  0.733624  1
  B  B18  1  0.500000  0.291442  0.233624  1
  B  B19  1  0.500000  0.708558  0.766376  1
  B  B20  1  0.500000  0.630934  0.183802  1
  B  B21  1  0.500000  0.369066  0.816198  1
  B  B22  1  0.500000  0.130934  0.316198  1
  B  B23  1  0.500000  0.869066  0.683802  1
  B  B24  1  0.500000  0.983259  0.213580  1
  B  B25  1  0.500000  0.016741  0.786420  1
  B  B26  1  0.500000  0.483259  0.286420  1
  B  B27  1  0.500000  0.516741  0.713580  1
  B  B28  1  0.500000  0.604591  0.028651  1
  B  B29  1  0.500000  0.395409  0.971349  1
  B  B30  1  0.500000  0.104591  0.471349  1
  B  B31  1  0.500000  0.895409  0.528651  1
  Ir  Ir32  1  0.000000  0.638677  0.320053  1
  Ir  Ir33  1  0.000000  0.361323  0.679947  1
  Ir  Ir34  1  0.000000  0.138677  0.179947  1
  Ir  Ir35  1  0.000000  0.861323  0.820053  1
