# generated using pymatgen
data_YLu5Hf2(Co4P3)4
_symmetry_space_group_name_H-M   'P 1'
_cell_length_a   3.69480500
_cell_length_b   10.63119000
_cell_length_c   12.31208500
_cell_angle_alpha   90.00000000
_cell_angle_beta   90.00000000
_cell_angle_gamma   90.00000000
_symmetry_Int_Tables_number   1
_chemical_formula_structural   YLu5Hf2(Co4P3)4
_chemical_formula_sum   'Y1 Lu5 Hf2 Co16 P12'
_cell_volume   483.62084071
_cell_formula_units_Z   1
loop_
 _symmetry_equiv_pos_site_id
 _symmetry_equiv_pos_as_xyz
  1  'x, y, z'
loop_
 _atom_site_type_symbol
 _atom_site_label
 _atom_site_symmetry_multiplicity
 _atom_site_fract_x
 _atom_site_fract_y
 _atom_site_fract_z
 _atom_site_occupancy
  Y  Y0  1  0.500000  0.000000  0.470400  1
  Lu  Lu1  1  0.000000  0.500000  0.529828  1
  Lu  Lu2  1  0.500000  0.822797  0.203901  1
  Lu  Lu3  1  0.500000  0.177203  0.203901  1
  Lu  Lu4  1  0.000000  0.677019  0.795606  1
  Lu  Lu5  1  0.000000  0.322981  0.795606  1
  Hf  Hf6  1  0.500000  0.500000  0.158677  1
  Hf  Hf7  1  0.000000  0.000000  0.842658  1
  Co  Co8  1  0.500000  0.500000  0.703397  1
  Co  Co9  1  0.000000  0.000000  0.294617  1
  Co  Co10  1  0.000000  0.500000  0.986736  1
  Co  Co11  1  0.500000  0.000000  0.013047  1
  Co  Co12  1  0.500000  0.332028  0.993372  1
  Co  Co13  1  0.500000  0.667972  0.993372  1
  Co  Co14  1  0.000000  0.168475  0.006525  1
  Co  Co15  1  0.000000  0.831525  0.006525  1
  Co  Co16  1  0.500000  0.296381  0.433303  1
  Co  Co17  1  0.500000  0.703619  0.433303  1
  Co  Co18  1  0.000000  0.206378  0.567088  1
  Co  Co19  1  0.000000  0.793622  0.567088  1
  Co  Co20  1  0.500000  0.876168  0.703407  1
  Co  Co21  1  0.500000  0.123832  0.703407  1
  Co  Co22  1  0.000000  0.622958  0.297078  1
  Co  Co23  1  0.000000  0.377042  0.297078  1
  P  P24  1  0.500000  0.500000  0.882555  1
  P  P25  1  0.000000  0.000000  0.116650  1
  P  P26  1  0.500000  0.500000  0.364431  1
  P  P27  1  0.000000  0.000000  0.637867  1
  P  P28  1  0.500000  0.312414  0.616645  1
  P  P29  1  0.500000  0.687586  0.616645  1
  P  P30  1  0.000000  0.189525  0.382652  1
  P  P31  1  0.000000  0.810475  0.382652  1
  P  P32  1  0.500000  0.836998  0.891372  1
  P  P33  1  0.500000  0.163002  0.891372  1
  P  P34  1  0.000000  0.662491  0.108618  1
  P  P35  1  0.000000  0.337509  0.108618  1
