# generated using pymatgen
data_Co2(ReTc)3
_symmetry_space_group_name_H-M   'P 1'
_cell_length_a   5.41290700
_cell_length_b   5.41290728
_cell_length_c   4.31705200
_cell_angle_alpha   90.00000000
_cell_angle_beta   90.00000000
_cell_angle_gamma   120.00000443
_symmetry_Int_Tables_number   1
_chemical_formula_structural   Co2(ReTc)3
_chemical_formula_sum   'Co2 Re3 Tc3'
_cell_volume   109.54159122
_cell_formula_units_Z   1
loop_
 _symmetry_equiv_pos_site_id
 _symmetry_equiv_pos_as_xyz
  1  'x, y, z'
loop_
 _atom_site_type_symbol
 _atom_site_label
 _atom_site_symmetry_multiplicity
 _atom_site_fract_x
 _atom_site_fract_y
 _atom_site_fract_z
 _atom_site_occupancy
  Co  Co0  1  0.333334  0.666668  0.749999  1
  Co  Co1  1  0.666666  0.333332  0.249999  1
  Re  Re2  1  0.166171  0.332341  0.249999  1
  Re  Re3  1  0.667659  0.833828  0.249999  1
  Re  Re4  1  0.166172  0.833828  0.249999  1
  Tc  Tc5  1  0.833237  0.666476  0.749999  1
  Tc  Tc6  1  0.333527  0.166764  0.749999  1
  Tc  Tc7  1  0.833238  0.166764  0.749999  1
