# generated using pymatgen
data_V2NiB5Mo8
_symmetry_space_group_name_H-M   'P 1'
_cell_length_a   5.90141956
_cell_length_b   5.90141853
_cell_length_c   6.87141601
_cell_angle_alpha   115.43062496
_cell_angle_beta   115.43061971
_cell_angle_gamma   89.99999818
_symmetry_Int_Tables_number   1
_chemical_formula_structural   V2NiB5Mo8
_chemical_formula_sum   'V2 Ni1 B5 Mo8'
_cell_volume   190.12658654
_cell_formula_units_Z   1
loop_
 _symmetry_equiv_pos_site_id
 _symmetry_equiv_pos_as_xyz
  1  'x, y, z'
loop_
 _atom_site_type_symbol
 _atom_site_label
 _atom_site_symmetry_multiplicity
 _atom_site_fract_x
 _atom_site_fract_y
 _atom_site_fract_z
 _atom_site_occupancy
  V  V0  1  0.495738  0.495738  0.991475  1
  V  V1  1  0.004262  0.004262  0.008525  1
  Ni  Ni2  1  0.250000  0.250000  0.500000  1
  B  B3  1  0.750000  0.750000  0.500000  1
  B  B4  1  0.619929  0.119929  0.000000  1
  B  B5  1  0.380071  0.880071  0.000000  1
  B  B6  1  0.880071  0.619929  0.000000  1
  B  B7  1  0.119929  0.380071  0.000000  1
  Mo  Mo8  1  0.018872  0.533398  0.715584  1
  Mo  Mo9  1  0.696712  0.182186  0.715584  1
  Mo  Mo10  1  0.182186  0.018872  0.715584  1
  Mo  Mo11  1  0.533398  0.696712  0.715584  1
  Mo  Mo12  1  0.966602  0.481128  0.284416  1
  Mo  Mo13  1  0.317814  0.803288  0.284416  1
  Mo  Mo14  1  0.803288  0.966602  0.284416  1
  Mo  Mo15  1  0.481128  0.317814  0.284416  1
