# generated using pymatgen
data_Th2Si5Os3
_symmetry_space_group_name_H-M   'P 1'
_cell_length_a   8.23364548
_cell_length_b   8.23364445
_cell_length_c   5.90554575
_cell_angle_alpha   70.46440831
_cell_angle_beta   70.46441191
_cell_angle_gamma   93.39774300
_symmetry_Int_Tables_number   1
_chemical_formula_structural   Th2Si5Os3
_chemical_formula_sum   'Th4 Si10 Os6'
_cell_volume   348.92801644
_cell_formula_units_Z   2
loop_
 _symmetry_equiv_pos_site_id
 _symmetry_equiv_pos_as_xyz
  1  'x, y, z'
loop_
 _atom_site_type_symbol
 _atom_site_label
 _atom_site_symmetry_multiplicity
 _atom_site_fract_x
 _atom_site_fract_y
 _atom_site_fract_z
 _atom_site_occupancy
  Th  Th0  1  0.866678  0.600831  0.759427  1
  Th  Th1  1  0.399169  0.133322  0.740573  1
  Th  Th2  1  0.133322  0.399169  0.240573  1
  Th  Th3  1  0.600831  0.866678  0.259427  1
  Si  Si4  1  0.057959  0.260769  0.838845  1
  Si  Si5  1  0.739231  0.942041  0.661155  1
  Si  Si6  1  0.942041  0.739231  0.161155  1
  Si  Si7  1  0.260769  0.057959  0.338845  1
  Si  Si8  1  0.208244  0.791756  0.750000  1
  Si  Si9  1  0.791756  0.208244  0.250000  1
  Si  Si10  1  0.513011  0.486989  0.750000  1
  Si  Si11  1  0.486989  0.513011  0.250000  1
  Si  Si12  1  0.774127  0.225873  0.750000  1
  Si  Si13  1  0.225873  0.774127  0.250000  1
  Os  Os14  1  0.255283  0.541938  0.633934  1
  Os  Os15  1  0.458062  0.744717  0.866066  1
  Os  Os16  1  0.744717  0.458062  0.366066  1
  Os  Os17  1  0.541938  0.255283  0.133934  1
  Os  Os18  1  0.002546  0.997454  0.750000  1
  Os  Os19  1  0.997454  0.002546  0.250000  1
