# generated using pymatgen
data_Dy4Re2(OsRu)3
_symmetry_space_group_name_H-M   'P 1'
_cell_length_a   5.48331392
_cell_length_b   5.16662027
_cell_length_c   9.11324600
_cell_angle_alpha   90.00000000
_cell_angle_beta   90.00000000
_cell_angle_gamma   121.46333670
_symmetry_Int_Tables_number   1
_chemical_formula_structural   Dy4Re2(OsRu)3
_chemical_formula_sum   'Dy4 Re2 Os3 Ru3'
_cell_volume   220.22099012
_cell_formula_units_Z   1
loop_
 _symmetry_equiv_pos_site_id
 _symmetry_equiv_pos_as_xyz
  1  'x, y, z'
loop_
 _atom_site_type_symbol
 _atom_site_label
 _atom_site_symmetry_multiplicity
 _atom_site_fract_x
 _atom_site_fract_y
 _atom_site_fract_z
 _atom_site_occupancy
  Dy  Dy0  1  0.668379  0.336809  0.565149  1
  Dy  Dy1  1  0.330884  0.662646  0.434897  1
  Dy  Dy2  1  0.330884  0.662646  0.065103  1
  Dy  Dy3  1  0.668379  0.336809  0.934851  1
  Re  Re4  1  0.165398  0.330087  0.750000  1
  Re  Re5  1  0.840319  0.671809  0.250000  1
  Os  Os6  1  0.168928  0.824391  0.750000  1
  Os  Os7  1  0.654596  0.824474  0.750000  1
  Os  Os8  1  0.835791  0.177653  0.250000  1
  Ru  Ru9  1  0.992737  0.997150  0.499159  1
  Ru  Ru10  1  0.992737  0.997150  0.000841  1
  Ru  Ru11  1  0.350964  0.178374  0.250000  1
