# generated using pymatgen
data_Pr2Ta3Co9As7
_symmetry_space_group_name_H-M   'P 1'
_cell_length_a   3.87570400
_cell_length_b   9.60614869
_cell_length_c   9.60614800
_cell_angle_alpha   119.99999762
_cell_angle_beta   90.00000000
_cell_angle_gamma   90.00000000
_symmetry_Int_Tables_number   1
_chemical_formula_structural   Pr2Ta3Co9As7
_chemical_formula_sum   'Pr2 Ta3 Co9 As7'
_cell_volume   309.72753880
_cell_formula_units_Z   1
loop_
 _symmetry_equiv_pos_site_id
 _symmetry_equiv_pos_as_xyz
  1  'x, y, z'
loop_
 _atom_site_type_symbol
 _atom_site_label
 _atom_site_symmetry_multiplicity
 _atom_site_fract_x
 _atom_site_fract_y
 _atom_site_fract_z
 _atom_site_occupancy
  Pr  Pr0  1  0.000000  0.666667  0.333333  1
  Pr  Pr1  1  0.500000  0.333333  0.666667  1
  Ta  Ta2  1  0.500000  0.777933  0.894242  1
  Ta  Ta3  1  0.500000  0.116309  0.222067  1
  Ta  Ta4  1  0.500000  0.105758  0.883691  1
  Co  Co5  1  0.000000  0.574804  0.937824  1
  Co  Co6  1  0.000000  0.363020  0.425196  1
  Co  Co7  1  0.000000  0.062176  0.636980  1
  Co  Co8  1  0.000000  0.877652  0.154954  1
  Co  Co9  1  0.000000  0.277303  0.122348  1
  Co  Co10  1  0.000000  0.845046  0.722697  1
  Co  Co11  1  0.500000  0.948529  0.380982  1
  Co  Co12  1  0.500000  0.432453  0.051471  1
  Co  Co13  1  0.500000  0.619018  0.567547  1
  As  As14  1  0.000000  0.000000  0.000000  1
  As  As15  1  0.500000  0.705990  0.117243  1
  As  As16  1  0.500000  0.411253  0.294010  1
  As  As17  1  0.500000  0.882757  0.588747  1
  As  As18  1  0.000000  0.584324  0.689704  1
  As  As19  1  0.000000  0.105380  0.415676  1
  As  As20  1  0.000000  0.310296  0.894620  1
