# generated using pymatgen
data_Tb7Y3(SnSb)3
_symmetry_space_group_name_H-M   'P 1'
_cell_length_a   6.44681800
_cell_length_b   9.02171559
_cell_length_c   9.02178300
_cell_angle_alpha   119.99975725
_cell_angle_beta   90.00015364
_cell_angle_gamma   89.99970283
_symmetry_Int_Tables_number   1
_chemical_formula_structural   Tb7Y3(SnSb)3
_chemical_formula_sum   'Tb7 Y3 Sn3 Sb3'
_cell_volume   454.42122978
_cell_formula_units_Z   1
loop_
 _symmetry_equiv_pos_site_id
 _symmetry_equiv_pos_as_xyz
  1  'x, y, z'
loop_
 _atom_site_type_symbol
 _atom_site_label
 _atom_site_symmetry_multiplicity
 _atom_site_fract_x
 _atom_site_fract_y
 _atom_site_fract_z
 _atom_site_occupancy
  Tb  Tb0  1  0.500376  0.333331  0.666665  1
  Tb  Tb1  1  0.500376  0.666666  0.333335  1
  Tb  Tb2  1  0.999625  0.666667  0.333336  1
  Tb  Tb3  1  0.999625  0.333331  0.666664  1
  Tb  Tb4  1  0.249996  0.757410  0.000000  1
  Tb  Tb5  1  0.250003  0.242557  0.242559  1
  Tb  Tb6  1  0.250003  0.999998  0.757441  1
  Y  Y7  1  0.750002  0.241814  0.000000  1
  Y  Y8  1  0.750002  0.758212  0.758212  1
  Y  Y9  1  0.750002  0.000001  0.241788  1
  Sn  Sn10  1  0.749999  0.607651  0.000000  1
  Sn  Sn11  1  0.750001  0.392375  0.392365  1
  Sn  Sn12  1  0.750001  0.000009  0.607635  1
  Sb  Sb13  1  0.249992  0.390959  0.000000  1
  Sb  Sb14  1  0.250001  0.609025  0.609032  1
  Sb  Sb15  1  0.250001  0.999992  0.390968  1
