# generated using pymatgen
data_Sm2U(SnIr)3
_symmetry_space_group_name_H-M   'P 1'
_cell_length_a   7.62595900
_cell_length_b   7.49438141
_cell_length_c   3.98894700
_cell_angle_alpha   90.00000000
_cell_angle_beta   90.00000000
_cell_angle_gamma   120.58249929
_symmetry_Int_Tables_number   1
_chemical_formula_structural   Sm2U(SnIr)3
_chemical_formula_sum   'Sm2 U1 Sn3 Ir3'
_cell_volume   196.26368810
_cell_formula_units_Z   1
loop_
 _symmetry_equiv_pos_site_id
 _symmetry_equiv_pos_as_xyz
  1  'x, y, z'
loop_
 _atom_site_type_symbol
 _atom_site_label
 _atom_site_symmetry_multiplicity
 _atom_site_fract_x
 _atom_site_fract_y
 _atom_site_fract_z
 _atom_site_occupancy
  Sm  Sm0  1  0.999729  0.592370  0.000000  1
  Sm  Sm1  1  0.407359  0.407630  0.000000  1
  U  U2  1  0.585324  0.000000  0.000000  1
  Sn  Sn3  1  0.241063  0.000000  0.500000  1
  Sn  Sn4  1  0.011768  0.266638  0.500000  1
  Sn  Sn5  1  0.745129  0.733362  0.500000  1
  Ir  Ir6  1  0.369100  0.707828  0.500000  1
  Ir  Ir7  1  0.661273  0.292172  0.500000  1
  Ir  Ir8  1  0.979254  0.000000  0.000000  1
