# generated using pymatgen
data_Lu5In4CuRh
_symmetry_space_group_name_H-M   'P 1'
_cell_length_a   3.54226900
_cell_length_b   7.98203883
_cell_length_c   17.90027868
_cell_angle_alpha   89.67605375
_cell_angle_beta   90.00000000
_cell_angle_gamma   90.00000000
_symmetry_Int_Tables_number   1
_chemical_formula_structural   Lu5In4CuRh
_chemical_formula_sum   'Lu10 In8 Cu2 Rh2'
_cell_volume   506.11385361
_cell_formula_units_Z   2
loop_
 _symmetry_equiv_pos_site_id
 _symmetry_equiv_pos_as_xyz
  1  'x, y, z'
loop_
 _atom_site_type_symbol
 _atom_site_label
 _atom_site_symmetry_multiplicity
 _atom_site_fract_x
 _atom_site_fract_y
 _atom_site_fract_z
 _atom_site_occupancy
  Lu  Lu0  1  0.000000  0.500000  0.500000  1
  Lu  Lu1  1  0.000000  0.000000  0.000000  1
  Lu  Lu2  1  0.000000  0.730390  0.278778  1
  Lu  Lu3  1  0.000000  0.269610  0.721222  1
  Lu  Lu4  1  0.000000  0.745269  0.779733  1
  Lu  Lu5  1  0.000000  0.254731  0.220267  1
  Lu  Lu6  1  0.000000  0.618680  0.085857  1
  Lu  Lu7  1  0.000000  0.381320  0.914143  1
  Lu  Lu8  1  0.000000  0.883333  0.583991  1
  Lu  Lu9  1  0.000000  0.116667  0.416009  1
  In  In10  1  0.500000  0.707154  0.932786  1
  In  In11  1  0.500000  0.292846  0.067214  1
  In  In12  1  0.500000  0.792107  0.431905  1
  In  In13  1  0.500000  0.207893  0.568095  1
  In  In14  1  0.500000  0.579176  0.647976  1
  In  In15  1  0.500000  0.420824  0.352024  1
  In  In16  1  0.500000  0.924359  0.151534  1
  In  In17  1  0.500000  0.075641  0.848466  1
  Cu  Cu18  1  0.500000  0.976764  0.697108  1
  Cu  Cu19  1  0.500000  0.023236  0.302892  1
  Rh  Rh20  1  0.500000  0.526988  0.195693  1
  Rh  Rh21  1  0.500000  0.473012  0.804307  1
