# generated using pymatgen
data_Lu5Th3(MgRu)2
_symmetry_space_group_name_H-M   'P 1'
_cell_length_a   9.64962974
_cell_length_b   9.70151647
_cell_length_c   9.70151808
_cell_angle_alpha   59.64645802
_cell_angle_beta   60.17676378
_cell_angle_gamma   60.17676440
_symmetry_Int_Tables_number   1
_chemical_formula_structural   Lu5Th3(MgRu)2
_chemical_formula_sum   'Lu10 Th6 Mg4 Ru4'
_cell_volume   642.17029719
_cell_formula_units_Z   2
loop_
 _symmetry_equiv_pos_site_id
 _symmetry_equiv_pos_as_xyz
  1  'x, y, z'
loop_
 _atom_site_type_symbol
 _atom_site_label
 _atom_site_symmetry_multiplicity
 _atom_site_fract_x
 _atom_site_fract_y
 _atom_site_fract_z
 _atom_site_occupancy
  Lu  Lu0  1  0.439306  0.060694  0.439306  1
  Lu  Lu1  1  0.060694  0.439306  0.060694  1
  Lu  Lu2  1  0.439306  0.439306  0.060694  1
  Lu  Lu3  1  0.060694  0.060694  0.439306  1
  Lu  Lu4  1  0.182155  0.817845  0.817845  1
  Lu  Lu5  1  0.817845  0.182155  0.182155  1
  Lu  Lu6  1  0.814558  0.185442  0.814558  1
  Lu  Lu7  1  0.185442  0.814558  0.185442  1
  Lu  Lu8  1  0.814558  0.814558  0.185442  1
  Lu  Lu9  1  0.185442  0.185442  0.814558  1
  Th  Th10  1  0.593149  0.599966  0.599966  1
  Th  Th11  1  0.599966  0.593149  0.206921  1
  Th  Th12  1  0.599966  0.206921  0.593149  1
  Th  Th13  1  0.206921  0.599966  0.599966  1
  Th  Th14  1  0.066531  0.433469  0.433469  1
  Th  Th15  1  0.433469  0.066531  0.066531  1
  Mg  Mg16  1  0.832855  0.829740  0.829740  1
  Mg  Mg17  1  0.829740  0.832855  0.507665  1
  Mg  Mg18  1  0.829740  0.507665  0.832855  1
  Mg  Mg19  1  0.507665  0.829740  0.829740  1
  Ru  Ru20  1  0.379815  0.396932  0.396932  1
  Ru  Ru21  1  0.396932  0.379815  0.826322  1
  Ru  Ru22  1  0.396932  0.826322  0.379815  1
  Ru  Ru23  1  0.826322  0.396932  0.396932  1
