# generated using pymatgen
data_Th3Si4Pd3Rh
_symmetry_space_group_name_H-M   'P 1'
_cell_length_a   4.10958643
_cell_length_b   4.22244802
_cell_length_c   12.79345642
_cell_angle_alpha   80.50137921
_cell_angle_beta   80.75754701
_cell_angle_gamma   90.00000672
_symmetry_Int_Tables_number   1
_chemical_formula_structural   Th3Si4Pd3Rh
_chemical_formula_sum   'Th3 Si4 Pd3 Rh1'
_cell_volume   216.03225599
_cell_formula_units_Z   1
loop_
 _symmetry_equiv_pos_site_id
 _symmetry_equiv_pos_as_xyz
  1  'x, y, z'
loop_
 _atom_site_type_symbol
 _atom_site_label
 _atom_site_symmetry_multiplicity
 _atom_site_fract_x
 _atom_site_fract_y
 _atom_site_fract_z
 _atom_site_occupancy
  Th  Th0  1  0.999779  0.999779  0.000443  1
  Th  Th1  1  0.852781  0.352781  0.294440  1
  Th  Th2  1  0.147320  0.647320  0.705357  1
  Si  Si3  1  0.695441  0.195441  0.609120  1
  Si  Si4  1  0.304375  0.804375  0.391248  1
  Si  Si5  1  0.451887  0.451887  0.096225  1
  Si  Si6  1  0.548267  0.548267  0.903465  1
  Pd  Pd7  1  0.596526  0.096526  0.806948  1
  Pd  Pd8  1  0.403095  0.903095  0.193810  1
  Pd  Pd9  1  0.249428  0.249428  0.501144  1
  Rh  Rh10  1  0.751100  0.751100  0.497800  1
