# generated using pymatgen
data_Tb2Ta3P7Ru2Rh7
_symmetry_space_group_name_H-M   'P 1'
_cell_length_a   3.89911500
_cell_length_b   9.66324154
_cell_length_c   9.66591895
_cell_angle_alpha   119.78476927
_cell_angle_beta   90.00258767
_cell_angle_gamma   89.99881315
_symmetry_Int_Tables_number   1
_chemical_formula_structural   Tb2Ta3P7Ru2Rh7
_chemical_formula_sum   'Tb2 Ta3 P7 Ru2 Rh7'
_cell_volume   316.08252178
_cell_formula_units_Z   1
loop_
 _symmetry_equiv_pos_site_id
 _symmetry_equiv_pos_as_xyz
  1  'x, y, z'
loop_
 _atom_site_type_symbol
 _atom_site_label
 _atom_site_symmetry_multiplicity
 _atom_site_fract_x
 _atom_site_fract_y
 _atom_site_fract_z
 _atom_site_occupancy
  Tb  Tb0  1  0.261777  0.667705  0.333105  1
  Tb  Tb1  1  0.761933  0.333204  0.666446  1
  Ta  Ta2  1  0.761960  0.097259  0.875423  1
  Ta  Ta3  1  0.761949  0.124167  0.221872  1
  Ta  Ta4  1  0.761924  0.778605  0.902029  1
  P  P5  1  0.262025  0.997466  0.998686  1
  P  P6  1  0.761851  0.874702  0.590177  1
  P  P7  1  0.761819  0.412096  0.287984  1
  P  P8  1  0.761804  0.715805  0.127167  1
  P  P9  1  0.261963  0.114751  0.413678  1
  P  P10  1  0.261888  0.585547  0.700087  1
  P  P11  1  0.261960  0.300540  0.883442  1
  Ru  Ru12  1  0.261766  0.884226  0.159484  1
  Ru  Ru13  1  0.261840  0.840302  0.725306  1
  Rh  Rh14  1  0.261905  0.274120  0.114424  1
  Rh  Rh15  1  0.761909  0.609370  0.556472  1
  Rh  Rh16  1  0.761949  0.443390  0.054051  1
  Rh  Rh17  1  0.761937  0.945383  0.390766  1
  Rh  Rh18  1  0.261928  0.366326  0.437649  1
  Rh  Rh19  1  0.261962  0.561495  0.927405  1
  Rh  Rh20  1  0.261952  0.073541  0.634347  1
