# generated using pymatgen
data_Tb3Nd(Ni7P4)2
_symmetry_space_group_name_H-M   'P 1'
_cell_length_a   3.70923000
_cell_length_b   9.15865005
_cell_length_c   10.28731982
_cell_angle_alpha   90.07684895
_cell_angle_beta   90.00000000
_cell_angle_gamma   90.00000000
_symmetry_Int_Tables_number   1
_chemical_formula_structural   Tb3Nd(Ni7P4)2
_chemical_formula_sum   'Tb3 Nd1 Ni14 P8'
_cell_volume   349.47577784
_cell_formula_units_Z   1
loop_
 _symmetry_equiv_pos_site_id
 _symmetry_equiv_pos_as_xyz
  1  'x, y, z'
loop_
 _atom_site_type_symbol
 _atom_site_label
 _atom_site_symmetry_multiplicity
 _atom_site_fract_x
 _atom_site_fract_y
 _atom_site_fract_z
 _atom_site_occupancy
  Tb  Tb0  1  0.500000  0.435173  0.499589  1
  Tb  Tb1  1  0.500000  0.057812  0.282851  1
  Tb  Tb2  1  0.000000  0.941343  0.782003  1
  Nd  Nd3  1  0.000000  0.562202  0.000069  1
  Ni  Ni4  1  0.500000  0.302911  0.079226  1
  Ni  Ni5  1  0.500000  0.745710  0.404553  1
  Ni  Ni6  1  0.500000  0.415956  0.800639  1
  Ni  Ni7  1  0.500000  0.057647  0.978134  1
  Ni  Ni8  1  0.500000  0.686450  0.763307  1
  Ni  Ni9  1  0.000000  0.274013  0.667821  1
  Ni  Ni10  1  0.000000  0.250833  0.903117  1
  Ni  Ni11  1  0.000000  0.694737  0.573126  1
  Ni  Ni12  1  0.500000  0.097592  0.583730  1
  Ni  Ni13  1  0.000000  0.314491  0.267471  1
  Ni  Ni14  1  0.000000  0.582616  0.311219  1
  Ni  Ni15  1  0.000000  0.905078  0.084899  1
  Ni  Ni16  1  0.000000  0.943682  0.478506  1
  Ni  Ni17  1  0.500000  0.728473  0.169976  1
  P  P18  1  0.000000  0.819128  0.288505  1
  P  P19  1  0.000000  0.189892  0.464013  1
  P  P20  1  0.500000  0.179781  0.787719  1
  P  P21  1  0.000000  0.155673  0.094080  1
  P  P22  1  0.500000  0.479067  0.220473  1
  P  P23  1  0.500000  0.812575  0.964386  1
  P  P24  1  0.500000  0.846504  0.592797  1
  P  P25  1  0.000000  0.520663  0.713193  1
