# generated using pymatgen
data_Pa(S4F3)2
_symmetry_space_group_name_H-M   'P 1'
_cell_length_a   8.67377133
_cell_length_b   8.63139413
_cell_length_c   11.01571396
_cell_angle_alpha   103.68696777
_cell_angle_beta   105.42788292
_cell_angle_gamma   91.61495256
_symmetry_Int_Tables_number   1
_chemical_formula_structural   Pa(S4F3)2
_chemical_formula_sum   'Pa2 S16 F12'
_cell_volume   768.75266124
_cell_formula_units_Z   2
loop_
 _symmetry_equiv_pos_site_id
 _symmetry_equiv_pos_as_xyz
  1  'x, y, z'
loop_
 _atom_site_type_symbol
 _atom_site_label
 _atom_site_symmetry_multiplicity
 _atom_site_fract_x
 _atom_site_fract_y
 _atom_site_fract_z
 _atom_site_occupancy
  Pa  Pa0  1  0.306053  0.803444  0.118537  1
  Pa  Pa1  1  0.693965  0.196431  0.881495  1
  S  S2  1  0.101519  0.380817  0.250216  1
  S  S3  1  0.776567  0.596728  0.250766  1
  S  S4  1  0.903450  0.075914  0.317597  1
  S  S5  1  0.579737  0.295121  0.327888  1
  S  S6  1  0.019678  0.594106  0.323932  1
  S  S7  1  0.109807  0.228166  0.366821  1
  S  S8  1  0.654352  0.535399  0.369664  1
  S  S9  1  0.743708  0.163084  0.417833  1
  S  S10  1  0.256131  0.837139  0.582148  1
  S  S11  1  0.345665  0.464871  0.630219  1
  S  S12  1  0.890091  0.771793  0.633214  1
  S  S13  1  0.980485  0.405880  0.676068  1
  S  S14  1  0.420192  0.705175  0.672098  1
  S  S15  1  0.096358  0.924166  0.682388  1
  S  S16  1  0.223633  0.403428  0.749197  1
  S  S17  1  0.898526  0.619094  0.749796  1
  F  F18  1  0.731016  0.231428  0.084741  1
  F  F19  1  0.059146  0.740060  0.084836  1
  F  F20  1  0.351125  0.561978  0.104704  1
  F  F21  1  0.266101  0.047884  0.144563  1
  F  F22  1  0.555200  0.867524  0.161021  1
  F  F23  1  0.335973  0.831621  0.321088  1
  F  F24  1  0.663941  0.167824  0.678894  1
  F  F25  1  0.444824  0.132427  0.839103  1
  F  F26  1  0.733951  0.952021  0.855672  1
  F  F27  1  0.648900  0.437858  0.895036  1
  F  F28  1  0.940863  0.259795  0.915136  1
  F  F29  1  0.269049  0.768822  0.915336  1
