# generated using pymatgen
data_ErLu11(TcIr)2
_symmetry_space_group_name_H-M   'P 1'
_cell_length_a   6.17999266
_cell_length_b   7.30588389
_cell_length_c   8.89969700
_cell_angle_alpha   90.00000000
_cell_angle_beta   90.00000000
_cell_angle_gamma   90.08319892
_symmetry_Int_Tables_number   1
_chemical_formula_structural   ErLu11(TcIr)2
_chemical_formula_sum   'Er1 Lu11 Tc2 Ir2'
_cell_volume   401.82364423
_cell_formula_units_Z   1
loop_
 _symmetry_equiv_pos_site_id
 _symmetry_equiv_pos_as_xyz
  1  'x, y, z'
loop_
 _atom_site_type_symbol
 _atom_site_label
 _atom_site_symmetry_multiplicity
 _atom_site_fract_x
 _atom_site_fract_y
 _atom_site_fract_z
 _atom_site_occupancy
  Er  Er0  1  0.623097  0.039211  0.250000  1
  Lu  Lu1  1  0.332926  0.675855  0.064054  1
  Lu  Lu2  1  0.165143  0.176656  0.436227  1
  Lu  Lu3  1  0.665379  0.324787  0.560515  1
  Lu  Lu4  1  0.835563  0.822675  0.939342  1
  Lu  Lu5  1  0.665379  0.324787  0.939485  1
  Lu  Lu6  1  0.835563  0.822675  0.560658  1
  Lu  Lu7  1  0.332926  0.675855  0.435946  1
  Lu  Lu8  1  0.165143  0.176656  0.063773  1
  Lu  Lu9  1  0.876968  0.539121  0.250000  1
  Lu  Lu10  1  0.131045  0.459565  0.750000  1
  Lu  Lu11  1  0.369434  0.959589  0.750000  1
  Tc  Tc12  1  0.037208  0.884669  0.250000  1
  Tc  Tc13  1  0.463905  0.385837  0.250000  1
  Ir  Ir14  1  0.958251  0.116084  0.750000  1
  Ir  Ir15  1  0.542069  0.615975  0.750000  1
