# generated using pymatgen
data_La9Dy3(Si7Cl3)2
_symmetry_space_group_name_H-M   'P 1'
_cell_length_a   4.00579600
_cell_length_b   11.63355548
_cell_length_c   16.32263100
_cell_angle_alpha   89.62401940
_cell_angle_beta   90.00000000
_cell_angle_gamma   90.00000000
_symmetry_Int_Tables_number   1
_chemical_formula_structural   La9Dy3(Si7Cl3)2
_chemical_formula_sum   'La9 Dy3 Si14 Cl6'
_cell_volume   760.64515940
_cell_formula_units_Z   1
loop_
 _symmetry_equiv_pos_site_id
 _symmetry_equiv_pos_as_xyz
  1  'x, y, z'
loop_
 _atom_site_type_symbol
 _atom_site_label
 _atom_site_symmetry_multiplicity
 _atom_site_fract_x
 _atom_site_fract_y
 _atom_site_fract_z
 _atom_site_occupancy
  La  La0  1  0.500000  0.330923  0.506616  1
  La  La1  1  0.000000  0.666865  0.999418  1
  La  La2  1  0.000000  0.646835  0.747446  1
  La  La3  1  0.500000  0.352814  0.246039  1
  La  La4  1  0.000000  0.642026  0.255072  1
  La  La5  1  0.500000  0.060813  0.873184  1
  La  La6  1  0.000000  0.946735  0.622451  1
  La  La7  1  0.500000  0.055619  0.118622  1
  La  La8  1  0.000000  0.940539  0.376709  1
  Dy  Dy9  1  0.500000  0.364236  0.759495  1
  Dy  Dy10  1  0.500000  0.351425  0.998087  1
  Dy  Dy11  1  0.000000  0.645649  0.503334  1
  Si  Si12  1  0.000000  0.149709  0.995670  1
  Si  Si13  1  0.500000  0.852343  0.500884  1
  Si  Si14  1  0.500000  0.565055  0.879185  1
  Si  Si15  1  0.000000  0.430142  0.628670  1
  Si  Si16  1  0.500000  0.562420  0.119812  1
  Si  Si17  1  0.000000  0.432944  0.383276  1
  Si  Si18  1  0.000000  0.254199  0.869722  1
  Si  Si19  1  0.500000  0.749348  0.625480  1
  Si  Si20  1  0.000000  0.249983  0.121996  1
  Si  Si21  1  0.500000  0.745267  0.377846  1
  Si  Si22  1  0.000000  0.456260  0.880247  1
  Si  Si23  1  0.500000  0.542745  0.623894  1
  Si  Si24  1  0.500000  0.541975  0.382503  1
  Si  Si25  1  0.000000  0.453350  0.119045  1
  Cl  Cl26  1  0.500000  0.122731  0.691342  1
  Cl  Cl27  1  0.000000  0.893969  0.804417  1
  Cl  Cl28  1  0.000000  0.135442  0.497387  1
  Cl  Cl29  1  0.500000  0.863721  0.996781  1
  Cl  Cl30  1  0.500000  0.104599  0.303205  1
  Cl  Cl31  1  0.000000  0.889324  0.192160  1
