# generated using pymatgen
data_Nd4Dy2CoI10
_symmetry_space_group_name_H-M   'P 1'
_cell_length_a   7.84444548
_cell_length_b   9.97743325
_cell_length_c   9.83166451
_cell_angle_alpha   107.05932790
_cell_angle_beta   95.86509931
_cell_angle_gamma   104.36228042
_symmetry_Int_Tables_number   1
_chemical_formula_structural   Nd4Dy2CoI10
_chemical_formula_sum   'Nd4 Dy2 Co1 I10'
_cell_volume   699.81909222
_cell_formula_units_Z   1
loop_
 _symmetry_equiv_pos_site_id
 _symmetry_equiv_pos_as_xyz
  1  'x, y, z'
loop_
 _atom_site_type_symbol
 _atom_site_label
 _atom_site_symmetry_multiplicity
 _atom_site_fract_x
 _atom_site_fract_y
 _atom_site_fract_z
 _atom_site_occupancy
  Nd  Nd0  1  0.966048  0.285171  0.087954  1
  Nd  Nd1  1  0.033952  0.714829  0.912046  1
  Nd  Nd2  1  0.885206  0.958289  0.231267  1
  Nd  Nd3  1  0.114794  0.041711  0.768733  1
  Dy  Dy4  1  0.337438  0.117612  0.160378  1
  Dy  Dy5  1  0.662562  0.882388  0.839622  1
  Co  Co6  1  0.000000  0.000000  0.000000  1
  I  I7  1  0.354008  0.438755  0.266719  1
  I  I8  1  0.645992  0.561245  0.733281  1
  I  I9  1  0.756840  0.248970  0.343464  1
  I  I10  1  0.243160  0.751030  0.656536  1
  I  I11  1  0.544658  0.178736  0.908545  1
  I  I12  1  0.455342  0.821264  0.091455  1
  I  I13  1  0.742825  0.915327  0.546932  1
  I  I14  1  0.257175  0.084673  0.453068  1
  I  I15  1  0.915309  0.630806  0.183656  1
  I  I16  1  0.084691  0.369194  0.816344  1
