# generated using pymatgen
data_La10Cu3Si15Au2
_symmetry_space_group_name_H-M   'P 1'
_cell_length_a   4.26518240
_cell_length_b   4.31769599
_cell_length_c   35.66507691
_cell_angle_alpha   86.52933067
_cell_angle_beta   86.57560352
_cell_angle_gamma   90.00317432
_symmetry_Int_Tables_number   1
_chemical_formula_structural   La10Cu3Si15Au2
_chemical_formula_sum   'La10 Cu3 Si15 Au2'
_cell_volume   654.41988964
_cell_formula_units_Z   1
loop_
 _symmetry_equiv_pos_site_id
 _symmetry_equiv_pos_as_xyz
  1  'x, y, z'
loop_
 _atom_site_type_symbol
 _atom_site_label
 _atom_site_symmetry_multiplicity
 _atom_site_fract_x
 _atom_site_fract_y
 _atom_site_fract_z
 _atom_site_occupancy
  La  La0  1  0.949298  0.449989  0.101482  1
  La  La1  1  0.350670  0.850350  0.299323  1
  La  La2  1  0.751177  0.250839  0.496775  1
  La  La3  1  0.148992  0.649239  0.701933  1
  La  La4  1  0.547696  0.047655  0.904755  1
  La  La5  1  0.999854  0.999650  0.000579  1
  La  La6  1  0.400819  0.400880  0.198843  1
  La  La7  1  0.801256  0.801461  0.396842  1
  La  La8  1  0.201770  0.201812  0.596044  1
  La  La9  1  0.601016  0.600930  0.798050  1
  Cu  Cu10  1  0.466867  0.968600  0.067152  1
  Cu  Cu11  1  0.870118  0.367465  0.264517  1
  Cu  Cu12  1  0.267232  0.766640  0.462625  1
  Si  Si13  1  0.666502  0.166355  0.667398  1
  Si  Si14  1  0.064936  0.564617  0.870357  1
  Si  Si15  1  0.916910  0.917143  0.166174  1
  Si  Si16  1  0.317768  0.317883  0.363920  1
  Si  Si17  1  0.719078  0.718881  0.561626  1
  Si  Si18  1  0.117133  0.117215  0.765806  1
  Si  Si19  1  0.515572  0.515564  0.969013  1
  Si  Si20  1  0.433131  0.933310  0.133603  1
  Si  Si21  1  0.834412  0.334664  0.331154  1
  Si  Si22  1  0.234979  0.734978  0.529606  1
  Si  Si23  1  0.633096  0.133351  0.733919  1
  Si  Si24  1  0.031766  0.531686  0.936609  1
  Si  Si25  1  0.482297  0.483496  0.035688  1
  Si  Si26  1  0.883236  0.883586  0.233114  1
  Si  Si27  1  0.284269  0.283188  0.431017  1
  Au  Au28  1  0.683307  0.683794  0.632252  1
  Au  Au29  1  0.082042  0.081977  0.835421  1
