# generated using pymatgen
data_HfAl3TcNi
_symmetry_space_group_name_H-M   'P 1'
_cell_length_a   4.88820744
_cell_length_b   4.88820683
_cell_length_c   4.88820799
_cell_angle_alpha   63.34645751
_cell_angle_beta   63.34646542
_cell_angle_gamma   63.34646793
_symmetry_Int_Tables_number   1
_chemical_formula_structural   HfAl3TcNi
_chemical_formula_sum   'Hf1 Al3 Tc1 Ni1'
_cell_volume   88.71056375
_cell_formula_units_Z   1
loop_
 _symmetry_equiv_pos_site_id
 _symmetry_equiv_pos_as_xyz
  1  'x, y, z'
loop_
 _atom_site_type_symbol
 _atom_site_label
 _atom_site_symmetry_multiplicity
 _atom_site_fract_x
 _atom_site_fract_y
 _atom_site_fract_z
 _atom_site_occupancy
  Hf  Hf0  1  0.377998  0.377998  0.377998  1
  Al  Al1  1  0.998800  0.502701  0.998800  1
  Al  Al2  1  0.502701  0.998800  0.998800  1
  Al  Al3  1  0.998800  0.998800  0.502701  1
  Tc  Tc4  1  0.619544  0.619544  0.619544  1
  Ni  Ni5  1  0.002158  0.002158  0.002158  1
