# generated using pymatgen
data_Nd3Y(MoO4)6
_symmetry_space_group_name_H-M   'P 1'
_cell_length_a   7.60150471
_cell_length_b   7.60150471
_cell_length_c   10.90176315
_cell_angle_alpha   89.88414356
_cell_angle_beta   90.11585644
_cell_angle_gamma   89.84653642
_symmetry_Int_Tables_number   1
_chemical_formula_structural   Nd3Y(MoO4)6
_chemical_formula_sum   'Nd3 Y1 Mo6 O24'
_cell_volume   629.93036361
_cell_formula_units_Z   1
loop_
 _symmetry_equiv_pos_site_id
 _symmetry_equiv_pos_as_xyz
  1  'x, y, z'
loop_
 _atom_site_type_symbol
 _atom_site_label
 _atom_site_symmetry_multiplicity
 _atom_site_fract_x
 _atom_site_fract_y
 _atom_site_fract_z
 _atom_site_occupancy
  Nd  Nd0  1  0.688928  0.189201  0.261539  1
  Nd  Nd1  1  0.814058  0.685942  0.739219  1
  Nd  Nd2  1  0.310799  0.811072  0.261539  1
  Y  Y3  1  0.191178  0.308822  0.735782  1
  Mo  Mo4  1  0.495050  0.496074  0.996433  1
  Mo  Mo5  1  0.003926  0.004950  0.996433  1
  Mo  Mo6  1  0.707068  0.208995  0.646280  1
  Mo  Mo7  1  0.791783  0.708217  0.355162  1
  Mo  Mo8  1  0.291005  0.792932  0.646280  1
  Mo  Mo9  1  0.208568  0.291432  0.360858  1
  O  O10  1  0.311741  0.450201  0.897898  1
  O  O11  1  0.189102  0.962556  0.093953  1
  O  O12  1  0.685634  0.539461  0.905102  1
  O  O13  1  0.817024  0.051262  0.091047  1
  O  O14  1  0.537444  0.310898  0.093953  1
  O  O15  1  0.960539  0.814366  0.905102  1
  O  O16  1  0.448738  0.682976  0.091047  1
  O  O17  1  0.049799  0.188259  0.897898  1
  O  O18  1  0.000292  0.226160  0.301453  1
  O  O19  1  0.501038  0.730771  0.704502  1
  O  O20  1  0.999604  0.774449  0.295895  1
  O  O21  1  0.496832  0.277044  0.702898  1
  O  O22  1  0.769229  0.998962  0.704502  1
  O  O23  1  0.725551  0.500396  0.295895  1
  O  O24  1  0.222956  0.003168  0.702898  1
  O  O25  1  0.273840  0.499708  0.301453  1
  O  O26  1  0.696235  0.197900  0.483232  1
  O  O27  1  0.804656  0.695344  0.517950  1
  O  O28  1  0.302100  0.803765  0.483232  1
  O  O29  1  0.196696  0.303304  0.524166  1
  O  O30  1  0.876843  0.367870  0.691835  1
  O  O31  1  0.627449  0.872551  0.308870  1
  O  O32  1  0.132130  0.623157  0.691835  1
  O  O33  1  0.372167  0.127833  0.313859  1
