# generated using pymatgen
data_Lu12Cr7Re12MoN48
_symmetry_space_group_name_H-M   'P 1'
_cell_length_a   10.82544693
_cell_length_b   10.85690463
_cell_length_c   10.85690569
_cell_angle_alpha   109.52984492
_cell_angle_beta   109.41254028
_cell_angle_gamma   109.41253450
_symmetry_Int_Tables_number   1
_chemical_formula_structural   Lu12Cr7Re12MoN48
_chemical_formula_sum   'Lu12 Cr7 Re12 Mo1 N48'
_cell_volume   982.99209092
_cell_formula_units_Z   1
loop_
 _symmetry_equiv_pos_site_id
 _symmetry_equiv_pos_as_xyz
  1  'x, y, z'
loop_
 _atom_site_type_symbol
 _atom_site_label
 _atom_site_symmetry_multiplicity
 _atom_site_fract_x
 _atom_site_fract_y
 _atom_site_fract_z
 _atom_site_occupancy
  Lu  Lu0  1  0.248091  0.373579  0.125259  1
  Lu  Lu1  1  0.374512  0.751680  0.126421  1
  Lu  Lu2  1  0.374596  0.124740  0.250065  1
  Lu  Lu3  1  0.877168  0.625259  0.251680  1
  Lu  Lu4  1  0.749856  0.125325  0.375260  1
  Lu  Lu5  1  0.124532  0.249935  0.374675  1
  Lu  Lu6  1  0.875467  0.750065  0.625325  1
  Lu  Lu7  1  0.250144  0.874675  0.624740  1
  Lu  Lu8  1  0.122832  0.374741  0.748320  1
  Lu  Lu9  1  0.625404  0.875259  0.749935  1
  Lu  Lu10  1  0.625488  0.248320  0.873579  1
  Lu  Lu11  1  0.751909  0.626421  0.874740  1
  Cr  Cr12  1  0.000000  0.000000  0.000000  1
  Cr  Cr13  1  0.500001  0.000000  0.000000  1
  Cr  Cr14  1  0.000000  0.500001  0.000000  1
  Cr  Cr15  1  0.000000  0.000000  0.500001  1
  Cr  Cr16  1  0.500000  0.000000  0.500000  1
  Cr  Cr17  1  0.000000  0.500000  0.500000  1
  Cr  Cr18  1  0.500001  0.500001  0.500001  1
  Re  Re19  1  0.875197  0.250469  0.125156  1
  Re  Re20  1  0.752008  0.878399  0.126025  1
  Re  Re21  1  0.625984  0.373975  0.252375  1
  Re  Re22  1  0.124728  0.874687  0.249531  1
  Re  Re23  1  0.249959  0.625157  0.374688  1
  Re  Re24  1  0.626391  0.752375  0.378399  1
  Re  Re25  1  0.373609  0.247625  0.621601  1
  Re  Re26  1  0.750041  0.374843  0.625312  1
  Re  Re27  1  0.875271  0.125312  0.750469  1
  Re  Re28  1  0.374016  0.626025  0.747625  1
  Re  Re29  1  0.247992  0.121600  0.873974  1
  Re  Re30  1  0.124802  0.749531  0.874843  1
  Mo  Mo31  1  0.500000  0.500000  0.000000  1
  N  N32  1  0.205569  0.118372  0.023304  1
  N  N33  1  0.316732  0.902826  0.022338  1
  N  N34  1  0.880464  0.403389  0.086097  1
  N  N35  1  0.708575  0.685891  0.087616  1
  N  N36  1  0.620960  0.412384  0.098276  1
  N  N37  1  0.977075  0.682708  0.096611  1
  N  N38  1  0.023285  0.205906  0.119568  1
  N  N39  1  0.596683  0.913786  0.120030  1
  N  N40  1  0.205632  0.586097  0.182708  1
  N  N41  1  0.477317  0.598276  0.185891  1
  N  N42  1  0.118751  0.022010  0.205288  1
  N  N43  1  0.586687  0.181836  0.207400  1
  N  N44  1  0.476653  0.379970  0.293757  1
  N  N45  1  0.317379  0.913662  0.294094  1
  N  N46  1  0.904851  0.025564  0.318164  1
  N  N47  1  0.913463  0.294712  0.316722  1
  N  N48  1  0.294393  0.477662  0.380488  1
  N  N49  1  0.587197  0.904933  0.381629  1
  N  N50  1  0.817735  0.523304  0.404933  1
  N  N51  1  0.086094  0.880487  0.402826  1
  N  N52  1  0.096283  0.619568  0.413662  1
  N  N53  1  0.817104  0.793757  0.413787  1
  N  N54  1  0.596741  0.183278  0.477991  1
  N  N55  1  0.379287  0.292599  0.474436  1
  N  N56  1  0.620713  0.707400  0.525564  1
  N  N57  1  0.403260  0.816722  0.522010  1
  N  N58  1  0.182895  0.206242  0.586213  1
  N  N59  1  0.903718  0.380433  0.586338  1
  N  N60  1  0.913905  0.119512  0.597174  1
  N  N61  1  0.182265  0.476697  0.595068  1
  N  N62  1  0.412803  0.095068  0.618372  1
  N  N63  1  0.705606  0.522338  0.619512  1
  N  N64  1  0.086537  0.705288  0.683278  1
  N  N65  1  0.095149  0.974435  0.681836  1
  N  N66  1  0.682621  0.086338  0.705906  1
  N  N67  1  0.523347  0.620030  0.706242  1
  N  N68  1  0.413313  0.818163  0.792599  1
  N  N69  1  0.881250  0.977991  0.794713  1
  N  N70  1  0.522684  0.401725  0.814109  1
  N  N71  1  0.794367  0.413903  0.817291  1
  N  N72  1  0.403317  0.086213  0.879969  1
  N  N73  1  0.976716  0.794095  0.880433  1
  N  N74  1  0.022924  0.317292  0.903389  1
  N  N75  1  0.379041  0.587616  0.901725  1
  N  N76  1  0.291425  0.314109  0.912384  1
  N  N77  1  0.119535  0.596611  0.913902  1
  N  N78  1  0.683268  0.097174  0.977661  1
  N  N79  1  0.794432  0.881629  0.976697  1
