# generated using pymatgen
data_CeTh2ScAl2Ir3
_symmetry_space_group_name_H-M   'P 1'
_cell_length_a   7.21271100
_cell_length_b   7.30207911
_cell_length_c   4.19317600
_cell_angle_alpha   90.00000000
_cell_angle_beta   90.00000000
_cell_angle_gamma   119.59596099
_symmetry_Int_Tables_number   1
_chemical_formula_structural   CeTh2ScAl2Ir3
_chemical_formula_sum   'Ce1 Th2 Sc1 Al2 Ir3'
_cell_volume   192.03155569
_cell_formula_units_Z   1
loop_
 _symmetry_equiv_pos_site_id
 _symmetry_equiv_pos_as_xyz
  1  'x, y, z'
loop_
 _atom_site_type_symbol
 _atom_site_label
 _atom_site_symmetry_multiplicity
 _atom_site_fract_x
 _atom_site_fract_y
 _atom_site_fract_z
 _atom_site_occupancy
  Ce  Ce0  1  0.402648  0.000000  0.500000  1
  Th  Th1  1  0.007196  0.428818  0.500000  1
  Th  Th2  1  0.578377  0.571182  0.500000  1
  Sc  Sc3  1  0.764241  0.000000  0.000000  1
  Al  Al4  1  0.004382  0.767265  0.000000  1
  Al  Al5  1  0.237117  0.232735  0.000000  1
  Ir  Ir6  1  0.330023  0.661951  0.000000  1
  Ir  Ir7  1  0.668073  0.338049  0.000000  1
  Ir  Ir8  1  0.007944  0.000000  0.500000  1
