# generated using pymatgen
data_Dy7Sn23(RuRh2)2
_symmetry_space_group_name_H-M   'P 1'
_cell_length_a   9.86189240
_cell_length_b   9.86672905
_cell_length_c   10.08183355
_cell_angle_alpha   89.99999948
_cell_angle_beta   90.27429569
_cell_angle_gamma   120.01622074
_symmetry_Int_Tables_number   1
_chemical_formula_structural   Dy7Sn23(RuRh2)2
_chemical_formula_sum   'Dy7 Sn23 Ru2 Rh4'
_cell_volume   849.42682062
_cell_formula_units_Z   1
loop_
 _symmetry_equiv_pos_site_id
 _symmetry_equiv_pos_as_xyz
  1  'x, y, z'
loop_
 _atom_site_type_symbol
 _atom_site_label
 _atom_site_symmetry_multiplicity
 _atom_site_fract_x
 _atom_site_fract_y
 _atom_site_fract_z
 _atom_site_occupancy
  Dy  Dy0  1  0.000000  0.000000  0.000000  1
  Dy  Dy1  1  0.479122  0.519637  0.307205  1
  Dy  Dy2  1  0.520878  0.480363  0.692795  1
  Dy  Dy3  1  0.479122  0.959485  0.307205  1
  Dy  Dy4  1  0.520878  0.040515  0.692795  1
  Dy  Dy5  1  0.039987  0.519994  0.307576  1
  Dy  Dy6  1  0.960013  0.480006  0.692424  1
  Sn  Sn7  1  0.351426  0.001714  0.000684  1
  Sn  Sn8  1  0.648574  0.998286  0.999316  1
  Sn  Sn9  1  0.000000  0.351404  0.000000  1
  Sn  Sn10  1  0.000000  0.648596  0.000000  1
  Sn  Sn11  1  0.648574  0.650288  0.999316  1
  Sn  Sn12  1  0.351426  0.349712  0.000684  1
  Sn  Sn13  1  0.335510  0.667755  0.818129  1
  Sn  Sn14  1  0.664490  0.332245  0.181871  1
  Sn  Sn15  1  0.000000  0.000000  0.500000  1
  Sn  Sn16  1  0.779015  0.221345  0.455915  1
  Sn  Sn17  1  0.220985  0.778655  0.544085  1
  Sn  Sn18  1  0.779015  0.557670  0.455915  1
  Sn  Sn19  1  0.220985  0.442330  0.544085  1
  Sn  Sn20  1  0.441486  0.220743  0.455154  1
  Sn  Sn21  1  0.558514  0.779257  0.544846  1
  Sn  Sn22  1  0.332878  0.666440  0.120022  1
  Sn  Sn23  1  0.667122  0.333560  0.879978  1
  Sn  Sn24  1  0.119047  0.882750  0.279609  1
  Sn  Sn25  1  0.880953  0.117250  0.720391  1
  Sn  Sn26  1  0.119047  0.236297  0.279609  1
  Sn  Sn27  1  0.880953  0.763703  0.720391  1
  Sn  Sn28  1  0.761184  0.880592  0.280875  1
  Sn  Sn29  1  0.238816  0.119408  0.719125  1
  Ru  Ru30  1  0.337255  0.168626  0.199135  1
  Ru  Ru31  1  0.662745  0.831374  0.800865  1
  Rh  Rh32  1  0.831419  0.168921  0.198493  1
  Rh  Rh33  1  0.168581  0.831079  0.801507  1
  Rh  Rh34  1  0.831419  0.662498  0.198493  1
  Rh  Rh35  1  0.168581  0.337502  0.801507  1
