# generated using pymatgen
data_HoLu7Sc11Si16Au
_symmetry_space_group_name_H-M   'P 1'
_cell_length_a   6.94694181
_cell_length_b   7.33391933
_cell_length_c   13.91120506
_cell_angle_alpha   90.00763256
_cell_angle_beta   89.95581723
_cell_angle_gamma   89.80805294
_symmetry_Int_Tables_number   1
_chemical_formula_structural   HoLu7Sc11Si16Au
_chemical_formula_sum   'Ho1 Lu7 Sc11 Si16 Au1'
_cell_volume   708.74820563
_cell_formula_units_Z   1
loop_
 _symmetry_equiv_pos_site_id
 _symmetry_equiv_pos_as_xyz
  1  'x, y, z'
loop_
 _atom_site_type_symbol
 _atom_site_label
 _atom_site_symmetry_multiplicity
 _atom_site_fract_x
 _atom_site_fract_y
 _atom_site_fract_z
 _atom_site_occupancy
  Ho  Ho0  1  0.487022  0.671895  0.596518  1
  Lu  Lu1  1  0.010823  0.177335  0.095575  1
  Lu  Lu2  1  0.989996  0.813464  0.903904  1
  Lu  Lu3  1  0.488043  0.672866  0.903260  1
  Lu  Lu4  1  0.990108  0.812349  0.596944  1
  Lu  Lu5  1  0.509820  0.322424  0.095670  1
  Lu  Lu6  1  0.010005  0.177145  0.403403  1
  Lu  Lu7  1  0.509478  0.322147  0.403242  1
  Sc  Sc8  1  0.837995  0.496560  0.249851  1
  Sc  Sc9  1  0.340801  0.005008  0.249772  1
  Sc  Sc10  1  0.654386  0.995913  0.750105  1
  Sc  Sc11  1  0.321389  0.181814  0.628058  1
  Sc  Sc12  1  0.671756  0.825327  0.374730  1
  Sc  Sc13  1  0.169836  0.679955  0.373422  1
  Sc  Sc14  1  0.672099  0.824392  0.124714  1
  Sc  Sc15  1  0.841413  0.326876  0.628434  1
  Sc  Sc16  1  0.321346  0.181446  0.872297  1
  Sc  Sc17  1  0.839510  0.326318  0.872875  1
  Sc  Sc18  1  0.169940  0.679992  0.126041  1
  Si  Si19  1  0.022730  0.084898  0.750509  1
  Si  Si20  1  0.970065  0.893637  0.249605  1
  Si  Si21  1  0.467721  0.614471  0.249586  1
  Si  Si22  1  0.535585  0.385383  0.750478  1
  Si  Si23  1  0.287389  0.874447  0.750734  1
  Si  Si24  1  0.714031  0.132954  0.249453  1
  Si  Si25  1  0.213063  0.369312  0.249496  1
  Si  Si26  1  0.779484  0.631932  0.751025  1
  Si  Si27  1  0.164367  0.458070  0.528731  1
  Si  Si28  1  0.839953  0.534107  0.461958  1
  Si  Si29  1  0.342373  0.967797  0.462663  1
  Si  Si30  1  0.840474  0.534157  0.037702  1
  Si  Si31  1  0.659365  0.035168  0.540252  1
  Si  Si32  1  0.166289  0.460023  0.969508  1
  Si  Si33  1  0.658227  0.033373  0.959424  1
  Si  Si34  1  0.342936  0.966476  0.036872  1
  Au  Au35  1  0.160187  0.530568  0.753189  1
