# generated using pymatgen
data_Tb3TmGa2(B2Rh5)2
_symmetry_space_group_name_H-M   'P 1'
_cell_length_a   9.47819688
_cell_length_b   9.47819688
_cell_length_c   3.21858800
_cell_angle_alpha   90.00000000
_cell_angle_beta   90.00000000
_cell_angle_gamma   90.24620129
_symmetry_Int_Tables_number   1
_chemical_formula_structural   Tb3TmGa2(B2Rh5)2
_chemical_formula_sum   'Tb3 Tm1 Ga2 B4 Rh10'
_cell_volume   289.14309741
_cell_formula_units_Z   1
loop_
 _symmetry_equiv_pos_site_id
 _symmetry_equiv_pos_as_xyz
  1  'x, y, z'
loop_
 _atom_site_type_symbol
 _atom_site_label
 _atom_site_symmetry_multiplicity
 _atom_site_fract_x
 _atom_site_fract_y
 _atom_site_fract_z
 _atom_site_occupancy
  Tb  Tb0  1  0.825264  0.325264  0.000000  1
  Tb  Tb1  1  0.324412  0.174942  0.000000  1
  Tb  Tb2  1  0.674942  0.824412  0.000000  1
  Tm  Tm3  1  0.174854  0.674854  0.000000  1
  Ga  Ga4  1  0.999967  0.000543  0.000000  1
  Ga  Ga5  1  0.500543  0.499967  0.000000  1
  B  B6  1  0.621506  0.121506  0.000000  1
  B  B7  1  0.122801  0.379875  0.000000  1
  B  B8  1  0.879875  0.622801  0.000000  1
  B  B9  1  0.376295  0.876295  0.000000  1
  Rh  Rh10  1  0.070569  0.219944  0.500000  1
  Rh  Rh11  1  0.217908  0.927176  0.500000  1
  Rh  Rh12  1  0.780593  0.070295  0.500000  1
  Rh  Rh13  1  0.931529  0.780980  0.500000  1
  Rh  Rh14  1  0.427176  0.717908  0.500000  1
  Rh  Rh15  1  0.570295  0.280593  0.500000  1
  Rh  Rh16  1  0.719944  0.570569  0.500000  1
  Rh  Rh17  1  0.280980  0.431529  0.500000  1
  Rh  Rh18  1  0.499200  0.999200  0.500000  1
  Rh  Rh19  1  0.001347  0.501347  0.500000  1
