# generated using pymatgen
data_Pr3ZnBr3
_symmetry_space_group_name_H-M   'P 1'
_cell_length_a   10.50279913
_cell_length_b   10.50279946
_cell_length_c   10.50279900
_cell_angle_alpha   109.47121974
_cell_angle_beta   109.47122038
_cell_angle_gamma   109.47122025
_symmetry_Int_Tables_number   1
_chemical_formula_structural   Pr3ZnBr3
_chemical_formula_sum   'Pr12 Zn4 Br12'
_cell_volume   891.85305541
_cell_formula_units_Z   4
loop_
 _symmetry_equiv_pos_site_id
 _symmetry_equiv_pos_as_xyz
  1  'x, y, z'
loop_
 _atom_site_type_symbol
 _atom_site_label
 _atom_site_symmetry_multiplicity
 _atom_site_fract_x
 _atom_site_fract_y
 _atom_site_fract_z
 _atom_site_occupancy
  Pr  Pr0  1  0.486594  0.493297  0.243297  1
  Pr  Pr1  1  0.750000  0.243297  0.256703  1
  Pr  Pr2  1  0.750000  0.006703  0.493297  1
  Pr  Pr3  1  0.243297  0.486594  0.493297  1
  Pr  Pr4  1  0.256703  0.750000  0.243297  1
  Pr  Pr5  1  0.013406  0.256703  0.006703  1
  Pr  Pr6  1  0.006703  0.013406  0.256703  1
  Pr  Pr7  1  0.493297  0.750000  0.006703  1
  Pr  Pr8  1  0.493297  0.243297  0.486594  1
  Pr  Pr9  1  0.006703  0.493297  0.750000  1
  Pr  Pr10  1  0.256703  0.006703  0.013406  1
  Pr  Pr11  1  0.243297  0.256703  0.750000  1
  Zn  Zn12  1  0.250000  0.250000  0.250000  1
  Zn  Zn13  1  0.500000  0.000000  0.250000  1
  Zn  Zn14  1  0.000000  0.250000  0.500000  1
  Zn  Zn15  1  0.250000  0.500000  0.000000  1
  Br  Br16  1  0.250000  0.755421  0.744579  1
  Br  Br17  1  0.510841  0.505421  0.755421  1
  Br  Br18  1  0.989159  0.744579  0.994579  1
  Br  Br19  1  0.744579  0.250000  0.755421  1
  Br  Br20  1  0.994579  0.989159  0.744579  1
  Br  Br21  1  0.250000  0.994579  0.505421  1
  Br  Br22  1  0.755421  0.510841  0.505421  1
  Br  Br23  1  0.505421  0.250000  0.994579  1
  Br  Br24  1  0.755421  0.744579  0.250000  1
  Br  Br25  1  0.744579  0.994579  0.989159  1
  Br  Br26  1  0.994579  0.505421  0.250000  1
  Br  Br27  1  0.505421  0.755421  0.510841  1
