# generated using pymatgen
data_La2ErIn5
_symmetry_space_group_name_H-M   'P 1'
_cell_length_a   6.79633700
_cell_length_b   10.70526800
_cell_length_c   12.42757300
_cell_angle_alpha   90.00000000
_cell_angle_beta   90.00000000
_cell_angle_gamma   90.00000000
_symmetry_Int_Tables_number   1
_chemical_formula_structural   La2ErIn5
_chemical_formula_sum   'La8 Er4 In20'
_cell_volume   904.18806962
_cell_formula_units_Z   4
loop_
 _symmetry_equiv_pos_site_id
 _symmetry_equiv_pos_as_xyz
  1  'x, y, z'
loop_
 _atom_site_type_symbol
 _atom_site_label
 _atom_site_symmetry_multiplicity
 _atom_site_fract_x
 _atom_site_fract_y
 _atom_site_fract_z
 _atom_site_occupancy
  La  La0  1  0.888948  0.486558  0.143516  1
  La  La1  1  0.611052  0.013442  0.643516  1
  La  La2  1  0.111052  0.986558  0.856484  1
  La  La3  1  0.388948  0.513442  0.356484  1
  La  La4  1  0.111052  0.513442  0.856484  1
  La  La5  1  0.388948  0.986558  0.356484  1
  La  La6  1  0.888948  0.013442  0.143516  1
  La  La7  1  0.611052  0.486558  0.643516  1
  Er  Er8  1  0.348376  0.750000  0.059929  1
  Er  Er9  1  0.151624  0.750000  0.559929  1
  Er  Er10  1  0.651624  0.250000  0.940071  1
  Er  Er11  1  0.848376  0.250000  0.440071  1
  In  In12  1  0.616944  0.750000  0.502319  1
  In  In13  1  0.883056  0.750000  0.002319  1
  In  In14  1  0.383056  0.250000  0.497681  1
  In  In15  1  0.116944  0.250000  0.997681  1
  In  In16  1  0.656346  0.750000  0.240282  1
  In  In17  1  0.843654  0.750000  0.740282  1
  In  In18  1  0.343654  0.250000  0.759718  1
  In  In19  1  0.156346  0.250000  0.259718  1
  In  In20  1  0.103799  0.750000  0.284541  1
  In  In21  1  0.396201  0.750000  0.784541  1
  In  In22  1  0.896201  0.250000  0.715459  1
  In  In23  1  0.603799  0.250000  0.215459  1
  In  In24  1  0.875824  0.544501  0.406114  1
  In  In25  1  0.624176  0.955499  0.906114  1
  In  In26  1  0.124176  0.044501  0.593886  1
  In  In27  1  0.375824  0.455499  0.093886  1
  In  In28  1  0.124176  0.455499  0.593886  1
  In  In29  1  0.375824  0.044501  0.093886  1
  In  In30  1  0.875824  0.955499  0.406114  1
  In  In31  1  0.624176  0.544501  0.906114  1
