# generated using pymatgen
data_PrGd4InGe4
_symmetry_space_group_name_H-M   'P 1'
_cell_length_a   7.65392900
_cell_length_b   7.65403000
_cell_length_c   4.24315300
_cell_angle_alpha   90.00000000
_cell_angle_beta   90.00000000
_cell_angle_gamma   90.00051652
_symmetry_Int_Tables_number   1
_chemical_formula_structural   PrGd4InGe4
_chemical_formula_sum   'Pr1 Gd4 In1 Ge4'
_cell_volume   248.57833872
_cell_formula_units_Z   1
loop_
 _symmetry_equiv_pos_site_id
 _symmetry_equiv_pos_as_xyz
  1  'x, y, z'
loop_
 _atom_site_type_symbol
 _atom_site_label
 _atom_site_symmetry_multiplicity
 _atom_site_fract_x
 _atom_site_fract_y
 _atom_site_fract_z
 _atom_site_occupancy
  Pr  Pr0  1  0.500000  0.500000  0.000000  1
  Gd  Gd1  1  0.164904  0.311105  0.500000  1
  Gd  Gd2  1  0.688813  0.164969  0.500000  1
  Gd  Gd3  1  0.835096  0.688895  0.500000  1
  Gd  Gd4  1  0.311187  0.835031  0.500000  1
  In  In5  1  0.000000  0.000000  0.000000  1
  Ge  Ge6  1  0.124600  0.613378  0.000000  1
  Ge  Ge7  1  0.386488  0.124742  0.000000  1
  Ge  Ge8  1  0.613512  0.875258  0.000000  1
  Ge  Ge9  1  0.875400  0.386622  0.000000  1
