# generated using pymatgen
data_SmY6Tm13Sn16
_symmetry_space_group_name_H-M   'P 1'
_cell_length_a   7.98463209
_cell_length_b   8.12420434
_cell_length_c   15.34311413
_cell_angle_alpha   90.01668477
_cell_angle_beta   90.03731718
_cell_angle_gamma   89.87619131
_symmetry_Int_Tables_number   1
_chemical_formula_structural   SmY6Tm13Sn16
_chemical_formula_sum   'Sm1 Y6 Tm13 Sn16'
_cell_volume   995.28655902
_cell_formula_units_Z   1
loop_
 _symmetry_equiv_pos_site_id
 _symmetry_equiv_pos_as_xyz
  1  'x, y, z'
loop_
 _atom_site_type_symbol
 _atom_site_label
 _atom_site_symmetry_multiplicity
 _atom_site_fract_x
 _atom_site_fract_y
 _atom_site_fract_z
 _atom_site_occupancy
  Sm  Sm0  1  0.018292  0.179152  0.903654  1
  Y  Y1  1  0.019654  0.178879  0.597489  1
  Y  Y2  1  0.481003  0.678500  0.403566  1
  Y  Y3  1  0.980658  0.820845  0.096637  1
  Y  Y4  1  0.480255  0.678003  0.096574  1
  Y  Y5  1  0.980893  0.821462  0.403609  1
  Y  Y6  1  0.518562  0.321870  0.595975  1
  Tm  Tm7  1  0.364640  0.836569  0.876876  1
  Tm  Tm8  1  0.864245  0.662956  0.623015  1
  Tm  Tm9  1  0.635125  0.162813  0.376753  1
  Tm  Tm10  1  0.134413  0.337581  0.122834  1
  Tm  Tm11  1  0.634521  0.163078  0.122992  1
  Tm  Tm12  1  0.135339  0.337047  0.376973  1
  Tm  Tm13  1  0.364930  0.837383  0.623559  1
  Tm  Tm14  1  0.865625  0.662957  0.877346  1
  Tm  Tm15  1  0.521875  0.322523  0.902642  1
  Tm  Tm16  1  0.196918  0.503229  0.750023  1
  Tm  Tm17  1  0.696381  0.996349  0.749878  1
  Tm  Tm18  1  0.803145  0.496705  0.249793  1
  Tm  Tm19  1  0.303417  0.003258  0.249865  1
  Sn  Sn20  1  0.298041  0.037556  0.042147  1
  Sn  Sn21  1  0.797059  0.460798  0.458507  1
  Sn  Sn22  1  0.703191  0.961557  0.541575  1
  Sn  Sn23  1  0.207423  0.537633  0.958353  1
  Sn  Sn24  1  0.700643  0.960837  0.958700  1
  Sn  Sn25  1  0.202699  0.539649  0.541485  1
  Sn  Sn26  1  0.297114  0.038848  0.458740  1
  Sn  Sn27  1  0.794715  0.460718  0.040833  1
  Sn  Sn28  1  0.562258  0.620315  0.750363  1
  Sn  Sn29  1  0.062125  0.878366  0.750087  1
  Sn  Sn30  1  0.437461  0.379379  0.249860  1
  Sn  Sn31  1  0.937739  0.121156  0.249831  1
  Sn  Sn32  1  0.331595  0.148902  0.750431  1
  Sn  Sn33  1  0.826960  0.353169  0.749275  1
  Sn  Sn34  1  0.670621  0.851959  0.249772  1
  Sn  Sn35  1  0.170458  0.647996  0.249991  1
