# generated using pymatgen
data_Mg4Ge4As2Ir7
_symmetry_space_group_name_H-M   'P 1'
_cell_length_a   7.07816467
_cell_length_b   7.07816599
_cell_length_c   7.07816469
_cell_angle_alpha   109.09253916
_cell_angle_beta   110.23126880
_cell_angle_gamma   109.09253736
_symmetry_Int_Tables_number   1
_chemical_formula_structural   Mg4Ge4As2Ir7
_chemical_formula_sum   'Mg4 Ge4 As2 Ir7'
_cell_volume   272.94979508
_cell_formula_units_Z   1
loop_
 _symmetry_equiv_pos_site_id
 _symmetry_equiv_pos_as_xyz
  1  'x, y, z'
loop_
 _atom_site_type_symbol
 _atom_site_label
 _atom_site_symmetry_multiplicity
 _atom_site_fract_x
 _atom_site_fract_y
 _atom_site_fract_z
 _atom_site_occupancy
  Mg  Mg0  1  0.000000  0.000000  0.500000  1
  Mg  Mg1  1  0.500000  0.000000  0.000000  1
  Mg  Mg2  1  0.000000  0.500000  0.000000  1
  Mg  Mg3  1  0.500000  0.500000  0.500000  1
  Ge  Ge4  1  0.690420  0.690420  0.000000  1
  Ge  Ge5  1  0.309580  0.309580  0.000000  1
  Ge  Ge6  1  0.000000  0.690420  0.690420  1
  Ge  Ge7  1  0.000000  0.309580  0.309580  1
  As  As8  1  0.689844  0.000000  0.689844  1
  As  As9  1  0.310156  0.000000  0.310156  1
  Ir  Ir10  1  0.000000  0.000000  0.000000  1
  Ir  Ir11  1  0.250000  0.500000  0.750000  1
  Ir  Ir12  1  0.748837  0.248837  0.500000  1
  Ir  Ir13  1  0.500000  0.248837  0.748837  1
  Ir  Ir14  1  0.500000  0.751163  0.251163  1
  Ir  Ir15  1  0.750000  0.500000  0.250000  1
  Ir  Ir16  1  0.251163  0.751163  0.500000  1
