# generated using pymatgen
data_YbEu(ZnAu2)3
_symmetry_space_group_name_H-M   'P 1'
_cell_length_a   8.84366837
_cell_length_b   8.84366869
_cell_length_c   8.84366800
_cell_angle_alpha   57.23007712
_cell_angle_beta   57.23007581
_cell_angle_gamma   57.23008325
_symmetry_Int_Tables_number   1
_chemical_formula_structural   YbEu(ZnAu2)3
_chemical_formula_sum   'Yb2 Eu2 Zn6 Au12'
_cell_volume   457.88190336
_cell_formula_units_Z   2
loop_
 _symmetry_equiv_pos_site_id
 _symmetry_equiv_pos_as_xyz
  1  'x, y, z'
loop_
 _atom_site_type_symbol
 _atom_site_label
 _atom_site_symmetry_multiplicity
 _atom_site_fract_x
 _atom_site_fract_y
 _atom_site_fract_z
 _atom_site_occupancy
  Yb  Yb0  1  0.093769  0.093769  0.093769  1
  Yb  Yb1  1  0.593769  0.593769  0.593769  1
  Eu  Eu2  1  0.907357  0.907357  0.907357  1
  Eu  Eu3  1  0.407357  0.407357  0.407357  1
  Zn  Zn4  1  0.558697  0.750686  0.941974  1
  Zn  Zn5  1  0.941974  0.558697  0.750686  1
  Zn  Zn6  1  0.750686  0.941974  0.558697  1
  Zn  Zn7  1  0.441974  0.250686  0.058697  1
  Zn  Zn8  1  0.058697  0.441974  0.250686  1
  Zn  Zn9  1  0.250686  0.058697  0.441974  1
  Au  Au10  1  0.480853  0.858950  0.209519  1
  Au  Au11  1  0.209519  0.480853  0.858950  1
  Au  Au12  1  0.858950  0.209519  0.480853  1
  Au  Au13  1  0.709519  0.358950  0.980853  1
  Au  Au14  1  0.980853  0.709519  0.358950  1
  Au  Au15  1  0.358950  0.980853  0.709519  1
  Au  Au16  1  0.514260  0.138239  0.795694  1
  Au  Au17  1  0.795694  0.514260  0.138239  1
  Au  Au18  1  0.138239  0.795694  0.514260  1
  Au  Au19  1  0.295694  0.638239  0.014260  1
  Au  Au20  1  0.014260  0.295694  0.638239  1
  Au  Au21  1  0.638239  0.014260  0.295694  1
