# generated using pymatgen
data_Mn4BeAlPd10
_symmetry_space_group_name_H-M   'P 1'
_cell_length_a   4.06665100
_cell_length_b   5.43479783
_cell_length_c   10.59526131
_cell_angle_alpha   90.54635279
_cell_angle_beta   90.00000000
_cell_angle_gamma   90.00000000
_symmetry_Int_Tables_number   1
_chemical_formula_structural   Mn4BeAlPd10
_chemical_formula_sum   'Mn4 Be1 Al1 Pd10'
_cell_volume   234.15973788
_cell_formula_units_Z   1
loop_
 _symmetry_equiv_pos_site_id
 _symmetry_equiv_pos_as_xyz
  1  'x, y, z'
loop_
 _atom_site_type_symbol
 _atom_site_label
 _atom_site_symmetry_multiplicity
 _atom_site_fract_x
 _atom_site_fract_y
 _atom_site_fract_z
 _atom_site_occupancy
  Mn  Mn0  1  0.500000  0.178647  0.358644  1
  Mn  Mn1  1  0.500000  0.821353  0.641356  1
  Mn  Mn2  1  0.500000  0.677044  0.135223  1
  Mn  Mn3  1  0.500000  0.322956  0.864777  1
  Be  Be4  1  0.000000  0.000000  0.000000  1
  Al  Al5  1  0.000000  0.500000  0.500000  1
  Pd  Pd6  1  0.500000  0.178345  0.102687  1
  Pd  Pd7  1  0.500000  0.821655  0.897313  1
  Pd  Pd8  1  0.500000  0.687787  0.391027  1
  Pd  Pd9  1  0.500000  0.312213  0.608973  1
  Pd  Pd10  1  0.000000  0.000000  0.500000  1
  Pd  Pd11  1  0.000000  0.500000  0.000000  1
  Pd  Pd12  1  0.000000  0.922389  0.232522  1
  Pd  Pd13  1  0.000000  0.077611  0.767478  1
  Pd  Pd14  1  0.000000  0.421314  0.258303  1
  Pd  Pd15  1  0.000000  0.578686  0.741697  1
