# generated using pymatgen
data_LaYb3Pt8
_symmetry_space_group_name_H-M   'P 1'
_cell_length_a   9.40371453
_cell_length_b   9.40371428
_cell_length_c   9.40371400
_cell_angle_alpha   33.58507138
_cell_angle_beta   33.58508472
_cell_angle_gamma   33.58507751
_symmetry_Int_Tables_number   1
_chemical_formula_structural   LaYb3Pt8
_chemical_formula_sum   'La1 Yb3 Pt8'
_cell_volume   226.66554673
_cell_formula_units_Z   1
loop_
 _symmetry_equiv_pos_site_id
 _symmetry_equiv_pos_as_xyz
  1  'x, y, z'
loop_
 _atom_site_type_symbol
 _atom_site_label
 _atom_site_symmetry_multiplicity
 _atom_site_fract_x
 _atom_site_fract_y
 _atom_site_fract_z
 _atom_site_occupancy
  La  La0  1  0.875340  0.875340  0.875340  1
  Yb  Yb1  1  0.374458  0.374458  0.374458  1
  Yb  Yb2  1  0.002500  0.002500  0.002500  1
  Yb  Yb3  1  0.497103  0.497103  0.497103  1
  Pt  Pt4  1  0.438375  0.938572  0.438375  1
  Pt  Pt5  1  0.937467  0.435433  0.937467  1
  Pt  Pt6  1  0.438375  0.438375  0.938572  1
  Pt  Pt7  1  0.937467  0.937467  0.435433  1
  Pt  Pt8  1  0.187163  0.187163  0.187163  1
  Pt  Pt9  1  0.687745  0.687745  0.687745  1
  Pt  Pt10  1  0.938572  0.438375  0.438375  1
  Pt  Pt11  1  0.435433  0.937467  0.937467  1
