# generated using pymatgen
data_Ta4Nb2Co15Si7Os
_symmetry_space_group_name_H-M   'P 1'
_cell_length_a   7.96814833
_cell_length_b   7.97009135
_cell_length_c   7.96690217
_cell_angle_alpha   59.73132014
_cell_angle_beta   59.74378506
_cell_angle_gamma   59.72179974
_symmetry_Int_Tables_number   1
_chemical_formula_structural   Ta4Nb2Co15Si7Os
_chemical_formula_sum   'Ta4 Nb2 Co15 Si7 Os1'
_cell_volume   355.58775599
_cell_formula_units_Z   1
loop_
 _symmetry_equiv_pos_site_id
 _symmetry_equiv_pos_as_xyz
  1  'x, y, z'
loop_
 _atom_site_type_symbol
 _atom_site_label
 _atom_site_symmetry_multiplicity
 _atom_site_fract_x
 _atom_site_fract_y
 _atom_site_fract_z
 _atom_site_occupancy
  Ta  Ta0  1  0.800345  0.200969  0.200712  1
  Ta  Ta1  1  0.797163  0.200925  0.797510  1
  Ta  Ta2  1  0.796667  0.797275  0.201119  1
  Ta  Ta3  1  0.200897  0.201339  0.800298  1
  Nb  Nb4  1  0.200272  0.797832  0.797625  1
  Nb  Nb5  1  0.200344  0.801095  0.200471  1
  Co  Co6  1  0.499537  0.834629  0.833491  1
  Co  Co7  1  0.622212  0.621116  0.143091  1
  Co  Co8  1  0.162789  0.164163  0.504035  1
  Co  Co9  1  0.833458  0.834678  0.498521  1
  Co  Co10  1  0.167176  0.168439  0.167324  1
  Co  Co11  1  0.833302  0.834441  0.834332  1
  Co  Co12  1  0.381167  0.379892  0.857007  1
  Co  Co13  1  0.834496  0.497490  0.834596  1
  Co  Co14  1  0.620614  0.619255  0.619512  1
  Co  Co15  1  0.381443  0.856999  0.380269  1
  Co  Co16  1  0.142979  0.620854  0.621846  1
  Co  Co17  1  0.621708  0.142984  0.621590  1
  Co  Co18  1  0.162960  0.503132  0.164148  1
  Co  Co19  1  0.856949  0.380593  0.380725  1
  Co  Co20  1  0.505096  0.163058  0.162852  1
  Si  Si21  1  0.999329  0.999364  0.498518  1
  Si  Si22  1  0.500852  0.992730  0.501081  1
  Si  Si23  1  0.504692  0.504940  0.504702  1
  Si  Si24  1  0.999241  0.498696  0.999319  1
  Si  Si25  1  0.500809  0.501293  0.992784  1
  Si  Si26  1  0.498341  0.999395  0.999434  1
  Si  Si27  1  0.992697  0.501269  0.500978  1
  Os  Os28  1  0.382461  0.381154  0.382106  1
