# generated using pymatgen
data_ErTm3(Re3W)2
_symmetry_space_group_name_H-M   'P 1'
_cell_length_a   5.45107400
_cell_length_b   5.45107438
_cell_length_c   8.76440300
_cell_angle_alpha   90.00000000
_cell_angle_beta   90.00000000
_cell_angle_gamma   119.99999770
_symmetry_Int_Tables_number   1
_chemical_formula_structural   ErTm3(Re3W)2
_chemical_formula_sum   'Er1 Tm3 Re6 W2'
_cell_volume   225.53667127
_cell_formula_units_Z   1
loop_
 _symmetry_equiv_pos_site_id
 _symmetry_equiv_pos_as_xyz
  1  'x, y, z'
loop_
 _atom_site_type_symbol
 _atom_site_label
 _atom_site_symmetry_multiplicity
 _atom_site_fract_x
 _atom_site_fract_y
 _atom_site_fract_z
 _atom_site_occupancy
  Er  Er0  1  0.333333  0.666667  0.437125  1
  Tm  Tm1  1  0.666667  0.333333  0.562929  1
  Tm  Tm2  1  0.666667  0.333333  0.937108  1
  Tm  Tm3  1  0.333333  0.666667  0.062857  1
  Re  Re4  1  0.828489  0.171511  0.249911  1
  Re  Re5  1  0.828489  0.656978  0.249911  1
  Re  Re6  1  0.343022  0.171511  0.249911  1
  Re  Re7  1  0.171486  0.828514  0.750105  1
  Re  Re8  1  0.171486  0.342973  0.750105  1
  Re  Re9  1  0.657027  0.828514  0.750105  1
  W  W10  1  0.000000  0.000000  0.499979  1
  W  W11  1  0.000000  0.000000  0.999953  1
