# generated using pymatgen
data_Ho7Lu3(PPb3)2
_symmetry_space_group_name_H-M   'P 1'
_cell_length_a   9.07889600
_cell_length_b   9.07889723
_cell_length_c   6.72296400
_cell_angle_alpha   90.00000000
_cell_angle_beta   90.00000000
_cell_angle_gamma   119.99999550
_symmetry_Int_Tables_number   1
_chemical_formula_structural   Ho7Lu3(PPb3)2
_chemical_formula_sum   'Ho7 Lu3 P2 Pb6'
_cell_volume   479.90754581
_cell_formula_units_Z   1
loop_
 _symmetry_equiv_pos_site_id
 _symmetry_equiv_pos_as_xyz
  1  'x, y, z'
loop_
 _atom_site_type_symbol
 _atom_site_label
 _atom_site_symmetry_multiplicity
 _atom_site_fract_x
 _atom_site_fract_y
 _atom_site_fract_z
 _atom_site_occupancy
  Ho  Ho0  1  0.238824  0.000215  0.249871  1
  Ho  Ho1  1  0.761391  0.000215  0.750129  1
  Ho  Ho2  1  0.999785  0.238609  0.249871  1
  Ho  Ho3  1  0.333333  0.666667  0.500000  1
  Ho  Ho4  1  0.999785  0.761176  0.750129  1
  Ho  Ho5  1  0.238824  0.238609  0.750129  1
  Ho  Ho6  1  0.761391  0.761176  0.249871  1
  Lu  Lu7  1  0.666667  0.333333  0.500000  1
  Lu  Lu8  1  0.666667  0.333333  0.000000  1
  Lu  Lu9  1  0.333333  0.666667  0.000000  1
  P  P10  1  0.000000  0.000000  0.000000  1
  P  P11  1  0.000000  0.000000  0.500000  1
  Pb  Pb12  1  0.400624  0.000426  0.750296  1
  Pb  Pb13  1  0.999574  0.400199  0.750296  1
  Pb  Pb14  1  0.400624  0.400199  0.249704  1
  Pb  Pb15  1  0.599801  0.000426  0.249704  1
  Pb  Pb16  1  0.999574  0.599376  0.249704  1
  Pb  Pb17  1  0.599801  0.599376  0.750296  1
