# generated using pymatgen
data_Dy7YSc11Si16Ag
_symmetry_space_group_name_H-M   'P 1'
_cell_length_a   7.03603500
_cell_length_b   7.39426845
_cell_length_c   14.01650801
_cell_angle_alpha   89.99614448
_cell_angle_beta   89.99897196
_cell_angle_gamma   89.91453346
_symmetry_Int_Tables_number   1
_chemical_formula_structural   Dy7YSc11Si16Ag
_chemical_formula_sum   'Dy7 Y1 Sc11 Si16 Ag1'
_cell_volume   729.22668114
_cell_formula_units_Z   1
loop_
 _symmetry_equiv_pos_site_id
 _symmetry_equiv_pos_as_xyz
  1  'x, y, z'
loop_
 _atom_site_type_symbol
 _atom_site_label
 _atom_site_symmetry_multiplicity
 _atom_site_fract_x
 _atom_site_fract_y
 _atom_site_fract_z
 _atom_site_occupancy
  Dy  Dy0  1  0.990442  0.815418  0.900730  1
  Dy  Dy1  1  0.483691  0.673907  0.901177  1
  Dy  Dy2  1  0.990459  0.815452  0.599250  1
  Dy  Dy3  1  0.510932  0.323643  0.096604  1
  Dy  Dy4  1  0.011326  0.175398  0.403390  1
  Dy  Dy5  1  0.510941  0.323630  0.403395  1
  Dy  Dy6  1  0.483679  0.673937  0.598824  1
  Y  Y7  1  0.011237  0.175339  0.096569  1
  Sc  Sc8  1  0.838472  0.497363  0.250028  1
  Sc  Sc9  1  0.339814  0.002688  0.250000  1
  Sc  Sc10  1  0.658214  0.998100  0.750008  1
  Sc  Sc11  1  0.326511  0.182683  0.626467  1
  Sc  Sc12  1  0.670964  0.823495  0.374892  1
  Sc  Sc13  1  0.170778  0.678246  0.374098  1
  Sc  Sc14  1  0.670925  0.823479  0.125118  1
  Sc  Sc15  1  0.835353  0.327126  0.626490  1
  Sc  Sc16  1  0.326528  0.182715  0.873554  1
  Sc  Sc17  1  0.835320  0.327128  0.873494  1
  Sc  Sc18  1  0.170725  0.678224  0.125905  1
  Si  Si19  1  0.028381  0.100653  0.750005  1
  Si  Si20  1  0.968851  0.886510  0.250033  1
  Si  Si21  1  0.467467  0.616999  0.249996  1
  Si  Si22  1  0.537386  0.384781  0.750005  1
  Si  Si23  1  0.289050  0.885173  0.749996  1
  Si  Si24  1  0.713476  0.127153  0.250011  1
  Si  Si25  1  0.212735  0.372655  0.250057  1
  Si  Si26  1  0.776413  0.628879  0.749998  1
  Si  Si27  1  0.160574  0.460096  0.531820  1
  Si  Si28  1  0.843162  0.535666  0.461996  1
  Si  Si29  1  0.344817  0.965332  0.462496  1
  Si  Si30  1  0.843127  0.535795  0.037991  1
  Si  Si31  1  0.657702  0.033770  0.540150  1
  Si  Si32  1  0.160616  0.460156  0.968144  1
  Si  Si33  1  0.657664  0.033750  0.959823  1
  Si  Si34  1  0.344937  0.965238  0.037495  1
  Ag  Ag35  1  0.157327  0.509418  0.749994  1
