# generated using pymatgen
data_Th10SiTcSb6
_symmetry_space_group_name_H-M   'P 1'
_cell_length_a   9.50771100
_cell_length_b   9.50771089
_cell_length_c   6.51956100
_cell_angle_alpha   90.00000000
_cell_angle_beta   90.00000000
_cell_angle_gamma   119.99998994
_symmetry_Int_Tables_number   1
_chemical_formula_structural   Th10SiTcSb6
_chemical_formula_sum   'Th10 Si1 Tc1 Sb6'
_cell_volume   510.38860362
_cell_formula_units_Z   1
loop_
 _symmetry_equiv_pos_site_id
 _symmetry_equiv_pos_as_xyz
  1  'x, y, z'
loop_
 _atom_site_type_symbol
 _atom_site_label
 _atom_site_symmetry_multiplicity
 _atom_site_fract_x
 _atom_site_fract_y
 _atom_site_fract_z
 _atom_site_occupancy
  Th  Th0  1  0.252971  0.000000  0.245091  1
  Th  Th1  1  0.252971  0.252971  0.754909  1
  Th  Th2  1  0.000000  0.747029  0.754909  1
  Th  Th3  1  0.000000  0.252971  0.245091  1
  Th  Th4  1  0.747029  0.747029  0.245091  1
  Th  Th5  1  0.747029  0.000000  0.754909  1
  Th  Th6  1  0.333333  0.666667  0.000000  1
  Th  Th7  1  0.666667  0.333333  0.500000  1
  Th  Th8  1  0.666667  0.333333  0.000000  1
  Th  Th9  1  0.333333  0.666667  0.500000  1
  Si  Si10  1  0.000000  0.000000  0.500000  1
  Tc  Tc11  1  0.000000  0.000000  0.000000  1
  Sb  Sb12  1  0.610371  0.000000  0.250513  1
  Sb  Sb13  1  0.610371  0.610371  0.749487  1
  Sb  Sb14  1  0.000000  0.389629  0.749487  1
  Sb  Sb15  1  0.000000  0.610371  0.250513  1
  Sb  Sb16  1  0.389629  0.389629  0.250513  1
  Sb  Sb17  1  0.389629  0.000000  0.749487  1
