# generated using pymatgen
data_Tm5Ru2C7
_symmetry_space_group_name_H-M   'P 1'
_cell_length_a   8.06498217
_cell_length_b   8.06498254
_cell_length_c   3.46415700
_cell_angle_alpha   90.00000000
_cell_angle_beta   90.00000000
_cell_angle_gamma   121.42631870
_symmetry_Int_Tables_number   1
_chemical_formula_structural   Tm5Ru2C7
_chemical_formula_sum   'Tm5 Ru2 C7'
_cell_volume   192.27018702
_cell_formula_units_Z   1
loop_
 _symmetry_equiv_pos_site_id
 _symmetry_equiv_pos_as_xyz
  1  'x, y, z'
loop_
 _atom_site_type_symbol
 _atom_site_label
 _atom_site_symmetry_multiplicity
 _atom_site_fract_x
 _atom_site_fract_y
 _atom_site_fract_z
 _atom_site_occupancy
  Tm  Tm0  1  0.500000  0.500000  0.000000  1
  Tm  Tm1  1  0.078555  0.339592  0.500000  1
  Tm  Tm2  1  0.921445  0.660408  0.500000  1
  Tm  Tm3  1  0.660408  0.921445  0.500000  1
  Tm  Tm4  1  0.339592  0.078555  0.500000  1
  Ru  Ru5  1  0.713501  0.286499  0.000000  1
  Ru  Ru6  1  0.286499  0.713501  0.000000  1
  C  C7  1  0.627659  0.372341  0.500000  1
  C  C8  1  0.372341  0.627659  0.500000  1
  C  C9  1  0.000000  0.000000  0.000000  1
  C  C10  1  0.172477  0.172477  0.000000  1
  C  C11  1  0.827523  0.827523  0.000000  1
  C  C12  1  0.000000  0.500000  0.000000  1
  C  C13  1  0.500000  0.000000  0.000000  1
