# generated using pymatgen
data_LiHfTa4Ni3P4
_symmetry_space_group_name_H-M   'P 1'
_cell_length_a   7.34943334
_cell_length_b   7.34943326
_cell_length_c   7.25778599
_cell_angle_alpha   94.14926711
_cell_angle_beta   92.62644319
_cell_angle_gamma   152.04241377
_symmetry_Int_Tables_number   1
_chemical_formula_structural   LiHfTa4Ni3P4
_chemical_formula_sum   'Li1 Hf1 Ta4 Ni3 P4'
_cell_volume   178.18643935
_cell_formula_units_Z   1
loop_
 _symmetry_equiv_pos_site_id
 _symmetry_equiv_pos_as_xyz
  1  'x, y, z'
loop_
 _atom_site_type_symbol
 _atom_site_label
 _atom_site_symmetry_multiplicity
 _atom_site_fract_x
 _atom_site_fract_y
 _atom_site_fract_z
 _atom_site_occupancy
  Li  Li0  1  0.591449  0.065683  0.657132  1
  Hf  Hf1  1  0.873065  0.200291  0.073356  1
  Ta  Ta2  1  0.127586  0.804259  0.931844  1
  Ta  Ta3  1  0.196438  0.133456  0.329894  1
  Ta  Ta4  1  0.808416  0.869413  0.677829  1
  Ta  Ta5  1  0.503790  0.501527  0.005317  1
  Ni  Ni6  1  0.387642  0.915132  0.302774  1
  Ni  Ni7  1  0.092504  0.391809  0.484312  1
  Ni  Ni8  1  0.910742  0.612734  0.523477  1
  P  P9  1  0.756435  0.445136  0.201571  1
  P  P10  1  0.246666  0.554742  0.801406  1
  P  P11  1  0.444787  0.243941  0.688730  1
  P  P12  1  0.560481  0.761877  0.322356  1
