# generated using pymatgen
data_Dy2OF4
_symmetry_space_group_name_H-M   'P 1'
_cell_length_a   6.77231183
_cell_length_b   6.77231340
_cell_length_c   5.72337878
_cell_angle_alpha   79.81146179
_cell_angle_beta   79.81146027
_cell_angle_gamma   46.26874023
_symmetry_Int_Tables_number   1
_chemical_formula_structural   Dy2OF4
_chemical_formula_sum   'Dy4 O2 F8'
_cell_volume   186.13646007
_cell_formula_units_Z   2
loop_
 _symmetry_equiv_pos_site_id
 _symmetry_equiv_pos_as_xyz
  1  'x, y, z'
loop_
 _atom_site_type_symbol
 _atom_site_label
 _atom_site_symmetry_multiplicity
 _atom_site_fract_x
 _atom_site_fract_y
 _atom_site_fract_z
 _atom_site_occupancy
  Dy  Dy0  1  0.103816  0.681391  0.576905  1
  Dy  Dy1  1  0.681391  0.103816  0.076905  1
  Dy  Dy2  1  0.318609  0.896184  0.923095  1
  Dy  Dy3  1  0.896184  0.318609  0.423095  1
  O  O4  1  0.950539  0.049461  0.750000  1
  O  O5  1  0.049461  0.950539  0.250000  1
  F  F6  1  0.317371  0.513163  0.921184  1
  F  F7  1  0.513163  0.317371  0.421184  1
  F  F8  1  0.706236  0.853039  0.829003  1
  F  F9  1  0.853039  0.706236  0.329003  1
  F  F10  1  0.146961  0.293764  0.670997  1
  F  F11  1  0.293764  0.146961  0.170997  1
  F  F12  1  0.486837  0.682629  0.578816  1
  F  F13  1  0.682629  0.486837  0.078816  1
