# generated using pymatgen
data_LaFeH5
_symmetry_space_group_name_H-M   'P 1'
_cell_length_a   4.44129200
_cell_length_b   4.77595400
_cell_length_c   11.86430700
_cell_angle_alpha   90.00000000
_cell_angle_beta   90.00000000
_cell_angle_gamma   90.00000000
_symmetry_Int_Tables_number   1
_chemical_formula_structural   LaFeH5
_chemical_formula_sum   'La4 Fe4 H20'
_cell_volume   251.65863616
_cell_formula_units_Z   4
loop_
 _symmetry_equiv_pos_site_id
 _symmetry_equiv_pos_as_xyz
  1  'x, y, z'
loop_
 _atom_site_type_symbol
 _atom_site_label
 _atom_site_symmetry_multiplicity
 _atom_site_fract_x
 _atom_site_fract_y
 _atom_site_fract_z
 _atom_site_occupancy
  La  La0  1  0.270878  0.160034  0.647679  1
  La  La1  1  0.770878  0.339966  0.352321  1
  La  La2  1  0.229122  0.839966  0.147679  1
  La  La3  1  0.729122  0.660034  0.852321  1
  Fe  Fe4  1  0.323951  0.164380  0.913956  1
  Fe  Fe5  1  0.823951  0.335620  0.086044  1
  Fe  Fe6  1  0.176049  0.835620  0.413956  1
  Fe  Fe7  1  0.676049  0.664380  0.586044  1
  H  H8  1  0.541015  0.412932  0.520101  1
  H  H9  1  0.041015  0.087068  0.479899  1
  H  H10  1  0.958985  0.587068  0.020101  1
  H  H11  1  0.458985  0.912932  0.979899  1
  H  H12  1  0.179864  0.942613  0.830773  1
  H  H13  1  0.679864  0.557387  0.169227  1
  H  H14  1  0.320136  0.057387  0.330773  1
  H  H15  1  0.820136  0.442613  0.669227  1
  H  H16  1  0.216565  0.424832  0.835551  1
  H  H17  1  0.716565  0.075168  0.164449  1
  H  H18  1  0.283435  0.575168  0.335551  1
  H  H19  1  0.783435  0.924832  0.664449  1
  H  H20  1  0.603209  0.153850  0.832014  1
  H  H21  1  0.103209  0.346150  0.167986  1
  H  H22  1  0.896791  0.846150  0.332014  1
  H  H23  1  0.396791  0.653850  0.667986  1
  H  H24  1  0.001648  0.117151  0.993251  1
  H  H25  1  0.501648  0.382849  0.006749  1
  H  H26  1  0.498352  0.882849  0.493251  1
  H  H27  1  0.998352  0.617151  0.506749  1
