# generated using pymatgen
data_Er8Al2NiRu
_symmetry_space_group_name_H-M   'P 1'
_cell_length_a   9.38012788
_cell_length_b   9.38992262
_cell_length_c   9.38992252
_cell_angle_alpha   60.19438555
_cell_angle_beta   60.03449827
_cell_angle_gamma   60.03450200
_symmetry_Int_Tables_number   1
_chemical_formula_structural   Er8Al2NiRu
_chemical_formula_sum   'Er16 Al4 Ni2 Ru2'
_cell_volume   585.97444223
_cell_formula_units_Z   2
loop_
 _symmetry_equiv_pos_site_id
 _symmetry_equiv_pos_as_xyz
  1  'x, y, z'
loop_
 _atom_site_type_symbol
 _atom_site_label
 _atom_site_symmetry_multiplicity
 _atom_site_fract_x
 _atom_site_fract_y
 _atom_site_fract_z
 _atom_site_occupancy
  Er  Er0  1  0.062781  0.062624  0.435181  1
  Er  Er1  1  0.648930  0.051903  0.650238  1
  Er  Er2  1  0.192759  0.806514  0.192383  1
  Er  Er3  1  0.439414  0.062624  0.435181  1
  Er  Er4  1  0.192759  0.192383  0.806514  1
  Er  Er5  1  0.646221  0.650090  0.650090  1
  Er  Er6  1  0.053600  0.650090  0.650090  1
  Er  Er7  1  0.435806  0.064194  0.064194  1
  Er  Er8  1  0.648930  0.650238  0.051903  1
  Er  Er9  1  0.192422  0.807578  0.807578  1
  Er  Er10  1  0.808344  0.192383  0.806514  1
  Er  Er11  1  0.806581  0.193419  0.193419  1
  Er  Er12  1  0.808344  0.806514  0.192383  1
  Er  Er13  1  0.060187  0.439813  0.439813  1
  Er  Er14  1  0.439414  0.435181  0.062624  1
  Er  Er15  1  0.062781  0.435181  0.062624  1
  Al  Al16  1  0.732940  0.421932  0.421932  1
  Al  Al17  1  0.422531  0.421452  0.733485  1
  Al  Al18  1  0.422531  0.733485  0.421452  1
  Al  Al19  1  0.423197  0.421932  0.421932  1
  Ni  Ni20  1  0.858099  0.858501  0.858501  1
  Ni  Ni21  1  0.424900  0.858501  0.858501  1
  Ru  Ru22  1  0.858266  0.858518  0.424950  1
  Ru  Ru23  1  0.858266  0.424950  0.858518  1
