# generated using pymatgen
data_Cs4Rb16Si4As5P7
_symmetry_space_group_name_H-M   'P 1'
_cell_length_a   5.61281600
_cell_length_b   14.54051313
_cell_length_c   15.73339916
_cell_angle_alpha   90.00058348
_cell_angle_beta   90.00000000
_cell_angle_gamma   90.00000000
_symmetry_Int_Tables_number   1
_chemical_formula_structural   Cs4Rb16Si4As5P7
_chemical_formula_sum   'Cs4 Rb16 Si4 As5 P7'
_cell_volume   1284.05344100
_cell_formula_units_Z   1
loop_
 _symmetry_equiv_pos_site_id
 _symmetry_equiv_pos_as_xyz
  1  'x, y, z'
loop_
 _atom_site_type_symbol
 _atom_site_label
 _atom_site_symmetry_multiplicity
 _atom_site_fract_x
 _atom_site_fract_y
 _atom_site_fract_z
 _atom_site_occupancy
  Cs  Cs0  1  0.750000  0.455705  0.155602  1
  Cs  Cs1  1  0.250000  0.550205  0.844813  1
  Cs  Cs2  1  0.750000  0.953869  0.345334  1
  Cs  Cs3  1  0.250000  0.046212  0.653887  1
  Rb  Rb4  1  0.250000  0.270949  0.784470  1
  Rb  Rb5  1  0.750000  0.729447  0.216109  1
  Rb  Rb6  1  0.250000  0.773236  0.714131  1
  Rb  Rb7  1  0.750000  0.227791  0.284099  1
  Rb  Rb8  1  0.250000  0.846666  0.464276  1
  Rb  Rb9  1  0.750000  0.153340  0.533732  1
  Rb  Rb10  1  0.250000  0.344069  0.037947  1
  Rb  Rb11  1  0.750000  0.652836  0.967609  1
  Rb  Rb12  1  0.250000  0.617973  0.321085  1
  Rb  Rb13  1  0.750000  0.384322  0.676303  1
  Rb  Rb14  1  0.250000  0.116039  0.179944  1
  Rb  Rb15  1  0.750000  0.880180  0.820808  1
  Rb  Rb16  1  0.250000  0.563240  0.553431  1
  Rb  Rb17  1  0.750000  0.437473  0.444408  1
  Rb  Rb18  1  0.250000  0.060479  0.946696  1
  Rb  Rb19  1  0.750000  0.936635  0.053772  1
  Si  Si20  1  0.750000  0.229929  0.930305  1
  Si  Si21  1  0.250000  0.765895  0.071897  1
  Si  Si22  1  0.750000  0.735580  0.570075  1
  Si  Si23  1  0.250000  0.265157  0.428406  1
  As  As24  1  0.750000  0.387086  0.901251  1
  As  As25  1  0.750000  0.125807  0.816943  1
  As  As26  1  0.250000  0.872322  0.184218  1
  As  As27  1  0.750000  0.629954  0.682875  1
  As  As28  1  0.250000  0.371103  0.315418  1
  P  P29  1  0.250000  0.313341  0.561058  1
  P  P30  1  0.750000  0.687508  0.437346  1
  P  P31  1  0.250000  0.812927  0.938771  1
  P  P32  1  0.750000  0.184032  0.063208  1
  P  P33  1  0.250000  0.116864  0.400288  1
  P  P34  1  0.750000  0.883753  0.598608  1
  P  P35  1  0.250000  0.618077  0.100872  1
