# generated using pymatgen
data_Yb3Pt2RhPb3
_symmetry_space_group_name_H-M   'P 1'
_cell_length_a   7.81226400
_cell_length_b   7.81226256
_cell_length_c   3.81358700
_cell_angle_alpha   90.00000000
_cell_angle_beta   90.00000000
_cell_angle_gamma   119.99999763
_symmetry_Int_Tables_number   1
_chemical_formula_structural   Yb3Pt2RhPb3
_chemical_formula_sum   'Yb3 Pt2 Rh1 Pb3'
_cell_volume   201.56635505
_cell_formula_units_Z   1
loop_
 _symmetry_equiv_pos_site_id
 _symmetry_equiv_pos_as_xyz
  1  'x, y, z'
loop_
 _atom_site_type_symbol
 _atom_site_label
 _atom_site_symmetry_multiplicity
 _atom_site_fract_x
 _atom_site_fract_y
 _atom_site_fract_z
 _atom_site_occupancy
  Yb  Yb0  1  0.000000  0.403929  0.000000  1
  Yb  Yb1  1  0.596071  0.596071  0.000000  1
  Yb  Yb2  1  0.403929  0.000000  0.000000  1
  Pt  Pt3  1  0.666667  0.333333  0.500000  1
  Pt  Pt4  1  0.333333  0.666667  0.500000  1
  Rh  Rh5  1  0.000000  0.000000  0.000000  1
  Pb  Pb6  1  0.263645  0.263645  0.500000  1
  Pb  Pb7  1  0.000000  0.736355  0.500000  1
  Pb  Pb8  1  0.736355  0.000000  0.500000  1
