# generated using pymatgen
data_YEr2Ti(Co4P3)2
_symmetry_space_group_name_H-M   'P 1'
_cell_length_a   3.69117000
_cell_length_b   10.59565700
_cell_length_c   12.27838100
_cell_angle_alpha   90.00000000
_cell_angle_beta   90.00000000
_cell_angle_gamma   90.00000000
_symmetry_Int_Tables_number   1
_chemical_formula_structural   YEr2Ti(Co4P3)2
_chemical_formula_sum   'Y2 Er4 Ti2 Co16 P12'
_cell_volume   480.21203924
_cell_formula_units_Z   2
loop_
 _symmetry_equiv_pos_site_id
 _symmetry_equiv_pos_as_xyz
  1  'x, y, z'
loop_
 _atom_site_type_symbol
 _atom_site_label
 _atom_site_symmetry_multiplicity
 _atom_site_fract_x
 _atom_site_fract_y
 _atom_site_fract_z
 _atom_site_occupancy
  Y  Y0  1  0.000000  0.500000  0.525298  1
  Y  Y1  1  0.500000  0.000000  0.474702  1
  Er  Er2  1  0.500000  0.819965  0.204191  1
  Er  Er3  1  0.500000  0.180035  0.204191  1
  Er  Er4  1  0.000000  0.680035  0.795809  1
  Er  Er5  1  0.000000  0.319965  0.795809  1
  Ti  Ti6  1  0.500000  0.500000  0.153693  1
  Ti  Ti7  1  0.000000  0.000000  0.846307  1
  Co  Co8  1  0.500000  0.500000  0.703459  1
  Co  Co9  1  0.000000  0.000000  0.296541  1
  Co  Co10  1  0.000000  0.500000  0.987106  1
  Co  Co11  1  0.500000  0.000000  0.012894  1
  Co  Co12  1  0.500000  0.332046  0.993915  1
  Co  Co13  1  0.500000  0.667954  0.993915  1
  Co  Co14  1  0.000000  0.167954  0.006085  1
  Co  Co15  1  0.000000  0.832046  0.006085  1
  Co  Co16  1  0.500000  0.295777  0.431689  1
  Co  Co17  1  0.500000  0.704223  0.431689  1
  Co  Co18  1  0.000000  0.204223  0.568311  1
  Co  Co19  1  0.000000  0.795777  0.568311  1
  Co  Co20  1  0.500000  0.878192  0.706187  1
  Co  Co21  1  0.500000  0.121808  0.706187  1
  Co  Co22  1  0.000000  0.621808  0.293813  1
  Co  Co23  1  0.000000  0.378192  0.293813  1
  P  P24  1  0.500000  0.500000  0.882772  1
  P  P25  1  0.000000  0.000000  0.117228  1
  P  P26  1  0.500000  0.500000  0.352950  1
  P  P27  1  0.000000  0.000000  0.647050  1
  P  P28  1  0.500000  0.310448  0.616399  1
  P  P29  1  0.500000  0.689552  0.616399  1
  P  P30  1  0.000000  0.189552  0.383601  1
  P  P31  1  0.000000  0.810448  0.383601  1
  P  P32  1  0.500000  0.842469  0.891760  1
  P  P33  1  0.500000  0.157531  0.891760  1
  P  P34  1  0.000000  0.657531  0.108240  1
  P  P35  1  0.000000  0.342469  0.108240  1
