# generated using pymatgen
data_Ti2BiO6
_symmetry_space_group_name_H-M   'P 1'
_cell_length_a   5.32058869
_cell_length_b   6.74327198
_cell_length_c   7.48456331
_cell_angle_alpha   67.29946341
_cell_angle_beta   68.68634970
_cell_angle_gamma   81.14293442
_symmetry_Int_Tables_number   1
_chemical_formula_structural   Ti2BiO6
_chemical_formula_sum   'Ti4 Bi2 O12'
_cell_volume   230.75753873
_cell_formula_units_Z   2
loop_
 _symmetry_equiv_pos_site_id
 _symmetry_equiv_pos_as_xyz
  1  'x, y, z'
loop_
 _atom_site_type_symbol
 _atom_site_label
 _atom_site_symmetry_multiplicity
 _atom_site_fract_x
 _atom_site_fract_y
 _atom_site_fract_z
 _atom_site_occupancy
  Ti  Ti0  1  0.289608  0.891566  0.464810  1
  Ti  Ti1  1  0.798087  0.895991  0.967705  1
  Ti  Ti2  1  0.704014  0.105354  0.531315  1
  Ti  Ti3  1  0.210199  0.105914  0.036912  1
  Bi  Bi4  1  0.743248  0.495897  0.751578  1
  Bi  Bi5  1  0.252023  0.500776  0.250382  1
  O  O6  1  0.193468  0.608768  0.503876  1
  O  O7  1  0.848704  0.386733  0.457449  1
  O  O8  1  0.015022  0.067905  0.317437  1
  O  O9  1  0.964553  0.898880  0.691695  1
  O  O10  1  0.304475  0.389059  0.000411  1
  O  O11  1  0.653014  0.615503  0.035512  1
  O  O12  1  0.550442  0.819605  0.589633  1
  O  O13  1  0.423393  0.196489  0.413685  1
  O  O14  1  0.484969  0.927525  0.183456  1
  O  O15  1  0.537686  0.109716  0.806547  1
  O  O16  1  0.946465  0.180768  0.914658  1
  O  O17  1  0.080629  0.803551  0.082940  1
