# generated using pymatgen
data_Mg2ZnSn11Ir6
_symmetry_space_group_name_H-M   'P 1'
_cell_length_a   8.16006649
_cell_length_b   8.17771007
_cell_length_c   8.17771019
_cell_angle_alpha   109.37099346
_cell_angle_beta   109.64748962
_cell_angle_gamma   109.64749578
_symmetry_Int_Tables_number   1
_chemical_formula_structural   Mg2ZnSn11Ir6
_chemical_formula_sum   'Mg2 Zn1 Sn11 Ir6'
_cell_volume   418.76747011
_cell_formula_units_Z   1
loop_
 _symmetry_equiv_pos_site_id
 _symmetry_equiv_pos_as_xyz
  1  'x, y, z'
loop_
 _atom_site_type_symbol
 _atom_site_label
 _atom_site_symmetry_multiplicity
 _atom_site_fract_x
 _atom_site_fract_y
 _atom_site_fract_z
 _atom_site_occupancy
  Mg  Mg0  1  0.685518  0.998612  0.999447  1
  Mg  Mg1  1  0.314482  0.000553  0.001388  1
  Zn  Zn2  1  0.500000  0.756689  0.243311  1
  Sn  Sn3  1  0.500000  0.243101  0.756899  1
  Sn  Sn4  1  0.261113  0.520717  0.766631  1
  Sn  Sn5  1  0.740809  0.491612  0.245607  1
  Sn  Sn6  1  0.738887  0.233369  0.479283  1
  Sn  Sn7  1  0.259191  0.754393  0.508388  1
  Sn  Sn8  1  0.329936  0.322820  0.321634  1
  Sn  Sn9  1  0.670064  0.678366  0.677180  1
  Sn  Sn10  1  0.004665  0.999641  0.676630  1
  Sn  Sn11  1  0.008182  0.678124  0.001301  1
  Sn  Sn12  1  0.991818  0.998699  0.321876  1
  Sn  Sn13  1  0.995335  0.323370  0.000359  1
  Ir  Ir14  1  0.008954  0.349310  0.349612  1
  Ir  Ir15  1  0.991046  0.650388  0.650690  1
  Ir  Ir16  1  0.340190  0.001060  0.349926  1
  Ir  Ir17  1  0.660125  0.000984  0.651883  1
  Ir  Ir18  1  0.339875  0.348117  0.999016  1
  Ir  Ir19  1  0.659810  0.650074  0.998940  1
