# generated using pymatgen
data_Ho7Er5InCo4Os
_symmetry_space_group_name_H-M   'P 1'
_cell_length_a   8.24651416
_cell_length_b   8.24689081
_cell_length_c   8.24651390
_cell_angle_alpha   111.43353859
_cell_angle_beta   110.67392745
_cell_angle_gamma   106.34972354
_symmetry_Int_Tables_number   1
_chemical_formula_structural   Ho7Er5InCo4Os
_chemical_formula_sum   'Ho7 Er5 In1 Co4 Os1'
_cell_volume   430.76242827
_cell_formula_units_Z   1
loop_
 _symmetry_equiv_pos_site_id
 _symmetry_equiv_pos_as_xyz
  1  'x, y, z'
loop_
 _atom_site_type_symbol
 _atom_site_label
 _atom_site_symmetry_multiplicity
 _atom_site_fract_x
 _atom_site_fract_y
 _atom_site_fract_z
 _atom_site_occupancy
  Ho  Ho0  1  0.181620  0.279453  0.461464  1
  Ho  Ho1  1  0.817971  0.720564  0.538316  1
  Ho  Ho2  1  0.182248  0.720564  0.902593  1
  Ho  Ho3  1  0.817989  0.279453  0.097834  1
  Ho  Ho4  1  0.314536  0.619425  0.304889  1
  Ho  Ho5  1  0.685665  0.380649  0.694983  1
  Ho  Ho6  1  0.314383  0.009508  0.695124  1
  Er  Er7  1  0.685359  0.990666  0.305307  1
  Er  Er8  1  0.415212  0.220463  0.194565  1
  Er  Er9  1  0.585129  0.779567  0.805861  1
  Er  Er10  1  0.025898  0.220463  0.805251  1
  Er  Er11  1  0.973706  0.779567  0.194438  1
  In  In12  1  0.500160  0.500054  0.999894  1
  Co  Co13  1  0.111487  0.611536  0.500049  1
  Co  Co14  1  0.888246  0.388177  0.499932  1
  Co  Co15  1  0.376929  0.999970  0.376522  1
  Co  Co16  1  0.623447  0.999970  0.623040  1
  Os  Os17  1  0.000014  0.999952  0.999938  1
