# generated using pymatgen
data_Sm8Tm12Si15Pb
_symmetry_space_group_name_H-M   'P 1'
_cell_length_a   7.41557226
_cell_length_b   7.73245559
_cell_length_c   14.65112200
_cell_angle_alpha   90.05803339
_cell_angle_beta   89.43444051
_cell_angle_gamma   90.07554874
_symmetry_Int_Tables_number   1
_chemical_formula_structural   Sm8Tm12Si15Pb
_chemical_formula_sum   'Sm8 Tm12 Si15 Pb1'
_cell_volume   840.06180230
_cell_formula_units_Z   1
loop_
 _symmetry_equiv_pos_site_id
 _symmetry_equiv_pos_as_xyz
  1  'x, y, z'
loop_
 _atom_site_type_symbol
 _atom_site_label
 _atom_site_symmetry_multiplicity
 _atom_site_fract_x
 _atom_site_fract_y
 _atom_site_fract_z
 _atom_site_occupancy
  Sm  Sm0  1  0.016039  0.178087  0.097831  1
  Sm  Sm1  1  0.983603  0.822352  0.902984  1
  Sm  Sm2  1  0.484115  0.678589  0.902775  1
  Sm  Sm3  1  0.984558  0.828192  0.599937  1
  Sm  Sm4  1  0.515884  0.321347  0.098382  1
  Sm  Sm5  1  0.009469  0.170826  0.397937  1
  Sm  Sm6  1  0.516899  0.318687  0.398604  1
  Sm  Sm7  1  0.498526  0.686740  0.601326  1
  Tm  Tm8  1  0.161932  0.508264  0.755182  1
  Tm  Tm9  1  0.836947  0.490910  0.249534  1
  Tm  Tm10  1  0.338235  0.009637  0.249054  1
  Tm  Tm11  1  0.664561  0.990445  0.752163  1
  Tm  Tm12  1  0.340816  0.161868  0.629598  1
  Tm  Tm13  1  0.665792  0.824006  0.374470  1
  Tm  Tm14  1  0.164534  0.686274  0.370091  1
  Tm  Tm15  1  0.671448  0.821283  0.122602  1
  Tm  Tm16  1  0.820390  0.323417  0.624726  1
  Tm  Tm17  1  0.327138  0.176859  0.877237  1
  Tm  Tm18  1  0.827131  0.321992  0.877233  1
  Tm  Tm19  1  0.172116  0.678202  0.123497  1
  Si  Si20  1  0.034553  0.115613  0.751201  1
  Si  Si21  1  0.963008  0.889891  0.246856  1
  Si  Si22  1  0.465003  0.611882  0.248552  1
  Si  Si23  1  0.532785  0.389044  0.752235  1
  Si  Si24  1  0.281918  0.871255  0.752605  1
  Si  Si25  1  0.717633  0.124893  0.247791  1
  Si  Si26  1  0.217492  0.374869  0.248969  1
  Si  Si27  1  0.784028  0.626214  0.751631  1
  Si  Si28  1  0.829788  0.536986  0.458298  1
  Si  Si29  1  0.339781  0.967109  0.460058  1
  Si  Si30  1  0.846699  0.532252  0.039194  1
  Si  Si31  1  0.661174  0.034629  0.537940  1
  Si  Si32  1  0.152633  0.467041  0.961915  1
  Si  Si33  1  0.652884  0.032981  0.961368  1
  Si  Si34  1  0.345865  0.967838  0.039542  1
  Pb  Pb35  1  0.174621  0.459529  0.536687  1
