# generated using pymatgen
data_TmSc4Bi3
_symmetry_space_group_name_H-M   'P 1'
_cell_length_a   7.87399800
_cell_length_b   9.05415300
_cell_length_c   11.54050100
_cell_angle_alpha   90.00000000
_cell_angle_beta   90.00000000
_cell_angle_gamma   90.00000000
_symmetry_Int_Tables_number   1
_chemical_formula_structural   TmSc4Bi3
_chemical_formula_sum   'Tm4 Sc16 Bi12'
_cell_volume   822.74981285
_cell_formula_units_Z   4
loop_
 _symmetry_equiv_pos_site_id
 _symmetry_equiv_pos_as_xyz
  1  'x, y, z'
loop_
 _atom_site_type_symbol
 _atom_site_label
 _atom_site_symmetry_multiplicity
 _atom_site_fract_x
 _atom_site_fract_y
 _atom_site_fract_z
 _atom_site_occupancy
  Tm  Tm0  1  0.185300  0.250000  0.781483  1
  Tm  Tm1  1  0.814700  0.750000  0.218517  1
  Tm  Tm2  1  0.314700  0.750000  0.281483  1
  Tm  Tm3  1  0.685300  0.250000  0.718517  1
  Sc  Sc4  1  0.020267  0.250000  0.511348  1
  Sc  Sc5  1  0.979733  0.750000  0.488652  1
  Sc  Sc6  1  0.479733  0.750000  0.011348  1
  Sc  Sc7  1  0.520267  0.250000  0.988652  1
  Sc  Sc8  1  0.352016  0.250000  0.280711  1
  Sc  Sc9  1  0.647984  0.750000  0.719289  1
  Sc  Sc10  1  0.147984  0.750000  0.780711  1
  Sc  Sc11  1  0.852016  0.250000  0.219289  1
  Sc  Sc12  1  0.194340  0.067610  0.061884  1
  Sc  Sc13  1  0.805660  0.932390  0.938116  1
  Sc  Sc14  1  0.305660  0.932390  0.561884  1
  Sc  Sc15  1  0.805660  0.567610  0.938116  1
  Sc  Sc16  1  0.694340  0.067610  0.438116  1
  Sc  Sc17  1  0.194340  0.432390  0.061884  1
  Sc  Sc18  1  0.694340  0.432390  0.438116  1
  Sc  Sc19  1  0.305660  0.567610  0.561884  1
  Bi  Bi20  1  0.403843  0.250000  0.534978  1
  Bi  Bi21  1  0.596157  0.750000  0.465022  1
  Bi  Bi22  1  0.096157  0.750000  0.034978  1
  Bi  Bi23  1  0.903843  0.250000  0.965022  1
  Bi  Bi24  1  0.064822  0.008701  0.327718  1
  Bi  Bi25  1  0.935178  0.991299  0.672282  1
  Bi  Bi26  1  0.435178  0.991299  0.827718  1
  Bi  Bi27  1  0.935178  0.508701  0.672282  1
  Bi  Bi28  1  0.564822  0.008701  0.172282  1
  Bi  Bi29  1  0.064822  0.491299  0.327718  1
  Bi  Bi30  1  0.564822  0.491299  0.172282  1
  Bi  Bi31  1  0.435178  0.508701  0.827718  1
