# generated using pymatgen
data_Tb3Nd(Tl2Cl5)4
_symmetry_space_group_name_H-M   'P 1'
_cell_length_a   8.14092530
_cell_length_b   8.58117400
_cell_length_c   13.08066200
_cell_angle_alpha   90.00000000
_cell_angle_beta   90.29279588
_cell_angle_gamma   90.00000000
_symmetry_Int_Tables_number   1
_chemical_formula_structural   Tb3Nd(Tl2Cl5)4
_chemical_formula_sum   'Tb3 Nd1 Tl8 Cl20'
_cell_volume   913.78606504
_cell_formula_units_Z   1
loop_
 _symmetry_equiv_pos_site_id
 _symmetry_equiv_pos_as_xyz
  1  'x, y, z'
loop_
 _atom_site_type_symbol
 _atom_site_label
 _atom_site_symmetry_multiplicity
 _atom_site_fract_x
 _atom_site_fract_y
 _atom_site_fract_z
 _atom_site_occupancy
  Tb  Tb0  1  0.928218  0.750000  0.503909  1
  Tb  Tb1  1  0.071292  0.250000  0.496089  1
  Tb  Tb2  1  0.426598  0.250000  0.995860  1
  Nd  Nd3  1  0.573870  0.750000  0.005217  1
  Tl  Tl4  1  0.945798  0.005029  0.826531  1
  Tl  Tl5  1  0.054816  0.996899  0.173456  1
  Tl  Tl6  1  0.445011  0.996337  0.671468  1
  Tl  Tl7  1  0.054816  0.503101  0.173456  1
  Tl  Tl8  1  0.554683  0.004605  0.328540  1
  Tl  Tl9  1  0.945798  0.494971  0.826531  1
  Tl  Tl10  1  0.554683  0.495395  0.328540  1
  Tl  Tl11  1  0.445011  0.503663  0.671468  1
  Cl  Cl12  1  0.116707  0.750000  0.673102  1
  Cl  Cl13  1  0.883384  0.250000  0.326980  1
  Cl  Cl14  1  0.615944  0.250000  0.827746  1
  Cl  Cl15  1  0.377066  0.750000  0.177869  1
  Cl  Cl16  1  0.838855  0.043793  0.570936  1
  Cl  Cl17  1  0.160702  0.956289  0.429209  1
  Cl  Cl18  1  0.335903  0.960346  0.926046  1
  Cl  Cl19  1  0.160702  0.543711  0.429209  1
  Cl  Cl20  1  0.663197  0.049001  0.073710  1
  Cl  Cl21  1  0.838855  0.456207  0.570936  1
  Cl  Cl22  1  0.663197  0.450999  0.073710  1
  Cl  Cl23  1  0.335903  0.539654  0.926046  1
  Cl  Cl24  1  0.593592  0.750000  0.511842  1
  Cl  Cl25  1  0.406101  0.250000  0.487473  1
  Cl  Cl26  1  0.090979  0.250000  0.988451  1
  Cl  Cl27  1  0.916538  0.750000  0.011070  1
  Cl  Cl28  1  0.656728  0.750000  0.799326  1
  Cl  Cl29  1  0.345542  0.250000  0.195728  1
  Cl  Cl30  1  0.154434  0.250000  0.695916  1
  Cl  Cl31  1  0.845081  0.750000  0.303627  1
