# generated using pymatgen
data_Ho2FeCo7(P3W)2
_symmetry_space_group_name_H-M   'P 1'
_cell_length_a   3.70610700
_cell_length_b   10.40310500
_cell_length_c   11.87163200
_cell_angle_alpha   90.00000000
_cell_angle_beta   90.00000000
_cell_angle_gamma   90.00000000
_symmetry_Int_Tables_number   1
_chemical_formula_structural   Ho2FeCo7(P3W)2
_chemical_formula_sum   'Ho4 Fe2 Co14 P12 W4'
_cell_volume   457.71101231
_cell_formula_units_Z   2
loop_
 _symmetry_equiv_pos_site_id
 _symmetry_equiv_pos_as_xyz
  1  'x, y, z'
loop_
 _atom_site_type_symbol
 _atom_site_label
 _atom_site_symmetry_multiplicity
 _atom_site_fract_x
 _atom_site_fract_y
 _atom_site_fract_z
 _atom_site_occupancy
  Ho  Ho0  1  0.250000  0.583062  0.705320  1
  Ho  Ho1  1  0.250000  0.916938  0.205320  1
  Ho  Ho2  1  0.750000  0.418394  0.294307  1
  Ho  Ho3  1  0.750000  0.081606  0.794307  1
  Fe  Fe4  1  0.750000  0.534549  0.064927  1
  Fe  Fe5  1  0.750000  0.965451  0.564927  1
  Co  Co6  1  0.250000  0.405789  0.488469  1
  Co  Co7  1  0.250000  0.094211  0.988469  1
  Co  Co8  1  0.750000  0.594759  0.512336  1
  Co  Co9  1  0.750000  0.905241  0.012336  1
  Co  Co10  1  0.250000  0.223192  0.176918  1
  Co  Co11  1  0.250000  0.276808  0.676918  1
  Co  Co12  1  0.750000  0.777327  0.823157  1
  Co  Co13  1  0.750000  0.722673  0.323157  1
  Co  Co14  1  0.250000  0.886217  0.700935  1
  Co  Co15  1  0.250000  0.613783  0.200935  1
  Co  Co16  1  0.750000  0.113690  0.299526  1
  Co  Co17  1  0.750000  0.386310  0.799526  1
  Co  Co18  1  0.250000  0.463252  0.932615  1
  Co  Co19  1  0.250000  0.036748  0.432615  1
  P  P20  1  0.250000  0.422391  0.115092  1
  P  P21  1  0.250000  0.077609  0.615092  1
  P  P22  1  0.750000  0.579269  0.885124  1
  P  P23  1  0.750000  0.920731  0.385124  1
  P  P24  1  0.250000  0.267544  0.864188  1
  P  P25  1  0.250000  0.232456  0.364188  1
  P  P26  1  0.750000  0.730022  0.136001  1
  P  P27  1  0.750000  0.769978  0.636001  1
  P  P28  1  0.250000  0.595224  0.391059  1
  P  P29  1  0.250000  0.904776  0.891059  1
  P  P30  1  0.750000  0.405653  0.609488  1
  P  P31  1  0.750000  0.094347  0.109488  1
  W  W32  1  0.250000  0.707511  0.988358  1
  W  W33  1  0.250000  0.792489  0.488358  1
  W  W34  1  0.750000  0.291665  0.012179  1
  W  W35  1  0.750000  0.208335  0.512179  1
