# generated using pymatgen
data_TbLu3(TcB2)4
_symmetry_space_group_name_H-M   'P 1'
_cell_length_a   5.28745600
_cell_length_b   5.95064997
_cell_length_c   6.44210400
_cell_angle_alpha   90.05722213
_cell_angle_beta   90.00000000
_cell_angle_gamma   90.00000000
_symmetry_Int_Tables_number   1
_chemical_formula_structural   TbLu3(TcB2)4
_chemical_formula_sum   'Tb1 Lu3 Tc4 B8'
_cell_volume   202.69296995
_cell_formula_units_Z   1
loop_
 _symmetry_equiv_pos_site_id
 _symmetry_equiv_pos_as_xyz
  1  'x, y, z'
loop_
 _atom_site_type_symbol
 _atom_site_label
 _atom_site_symmetry_multiplicity
 _atom_site_fract_x
 _atom_site_fract_y
 _atom_site_fract_z
 _atom_site_occupancy
  Tb  Tb0  1  0.750000  0.484852  0.839413  1
  Lu  Lu1  1  0.250000  0.017504  0.337168  1
  Lu  Lu2  1  0.250000  0.517361  0.163513  1
  Lu  Lu3  1  0.750000  0.984409  0.662319  1
  Tc  Tc4  1  0.250000  0.180203  0.814998  1
  Tc  Tc5  1  0.250000  0.683361  0.682882  1
  Tc  Tc6  1  0.750000  0.819255  0.186963  1
  Tc  Tc7  1  0.750000  0.318229  0.315984  1
  B  B8  1  0.079311  0.368921  0.532442  1
  B  B9  1  0.420975  0.868192  0.966451  1
  B  B10  1  0.577479  0.631737  0.463917  1
  B  B11  1  0.921843  0.128564  0.035570  1
  B  B12  1  0.922521  0.631737  0.463917  1
  B  B13  1  0.578157  0.128564  0.035570  1
  B  B14  1  0.420689  0.368921  0.532442  1
  B  B15  1  0.079025  0.868192  0.966451  1
