# generated using pymatgen
data_Ag2Bi2Ru3PtO14
_symmetry_space_group_name_H-M   'P 1'
_cell_length_a   7.18170096
_cell_length_b   7.29797105
_cell_length_c   7.29797160
_cell_angle_alpha   60.85188081
_cell_angle_beta   60.21724468
_cell_angle_gamma   60.21724026
_symmetry_Int_Tables_number   1
_chemical_formula_structural   Ag2Bi2Ru3PtO14
_chemical_formula_sum   'Ag2 Bi2 Ru3 Pt1 O14'
_cell_volume   273.06852498
_cell_formula_units_Z   1
loop_
 _symmetry_equiv_pos_site_id
 _symmetry_equiv_pos_as_xyz
  1  'x, y, z'
loop_
 _atom_site_type_symbol
 _atom_site_label
 _atom_site_symmetry_multiplicity
 _atom_site_fract_x
 _atom_site_fract_y
 _atom_site_fract_z
 _atom_site_occupancy
  Ag  Ag0  1  0.625000  0.125000  0.125000  1
  Ag  Ag1  1  0.125000  0.125000  0.125000  1
  Bi  Bi2  1  0.125000  0.125000  0.625000  1
  Bi  Bi3  1  0.125000  0.625000  0.125000  1
  Ru  Ru4  1  0.625000  0.625000  0.125000  1
  Ru  Ru5  1  0.625000  0.125000  0.625000  1
  Ru  Ru6  1  0.625000  0.625000  0.625000  1
  Pt  Pt7  1  0.125000  0.625000  0.625000  1
  O  O8  1  0.260809  0.240850  0.240850  1
  O  O9  1  0.989191  0.009150  0.009150  1
  O  O10  1  0.544342  0.945716  0.558927  1
  O  O11  1  0.293207  0.704505  0.291496  1
  O  O12  1  0.544342  0.558927  0.945716  1
  O  O13  1  0.958687  0.540326  0.540326  1
  O  O14  1  0.581604  0.926787  0.926787  1
  O  O15  1  0.956793  0.958504  0.545495  1
  O  O16  1  0.956793  0.545495  0.958504  1
  O  O17  1  0.668396  0.323213  0.323213  1
  O  O18  1  0.291313  0.709674  0.709674  1
  O  O19  1  0.705658  0.304284  0.691073  1
  O  O20  1  0.293207  0.291496  0.704505  1
  O  O21  1  0.705658  0.691073  0.304284  1
