# generated using pymatgen
data_Ho6Tm10CdIn3Rh4
_symmetry_space_group_name_H-M   'P 1'
_cell_length_a   9.56440312
_cell_length_b   9.54319319
_cell_length_c   9.54906240
_cell_angle_alpha   59.94185746
_cell_angle_beta   60.01208302
_cell_angle_gamma   59.91560658
_symmetry_Int_Tables_number   1
_chemical_formula_structural   Ho6Tm10CdIn3Rh4
_chemical_formula_sum   'Ho6 Tm10 Cd1 In3 Rh4'
_cell_volume   615.69859720
_cell_formula_units_Z   1
loop_
 _symmetry_equiv_pos_site_id
 _symmetry_equiv_pos_as_xyz
  1  'x, y, z'
loop_
 _atom_site_type_symbol
 _atom_site_label
 _atom_site_symmetry_multiplicity
 _atom_site_fract_x
 _atom_site_fract_y
 _atom_site_fract_z
 _atom_site_occupancy
  Ho  Ho0  1  0.061856  0.061900  0.437823  1
  Ho  Ho1  1  0.436326  0.065086  0.435860  1
  Ho  Ho2  1  0.061575  0.438099  0.061766  1
  Ho  Ho3  1  0.051729  0.648190  0.648352  1
  Ho  Ho4  1  0.436565  0.436118  0.064654  1
  Ho  Ho5  1  0.648327  0.051378  0.648559  1
  Tm  Tm6  1  0.188255  0.813234  0.188011  1
  Tm  Tm7  1  0.187815  0.187973  0.813542  1
  Tm  Tm8  1  0.810032  0.810212  0.190792  1
  Tm  Tm9  1  0.438911  0.060638  0.060831  1
  Tm  Tm10  1  0.813334  0.188252  0.187901  1
  Tm  Tm11  1  0.063568  0.437196  0.437161  1
  Tm  Tm12  1  0.810379  0.190708  0.810595  1
  Tm  Tm13  1  0.190698  0.810446  0.810429  1
  Tm  Tm14  1  0.648488  0.648680  0.050557  1
  Tm  Tm15  1  0.651551  0.651416  0.651645  1
  Cd  Cd16  1  0.417371  0.417944  0.417299  1
  In  In17  1  0.748152  0.417834  0.417154  1
  In  In18  1  0.418001  0.748093  0.416866  1
  In  In19  1  0.417718  0.417266  0.748059  1
  Rh  Rh20  1  0.858590  0.857776  0.425832  1
  Rh  Rh21  1  0.856545  0.857002  0.858606  1
  Rh  Rh22  1  0.426284  0.857976  0.859336  1
  Rh  Rh23  1  0.857930  0.426584  0.858370  1
