# generated using pymatgen
data_LiTb16Zn(InIr2)2
_symmetry_space_group_name_H-M   'P 1'
_cell_length_a   9.67473906
_cell_length_b   9.65453260
_cell_length_c   9.65451949
_cell_angle_alpha   59.95221191
_cell_angle_beta   60.10940807
_cell_angle_gamma   60.10578516
_symmetry_Int_Tables_number   1
_chemical_formula_structural   LiTb16Zn(InIr2)2
_chemical_formula_sum   'Li1 Tb16 Zn1 In2 Ir4'
_cell_volume   638.45893396
_cell_formula_units_Z   1
loop_
 _symmetry_equiv_pos_site_id
 _symmetry_equiv_pos_as_xyz
  1  'x, y, z'
loop_
 _atom_site_type_symbol
 _atom_site_label
 _atom_site_symmetry_multiplicity
 _atom_site_fract_x
 _atom_site_fract_y
 _atom_site_fract_z
 _atom_site_occupancy
  Li  Li0  1  0.033329  0.322961  0.323024  1
  Tb  Tb1  1  0.100725  0.702617  0.099913  1
  Tb  Tb2  1  0.940209  0.937914  0.560762  1
  Tb  Tb3  1  0.940216  0.560753  0.937931  1
  Tb  Tb4  1  0.312765  0.683022  0.312548  1
  Tb  Tb5  1  0.935694  0.561615  0.561600  1
  Tb  Tb6  1  0.312731  0.312555  0.683053  1
  Tb  Tb7  1  0.099712  0.097484  0.097507  1
  Tb  Tb8  1  0.556871  0.558325  0.940374  1
  Tb  Tb9  1  0.100710  0.099897  0.702637  1
  Tb  Tb10  1  0.689020  0.309277  0.689012  1
  Tb  Tb11  1  0.689048  0.689043  0.309242  1
  Tb  Tb12  1  0.685783  0.311151  0.311153  1
  Tb  Tb13  1  0.311060  0.688623  0.688632  1
  Tb  Tb14  1  0.556846  0.940397  0.558315  1
  Tb  Tb15  1  0.696097  0.102171  0.102134  1
  Tb  Tb16  1  0.556339  0.942778  0.942771  1
  Zn  Zn17  1  0.331948  0.333153  0.333118  1
  In  In18  1  0.328077  0.008394  0.333622  1
  In  In19  1  0.328077  0.333633  0.008406  1
  Ir  Ir20  1  0.889214  0.893831  0.893858  1
  Ir  Ir21  1  0.890052  0.893261  0.325284  1
  Ir  Ir22  1  0.325377  0.891852  0.891864  1
  Ir  Ir23  1  0.890099  0.325291  0.893245  1
