# generated using pymatgen
data_Ta7Nb9(GaTe4)4
_symmetry_space_group_name_H-M   'P 1'
_cell_length_a   4.88287000
_cell_length_b   11.51431601
_cell_length_c   20.25363779
_cell_angle_alpha   89.91275713
_cell_angle_beta   90.00000000
_cell_angle_gamma   90.00000000
_symmetry_Int_Tables_number   1
_chemical_formula_structural   Ta7Nb9(GaTe4)4
_chemical_formula_sum   'Ta7 Nb9 Ga4 Te16'
_cell_volume   1138.71709871
_cell_formula_units_Z   1
loop_
 _symmetry_equiv_pos_site_id
 _symmetry_equiv_pos_as_xyz
  1  'x, y, z'
loop_
 _atom_site_type_symbol
 _atom_site_label
 _atom_site_symmetry_multiplicity
 _atom_site_fract_x
 _atom_site_fract_y
 _atom_site_fract_z
 _atom_site_occupancy
  Ta  Ta0  1  0.500000  0.437968  0.612802  1
  Ta  Ta1  1  0.500000  0.062035  0.112667  1
  Ta  Ta2  1  0.500000  0.937734  0.887241  1
  Ta  Ta3  1  0.500000  0.698540  0.535692  1
  Ta  Ta4  1  0.500000  0.301400  0.464674  1
  Ta  Ta5  1  0.500000  0.198588  0.964603  1
  Ta  Ta6  1  0.500000  0.801356  0.035608  1
  Nb  Nb7  1  0.500000  0.562809  0.386563  1
  Nb  Nb8  1  0.000000  0.685498  0.444834  1
  Nb  Nb9  1  0.000000  0.315046  0.554905  1
  Nb  Nb10  1  0.000000  0.185044  0.054785  1
  Nb  Nb11  1  0.000000  0.814884  0.945076  1
  Nb  Nb12  1  0.000000  0.403600  0.394708  1
  Nb  Nb13  1  0.000000  0.596389  0.605016  1
  Nb  Nb14  1  0.000000  0.903126  0.105108  1
  Nb  Nb15  1  0.000000  0.096471  0.894824  1
  Ga  Ga16  1  0.249318  0.500247  0.499657  1
  Ga  Ga17  1  0.750893  0.999895  0.999993  1
  Ga  Ga18  1  0.750682  0.500247  0.499657  1
  Ga  Ga19  1  0.249107  0.999895  0.999993  1
  Te  Te20  1  0.000000  0.831726  0.558875  1
  Te  Te21  1  0.000000  0.168389  0.440939  1
  Te  Te22  1  0.000000  0.331809  0.940663  1
  Te  Te23  1  0.000000  0.667998  0.059211  1
  Te  Te24  1  0.500000  0.338348  0.325797  1
  Te  Te25  1  0.500000  0.660268  0.674832  1
  Te  Te26  1  0.500000  0.839318  0.174730  1
  Te  Te27  1  0.500000  0.160502  0.825403  1
  Te  Te28  1  0.500000  0.808258  0.409707  1
  Te  Te29  1  0.500000  0.192949  0.591386  1
  Te  Te30  1  0.500000  0.307183  0.091166  1
  Te  Te31  1  0.500000  0.692745  0.908969  1
  Te  Te32  1  0.000000  0.604395  0.311759  1
  Te  Te33  1  0.000000  0.395609  0.688379  1
  Te  Te34  1  0.000000  0.103822  0.188256  1
  Te  Te35  1  0.000000  0.895907  0.811526  1
