# generated using pymatgen
data_K4Co5(PdO7)2
_symmetry_space_group_name_H-M   'P 1'
_cell_length_a   7.84531000
_cell_length_b   7.84531021
_cell_length_c   12.69915100
_cell_angle_alpha   90.00000000
_cell_angle_beta   90.00000000
_cell_angle_gamma   119.99999913
_symmetry_Int_Tables_number   1
_chemical_formula_structural   K4Co5(PdO7)2
_chemical_formula_sum   'K8 Co10 Pd4 O28'
_cell_volume   676.90161805
_cell_formula_units_Z   2
loop_
 _symmetry_equiv_pos_site_id
 _symmetry_equiv_pos_as_xyz
  1  'x, y, z'
loop_
 _atom_site_type_symbol
 _atom_site_label
 _atom_site_symmetry_multiplicity
 _atom_site_fract_x
 _atom_site_fract_y
 _atom_site_fract_z
 _atom_site_occupancy
  K  K0  1  0.422611  0.975853  0.751606  1
  K  K1  1  0.027876  0.448033  0.748934  1
  K  K2  1  0.580260  0.034319  0.248497  1
  K  K3  1  0.550143  0.574780  0.751613  1
  K  K4  1  0.451585  0.418748  0.247695  1
  K  K5  1  0.998795  0.000454  0.750343  1
  K  K6  1  0.967465  0.549202  0.247906  1
  K  K7  1  0.000550  0.004088  0.249574  1
  Co  Co8  1  0.422737  0.138548  0.999872  1
  Co  Co9  1  0.852110  0.284957  0.498436  1
  Co  Co10  1  0.144806  0.714812  0.995894  1
  Co  Co11  1  0.998957  0.001705  0.000572  1
  Co  Co12  1  0.570710  0.857485  0.996104  1
  Co  Co13  1  0.715029  0.567297  0.498408  1
  Co  Co14  1  0.283452  0.426849  0.996945  1
  Co  Co15  1  0.861556  0.284550  0.003440  1
  Co  Co16  1  0.999996  0.999977  0.499822  1
  Co  Co17  1  0.432791  0.147829  0.498519  1
  Pd  Pd18  1  0.284031  0.422060  0.501962  1
  Pd  Pd19  1  0.714900  0.572073  0.004975  1
  Pd  Pd20  1  0.577969  0.861933  0.502063  1
  Pd  Pd21  1  0.137988  0.716092  0.502020  1
  O  O22  1  0.688439  0.336588  0.089080  1
  O  O23  1  0.381601  0.900731  0.068998  1
  O  O24  1  0.629430  0.100449  0.927078  1
  O  O25  1  0.354176  0.667459  0.913684  1
  O  O26  1  0.891154  0.514463  0.576985  1
  O  O27  1  0.666548  0.333234  0.418980  1
  O  O28  1  0.043010  0.237125  0.923694  1
  O  O29  1  0.381752  0.913771  0.421436  1
  O  O30  1  0.531957  0.618162  0.421281  1
  O  O31  1  0.759980  0.816191  0.923264  1
  O  O32  1  0.168966  0.938563  0.919349  1
  O  O33  1  0.231460  0.188445  0.076042  1
  O  O34  1  0.485585  0.376850  0.576972  1
  O  O35  1  0.468354  0.367579  0.925929  1
  O  O36  1  0.086173  0.468016  0.421384  1
  O  O37  1  0.513753  0.625498  0.075322  1
  O  O38  1  0.236132  0.182726  0.420244  1
  O  O39  1  0.192856  0.964679  0.579529  1
  O  O40  1  0.806802  0.048349  0.076254  1
  O  O41  1  0.771689  0.807055  0.579471  1
  O  O42  1  0.100396  0.475450  0.070981  1
  O  O43  1  0.946832  0.764409  0.420316  1
  O  O44  1  0.950013  0.776660  0.085113  1
  O  O45  1  0.035460  0.228328  0.579434  1
  O  O46  1  0.817214  0.053300  0.420294  1
  O  O47  1  0.623127  0.108658  0.577146  1
  O  O48  1  0.333299  0.666631  0.589634  1
  O  O49  1  0.907528  0.518987  0.926906  1
