# generated using pymatgen
data_NaTl3(WO4)2
_symmetry_space_group_name_H-M   'P 1'
_cell_length_a   8.17316147
_cell_length_b   6.45272700
_cell_length_c   9.09891500
_cell_angle_alpha   90.00000000
_cell_angle_beta   89.11613559
_cell_angle_gamma   90.00000000
_symmetry_Int_Tables_number   1
_chemical_formula_structural   NaTl3(WO4)2
_chemical_formula_sum   'Na2 Tl6 W4 O16'
_cell_volume   479.81221674
_cell_formula_units_Z   2
loop_
 _symmetry_equiv_pos_site_id
 _symmetry_equiv_pos_as_xyz
  1  'x, y, z'
loop_
 _atom_site_type_symbol
 _atom_site_label
 _atom_site_symmetry_multiplicity
 _atom_site_fract_x
 _atom_site_fract_y
 _atom_site_fract_z
 _atom_site_occupancy
  Na  Na0  1  0.810015  0.501837  0.250323  1
  Na  Na1  1  0.189985  0.501837  0.749677  1
  Tl  Tl2  1  0.727994  0.752455  0.857756  1
  Tl  Tl3  1  0.272006  0.752455  0.142244  1
  Tl  Tl4  1  0.728301  0.247160  0.649359  1
  Tl  Tl5  1  0.271699  0.247160  0.350641  1
  Tl  Tl6  1  0.500000  0.246191  0.000000  1
  Tl  Tl7  1  0.500000  0.734960  0.500000  1
  W  W8  1  0.000000  0.252931  0.000000  1
  W  W9  1  0.000000  0.747002  0.500000  1
  W  W10  1  0.201789  0.001871  0.747012  1
  W  W11  1  0.798211  0.001871  0.252988  1
  O  O12  1  0.168182  0.990001  0.531882  1
  O  O13  1  0.831818  0.990001  0.468118  1
  O  O14  1  0.005094  0.212903  0.784793  1
  O  O15  1  0.833015  0.010781  0.036036  1
  O  O16  1  0.172499  0.435772  0.008754  1
  O  O17  1  0.653866  0.215010  0.274449  1
  O  O18  1  0.345495  0.788315  0.767489  1
  O  O19  1  0.172152  0.563848  0.488396  1
  O  O20  1  0.827501  0.435772  0.991246  1
  O  O21  1  0.827848  0.563848  0.511604  1
  O  O22  1  0.346134  0.215010  0.725551  1
  O  O23  1  0.654505  0.788315  0.232511  1
  O  O24  1  0.994906  0.212903  0.215207  1
  O  O25  1  0.166985  0.010781  0.963964  1
  O  O26  1  0.996256  0.789505  0.285478  1
  O  O27  1  0.003744  0.789505  0.714522  1
