# generated using pymatgen
data_Zr2TlCuS5
_symmetry_space_group_name_H-M   'P 1'
_cell_length_a   3.72541100
_cell_length_b   7.52478607
_cell_length_c   15.62647300
_cell_angle_alpha   90.00000000
_cell_angle_beta   90.00000000
_cell_angle_gamma   75.66784956
_symmetry_Int_Tables_number   1
_chemical_formula_structural   Zr2TlCuS5
_chemical_formula_sum   'Zr4 Tl2 Cu2 S10'
_cell_volume   424.42206412
_cell_formula_units_Z   2
loop_
 _symmetry_equiv_pos_site_id
 _symmetry_equiv_pos_as_xyz
  1  'x, y, z'
loop_
 _atom_site_type_symbol
 _atom_site_label
 _atom_site_symmetry_multiplicity
 _atom_site_fract_x
 _atom_site_fract_y
 _atom_site_fract_z
 _atom_site_occupancy
  Zr  Zr0  1  0.210551  0.578897  0.097377  1
  Zr  Zr1  1  0.210551  0.578897  0.402623  1
  Zr  Zr2  1  0.789448  0.421103  0.597377  1
  Zr  Zr3  1  0.789448  0.421103  0.902623  1
  Tl  Tl4  1  0.958896  0.082206  0.250000  1
  Tl  Tl5  1  0.041103  0.917794  0.750000  1
  Cu  Cu6  1  0.677667  0.644663  0.250000  1
  Cu  Cu7  1  0.322331  0.355337  0.750000  1
  S  S8  1  0.830160  0.339678  0.062483  1
  S  S9  1  0.592361  0.815276  0.126506  1
  S  S10  1  0.277516  0.444967  0.250000  1
  S  S11  1  0.592361  0.815276  0.373494  1
  S  S12  1  0.830160  0.339678  0.437517  1
  S  S13  1  0.169839  0.660322  0.562483  1
  S  S14  1  0.407638  0.184724  0.626506  1
  S  S15  1  0.722483  0.555033  0.750000  1
  S  S16  1  0.407638  0.184724  0.873494  1
  S  S17  1  0.169839  0.660322  0.937517  1
