# generated using pymatgen
data_DyEr(Al3Pt)6
_symmetry_space_group_name_H-M   'P 1'
_cell_length_a   10.41847767
_cell_length_b   10.41847773
_cell_length_c   10.41847905
_cell_angle_alpha   42.21992044
_cell_angle_beta   42.21991925
_cell_angle_gamma   42.21991895
_symmetry_Int_Tables_number   1
_chemical_formula_structural   DyEr(Al3Pt)6
_chemical_formula_sum   'Dy1 Er1 Al18 Pt6'
_cell_volume   462.12254611
_cell_formula_units_Z   1
loop_
 _symmetry_equiv_pos_site_id
 _symmetry_equiv_pos_as_xyz
  1  'x, y, z'
loop_
 _atom_site_type_symbol
 _atom_site_label
 _atom_site_symmetry_multiplicity
 _atom_site_fract_x
 _atom_site_fract_y
 _atom_site_fract_z
 _atom_site_occupancy
  Dy  Dy0  1  0.166864  0.166864  0.166864  1
  Er  Er1  1  0.833145  0.833145  0.833145  1
  Al  Al2  1  0.107727  0.436315  0.764924  1
  Al  Al3  1  0.436315  0.764924  0.107727  1
  Al  Al4  1  0.564054  0.892087  0.234901  1
  Al  Al5  1  0.949659  0.949659  0.949659  1
  Al  Al6  1  0.050305  0.050305  0.050305  1
  Al  Al7  1  0.295675  0.704157  0.500159  1
  Al  Al8  1  0.892087  0.234901  0.564054  1
  Al  Al9  1  0.385078  0.385078  0.385078  1
  Al  Al10  1  0.500159  0.295675  0.704157  1
  Al  Al11  1  0.234901  0.564054  0.892087  1
  Al  Al12  1  0.716539  0.716539  0.716539  1
  Al  Al13  1  0.614936  0.614936  0.614936  1
  Al  Al14  1  0.334078  0.999996  0.665922  1
  Al  Al15  1  0.704157  0.500159  0.295675  1
  Al  Al16  1  0.665922  0.334078  0.999996  1
  Al  Al17  1  0.283475  0.283475  0.283475  1
  Al  Al18  1  0.999996  0.665922  0.334078  1
  Al  Al19  1  0.764924  0.107727  0.436315  1
  Pt  Pt20  1  0.419166  0.077072  0.760370  1
  Pt  Pt21  1  0.581225  0.239454  0.922716  1
  Pt  Pt22  1  0.077072  0.760370  0.419166  1
  Pt  Pt23  1  0.760370  0.419166  0.077072  1
  Pt  Pt24  1  0.922716  0.581225  0.239454  1
  Pt  Pt25  1  0.239454  0.922716  0.581225  1
