# generated using pymatgen
data_Sm2Tc17C3
_symmetry_space_group_name_H-M   'P 1'
_cell_length_a   7.00147257
_cell_length_b   7.00147245
_cell_length_c   7.00147282
_cell_angle_alpha   82.90431161
_cell_angle_beta   82.90430800
_cell_angle_gamma   82.90431671
_symmetry_Int_Tables_number   1
_chemical_formula_structural   Sm2Tc17C3
_chemical_formula_sum   'Sm2 Tc17 C3'
_cell_volume   335.93046086
_cell_formula_units_Z   1
loop_
 _symmetry_equiv_pos_site_id
 _symmetry_equiv_pos_as_xyz
  1  'x, y, z'
loop_
 _atom_site_type_symbol
 _atom_site_label
 _atom_site_symmetry_multiplicity
 _atom_site_fract_x
 _atom_site_fract_y
 _atom_site_fract_z
 _atom_site_occupancy
  Sm  Sm0  1  0.652412  0.652412  0.652412  1
  Sm  Sm1  1  0.347588  0.347588  0.347588  1
  Tc  Tc2  1  0.000000  0.000000  0.500000  1
  Tc  Tc3  1  0.500000  0.000000  0.000000  1
  Tc  Tc4  1  0.000000  0.500000  0.000000  1
  Tc  Tc5  1  0.721677  0.278323  0.000000  1
  Tc  Tc6  1  0.000000  0.721677  0.278323  1
  Tc  Tc7  1  0.278323  0.000000  0.721677  1
  Tc  Tc8  1  0.000000  0.278323  0.721677  1
  Tc  Tc9  1  0.721677  0.000000  0.278323  1
  Tc  Tc10  1  0.278323  0.721677  0.000000  1
  Tc  Tc11  1  0.348342  0.348342  0.863557  1
  Tc  Tc12  1  0.863557  0.348342  0.348342  1
  Tc  Tc13  1  0.348342  0.863557  0.348342  1
  Tc  Tc14  1  0.651658  0.651658  0.136443  1
  Tc  Tc15  1  0.136443  0.651658  0.651658  1
  Tc  Tc16  1  0.651658  0.136443  0.651658  1
  Tc  Tc17  1  0.902655  0.902655  0.902655  1
  Tc  Tc18  1  0.097345  0.097345  0.097345  1
  C  C19  1  0.500000  0.500000  0.000000  1
  C  C20  1  0.000000  0.500000  0.500000  1
  C  C21  1  0.500000  0.000000  0.500000  1
