# generated using pymatgen
data_CsThF5
_symmetry_space_group_name_H-M   'P 1'
_cell_length_a   8.53438941
_cell_length_b   8.53439037
_cell_length_c   8.87293600
_cell_angle_alpha   90.00000000
_cell_angle_beta   90.00000000
_cell_angle_gamma   117.44550375
_symmetry_Int_Tables_number   1
_chemical_formula_structural   CsThF5
_chemical_formula_sum   'Cs4 Th4 F20'
_cell_volume   573.52983575
_cell_formula_units_Z   4
loop_
 _symmetry_equiv_pos_site_id
 _symmetry_equiv_pos_as_xyz
  1  'x, y, z'
loop_
 _atom_site_type_symbol
 _atom_site_label
 _atom_site_symmetry_multiplicity
 _atom_site_fract_x
 _atom_site_fract_y
 _atom_site_fract_z
 _atom_site_occupancy
  Cs  Cs0  1  0.705505  0.294495  0.500000  1
  Cs  Cs1  1  0.205505  0.794495  0.000000  1
  Cs  Cs2  1  0.294495  0.705505  0.500000  1
  Cs  Cs3  1  0.794495  0.205505  0.000000  1
  Th  Th4  1  0.336679  0.336679  0.837543  1
  Th  Th5  1  0.663321  0.663321  0.162457  1
  Th  Th6  1  0.163321  0.163321  0.337543  1
  Th  Th7  1  0.836679  0.836679  0.662457  1
  F  F8  1  0.292896  0.292896  0.567816  1
  F  F9  1  0.707104  0.707104  0.432184  1
  F  F10  1  0.207104  0.207104  0.067816  1
  F  F11  1  0.792896  0.792896  0.932184  1
  F  F12  1  0.066717  0.066717  0.792891  1
  F  F13  1  0.933283  0.933283  0.207109  1
  F  F14  1  0.433283  0.433283  0.292891  1
  F  F15  1  0.566717  0.566717  0.707109  1
  F  F16  1  0.587819  0.412181  0.000000  1
  F  F17  1  0.087819  0.912181  0.500000  1
  F  F18  1  0.412181  0.587819  0.000000  1
  F  F19  1  0.912181  0.087819  0.500000  1
  F  F20  1  0.439891  0.142947  0.796857  1
  F  F21  1  0.857053  0.560109  0.203143  1
  F  F22  1  0.357053  0.060109  0.296857  1
  F  F23  1  0.939891  0.642947  0.703143  1
  F  F24  1  0.560109  0.857053  0.203143  1
  F  F25  1  0.142947  0.439891  0.796857  1
  F  F26  1  0.642947  0.939891  0.703143  1
  F  F27  1  0.060109  0.357053  0.296857  1
