# generated using pymatgen
data_Y8Si16Mo5W7
_symmetry_space_group_name_H-M   'P 1'
_cell_length_a   6.78613147
_cell_length_b   6.95473580
_cell_length_c   12.92644601
_cell_angle_alpha   89.97015765
_cell_angle_beta   89.97884630
_cell_angle_gamma   90.06394189
_symmetry_Int_Tables_number   1
_chemical_formula_structural   Y8Si16Mo5W7
_chemical_formula_sum   'Y8 Si16 Mo5 W7'
_cell_volume   610.07282853
_cell_formula_units_Z   1
loop_
 _symmetry_equiv_pos_site_id
 _symmetry_equiv_pos_as_xyz
  1  'x, y, z'
loop_
 _atom_site_type_symbol
 _atom_site_label
 _atom_site_symmetry_multiplicity
 _atom_site_fract_x
 _atom_site_fract_y
 _atom_site_fract_z
 _atom_site_occupancy
  Y  Y0  1  0.495835  0.332497  0.093409  1
  Y  Y1  1  0.996575  0.167689  0.406518  1
  Y  Y2  1  0.504164  0.667560  0.593576  1
  Y  Y3  1  0.004158  0.832237  0.906689  1
  Y  Y4  1  0.503487  0.667961  0.906726  1
  Y  Y5  1  0.003672  0.832219  0.593543  1
  Y  Y6  1  0.496893  0.332132  0.406510  1
  Y  Y7  1  0.996117  0.168010  0.093532  1
  Si  Si8  1  0.659566  0.042282  0.547625  1
  Si  Si9  1  0.160327  0.457250  0.952979  1
  Si  Si10  1  0.339038  0.957634  0.047029  1
  Si  Si11  1  0.840627  0.542749  0.452429  1
  Si  Si12  1  0.339997  0.956866  0.451847  1
  Si  Si13  1  0.839065  0.543379  0.047363  1
  Si  Si14  1  0.661003  0.043107  0.952560  1
  Si  Si15  1  0.160633  0.456900  0.547535  1
  Si  Si16  1  0.534614  0.369368  0.749083  1
  Si  Si17  1  0.034826  0.130909  0.750809  1
  Si  Si18  1  0.465798  0.631427  0.249933  1
  Si  Si19  1  0.964575  0.868646  0.250680  1
  Si  Si20  1  0.802405  0.632567  0.750461  1
  Si  Si21  1  0.302383  0.867556  0.749586  1
  Si  Si22  1  0.197834  0.367560  0.250163  1
  Si  Si23  1  0.697256  0.131866  0.249779  1
  Mo  Mo24  1  0.668740  0.835891  0.373951  1
  Mo  Mo25  1  0.170182  0.662762  0.374644  1
  Mo  Mo26  1  0.668794  0.836529  0.125926  1
  Mo  Mo27  1  0.829806  0.337702  0.874920  1
  Mo  Mo28  1  0.329826  0.162712  0.624807  1
  W  W29  1  0.831662  0.335798  0.626732  1
  W  W30  1  0.332168  0.164214  0.872985  1
  W  W31  1  0.168430  0.663427  0.126457  1
  W  W32  1  0.665025  0.001276  0.750339  1
  W  W33  1  0.164912  0.498856  0.750187  1
  W  W34  1  0.334062  0.999488  0.249077  1
  W  W35  1  0.835549  0.500971  0.249612  1
