# generated using pymatgen
data_U2PtSe6
_symmetry_space_group_name_H-M   'P 1'
_cell_length_a   7.51833771
_cell_length_b   7.51833783
_cell_length_c   11.31230450
_cell_angle_alpha   57.91019054
_cell_angle_beta   57.91018962
_cell_angle_gamma   29.51859443
_symmetry_Int_Tables_number   1
_chemical_formula_structural   U2PtSe6
_chemical_formula_sum   'U2 Pt1 Se6'
_cell_volume   263.25013297
_cell_formula_units_Z   1
loop_
 _symmetry_equiv_pos_site_id
 _symmetry_equiv_pos_as_xyz
  1  'x, y, z'
loop_
 _atom_site_type_symbol
 _atom_site_label
 _atom_site_symmetry_multiplicity
 _atom_site_fract_x
 _atom_site_fract_y
 _atom_site_fract_z
 _atom_site_occupancy
  U  U0  1  0.321596  0.321596  0.291605  1
  U  U1  1  0.678404  0.678404  0.708395  1
  Pt  Pt2  1  0.000000  0.000000  0.000000  1
  Se  Se3  1  0.659245  0.659245  0.469980  1
  Se  Se4  1  0.013878  0.013878  0.771328  1
  Se  Se5  1  0.986122  0.986122  0.228672  1
  Se  Se6  1  0.340755  0.340755  0.530020  1
  Se  Se7  1  0.797748  0.797748  0.122099  1
  Se  Se8  1  0.202252  0.202252  0.877901  1
