# generated using pymatgen
data_Er2TmIn4CoNi
_symmetry_space_group_name_H-M   'P 1'
_cell_length_a   7.84963202
_cell_length_b   7.85071338
_cell_length_c   3.60917300
_cell_angle_alpha   90.00000000
_cell_angle_beta   90.00000000
_cell_angle_gamma   120.00347780
_symmetry_Int_Tables_number   1
_chemical_formula_structural   Er2TmIn4CoNi
_chemical_formula_sum   'Er2 Tm1 In4 Co1 Ni1'
_cell_volume   192.61119737
_cell_formula_units_Z   1
loop_
 _symmetry_equiv_pos_site_id
 _symmetry_equiv_pos_as_xyz
  1  'x, y, z'
loop_
 _atom_site_type_symbol
 _atom_site_label
 _atom_site_symmetry_multiplicity
 _atom_site_fract_x
 _atom_site_fract_y
 _atom_site_fract_z
 _atom_site_occupancy
  Er  Er0  1  0.242016  0.290111  0.500000  1
  Er  Er1  1  0.048053  0.757949  0.500000  1
  Tm  Tm2  1  0.709984  0.952024  0.500000  1
  In  In3  1  0.919243  0.334559  0.000000  1
  In  In4  1  0.415381  0.080688  0.000000  1
  In  In5  1  0.665338  0.584681  0.000000  1
  In  In6  1  0.333415  0.666716  0.000000  1
  Co  Co7  1  0.999903  0.999972  0.000000  1
  Ni  Ni8  1  0.666668  0.333300  0.500000  1
