# generated using pymatgen
data_Li2DyErSi3
_symmetry_space_group_name_H-M   'P 1'
_cell_length_a   9.23069148
_cell_length_b   9.23069108
_cell_length_c   6.67427600
_cell_angle_alpha   90.00000000
_cell_angle_beta   90.00000000
_cell_angle_gamma   153.48299540
_symmetry_Int_Tables_number   1
_chemical_formula_structural   Li2DyErSi3
_chemical_formula_sum   'Li4 Dy2 Er2 Si6'
_cell_volume   253.89752935
_cell_formula_units_Z   2
loop_
 _symmetry_equiv_pos_site_id
 _symmetry_equiv_pos_as_xyz
  1  'x, y, z'
loop_
 _atom_site_type_symbol
 _atom_site_label
 _atom_site_symmetry_multiplicity
 _atom_site_fract_x
 _atom_site_fract_y
 _atom_site_fract_z
 _atom_site_occupancy
  Li  Li0  1  0.809795  0.190205  0.558992  1
  Li  Li1  1  0.190205  0.809795  0.441008  1
  Li  Li2  1  0.190205  0.809795  0.058992  1
  Li  Li3  1  0.809795  0.190205  0.941008  1
  Dy  Dy4  1  0.552245  0.447755  0.250000  1
  Dy  Dy5  1  0.447755  0.552245  0.750000  1
  Er  Er6  1  0.344722  0.655278  0.250000  1
  Er  Er7  1  0.655278  0.344722  0.750000  1
  Si  Si8  1  0.940314  0.059686  0.072602  1
  Si  Si9  1  0.059686  0.940314  0.927398  1
  Si  Si10  1  0.059686  0.940314  0.572602  1
  Si  Si11  1  0.940314  0.059686  0.427398  1
  Si  Si12  1  0.720352  0.279648  0.250000  1
  Si  Si13  1  0.279648  0.720352  0.750000  1
