# generated using pymatgen
data_Tm8MgSc11Si15Ge
_symmetry_space_group_name_H-M   'P 1'
_cell_length_a   7.02484141
_cell_length_b   7.35010648
_cell_length_c   13.92279251
_cell_angle_alpha   90.01658430
_cell_angle_beta   89.85724561
_cell_angle_gamma   89.94361320
_symmetry_Int_Tables_number   1
_chemical_formula_structural   Tm8MgSc11Si15Ge
_chemical_formula_sum   'Tm8 Mg1 Sc11 Si15 Ge1'
_cell_volume   718.87756329
_cell_formula_units_Z   1
loop_
 _symmetry_equiv_pos_site_id
 _symmetry_equiv_pos_as_xyz
  1  'x, y, z'
loop_
 _atom_site_type_symbol
 _atom_site_label
 _atom_site_symmetry_multiplicity
 _atom_site_fract_x
 _atom_site_fract_y
 _atom_site_fract_z
 _atom_site_occupancy
  Tm  Tm0  1  0.011400  0.176564  0.096293  1
  Tm  Tm1  1  0.989621  0.820530  0.902960  1
  Tm  Tm2  1  0.486422  0.675843  0.903259  1
  Tm  Tm3  1  0.989509  0.821651  0.597105  1
  Tm  Tm4  1  0.511151  0.323033  0.096365  1
  Tm  Tm5  1  0.009812  0.175677  0.403041  1
  Tm  Tm6  1  0.511942  0.321536  0.402608  1
  Tm  Tm7  1  0.489296  0.677534  0.597084  1
  Mg  Mg8  1  0.160032  0.505233  0.751315  1
  Sc  Sc9  1  0.838110  0.496750  0.250000  1
  Sc  Sc10  1  0.338817  0.003659  0.249922  1
  Sc  Sc11  1  0.659808  0.996281  0.750090  1
  Sc  Sc12  1  0.330798  0.176676  0.626478  1
  Sc  Sc13  1  0.669253  0.824357  0.374137  1
  Sc  Sc14  1  0.167591  0.679200  0.373766  1
  Sc  Sc15  1  0.669922  0.823399  0.125210  1
  Sc  Sc16  1  0.833057  0.324056  0.625618  1
  Sc  Sc17  1  0.328669  0.179273  0.874640  1
  Sc  Sc18  1  0.833520  0.323796  0.874523  1
  Sc  Sc19  1  0.169295  0.678551  0.125680  1
  Si  Si20  1  0.030724  0.102521  0.750102  1
  Si  Si21  1  0.967797  0.888188  0.249467  1
  Si  Si22  1  0.466957  0.613770  0.249727  1
  Si  Si23  1  0.536981  0.384903  0.750272  1
  Si  Si24  1  0.288969  0.877654  0.750374  1
  Si  Si25  1  0.714010  0.130032  0.249522  1
  Si  Si26  1  0.212814  0.370864  0.250032  1
  Si  Si27  1  0.777623  0.630955  0.750179  1
  Si  Si28  1  0.835309  0.537389  0.461586  1
  Si  Si29  1  0.340415  0.965867  0.461268  1
  Si  Si30  1  0.841013  0.535913  0.037667  1
  Si  Si31  1  0.660267  0.034407  0.539633  1
  Si  Si32  1  0.161062  0.462722  0.965698  1
  Si  Si33  1  0.659194  0.033714  0.960118  1
  Si  Si34  1  0.341926  0.966193  0.038801  1
  Ge  Ge35  1  0.166919  0.461311  0.535461  1
