# generated using pymatgen
data_HoErNpO6
_symmetry_space_group_name_H-M   'P 1'
_cell_length_a   5.51063000
_cell_length_b   7.80972924
_cell_length_c   11.79317604
_cell_angle_alpha   73.78914720
_cell_angle_beta   90.00000000
_cell_angle_gamma   90.00000000
_symmetry_Int_Tables_number   1
_chemical_formula_structural   HoErNpO6
_chemical_formula_sum   'Ho4 Er4 Np4 O24'
_cell_volume   487.35808614
_cell_formula_units_Z   4
loop_
 _symmetry_equiv_pos_site_id
 _symmetry_equiv_pos_as_xyz
  1  'x, y, z'
loop_
 _atom_site_type_symbol
 _atom_site_label
 _atom_site_symmetry_multiplicity
 _atom_site_fract_x
 _atom_site_fract_y
 _atom_site_fract_z
 _atom_site_occupancy
  Ho  Ho0  1  0.697817  0.500000  0.250000  1
  Ho  Ho1  1  0.302183  0.500000  0.750000  1
  Ho  Ho2  1  0.744943  0.000000  0.250000  1
  Ho  Ho3  1  0.255057  0.000000  0.750000  1
  Er  Er4  1  0.185658  0.205874  0.420333  1
  Er  Er5  1  0.185658  0.794126  0.079667  1
  Er  Er6  1  0.814342  0.794126  0.579667  1
  Er  Er7  1  0.814342  0.205874  0.920333  1
  Np  Np8  1  0.256649  0.278974  0.113505  1
  Np  Np9  1  0.256649  0.721026  0.386495  1
  Np  Np10  1  0.743351  0.721026  0.886495  1
  Np  Np11  1  0.743351  0.278974  0.613505  1
  O  O12  1  0.449816  0.198342  0.274862  1
  O  O13  1  0.449816  0.801658  0.225138  1
  O  O14  1  0.550184  0.801658  0.725138  1
  O  O15  1  0.550184  0.198342  0.774862  1
  O  O16  1  0.045300  0.054284  0.103539  1
  O  O17  1  0.045300  0.945716  0.396461  1
  O  O18  1  0.954700  0.945716  0.896461  1
  O  O19  1  0.954700  0.054284  0.603539  1
  O  O20  1  0.963482  0.287019  0.233014  1
  O  O21  1  0.963482  0.712981  0.266986  1
  O  O22  1  0.036518  0.712981  0.766986  1
  O  O23  1  0.036518  0.287019  0.733014  1
  O  O24  1  0.874099  0.371929  0.444368  1
  O  O25  1  0.874099  0.628071  0.055632  1
  O  O26  1  0.125901  0.628071  0.555632  1
  O  O27  1  0.125901  0.371929  0.944368  1
  O  O28  1  0.612282  0.519946  0.616811  1
  O  O29  1  0.612282  0.480054  0.883189  1
  O  O30  1  0.387718  0.480054  0.383189  1
  O  O31  1  0.387718  0.519946  0.116811  1
  O  O32  1  0.442860  0.152161  0.568614  1
  O  O33  1  0.442860  0.847839  0.931386  1
  O  O34  1  0.557140  0.847839  0.431386  1
  O  O35  1  0.557140  0.152161  0.068614  1
