# generated using pymatgen
data_CeEr3InOs
_symmetry_space_group_name_H-M   'P 1'
_cell_length_a   9.65981459
_cell_length_b   9.65981417
_cell_length_c   9.65981400
_cell_angle_alpha   60.00000059
_cell_angle_beta   60.00000202
_cell_angle_gamma   59.99999597
_symmetry_Int_Tables_number   1
_chemical_formula_structural   CeEr3InOs
_chemical_formula_sum   'Ce4 Er12 In4 Os4'
_cell_volume   637.36956875
_cell_formula_units_Z   4
loop_
 _symmetry_equiv_pos_site_id
 _symmetry_equiv_pos_as_xyz
  1  'x, y, z'
loop_
 _atom_site_type_symbol
 _atom_site_label
 _atom_site_symmetry_multiplicity
 _atom_site_fract_x
 _atom_site_fract_y
 _atom_site_fract_z
 _atom_site_occupancy
  Ce  Ce0  1  0.596849  0.596849  0.596849  1
  Ce  Ce1  1  0.596849  0.596849  0.209454  1
  Ce  Ce2  1  0.596849  0.209454  0.596849  1
  Ce  Ce3  1  0.209454  0.596849  0.596849  1
  Er  Er4  1  0.061190  0.438810  0.438810  1
  Er  Er5  1  0.438810  0.061190  0.061190  1
  Er  Er6  1  0.438810  0.061190  0.438810  1
  Er  Er7  1  0.061190  0.438810  0.061190  1
  Er  Er8  1  0.438810  0.438810  0.061190  1
  Er  Er9  1  0.061190  0.061190  0.438810  1
  Er  Er10  1  0.190413  0.809587  0.809587  1
  Er  Er11  1  0.809587  0.190413  0.190413  1
  Er  Er12  1  0.809587  0.190413  0.809587  1
  Er  Er13  1  0.190413  0.809587  0.190413  1
  Er  Er14  1  0.809587  0.809587  0.190413  1
  Er  Er15  1  0.190413  0.190413  0.809587  1
  In  In16  1  0.833703  0.833703  0.833703  1
  In  In17  1  0.833703  0.833703  0.498890  1
  In  In18  1  0.833703  0.498890  0.833703  1
  In  In19  1  0.498890  0.833703  0.833703  1
  Os  Os20  1  0.392886  0.392886  0.392886  1
  Os  Os21  1  0.392886  0.392886  0.821340  1
  Os  Os22  1  0.392886  0.821340  0.392886  1
  Os  Os23  1  0.821340  0.392886  0.392886  1
