# generated using pymatgen
data_YbUGa5Co6
_symmetry_space_group_name_H-M   'P 1'
_cell_length_a   5.05843274
_cell_length_b   6.54435854
_cell_length_c   6.54435785
_cell_angle_alpha   86.01095935
_cell_angle_beta   67.26479151
_cell_angle_gamma   67.26479655
_symmetry_Int_Tables_number   1
_chemical_formula_structural   YbUGa5Co6
_chemical_formula_sum   'Yb1 U1 Ga5 Co6'
_cell_volume   183.47461290
_cell_formula_units_Z   1
loop_
 _symmetry_equiv_pos_site_id
 _symmetry_equiv_pos_as_xyz
  1  'x, y, z'
loop_
 _atom_site_type_symbol
 _atom_site_label
 _atom_site_symmetry_multiplicity
 _atom_site_fract_x
 _atom_site_fract_y
 _atom_site_fract_z
 _atom_site_occupancy
  Yb  Yb0  1  0.000000  0.992890  0.007110  1
  U  U1  1  0.000000  0.348447  0.651553  1
  Ga  Ga2  1  0.000000  0.675224  0.324776  1
  Ga  Ga3  1  0.500000  0.162579  0.837421  1
  Ga  Ga4  1  0.500000  0.821355  0.178645  1
  Ga  Ga5  1  0.339507  0.665671  0.655315  1
  Ga  Ga6  1  0.660493  0.344685  0.334329  1
  Co  Co7  1  0.245124  0.253482  0.256270  1
  Co  Co8  1  0.754876  0.743730  0.746518  1
  Co  Co9  1  0.492807  0.005153  0.509184  1
  Co  Co10  1  0.507193  0.490816  0.994847  1
  Co  Co11  1  0.007146  0.490816  0.994847  1
  Co  Co12  1  0.992854  0.005153  0.509184  1
