# generated using pymatgen
data_Tb3B6OsRh7
_symmetry_space_group_name_H-M   'P 1'
_cell_length_a   9.97908818
_cell_length_b   9.16670965
_cell_length_c   5.55038794
_cell_angle_alpha   81.37903587
_cell_angle_beta   65.25959619
_cell_angle_gamma   33.36136632
_symmetry_Int_Tables_number   1
_chemical_formula_structural   Tb3B6OsRh7
_chemical_formula_sum   'Tb3 B6 Os1 Rh7'
_cell_volume   232.43745437
_cell_formula_units_Z   1
loop_
 _symmetry_equiv_pos_site_id
 _symmetry_equiv_pos_as_xyz
  1  'x, y, z'
loop_
 _atom_site_type_symbol
 _atom_site_label
 _atom_site_symmetry_multiplicity
 _atom_site_fract_x
 _atom_site_fract_y
 _atom_site_fract_z
 _atom_site_occupancy
  Tb  Tb0  1  0.000000  0.000000  0.000000  1
  Tb  Tb1  1  0.180579  0.180579  0.819421  1
  Tb  Tb2  1  0.819421  0.819421  0.180579  1
  B  B3  1  0.819066  0.530808  0.485816  1
  B  B4  1  0.164310  0.485816  0.530808  1
  B  B5  1  0.485816  0.164310  0.819066  1
  B  B6  1  0.670110  0.329890  0.670110  1
  B  B7  1  0.530808  0.819066  0.164310  1
  B  B8  1  0.329890  0.670110  0.329890  1
  Os  Os9  1  0.750000  0.750000  0.750000  1
  Rh  Rh10  1  0.414849  0.414849  0.585151  1
  Rh  Rh11  1  0.584891  0.584891  0.915109  1
  Rh  Rh12  1  0.085863  0.085863  0.414137  1
  Rh  Rh13  1  0.915109  0.915109  0.584891  1
  Rh  Rh14  1  0.585151  0.585151  0.414849  1
  Rh  Rh15  1  0.250000  0.250000  0.250000  1
  Rh  Rh16  1  0.414137  0.414137  0.085863  1
