# generated using pymatgen
data_Pr12IrPt3
_symmetry_space_group_name_H-M   'P 1'
_cell_length_a   6.67796167
_cell_length_b   7.39164978
_cell_length_c   10.13115500
_cell_angle_alpha   90.00000000
_cell_angle_beta   90.00000000
_cell_angle_gamma   89.94812739
_symmetry_Int_Tables_number   1
_chemical_formula_structural   Pr12IrPt3
_chemical_formula_sum   'Pr12 Ir1 Pt3'
_cell_volume   500.08529583
_cell_formula_units_Z   1
loop_
 _symmetry_equiv_pos_site_id
 _symmetry_equiv_pos_as_xyz
  1  'x, y, z'
loop_
 _atom_site_type_symbol
 _atom_site_label
 _atom_site_symmetry_multiplicity
 _atom_site_fract_x
 _atom_site_fract_y
 _atom_site_fract_z
 _atom_site_occupancy
  Pr  Pr0  1  0.330252  0.676539  0.061324  1
  Pr  Pr1  1  0.169693  0.176203  0.437243  1
  Pr  Pr2  1  0.669371  0.327397  0.565433  1
  Pr  Pr3  1  0.826226  0.821900  0.935383  1
  Pr  Pr4  1  0.669371  0.327397  0.934567  1
  Pr  Pr5  1  0.826226  0.821900  0.564617  1
  Pr  Pr6  1  0.330252  0.676539  0.438676  1
  Pr  Pr7  1  0.169693  0.176203  0.062757  1
  Pr  Pr8  1  0.860176  0.531864  0.250000  1
  Pr  Pr9  1  0.640286  0.032300  0.250000  1
  Pr  Pr10  1  0.144453  0.468937  0.750000  1
  Pr  Pr11  1  0.363363  0.961234  0.750000  1
  Ir  Ir12  1  0.565563  0.618061  0.750000  1
  Pt  Pt13  1  0.066304  0.883047  0.250000  1
  Pt  Pt14  1  0.433055  0.383302  0.250000  1
  Pt  Pt15  1  0.935714  0.117178  0.750000  1
