# generated using pymatgen
data_NdDy4(Cd2Pt)2
_symmetry_space_group_name_H-M   'P 1'
_cell_length_a   3.68308300
_cell_length_b   7.98607300
_cell_length_c   18.52561800
_cell_angle_alpha   90.00000000
_cell_angle_beta   90.00000000
_cell_angle_gamma   90.00000000
_symmetry_Int_Tables_number   1
_chemical_formula_structural   NdDy4(Cd2Pt)2
_chemical_formula_sum   'Nd2 Dy8 Cd8 Pt4'
_cell_volume   544.90085121
_cell_formula_units_Z   2
loop_
 _symmetry_equiv_pos_site_id
 _symmetry_equiv_pos_as_xyz
  1  'x, y, z'
loop_
 _atom_site_type_symbol
 _atom_site_label
 _atom_site_symmetry_multiplicity
 _atom_site_fract_x
 _atom_site_fract_y
 _atom_site_fract_z
 _atom_site_occupancy
  Nd  Nd0  1  0.000000  0.000000  0.000000  1
  Nd  Nd1  1  0.000000  0.500000  0.500000  1
  Dy  Dy2  1  0.000000  0.114340  0.413433  1
  Dy  Dy3  1  0.000000  0.885660  0.586567  1
  Dy  Dy4  1  0.000000  0.385660  0.913433  1
  Dy  Dy5  1  0.000000  0.614340  0.086567  1
  Dy  Dy6  1  0.000000  0.243576  0.219661  1
  Dy  Dy7  1  0.000000  0.756424  0.780339  1
  Dy  Dy8  1  0.000000  0.256424  0.719661  1
  Dy  Dy9  1  0.000000  0.743576  0.280339  1
  Cd  Cd10  1  0.500000  0.428233  0.351583  1
  Cd  Cd11  1  0.500000  0.571767  0.648417  1
  Cd  Cd12  1  0.500000  0.071767  0.851583  1
  Cd  Cd13  1  0.500000  0.928233  0.148417  1
  Cd  Cd14  1  0.500000  0.290752  0.067584  1
  Cd  Cd15  1  0.500000  0.709248  0.932416  1
  Cd  Cd16  1  0.500000  0.209248  0.567584  1
  Cd  Cd17  1  0.500000  0.790752  0.432416  1
  Pt  Pt18  1  0.500000  0.027877  0.303756  1
  Pt  Pt19  1  0.500000  0.972123  0.696244  1
  Pt  Pt20  1  0.500000  0.472123  0.803756  1
  Pt  Pt21  1  0.500000  0.527877  0.196244  1
