# generated using pymatgen
data_Tb2Nd4Al24Os5Pt3
_symmetry_space_group_name_H-M   'P 1'
_cell_length_a   8.88369418
_cell_length_b   8.90051935
_cell_length_c   9.66079404
_cell_angle_alpha   90.06521266
_cell_angle_beta   89.87854763
_cell_angle_gamma   119.51988613
_symmetry_Int_Tables_number   1
_chemical_formula_structural   Tb2Nd4Al24Os5Pt3
_chemical_formula_sum   'Tb2 Nd4 Al24 Os5 Pt3'
_cell_volume   664.71006273
_cell_formula_units_Z   1
loop_
 _symmetry_equiv_pos_site_id
 _symmetry_equiv_pos_as_xyz
  1  'x, y, z'
loop_
 _atom_site_type_symbol
 _atom_site_label
 _atom_site_symmetry_multiplicity
 _atom_site_fract_x
 _atom_site_fract_y
 _atom_site_fract_z
 _atom_site_occupancy
  Tb  Tb0  1  0.194199  0.809482  0.250896  1
  Tb  Tb1  1  0.805801  0.190518  0.749104  1
  Nd  Nd2  1  0.187633  0.380100  0.249690  1
  Nd  Nd3  1  0.812367  0.619900  0.750310  1
  Nd  Nd4  1  0.617284  0.813640  0.251629  1
  Nd  Nd5  1  0.382716  0.186360  0.748371  1
  Al  Al6  1  0.334601  0.671872  0.027517  1
  Al  Al7  1  0.665399  0.328128  0.972483  1
  Al  Al8  1  0.670266  0.330641  0.526270  1
  Al  Al9  1  0.329734  0.669359  0.473730  1
  Al  Al10  1  0.157522  0.325843  0.573850  1
  Al  Al11  1  0.842478  0.674157  0.426150  1
  Al  Al12  1  0.673430  0.841639  0.574955  1
  Al  Al13  1  0.837301  0.675673  0.076992  1
  Al  Al14  1  0.326570  0.158361  0.425045  1
  Al  Al15  1  0.162699  0.324327  0.923008  1
  Al  Al16  1  0.164487  0.834558  0.574299  1
  Al  Al17  1  0.325912  0.157905  0.075550  1
  Al  Al18  1  0.835513  0.165442  0.425701  1
  Al  Al19  1  0.674088  0.842095  0.924450  1
  Al  Al20  1  0.831349  0.159654  0.076096  1
  Al  Al21  1  0.168651  0.840346  0.923904  1
  Al  Al22  1  0.560023  0.125408  0.249769  1
  Al  Al23  1  0.439977  0.874592  0.750231  1
  Al  Al24  1  0.873273  0.438090  0.252932  1
  Al  Al25  1  0.126727  0.561910  0.747068  1
  Al  Al26  1  0.563628  0.435486  0.249673  1
  Al  Al27  1  0.436372  0.564514  0.750327  1
  Al  Al28  1  0.999343  0.002205  0.250122  1
  Al  Al29  1  0.000657  0.997795  0.749878  1
  Os  Os30  1  0.500000  0.000000  0.000000  1
  Os  Os31  1  0.500000  0.000000  0.500000  1
  Os  Os32  1  0.000000  0.500000  0.500000  1
  Os  Os33  1  0.000000  0.000000  0.000000  1
  Os  Os34  1  0.000000  0.000000  0.500000  1
  Pt  Pt35  1  0.000000  0.500000  0.000000  1
  Pt  Pt36  1  0.500000  0.500000  0.000000  1
  Pt  Pt37  1  0.500000  0.500000  0.500000  1
