# generated using pymatgen
data_Li3Pr3MgPb4
_symmetry_space_group_name_H-M   'P 1'
_cell_length_a   4.82212071
_cell_length_b   7.50956841
_cell_length_c   9.01617698
_cell_angle_alpha   113.79117273
_cell_angle_beta   105.51049458
_cell_angle_gamma   90.00000767
_symmetry_Int_Tables_number   1
_chemical_formula_structural   Li3Pr3MgPb4
_chemical_formula_sum   'Li3 Pr3 Mg1 Pb4'
_cell_volume   285.70653757
_cell_formula_units_Z   1
loop_
 _symmetry_equiv_pos_site_id
 _symmetry_equiv_pos_as_xyz
  1  'x, y, z'
loop_
 _atom_site_type_symbol
 _atom_site_label
 _atom_site_symmetry_multiplicity
 _atom_site_fract_x
 _atom_site_fract_y
 _atom_site_fract_z
 _atom_site_occupancy
  Li  Li0  1  0.327286  0.015717  0.654574  1
  Li  Li1  1  0.326896  0.640551  0.653793  1
  Li  Li2  1  0.672859  0.368216  0.345717  1
  Pr  Pr3  1  0.000784  0.002419  0.001567  1
  Pr  Pr4  1  0.126034  0.616836  0.252068  1
  Pr  Pr5  1  0.875025  0.373639  0.750051  1
  Mg  Mg6  1  0.672363  0.980377  0.344725  1
  Pb  Pb7  1  0.494953  0.696074  0.989907  1
  Pb  Pb8  1  0.499774  0.294969  0.999548  1
  Pb  Pb9  1  0.787168  0.780697  0.574336  1
  Pb  Pb10  1  0.216857  0.230504  0.433715  1
