# generated using pymatgen
data_Y4Ge6Ir5Pd2
_symmetry_space_group_name_H-M   'P 1'
_cell_length_a   7.31133778
_cell_length_b   7.31210346
_cell_length_c   7.31210282
_cell_angle_alpha   109.84905705
_cell_angle_beta   109.28472308
_cell_angle_gamma   109.28473190
_symmetry_Int_Tables_number   1
_chemical_formula_structural   Y4Ge6Ir5Pd2
_chemical_formula_sum   'Y4 Ge6 Ir5 Pd2'
_cell_volume   300.90058237
_cell_formula_units_Z   1
loop_
 _symmetry_equiv_pos_site_id
 _symmetry_equiv_pos_as_xyz
  1  'x, y, z'
loop_
 _atom_site_type_symbol
 _atom_site_label
 _atom_site_symmetry_multiplicity
 _atom_site_fract_x
 _atom_site_fract_y
 _atom_site_fract_z
 _atom_site_occupancy
  Y  Y0  1  0.002279  0.001140  0.501140  1
  Y  Y1  1  0.002279  0.501140  0.001140  1
  Y  Y2  1  0.496879  0.995784  0.995784  1
  Y  Y3  1  0.496879  0.501095  0.501095  1
  Ge  Ge4  1  0.678942  0.682172  0.996770  1
  Ge  Ge5  1  0.315730  0.997232  0.318499  1
  Ge  Ge6  1  0.005285  0.319520  0.319520  1
  Ge  Ge7  1  0.315730  0.318499  0.997232  1
  Ge  Ge8  1  0.678942  0.996770  0.682172  1
  Ge  Ge9  1  0.005285  0.685766  0.685766  1
  Ir  Ir10  1  0.501630  0.250815  0.750815  1
  Ir  Ir11  1  0.249015  0.499925  0.749090  1
  Ir  Ir12  1  0.249015  0.749090  0.499925  1
  Ir  Ir13  1  0.501630  0.750815  0.250815  1
  Ir  Ir14  1  0.999466  0.999733  0.999733  1
  Pd  Pd15  1  0.750506  0.251175  0.499331  1
  Pd  Pd16  1  0.750506  0.499331  0.251175  1
