# generated using pymatgen
data_Na5Zr3(Cu4As3)4
_symmetry_space_group_name_H-M   'P 1'
_cell_length_a   13.14705500
_cell_length_b   13.14705472
_cell_length_c   4.02121500
_cell_angle_alpha   90.00000000
_cell_angle_beta   90.00000000
_cell_angle_gamma   120.00000323
_symmetry_Int_Tables_number   1
_chemical_formula_structural   Na5Zr3(Cu4As3)4
_chemical_formula_sum   'Na5 Zr3 Cu16 As12'
_cell_volume   601.92843763
_cell_formula_units_Z   1
loop_
 _symmetry_equiv_pos_site_id
 _symmetry_equiv_pos_as_xyz
  1  'x, y, z'
loop_
 _atom_site_type_symbol
 _atom_site_label
 _atom_site_symmetry_multiplicity
 _atom_site_fract_x
 _atom_site_fract_y
 _atom_site_fract_z
 _atom_site_occupancy
  Na  Na0  1  0.184844  0.184844  0.500000  1
  Na  Na1  1  0.815156  0.000000  0.500000  1
  Na  Na2  1  0.000000  0.815156  0.500000  1
  Na  Na3  1  0.333333  0.666667  0.000000  1
  Na  Na4  1  0.666667  0.333333  0.000000  1
  Zr  Zr5  1  0.569930  0.569930  0.000000  1
  Zr  Zr6  1  0.430070  0.000000  0.000000  1
  Zr  Zr7  1  0.000000  0.430070  0.000000  1
  Cu  Cu8  1  0.723778  0.723778  0.500000  1
  Cu  Cu9  1  0.276222  0.000000  0.500000  1
  Cu  Cu10  1  0.000000  0.276222  0.500000  1
  Cu  Cu11  1  0.182600  0.371540  0.000000  1
  Cu  Cu12  1  0.628460  0.811060  0.000000  1
  Cu  Cu13  1  0.188940  0.817400  0.000000  1
  Cu  Cu14  1  0.811060  0.628460  0.000000  1
  Cu  Cu15  1  0.817400  0.188940  0.000000  1
  Cu  Cu16  1  0.371540  0.182600  0.000000  1
  Cu  Cu17  1  0.359303  0.480743  0.500000  1
  Cu  Cu18  1  0.519257  0.878561  0.500000  1
  Cu  Cu19  1  0.121439  0.640697  0.500000  1
  Cu  Cu20  1  0.878561  0.519257  0.500000  1
  Cu  Cu21  1  0.640697  0.121439  0.500000  1
  Cu  Cu22  1  0.480743  0.359303  0.500000  1
  Cu  Cu23  1  0.000000  0.000000  0.000000  1
  As  As24  1  0.821306  0.821306  0.000000  1
  As  As25  1  0.178694  0.000000  0.000000  1
  As  As26  1  0.000000  0.178694  0.000000  1
  As  As27  1  0.171684  0.486128  0.500000  1
  As  As28  1  0.513872  0.685555  0.500000  1
  As  As29  1  0.314445  0.828316  0.500000  1
  As  As30  1  0.685555  0.513872  0.500000  1
  As  As31  1  0.828316  0.314445  0.500000  1
  As  As32  1  0.486128  0.171684  0.500000  1
  As  As33  1  0.362829  0.362829  0.000000  1
  As  As34  1  0.637171  0.000000  0.000000  1
  As  As35  1  0.000000  0.637171  0.000000  1
