# generated using pymatgen
data_SmY7(InRh)2
_symmetry_space_group_name_H-M   'P 1'
_cell_length_a   9.73397830
_cell_length_b   9.74997334
_cell_length_c   9.73398004
_cell_angle_alpha   59.94563688
_cell_angle_beta   59.91657640
_cell_angle_gamma   59.94563638
_symmetry_Int_Tables_number   1
_chemical_formula_structural   SmY7(InRh)2
_chemical_formula_sum   'Sm2 Y14 In4 Rh4'
_cell_volume   652.28560826
_cell_formula_units_Z   2
loop_
 _symmetry_equiv_pos_site_id
 _symmetry_equiv_pos_as_xyz
  1  'x, y, z'
loop_
 _atom_site_type_symbol
 _atom_site_label
 _atom_site_symmetry_multiplicity
 _atom_site_fract_x
 _atom_site_fract_y
 _atom_site_fract_z
 _atom_site_occupancy
  Sm  Sm0  1  0.600360  0.200624  0.600360  1
  Sm  Sm1  1  0.600360  0.598657  0.600360  1
  Y  Y2  1  0.188215  0.187909  0.812468  1
  Y  Y3  1  0.602070  0.600198  0.197534  1
  Y  Y4  1  0.438680  0.061320  0.438680  1
  Y  Y5  1  0.438773  0.439695  0.060564  1
  Y  Y6  1  0.812344  0.187656  0.812344  1
  Y  Y7  1  0.188593  0.811407  0.188593  1
  Y  Y8  1  0.438773  0.060969  0.060564  1
  Y  Y9  1  0.188215  0.811408  0.812468  1
  Y  Y10  1  0.060358  0.439642  0.060358  1
  Y  Y11  1  0.812468  0.811408  0.188215  1
  Y  Y12  1  0.197534  0.600198  0.602070  1
  Y  Y13  1  0.060564  0.439695  0.438773  1
  Y  Y14  1  0.060564  0.060969  0.438773  1
  Y  Y15  1  0.812468  0.187909  0.188215  1
  In  In16  1  0.833961  0.832843  0.833961  1
  In  In17  1  0.833787  0.832897  0.500419  1
  In  In18  1  0.500419  0.832897  0.833787  1
  In  In19  1  0.833961  0.499235  0.833961  1
  Rh  Rh20  1  0.391649  0.822740  0.391649  1
  Rh  Rh21  1  0.391649  0.393962  0.391649  1
  Rh  Rh22  1  0.823148  0.392881  0.391090  1
  Rh  Rh23  1  0.391090  0.392881  0.823148  1
