# generated using pymatgen
data_Li3Yb8Si12Ir
_symmetry_space_group_name_H-M   'P 1'
_cell_length_a   8.23920000
_cell_length_b   8.23920093
_cell_length_c   8.22932000
_cell_angle_alpha   90.00000000
_cell_angle_beta   90.00000000
_cell_angle_gamma   120.00000431
_symmetry_Int_Tables_number   1
_chemical_formula_structural   Li3Yb8Si12Ir
_chemical_formula_sum   'Li3 Yb8 Si12 Ir1'
_cell_volume   483.79870589
_cell_formula_units_Z   1
loop_
 _symmetry_equiv_pos_site_id
 _symmetry_equiv_pos_as_xyz
  1  'x, y, z'
loop_
 _atom_site_type_symbol
 _atom_site_label
 _atom_site_symmetry_multiplicity
 _atom_site_fract_x
 _atom_site_fract_y
 _atom_site_fract_z
 _atom_site_occupancy
  Li  Li0  1  0.333333  0.666667  0.002634  1
  Li  Li1  1  0.333333  0.666667  0.497628  1
  Li  Li2  1  0.666667  0.333333  0.502841  1
  Yb  Yb3  1  0.503571  0.496429  0.754501  1
  Yb  Yb4  1  0.504651  0.495349  0.245533  1
  Yb  Yb5  1  0.992858  0.496429  0.754501  1
  Yb  Yb6  1  0.990701  0.495349  0.245533  1
  Yb  Yb7  1  0.503571  0.007142  0.754501  1
  Yb  Yb8  1  0.504651  0.009299  0.245533  1
  Yb  Yb9  1  0.000000  0.000000  0.750108  1
  Yb  Yb10  1  0.000000  0.000000  0.249641  1
  Si  Si11  1  0.832070  0.167930  0.999740  1
  Si  Si12  1  0.162033  0.837967  0.999907  1
  Si  Si13  1  0.335860  0.167930  0.999740  1
  Si  Si14  1  0.164310  0.835690  0.500133  1
  Si  Si15  1  0.675933  0.837967  0.999907  1
  Si  Si16  1  0.837303  0.162697  0.499610  1
  Si  Si17  1  0.832070  0.664140  0.999740  1
  Si  Si18  1  0.671380  0.835690  0.500133  1
  Si  Si19  1  0.162033  0.324067  0.999907  1
  Si  Si20  1  0.325394  0.162697  0.499610  1
  Si  Si21  1  0.164310  0.328620  0.500133  1
  Si  Si22  1  0.837303  0.674606  0.499610  1
  Ir  Ir23  1  0.666667  0.333333  0.998882  1
