# generated using pymatgen
data_Sm2TiBe2Ir5
_symmetry_space_group_name_H-M   'P 1'
_cell_length_a   9.73947000
_cell_length_b   9.73947000
_cell_length_c   3.23215500
_cell_angle_alpha   90.00000000
_cell_angle_beta   90.00000000
_cell_angle_gamma   90.00000000
_symmetry_Int_Tables_number   1
_chemical_formula_structural   Sm2TiBe2Ir5
_chemical_formula_sum   'Sm4 Ti2 Be4 Ir10'
_cell_volume   306.59341852
_cell_formula_units_Z   2
loop_
 _symmetry_equiv_pos_site_id
 _symmetry_equiv_pos_as_xyz
  1  'x, y, z'
loop_
 _atom_site_type_symbol
 _atom_site_label
 _atom_site_symmetry_multiplicity
 _atom_site_fract_x
 _atom_site_fract_y
 _atom_site_fract_z
 _atom_site_occupancy
  Sm  Sm0  1  0.676692  0.176692  0.000000  1
  Sm  Sm1  1  0.323308  0.823308  0.000000  1
  Sm  Sm2  1  0.176692  0.323308  0.000000  1
  Sm  Sm3  1  0.823308  0.676692  0.000000  1
  Ti  Ti4  1  0.000000  0.000000  0.000000  1
  Ti  Ti5  1  0.500000  0.500000  0.000000  1
  Be  Be6  1  0.121436  0.621436  0.000000  1
  Be  Be7  1  0.878564  0.378564  0.000000  1
  Be  Be8  1  0.621436  0.878564  0.000000  1
  Be  Be9  1  0.378564  0.121436  0.000000  1
  Ir  Ir10  1  0.212439  0.065782  0.500000  1
  Ir  Ir11  1  0.787561  0.934218  0.500000  1
  Ir  Ir12  1  0.065782  0.787561  0.500000  1
  Ir  Ir13  1  0.712439  0.434218  0.500000  1
  Ir  Ir14  1  0.934218  0.212439  0.500000  1
  Ir  Ir15  1  0.287561  0.565782  0.500000  1
  Ir  Ir16  1  0.565782  0.712439  0.500000  1
  Ir  Ir17  1  0.434218  0.287561  0.500000  1
  Ir  Ir18  1  0.500000  0.000000  0.500000  1
  Ir  Ir19  1  0.000000  0.500000  0.500000  1
