# generated using pymatgen
data_Yb4Er5TmIr4
_symmetry_space_group_name_H-M   'P 1'
_cell_length_a   6.48627863
_cell_length_b   7.25934400
_cell_length_c   8.44170309
_cell_angle_alpha   97.22508449
_cell_angle_beta   112.59289002
_cell_angle_gamma   90.00000069
_symmetry_Int_Tables_number   1
_chemical_formula_structural   Yb4Er5TmIr4
_chemical_formula_sum   'Yb4 Er5 Tm1 Ir4'
_cell_volume   363.56224628
_cell_formula_units_Z   1
loop_
 _symmetry_equiv_pos_site_id
 _symmetry_equiv_pos_as_xyz
  1  'x, y, z'
loop_
 _atom_site_type_symbol
 _atom_site_label
 _atom_site_symmetry_multiplicity
 _atom_site_fract_x
 _atom_site_fract_y
 _atom_site_fract_z
 _atom_site_occupancy
  Yb  Yb0  1  0.974478  0.920812  0.183192  1
  Yb  Yb1  1  0.791286  0.579188  0.816808  1
  Yb  Yb2  1  0.025501  0.079388  0.816842  1
  Yb  Yb3  1  0.208659  0.420612  0.183158  1
  Er  Er4  1  0.647188  0.818716  0.439649  1
  Er  Er5  1  0.207539  0.681284  0.560351  1
  Er  Er6  1  0.352953  0.181386  0.560564  1
  Er  Er7  1  0.792389  0.318614  0.439436  1
  Er  Er8  1  0.431594  0.750000  0.000000  1
  Tm  Tm9  1  0.568201  0.250000  0.000000  1
  Ir  Ir10  1  0.812937  0.573186  0.227846  1
  Ir  Ir11  1  0.585092  0.926814  0.772154  1
  Ir  Ir12  1  0.187163  0.426519  0.772142  1
  Ir  Ir13  1  0.415020  0.073481  0.227858  1
