# generated using pymatgen
data_Mn2SiB2Ir5
_symmetry_space_group_name_H-M   'P 1'
_cell_length_a   9.36283400
_cell_length_b   9.36283400
_cell_length_c   2.91639400
_cell_angle_alpha   90.00000000
_cell_angle_beta   90.00000000
_cell_angle_gamma   90.00000000
_symmetry_Int_Tables_number   1
_chemical_formula_structural   Mn2SiB2Ir5
_chemical_formula_sum   'Mn4 Si2 B4 Ir10'
_cell_volume   255.65885714
_cell_formula_units_Z   2
loop_
 _symmetry_equiv_pos_site_id
 _symmetry_equiv_pos_as_xyz
  1  'x, y, z'
loop_
 _atom_site_type_symbol
 _atom_site_label
 _atom_site_symmetry_multiplicity
 _atom_site_fract_x
 _atom_site_fract_y
 _atom_site_fract_z
 _atom_site_occupancy
  Mn  Mn0  1  0.824280  0.324280  0.000000  1
  Mn  Mn1  1  0.175720  0.675720  0.000000  1
  Mn  Mn2  1  0.324280  0.175720  0.000000  1
  Mn  Mn3  1  0.675720  0.824280  0.000000  1
  Si  Si4  1  0.500000  0.500000  0.000000  1
  Si  Si5  1  0.000000  0.000000  0.000000  1
  B  B6  1  0.626740  0.126740  0.000000  1
  B  B7  1  0.373260  0.873260  0.000000  1
  B  B8  1  0.126740  0.373260  0.000000  1
  B  B9  1  0.873260  0.626740  0.000000  1
  Ir  Ir10  1  0.500000  0.000000  0.500000  1
  Ir  Ir11  1  0.000000  0.500000  0.500000  1
  Ir  Ir12  1  0.708991  0.570814  0.500000  1
  Ir  Ir13  1  0.291009  0.429186  0.500000  1
  Ir  Ir14  1  0.208991  0.929186  0.500000  1
  Ir  Ir15  1  0.791009  0.070814  0.500000  1
  Ir  Ir16  1  0.429186  0.708991  0.500000  1
  Ir  Ir17  1  0.570814  0.291009  0.500000  1
  Ir  Ir18  1  0.070814  0.208991  0.500000  1
  Ir  Ir19  1  0.929186  0.791009  0.500000  1
