# generated using pymatgen
data_HfZr5Al9(SiIr)7
_symmetry_space_group_name_H-M   'P 1'
_cell_length_a   8.60577048
_cell_length_b   8.63440838
_cell_length_c   8.63095100
_cell_angle_alpha   60.01324869
_cell_angle_beta   59.90316511
_cell_angle_gamma   59.84505833
_symmetry_Int_Tables_number   1
_chemical_formula_structural   HfZr5Al9(SiIr)7
_chemical_formula_sum   'Hf1 Zr5 Al9 Si7 Ir7'
_cell_volume   452.66828916
_cell_formula_units_Z   1
loop_
 _symmetry_equiv_pos_site_id
 _symmetry_equiv_pos_as_xyz
  1  'x, y, z'
loop_
 _atom_site_type_symbol
 _atom_site_label
 _atom_site_symmetry_multiplicity
 _atom_site_fract_x
 _atom_site_fract_y
 _atom_site_fract_z
 _atom_site_occupancy
  Hf  Hf0  1  0.691198  0.691899  0.308452  1
  Zr  Zr1  1  0.692903  0.307426  0.306530  1
  Zr  Zr2  1  0.308450  0.692831  0.692110  1
  Zr  Zr3  1  0.308450  0.692831  0.306609  1
  Zr  Zr4  1  0.692903  0.307426  0.693142  1
  Zr  Zr5  1  0.307426  0.306269  0.693152  1
  Al  Al6  1  0.003993  0.665495  0.665256  1
  Al  Al7  1  0.120245  0.120499  0.120619  1
  Al  Al8  1  0.882687  0.879759  0.880038  1
  Al  Al9  1  0.120245  0.120499  0.638637  1
  Al  Al10  1  0.119886  0.638899  0.120608  1
  Al  Al11  1  0.882687  0.879759  0.357517  1
  Al  Al12  1  0.882701  0.357754  0.879772  1
  Al  Al13  1  0.638387  0.120238  0.120687  1
  Al  Al14  1  0.360438  0.879849  0.879857  1
  Si  Si15  1  0.343376  0.344106  0.343909  1
  Si  Si16  1  0.661925  0.658558  0.658078  1
  Si  Si17  1  0.343376  0.344106  0.968609  1
  Si  Si18  1  0.343831  0.968139  0.344015  1
  Si  Si19  1  0.661925  0.658558  0.021439  1
  Si  Si20  1  0.662295  0.020745  0.658480  1
  Si  Si21  1  0.966664  0.344604  0.344366  1
  Ir  Ir22  1  0.499836  0.000572  0.001831  1
  Ir  Ir23  1  0.001197  0.496062  0.494516  1
  Ir  Ir24  1  0.001197  0.496062  0.008224  1
  Ir  Ir25  1  0.499836  0.000572  0.497761  1
  Ir  Ir26  1  0.002105  0.007822  0.495037  1
  Ir  Ir27  1  0.499217  0.498680  0.001052  1
  Ir  Ir28  1  0.000619  0.999984  0.999698  1
