# generated using pymatgen
data_Al2CrH4
_symmetry_space_group_name_H-M   'P 1'
_cell_length_a   3.23439260
_cell_length_b   4.64196585
_cell_length_c   4.65538671
_cell_angle_alpha   77.00264406
_cell_angle_beta   110.58210966
_cell_angle_gamma   110.16919566
_symmetry_Int_Tables_number   1
_chemical_formula_structural   Al2CrH4
_chemical_formula_sum   'Al2 Cr1 H4'
_cell_volume   60.99256880
_cell_formula_units_Z   1
loop_
 _symmetry_equiv_pos_site_id
 _symmetry_equiv_pos_as_xyz
  1  'x, y, z'
loop_
 _atom_site_type_symbol
 _atom_site_label
 _atom_site_symmetry_multiplicity
 _atom_site_fract_x
 _atom_site_fract_y
 _atom_site_fract_z
 _atom_site_occupancy
  Al  Al0  1  0.997138  0.090705  0.012483  1
  Al  Al1  1  0.006400  0.593871  0.510230  1
  Cr  Cr2  1  0.694631  0.035439  0.453397  1
  H  H3  1  0.709880  0.748170  0.751246  1
  H  H4  1  0.691367  0.335463  0.169013  1
  H  H5  1  0.438478  0.786927  0.191987  1
  H  H6  1  0.315784  0.153439  0.577040  1
