# generated using pymatgen
data_Hf18Be2Re5Mo3
_symmetry_space_group_name_H-M   'P 1'
_cell_length_a   8.56253137
_cell_length_b   8.56253093
_cell_length_c   8.55436700
_cell_angle_alpha   90.00000000
_cell_angle_beta   90.00000000
_cell_angle_gamma   119.97454908
_symmetry_Int_Tables_number   1
_chemical_formula_structural   Hf18Be2Re5Mo3
_chemical_formula_sum   'Hf18 Be2 Re5 Mo3'
_cell_volume   543.29306499
_cell_formula_units_Z   1
loop_
 _symmetry_equiv_pos_site_id
 _symmetry_equiv_pos_as_xyz
  1  'x, y, z'
loop_
 _atom_site_type_symbol
 _atom_site_label
 _atom_site_symmetry_multiplicity
 _atom_site_fract_x
 _atom_site_fract_y
 _atom_site_fract_z
 _atom_site_occupancy
  Hf  Hf0  1  0.199441  0.800559  0.448573  1
  Hf  Hf1  1  0.200297  0.399883  0.449225  1
  Hf  Hf2  1  0.600117  0.799703  0.449225  1
  Hf  Hf3  1  0.800603  0.199397  0.552502  1
  Hf  Hf4  1  0.801075  0.602185  0.553029  1
  Hf  Hf5  1  0.397815  0.198925  0.553029  1
  Hf  Hf6  1  0.800603  0.199397  0.947498  1
  Hf  Hf7  1  0.801075  0.602185  0.946971  1
  Hf  Hf8  1  0.397815  0.198925  0.946971  1
  Hf  Hf9  1  0.199441  0.800559  0.051427  1
  Hf  Hf10  1  0.200297  0.399883  0.050775  1
  Hf  Hf11  1  0.600117  0.799703  0.050775  1
  Hf  Hf12  1  0.539392  0.460608  0.250000  1
  Hf  Hf13  1  0.537339  0.076960  0.250000  1
  Hf  Hf14  1  0.923040  0.462661  0.250000  1
  Hf  Hf15  1  0.460754  0.539246  0.750000  1
  Hf  Hf16  1  0.460796  0.922090  0.750000  1
  Hf  Hf17  1  0.077910  0.539204  0.750000  1
  Be  Be18  1  0.333043  0.666957  0.250000  1
  Be  Be19  1  0.666533  0.333467  0.750000  1
  Re  Re20  1  0.888748  0.775396  0.250000  1
  Re  Re21  1  0.224604  0.111252  0.250000  1
  Re  Re22  1  0.111096  0.888904  0.750000  1
  Re  Re23  1  0.111587  0.223023  0.750000  1
  Re  Re24  1  0.776977  0.888413  0.750000  1
  Mo  Mo25  1  0.889501  0.110499  0.250000  1
  Mo  Mo26  1  0.999991  0.000009  0.498735  1
  Mo  Mo27  1  0.999991  0.000009  0.001265  1
