# generated using pymatgen
data_Er5Tm11InAg3Rh4
_symmetry_space_group_name_H-M   'P 1'
_cell_length_a   9.49271183
_cell_length_b   9.49143347
_cell_length_c   9.47161866
_cell_angle_alpha   59.68413030
_cell_angle_beta   59.62687387
_cell_angle_gamma   59.70028196
_symmetry_Int_Tables_number   1
_chemical_formula_structural   Er5Tm11InAg3Rh4
_chemical_formula_sum   'Er5 Tm11 In1 Ag3 Rh4'
_cell_volume   598.91733346
_cell_formula_units_Z   1
loop_
 _symmetry_equiv_pos_site_id
 _symmetry_equiv_pos_as_xyz
  1  'x, y, z'
loop_
 _atom_site_type_symbol
 _atom_site_label
 _atom_site_symmetry_multiplicity
 _atom_site_fract_x
 _atom_site_fract_y
 _atom_site_fract_z
 _atom_site_occupancy
  Er  Er0  1  0.063120  0.063357  0.438750  1
  Er  Er1  1  0.435645  0.061920  0.438530  1
  Er  Er2  1  0.061503  0.434929  0.069323  1
  Er  Er3  1  0.052067  0.647900  0.649859  1
  Er  Er4  1  0.435393  0.435079  0.067746  1
  Tm  Tm5  1  0.647880  0.052256  0.649534  1
  Tm  Tm6  1  0.189427  0.814036  0.188094  1
  Tm  Tm7  1  0.190679  0.190529  0.811392  1
  Tm  Tm8  1  0.812262  0.812373  0.188246  1
  Tm  Tm9  1  0.435848  0.060904  0.068183  1
  Tm  Tm10  1  0.813801  0.189052  0.188500  1
  Tm  Tm11  1  0.062101  0.436154  0.438672  1
  Tm  Tm12  1  0.809819  0.190161  0.811974  1
  Tm  Tm13  1  0.190029  0.810054  0.812554  1
  Tm  Tm14  1  0.648933  0.648380  0.051394  1
  Tm  Tm15  1  0.648418  0.648014  0.648996  1
  In  In16  1  0.420545  0.421208  0.738519  1
  Ag  Ag17  1  0.418508  0.418029  0.414698  1
  Ag  Ag18  1  0.749211  0.417431  0.414668  1
  Ag  Ag19  1  0.418008  0.749430  0.413586  1
  Rh  Rh20  1  0.855767  0.855967  0.428412  1
  Rh  Rh21  1  0.856910  0.858796  0.857065  1
  Rh  Rh22  1  0.428295  0.856614  0.855524  1
  Rh  Rh23  1  0.855834  0.427429  0.855782  1
