# generated using pymatgen
data_Hg3W(SF3)2
_symmetry_space_group_name_H-M   'P 1'
_cell_length_a   7.80628452
_cell_length_b   7.80628387
_cell_length_c   4.96975521
_cell_angle_alpha   107.40804068
_cell_angle_beta   107.40803944
_cell_angle_gamma   55.97772547
_symmetry_Int_Tables_number   1
_chemical_formula_structural   Hg3W(SF3)2
_chemical_formula_sum   'Hg3 W1 S2 F6'
_cell_volume   236.16093358
_cell_formula_units_Z   1
loop_
 _symmetry_equiv_pos_site_id
 _symmetry_equiv_pos_as_xyz
  1  'x, y, z'
loop_
 _atom_site_type_symbol
 _atom_site_label
 _atom_site_symmetry_multiplicity
 _atom_site_fract_x
 _atom_site_fract_y
 _atom_site_fract_z
 _atom_site_occupancy
  Hg  Hg0  1  0.500000  0.500000  0.000000  1
  Hg  Hg1  1  0.500000  0.000000  0.499999  1
  Hg  Hg2  1  0.000000  0.500000  0.499999  1
  W  W3  1  0.000000  0.000000  0.499999  1
  S  S4  1  0.685758  0.685758  0.172483  1
  S  S5  1  0.314242  0.314242  0.827517  1
  F  F6  1  0.705859  0.123184  0.268580  1
  F  F7  1  0.123184  0.705859  0.268580  1
  F  F8  1  0.095410  0.095410  0.272060  1
  F  F9  1  0.904590  0.904590  0.727940  1
  F  F10  1  0.876816  0.294141  0.731420  1
  F  F11  1  0.294141  0.876816  0.731420  1
