# generated using pymatgen
data_ErBi11S18
_symmetry_space_group_name_H-M   'P 1'
_cell_length_a   4.06842300
_cell_length_b   10.88582144
_cell_length_c   18.53468836
_cell_angle_alpha   80.87775261
_cell_angle_beta   90.00000000
_cell_angle_gamma   90.00000000
_symmetry_Int_Tables_number   1
_chemical_formula_structural   ErBi11S18
_chemical_formula_sum   'Er1 Bi11 S18'
_cell_volume   810.48456235
_cell_formula_units_Z   1
loop_
 _symmetry_equiv_pos_site_id
 _symmetry_equiv_pos_as_xyz
  1  'x, y, z'
loop_
 _atom_site_type_symbol
 _atom_site_label
 _atom_site_symmetry_multiplicity
 _atom_site_fract_x
 _atom_site_fract_y
 _atom_site_fract_z
 _atom_site_occupancy
  Er  Er0  1  0.750000  0.802642  0.718567  1
  Bi  Bi1  1  0.750000  0.899804  0.414781  1
  Bi  Bi2  1  0.250000  0.095464  0.587668  1
  Bi  Bi3  1  0.750000  0.435553  0.100940  1
  Bi  Bi4  1  0.250000  0.577105  0.888481  1
  Bi  Bi5  1  0.750000  0.813821  0.035959  1
  Bi  Bi6  1  0.250000  0.189278  0.965267  1
  Bi  Bi7  1  0.750000  0.520494  0.408599  1
  Bi  Bi8  1  0.250000  0.478800  0.598546  1
  Bi  Bi9  1  0.250000  0.828239  0.224067  1
  Bi  Bi10  1  0.750000  0.165759  0.777938  1
  Bi  Bi11  1  0.250000  0.200741  0.278742  1
  S  S12  1  0.750000  0.388118  0.963569  1
  S  S13  1  0.250000  0.616567  0.029038  1
  S  S14  1  0.250000  0.717528  0.370072  1
  S  S15  1  0.750000  0.278076  0.633193  1
  S  S16  1  0.250000  0.986525  0.731345  1
  S  S17  1  0.750000  0.994644  0.270081  1
  S  S18  1  0.250000  0.374611  0.473826  1
  S  S19  1  0.750000  0.624114  0.532346  1
  S  S20  1  0.750000  0.361167  0.285538  1
  S  S21  1  0.250000  0.649636  0.712897  1
  S  S22  1  0.250000  0.265698  0.125622  1
  S  S23  1  0.750000  0.744147  0.867866  1
  S  S24  1  0.750000  0.047383  0.924076  1
  S  S25  1  0.250000  0.954478  0.078863  1
  S  S26  1  0.750000  0.932093  0.578762  1
  S  S27  1  0.250000  0.063459  0.426152  1
  S  S28  1  0.250000  0.305804  0.819830  1
  S  S29  1  0.750000  0.688253  0.177368  1
