# generated using pymatgen
data_HoEr12Tm7Bi12
_symmetry_space_group_name_H-M   'P 1'
_cell_length_a   8.19085210
_cell_length_b   9.45789801
_cell_length_c   11.93589404
_cell_angle_alpha   90.00237316
_cell_angle_beta   90.01302082
_cell_angle_gamma   89.99679864
_symmetry_Int_Tables_number   1
_chemical_formula_structural   HoEr12Tm7Bi12
_chemical_formula_sum   'Ho1 Er12 Tm7 Bi12'
_cell_volume   924.65272207
_cell_formula_units_Z   1
loop_
 _symmetry_equiv_pos_site_id
 _symmetry_equiv_pos_as_xyz
  1  'x, y, z'
loop_
 _atom_site_type_symbol
 _atom_site_label
 _atom_site_symmetry_multiplicity
 _atom_site_fract_x
 _atom_site_fract_y
 _atom_site_fract_z
 _atom_site_occupancy
  Ho  Ho0  1  0.185929  0.750048  0.718083  1
  Er  Er1  1  0.353692  0.750086  0.216706  1
  Er  Er2  1  0.853580  0.750052  0.283265  1
  Er  Er3  1  0.646426  0.250003  0.783243  1
  Er  Er4  1  0.146379  0.250029  0.716625  1
  Er  Er5  1  0.192025  0.564785  0.440857  1
  Er  Er6  1  0.476766  0.249988  0.488983  1
  Er  Er7  1  0.976652  0.250019  0.011020  1
  Er  Er8  1  0.523410  0.750049  0.510934  1
  Er  Er9  1  0.023262  0.750013  0.989045  1
  Er  Er10  1  0.313977  0.250007  0.217951  1
  Er  Er11  1  0.814045  0.249998  0.282209  1
  Er  Er12  1  0.685967  0.750011  0.782059  1
  Tm  Tm13  1  0.692125  0.565023  0.059148  1
  Tm  Tm14  1  0.192062  0.935040  0.440857  1
  Tm  Tm15  1  0.307896  0.065022  0.940884  1
  Tm  Tm16  1  0.807950  0.434953  0.559088  1
  Tm  Tm17  1  0.307891  0.434969  0.940873  1
  Tm  Tm18  1  0.807921  0.065016  0.559090  1
  Tm  Tm19  1  0.692131  0.934977  0.059155  1
  Bi  Bi20  1  0.405408  0.749994  0.957540  1
  Bi  Bi21  1  0.904949  0.750093  0.542385  1
  Bi  Bi22  1  0.594723  0.250004  0.042550  1
  Bi  Bi23  1  0.094708  0.249716  0.457474  1
  Bi  Bi24  1  0.566166  0.996233  0.325623  1
  Bi  Bi25  1  0.066173  0.503814  0.174288  1
  Bi  Bi26  1  0.434028  0.496048  0.674335  1
  Bi  Bi27  1  0.933662  0.003936  0.825743  1
  Bi  Bi28  1  0.434060  0.003985  0.674308  1
  Bi  Bi29  1  0.933642  0.496080  0.825755  1
  Bi  Bi30  1  0.566208  0.503796  0.325613  1
  Bi  Bi31  1  0.066190  0.996213  0.174309  1
