# generated using pymatgen
data_Ba12Si15Hg
_symmetry_space_group_name_H-M   'P 1'
_cell_length_a   8.67467416
_cell_length_b   8.67467416
_cell_length_c   11.93926448
_cell_angle_alpha   89.31316944
_cell_angle_beta   89.31316944
_cell_angle_gamma   89.29691363
_symmetry_Int_Tables_number   1
_chemical_formula_structural   Ba12Si15Hg
_chemical_formula_sum   'Ba12 Si15 Hg1'
_cell_volume   898.23413970
_cell_formula_units_Z   1
loop_
 _symmetry_equiv_pos_site_id
 _symmetry_equiv_pos_as_xyz
  1  'x, y, z'
loop_
 _atom_site_type_symbol
 _atom_site_label
 _atom_site_symmetry_multiplicity
 _atom_site_fract_x
 _atom_site_fract_y
 _atom_site_fract_z
 _atom_site_occupancy
  Ba  Ba0  1  0.497703  0.008681  0.751025  1
  Ba  Ba1  1  0.500072  0.995716  0.249671  1
  Ba  Ba2  1  0.008681  0.497703  0.751025  1
  Ba  Ba3  1  0.995716  0.500072  0.249671  1
  Ba  Ba4  1  0.009745  0.009745  0.834805  1
  Ba  Ba5  1  0.493383  0.493383  0.327273  1
  Ba  Ba6  1  0.492116  0.492116  0.666546  1
  Ba  Ba7  1  0.999902  0.999902  0.173186  1
  Ba  Ba8  1  0.661079  0.661079  0.999759  1
  Ba  Ba9  1  0.832613  0.181048  0.498175  1
  Ba  Ba10  1  0.181048  0.832613  0.498175  1
  Ba  Ba11  1  0.339404  0.339404  0.004653  1
  Si  Si12  1  0.194300  0.194300  0.638437  1
  Si  Si13  1  0.805231  0.805231  0.376775  1
  Si  Si14  1  0.299896  0.702757  0.147718  1
  Si  Si15  1  0.702757  0.299896  0.147718  1
  Si  Si16  1  0.702328  0.305952  0.854140  1
  Si  Si17  1  0.305952  0.702328  0.854140  1
  Si  Si18  1  0.197753  0.197753  0.354192  1
  Si  Si19  1  0.702269  0.107941  0.000673  1
  Si  Si20  1  0.302406  0.898147  0.000175  1
  Si  Si21  1  0.107941  0.702269  0.000673  1
  Si  Si22  1  0.578653  0.782809  0.492772  1
  Si  Si23  1  0.898147  0.302406  0.000175  1
  Si  Si24  1  0.197383  0.396259  0.496948  1
  Si  Si25  1  0.782809  0.578653  0.492772  1
  Si  Si26  1  0.396259  0.197383  0.496948  1
  Hg  Hg27  1  0.814452  0.814452  0.641777  1
