# generated using pymatgen
data_Sr4CuSb4Pt3
_symmetry_space_group_name_H-M   'P 1'
_cell_length_a   9.25605427
_cell_length_b   4.53128100
_cell_length_c   7.85747930
_cell_angle_alpha   90.00000000
_cell_angle_beta   89.97034975
_cell_angle_gamma   90.00000000
_symmetry_Int_Tables_number   1
_chemical_formula_structural   Sr4CuSb4Pt3
_chemical_formula_sum   'Sr4 Cu1 Sb4 Pt3'
_cell_volume   329.55664638
_cell_formula_units_Z   1
loop_
 _symmetry_equiv_pos_site_id
 _symmetry_equiv_pos_as_xyz
  1  'x, y, z'
loop_
 _atom_site_type_symbol
 _atom_site_label
 _atom_site_symmetry_multiplicity
 _atom_site_fract_x
 _atom_site_fract_y
 _atom_site_fract_z
 _atom_site_occupancy
  Sr  Sr0  1  0.499421  0.250001  0.250846  1
  Sr  Sr1  1  0.999562  0.250001  0.255908  1
  Sr  Sr2  1  0.995248  0.750000  0.743092  1
  Sr  Sr3  1  0.506404  0.750000  0.748734  1
  Cu  Cu4  1  0.247181  0.250001  0.919911  1
  Sb  Sb5  1  0.248136  0.750000  0.077172  1
  Sb  Sb6  1  0.747349  0.750000  0.414940  1
  Sb  Sb7  1  0.252239  0.250001  0.591025  1
  Sb  Sb8  1  0.752937  0.250001  0.916743  1
  Pt  Pt9  1  0.751698  0.750000  0.082513  1
  Pt  Pt10  1  0.251262  0.750000  0.416367  1
  Pt  Pt11  1  0.748563  0.250001  0.582754  1
