# generated using pymatgen
data_Ac8Sm11ErPb16
_symmetry_space_group_name_H-M   'P 1'
_cell_length_a   8.51519400
_cell_length_b   8.55960664
_cell_length_c   16.26245800
_cell_angle_alpha   90.00000000
_cell_angle_beta   90.00000000
_cell_angle_gamma   90.06579948
_symmetry_Int_Tables_number   1
_chemical_formula_structural   Ac8Sm11ErPb16
_chemical_formula_sum   'Ac8 Sm11 Er1 Pb16'
_cell_volume   1185.31629706
_cell_formula_units_Z   1
loop_
 _symmetry_equiv_pos_site_id
 _symmetry_equiv_pos_as_xyz
  1  'x, y, z'
loop_
 _atom_site_type_symbol
 _atom_site_label
 _atom_site_symmetry_multiplicity
 _atom_site_fract_x
 _atom_site_fract_y
 _atom_site_fract_z
 _atom_site_occupancy
  Ac  Ac0  1  0.519880  0.323334  0.903988  1
  Ac  Ac1  1  0.019908  0.176646  0.595785  1
  Ac  Ac2  1  0.479932  0.677035  0.403730  1
  Ac  Ac3  1  0.980374  0.823759  0.096155  1
  Ac  Ac4  1  0.479932  0.677035  0.096270  1
  Ac  Ac5  1  0.980374  0.823759  0.403845  1
  Ac  Ac6  1  0.519880  0.323334  0.596012  1
  Ac  Ac7  1  0.019908  0.176646  0.904215  1
  Sm  Sm8  1  0.361547  0.843272  0.878214  1
  Sm  Sm9  1  0.861468  0.656532  0.622144  1
  Sm  Sm10  1  0.637975  0.156193  0.377517  1
  Sm  Sm11  1  0.139084  0.343167  0.122573  1
  Sm  Sm12  1  0.637975  0.156193  0.122483  1
  Sm  Sm13  1  0.139084  0.343167  0.377427  1
  Sm  Sm14  1  0.361547  0.843272  0.621786  1
  Sm  Sm15  1  0.861468  0.656532  0.877856  1
  Sm  Sm16  1  0.196943  0.502711  0.750000  1
  Sm  Sm17  1  0.696694  0.997241  0.750000  1
  Sm  Sm18  1  0.803182  0.497307  0.250000  1
  Er  Er19  1  0.302685  0.004040  0.250000  1
  Pb  Pb20  1  0.302289  0.044092  0.046473  1
  Pb  Pb21  1  0.802792  0.455308  0.454588  1
  Pb  Pb22  1  0.697487  0.955519  0.545083  1
  Pb  Pb23  1  0.197494  0.544361  0.954888  1
  Pb  Pb24  1  0.697487  0.955519  0.954917  1
  Pb  Pb25  1  0.197494  0.544361  0.545112  1
  Pb  Pb26  1  0.302289  0.044092  0.453527  1
  Pb  Pb27  1  0.802792  0.455308  0.045412  1
  Pb  Pb28  1  0.557534  0.632697  0.750000  1
  Pb  Pb29  1  0.057736  0.867675  0.750000  1
  Pb  Pb30  1  0.441752  0.366031  0.250000  1
  Pb  Pb31  1  0.944320  0.131755  0.250000  1
  Pb  Pb32  1  0.330754  0.144361  0.750000  1
  Pb  Pb33  1  0.830529  0.354962  0.750000  1
  Pb  Pb34  1  0.668025  0.854917  0.250000  1
  Pb  Pb35  1  0.169382  0.647868  0.250000  1
