# generated using pymatgen
data_NdDy(PPt)2
_symmetry_space_group_name_H-M   'P 1'
_cell_length_a   4.14528500
_cell_length_b   4.14528515
_cell_length_c   16.04959400
_cell_angle_alpha   90.00000000
_cell_angle_beta   90.00000000
_cell_angle_gamma   120.00000679
_symmetry_Int_Tables_number   1
_chemical_formula_structural   NdDy(PPt)2
_chemical_formula_sum   'Nd2 Dy2 P4 Pt4'
_cell_volume   238.83801779
_cell_formula_units_Z   2
loop_
 _symmetry_equiv_pos_site_id
 _symmetry_equiv_pos_as_xyz
  1  'x, y, z'
loop_
 _atom_site_type_symbol
 _atom_site_label
 _atom_site_symmetry_multiplicity
 _atom_site_fract_x
 _atom_site_fract_y
 _atom_site_fract_z
 _atom_site_occupancy
  Nd  Nd0  1  0.000000  0.000000  0.500000  1
  Nd  Nd1  1  0.000000  0.000000  0.000000  1
  Dy  Dy2  1  0.000000  0.000000  0.250000  1
  Dy  Dy3  1  0.000000  0.000000  0.750000  1
  P  P4  1  0.333333  0.666667  0.877659  1
  P  P5  1  0.666667  0.333333  0.122341  1
  P  P6  1  0.666667  0.333333  0.377659  1
  P  P7  1  0.333333  0.666667  0.622341  1
  Pt  Pt8  1  0.333333  0.666667  0.364310  1
  Pt  Pt9  1  0.666667  0.333333  0.635690  1
  Pt  Pt10  1  0.666667  0.333333  0.864310  1
  Pt  Pt11  1  0.333333  0.666667  0.135690  1
