# generated using pymatgen
data_HoCo4MoP3
_symmetry_space_group_name_H-M   'P 1'
_cell_length_a   3.69701600
_cell_length_b   10.39107400
_cell_length_c   11.83972100
_cell_angle_alpha   90.00000000
_cell_angle_beta   90.00000000
_cell_angle_gamma   90.00000000
_symmetry_Int_Tables_number   1
_chemical_formula_structural   HoCo4MoP3
_chemical_formula_sum   'Ho4 Co16 Mo4 P12'
_cell_volume   454.83432927
_cell_formula_units_Z   4
loop_
 _symmetry_equiv_pos_site_id
 _symmetry_equiv_pos_as_xyz
  1  'x, y, z'
loop_
 _atom_site_type_symbol
 _atom_site_label
 _atom_site_symmetry_multiplicity
 _atom_site_fract_x
 _atom_site_fract_y
 _atom_site_fract_z
 _atom_site_occupancy
  Ho  Ho0  1  0.250000  0.582928  0.704176  1
  Ho  Ho1  1  0.250000  0.917072  0.204176  1
  Ho  Ho2  1  0.750000  0.417072  0.295824  1
  Ho  Ho3  1  0.750000  0.082928  0.795824  1
  Co  Co4  1  0.250000  0.406175  0.489101  1
  Co  Co5  1  0.250000  0.093825  0.989101  1
  Co  Co6  1  0.750000  0.593825  0.510899  1
  Co  Co7  1  0.750000  0.906175  0.010899  1
  Co  Co8  1  0.250000  0.221818  0.177801  1
  Co  Co9  1  0.250000  0.278182  0.677801  1
  Co  Co10  1  0.750000  0.778182  0.822199  1
  Co  Co11  1  0.750000  0.721818  0.322199  1
  Co  Co12  1  0.250000  0.887140  0.700687  1
  Co  Co13  1  0.250000  0.612860  0.200687  1
  Co  Co14  1  0.750000  0.112860  0.299313  1
  Co  Co15  1  0.750000  0.387140  0.799313  1
  Co  Co16  1  0.250000  0.465720  0.932846  1
  Co  Co17  1  0.250000  0.034280  0.432846  1
  Co  Co18  1  0.750000  0.534280  0.067154  1
  Co  Co19  1  0.750000  0.965720  0.567154  1
  Mo  Mo20  1  0.250000  0.708737  0.987631  1
  Mo  Mo21  1  0.250000  0.791263  0.487631  1
  Mo  Mo22  1  0.750000  0.291263  0.012369  1
  Mo  Mo23  1  0.750000  0.208737  0.512369  1
  P  P24  1  0.250000  0.420393  0.115402  1
  P  P25  1  0.250000  0.079607  0.615402  1
  P  P26  1  0.750000  0.579607  0.884598  1
  P  P27  1  0.750000  0.920393  0.384598  1
  P  P28  1  0.250000  0.268872  0.864763  1
  P  P29  1  0.250000  0.231128  0.364763  1
  P  P30  1  0.750000  0.731128  0.135237  1
  P  P31  1  0.750000  0.768872  0.635237  1
  P  P32  1  0.250000  0.595350  0.391121  1
  P  P33  1  0.250000  0.904650  0.891121  1
  P  P34  1  0.750000  0.404650  0.608879  1
  P  P35  1  0.750000  0.095350  0.108879  1
