# generated using pymatgen
data_NaLa6Cd22Sb
_symmetry_space_group_name_H-M   'P 1'
_cell_length_a   10.24818650
_cell_length_b   10.24818682
_cell_length_c   10.24818600
_cell_angle_alpha   60.00000264
_cell_angle_beta   60.00000162
_cell_angle_gamma   60.00000583
_symmetry_Int_Tables_number   1
_chemical_formula_structural   NaLa6Cd22Sb
_chemical_formula_sum   'Na1 La6 Cd22 Sb1'
_cell_volume   761.07260298
_cell_formula_units_Z   1
loop_
 _symmetry_equiv_pos_site_id
 _symmetry_equiv_pos_as_xyz
  1  'x, y, z'
loop_
 _atom_site_type_symbol
 _atom_site_label
 _atom_site_symmetry_multiplicity
 _atom_site_fract_x
 _atom_site_fract_y
 _atom_site_fract_z
 _atom_site_occupancy
  Na  Na0  1  0.500000  0.500000  0.500000  1
  La  La1  1  0.782207  0.782207  0.217793  1
  La  La2  1  0.217793  0.782207  0.217793  1
  La  La3  1  0.782207  0.217793  0.217793  1
  La  La4  1  0.217793  0.217793  0.782207  1
  La  La5  1  0.782207  0.217793  0.782207  1
  La  La6  1  0.217793  0.782207  0.782207  1
  Cd  Cd7  1  0.832080  0.832080  0.503759  1
  Cd  Cd8  1  0.832080  0.503759  0.832080  1
  Cd  Cd9  1  0.503759  0.832080  0.832080  1
  Cd  Cd10  1  0.832080  0.832080  0.832080  1
  Cd  Cd11  1  0.167920  0.167920  0.496241  1
  Cd  Cd12  1  0.167920  0.496241  0.167920  1
  Cd  Cd13  1  0.496241  0.167920  0.167920  1
  Cd  Cd14  1  0.167920  0.167920  0.167920  1
  Cd  Cd15  1  0.622367  0.622367  0.132898  1
  Cd  Cd16  1  0.622367  0.132898  0.622367  1
  Cd  Cd17  1  0.132898  0.622367  0.622367  1
  Cd  Cd18  1  0.622367  0.622367  0.622367  1
  Cd  Cd19  1  0.377633  0.377633  0.867102  1
  Cd  Cd20  1  0.377633  0.867102  0.377633  1
  Cd  Cd21  1  0.867102  0.377633  0.377633  1
  Cd  Cd22  1  0.377633  0.377633  0.377633  1
  Cd  Cd23  1  0.000000  0.000000  0.500000  1
  Cd  Cd24  1  0.500000  0.000000  0.500000  1
  Cd  Cd25  1  0.000000  0.500000  0.500000  1
  Cd  Cd26  1  0.500000  0.500000  0.000000  1
  Cd  Cd27  1  0.000000  0.500000  0.000000  1
  Cd  Cd28  1  0.500000  0.000000  0.000000  1
  Sb  Sb29  1  0.000000  0.000000  0.000000  1
