# generated using pymatgen
data_AlFe3(SbCl6)4
_symmetry_space_group_name_H-M   'P 1'
_cell_length_a   7.97318964
_cell_length_b   10.76865474
_cell_length_c   13.70509900
_cell_angle_alpha   78.46366517
_cell_angle_beta   89.75881372
_cell_angle_gamma   89.85341475
_symmetry_Int_Tables_number   1
_chemical_formula_structural   AlFe3(SbCl6)4
_chemical_formula_sum   'Al1 Fe3 Sb4 Cl24'
_cell_volume   1152.94288039
_cell_formula_units_Z   1
loop_
 _symmetry_equiv_pos_site_id
 _symmetry_equiv_pos_as_xyz
  1  'x, y, z'
loop_
 _atom_site_type_symbol
 _atom_site_label
 _atom_site_symmetry_multiplicity
 _atom_site_fract_x
 _atom_site_fract_y
 _atom_site_fract_z
 _atom_site_occupancy
  Al  Al0  1  0.736982  0.660058  0.420713  1
  Fe  Fe1  1  0.763063  0.661581  0.919973  1
  Fe  Fe2  1  0.263237  0.339274  0.579551  1
  Fe  Fe3  1  0.236886  0.338459  0.080084  1
  Sb  Sb4  1  0.232876  0.756121  0.373414  1
  Sb  Sb5  1  0.733244  0.242357  0.127269  1
  Sb  Sb6  1  0.766960  0.242415  0.627170  1
  Sb  Sb7  1  0.266992  0.757580  0.872754  1
  Cl  Cl8  1  0.662116  0.042685  0.094810  1
  Cl  Cl9  1  0.163866  0.956296  0.405626  1
  Cl  Cl10  1  0.337808  0.957297  0.905233  1
  Cl  Cl11  1  0.838377  0.042450  0.594771  1
  Cl  Cl12  1  0.815541  0.179614  0.294607  1
  Cl  Cl13  1  0.313800  0.819470  0.205769  1
  Cl  Cl14  1  0.184475  0.820136  0.705445  1
  Cl  Cl15  1  0.683939  0.179730  0.794772  1
  Cl  Cl16  1  0.419635  0.259316  0.203864  1
  Cl  Cl17  1  0.913035  0.740080  0.298384  1
  Cl  Cl18  1  0.580260  0.740696  0.796186  1
  Cl  Cl19  1  0.079675  0.259435  0.703423  1
  Cl  Cl20  1  0.379982  0.381761  0.942544  1
  Cl  Cl21  1  0.877506  0.621135  0.554954  1
  Cl  Cl22  1  0.619991  0.618197  0.057499  1
  Cl  Cl23  1  0.120525  0.381749  0.442390  1
  Cl  Cl24  1  0.895120  0.504322  0.877613  1
  Cl  Cl25  1  0.394473  0.495850  0.622371  1
  Cl  Cl26  1  0.104855  0.495722  0.122370  1
  Cl  Cl27  1  0.606809  0.508285  0.377074  1
  Cl  Cl28  1  0.049800  0.183922  0.069403  1
  Cl  Cl29  1  0.557121  0.813826  0.429862  1
  Cl  Cl30  1  0.950183  0.816005  0.930659  1
  Cl  Cl31  1  0.450868  0.184174  0.569441  1
