# generated using pymatgen
data_Tm3Lu7Si5As
_symmetry_space_group_name_H-M   'P 1'
_cell_length_a   8.26215500
_cell_length_b   8.27344685
_cell_length_c   6.14870300
_cell_angle_alpha   90.00000000
_cell_angle_beta   90.00000000
_cell_angle_gamma   119.95487402
_symmetry_Int_Tables_number   1
_chemical_formula_structural   Tm3Lu7Si5As
_chemical_formula_sum   'Tm3 Lu7 Si5 As1'
_cell_volume   364.15918612
_cell_formula_units_Z   1
loop_
 _symmetry_equiv_pos_site_id
 _symmetry_equiv_pos_as_xyz
  1  'x, y, z'
loop_
 _atom_site_type_symbol
 _atom_site_label
 _atom_site_symmetry_multiplicity
 _atom_site_fract_x
 _atom_site_fract_y
 _atom_site_fract_z
 _atom_site_occupancy
  Tm  Tm0  1  0.759294  0.000000  0.750000  1
  Tm  Tm1  1  0.996518  0.754706  0.750000  1
  Tm  Tm2  1  0.241812  0.245294  0.750000  1
  Lu  Lu3  1  0.668900  0.335934  0.001189  1
  Lu  Lu4  1  0.332966  0.664066  0.498811  1
  Lu  Lu5  1  0.332966  0.664066  0.001189  1
  Lu  Lu6  1  0.668900  0.335934  0.498811  1
  Lu  Lu7  1  0.757456  0.757053  0.250000  1
  Lu  Lu8  1  0.000403  0.242947  0.250000  1
  Lu  Lu9  1  0.241937  0.000000  0.250000  1
  Si  Si10  1  0.394637  0.393419  0.250000  1
  Si  Si11  1  0.001217  0.606581  0.250000  1
  Si  Si12  1  0.999663  0.394830  0.750000  1
  Si  Si13  1  0.604834  0.605170  0.750000  1
  Si  Si14  1  0.606452  0.000000  0.250000  1
  As  As15  1  0.392045  0.000000  0.750000  1
