# generated using pymatgen
data_Sm2ThAlC3
_symmetry_space_group_name_H-M   'P 1'
_cell_length_a   3.67189000
_cell_length_b   7.34719445
_cell_length_c   10.12488104
_cell_angle_alpha   91.09742387
_cell_angle_beta   90.00000000
_cell_angle_gamma   90.00000000
_symmetry_Int_Tables_number   1
_chemical_formula_structural   Sm2ThAlC3
_chemical_formula_sum   'Sm4 Th2 Al2 C6'
_cell_volume   273.09984767
_cell_formula_units_Z   2
loop_
 _symmetry_equiv_pos_site_id
 _symmetry_equiv_pos_as_xyz
  1  'x, y, z'
loop_
 _atom_site_type_symbol
 _atom_site_label
 _atom_site_symmetry_multiplicity
 _atom_site_fract_x
 _atom_site_fract_y
 _atom_site_fract_z
 _atom_site_occupancy
  Sm  Sm0  1  0.500000  0.507771  0.197286  1
  Sm  Sm1  1  0.500000  0.492229  0.802714  1
  Sm  Sm2  1  0.000000  0.753043  0.466636  1
  Sm  Sm3  1  0.000000  0.246957  0.533364  1
  Th  Th4  1  0.500000  0.987983  0.194716  1
  Th  Th5  1  0.500000  0.012017  0.805284  1
  Al  Al6  1  0.000000  0.733583  0.005528  1
  Al  Al7  1  0.000000  0.266417  0.994472  1
  C  C8  1  0.500000  0.508603  0.564888  1
  C  C9  1  0.500000  0.491397  0.435112  1
  C  C10  1  0.500000  0.993004  0.566281  1
  C  C11  1  0.500000  0.006996  0.433719  1
  C  C12  1  0.000000  0.756283  0.209310  1
  C  C13  1  0.000000  0.243717  0.790690  1
