# generated using pymatgen
data_Ac5Ga2Ru3
_symmetry_space_group_name_H-M   'P 1'
_cell_length_a   8.89556700
_cell_length_b   8.89556673
_cell_length_c   8.89556800
_cell_angle_alpha   109.47122125
_cell_angle_beta   109.47122063
_cell_angle_gamma   109.47121804
_symmetry_Int_Tables_number   1
_chemical_formula_structural   Ac5Ga2Ru3
_chemical_formula_sum   'Ac10 Ga4 Ru6'
_cell_volume   541.87493277
_cell_formula_units_Z   2
loop_
 _symmetry_equiv_pos_site_id
 _symmetry_equiv_pos_as_xyz
  1  'x, y, z'
loop_
 _atom_site_type_symbol
 _atom_site_label
 _atom_site_symmetry_multiplicity
 _atom_site_fract_x
 _atom_site_fract_y
 _atom_site_fract_z
 _atom_site_occupancy
  Ac  Ac0  1  0.784374  0.784374  0.784374  1
  Ac  Ac1  1  0.308909  0.558909  0.750000  1
  Ac  Ac2  1  0.750000  0.308909  0.558909  1
  Ac  Ac3  1  0.558909  0.750000  0.308909  1
  Ac  Ac4  1  0.715626  0.500000  0.000000  1
  Ac  Ac5  1  0.000000  0.715626  0.500000  1
  Ac  Ac6  1  0.500000  0.000000  0.715626  1
  Ac  Ac7  1  0.250000  0.191091  0.941091  1
  Ac  Ac8  1  0.941091  0.250000  0.191091  1
  Ac  Ac9  1  0.191091  0.941091  0.250000  1
  Ga  Ga10  1  0.411551  0.411551  0.411551  1
  Ga  Ga11  1  0.088449  0.500000  0.000000  1
  Ga  Ga12  1  0.000000  0.088449  0.500000  1
  Ga  Ga13  1  0.500000  0.000000  0.088449  1
  Ru  Ru14  1  0.881983  0.131983  0.750000  1
  Ru  Ru15  1  0.750000  0.881983  0.131983  1
  Ru  Ru16  1  0.131983  0.750000  0.881983  1
  Ru  Ru17  1  0.250000  0.618017  0.368017  1
  Ru  Ru18  1  0.368017  0.250000  0.618017  1
  Ru  Ru19  1  0.618017  0.368017  0.250000  1
