# generated using pymatgen
data_Pr6CoCl10
_symmetry_space_group_name_H-M   'P 1'
_cell_length_a   7.46363182
_cell_length_b   9.17690187
_cell_length_c   9.33925788
_cell_angle_alpha   110.79799940
_cell_angle_beta   96.94859898
_cell_angle_gamma   107.20272636
_symmetry_Int_Tables_number   1
_chemical_formula_structural   Pr6CoCl10
_chemical_formula_sum   'Pr6 Co1 Cl10'
_cell_volume   552.64539528
_cell_formula_units_Z   1
loop_
 _symmetry_equiv_pos_site_id
 _symmetry_equiv_pos_as_xyz
  1  'x, y, z'
loop_
 _atom_site_type_symbol
 _atom_site_label
 _atom_site_symmetry_multiplicity
 _atom_site_fract_x
 _atom_site_fract_y
 _atom_site_fract_z
 _atom_site_occupancy
  Pr  Pr0  1  0.874768  0.150727  0.199243  1
  Pr  Pr1  1  0.125232  0.849273  0.800757  1
  Pr  Pr2  1  0.525554  0.698206  0.897950  1
  Pr  Pr3  1  0.474446  0.301794  0.102050  1
  Pr  Pr4  1  0.639821  0.054735  0.753910  1
  Pr  Pr5  1  0.360179  0.945265  0.246090  1
  Co  Co6  1  0.500000  0.000000  0.000000  1
  Cl  Cl7  1  0.742249  0.079935  0.448774  1
  Cl  Cl8  1  0.257751  0.920065  0.551226  1
  Cl  Cl9  1  0.948144  0.829491  0.070253  1
  Cl  Cl10  1  0.051856  0.170509  0.929747  1
  Cl  Cl11  1  0.304231  0.257849  0.352132  1
  Cl  Cl12  1  0.695769  0.742151  0.647868  1
  Cl  Cl13  1  0.589950  0.368260  0.841583  1
  Cl  Cl14  1  0.410050  0.631740  0.158417  1
  Cl  Cl15  1  0.861497  0.465726  0.279905  1
  Cl  Cl16  1  0.138503  0.534274  0.720095  1
