# generated using pymatgen
data_Tm2USn3Ir2Ru
_symmetry_space_group_name_H-M   'P 1'
_cell_length_a   7.59245300
_cell_length_b   7.52246968
_cell_length_c   3.81663000
_cell_angle_alpha   90.00000000
_cell_angle_beta   90.00000000
_cell_angle_gamma   120.30822435
_symmetry_Int_Tables_number   1
_chemical_formula_structural   Tm2USn3Ir2Ru
_chemical_formula_sum   'Tm2 U1 Sn3 Ir2 Ru1'
_cell_volume   188.18976059
_cell_formula_units_Z   1
loop_
 _symmetry_equiv_pos_site_id
 _symmetry_equiv_pos_as_xyz
  1  'x, y, z'
loop_
 _atom_site_type_symbol
 _atom_site_label
 _atom_site_symmetry_multiplicity
 _atom_site_fract_x
 _atom_site_fract_y
 _atom_site_fract_z
 _atom_site_occupancy
  Tm  Tm0  1  0.997803  0.403143  0.500000  1
  Tm  Tm1  1  0.594661  0.596857  0.500000  1
  U  U2  1  0.409947  0.000000  0.500000  1
  Sn  Sn3  1  0.984317  0.724411  0.000000  1
  Sn  Sn4  1  0.259906  0.275589  0.000000  1
  Sn  Sn5  1  0.756018  0.000000  0.000000  1
  Ir  Ir6  1  0.338696  0.699875  0.000000  1
  Ir  Ir7  1  0.638822  0.300125  0.000000  1
  Ru  Ru8  1  0.019830  0.000000  0.500000  1
