# generated using pymatgen
data_Tb3Er8TmOs4
_symmetry_space_group_name_H-M   'P 1'
_cell_length_a   6.29196757
_cell_length_b   7.37480100
_cell_length_c   8.99406848
_cell_angle_alpha   90.00598528
_cell_angle_beta   89.96313037
_cell_angle_gamma   89.90519427
_symmetry_Int_Tables_number   1
_chemical_formula_structural   Tb3Er8TmOs4
_chemical_formula_sum   'Tb3 Er8 Tm1 Os4'
_cell_volume   417.34218381
_cell_formula_units_Z   1
loop_
 _symmetry_equiv_pos_site_id
 _symmetry_equiv_pos_as_xyz
  1  'x, y, z'
loop_
 _atom_site_type_symbol
 _atom_site_label
 _atom_site_symmetry_multiplicity
 _atom_site_fract_x
 _atom_site_fract_y
 _atom_site_fract_z
 _atom_site_occupancy
  Tb  Tb0  1  0.870369  0.538510  0.249847  1
  Tb  Tb1  1  0.629811  0.038396  0.249915  1
  Tb  Tb2  1  0.130369  0.461540  0.750116  1
  Er  Er3  1  0.167498  0.174523  0.437436  1
  Er  Er4  1  0.666497  0.324299  0.563126  1
  Er  Er5  1  0.832006  0.824967  0.936654  1
  Er  Er6  1  0.666469  0.324476  0.936926  1
  Er  Er7  1  0.831977  0.825054  0.563539  1
  Er  Er8  1  0.333265  0.675954  0.437065  1
  Er  Er9  1  0.167547  0.174580  0.062523  1
  Er  Er10  1  0.369507  0.961125  0.750104  1
  Tm  Tm11  1  0.333252  0.675810  0.062869  1
  Os  Os12  1  0.043155  0.882904  0.249851  1
  Os  Os13  1  0.456999  0.383164  0.249859  1
  Os  Os14  1  0.959376  0.116500  0.749954  1
  Os  Os15  1  0.541903  0.618198  0.750217  1
