# generated using pymatgen
data_Tb8Sc12Si15Ni
_symmetry_space_group_name_H-M   'P 1'
_cell_length_a   7.07552116
_cell_length_b   7.44946281
_cell_length_c   13.95673100
_cell_angle_alpha   90.00000000
_cell_angle_beta   90.00000000
_cell_angle_gamma   89.95100000
_symmetry_Int_Tables_number   1
_chemical_formula_structural   Tb8Sc12Si15Ni
_chemical_formula_sum   'Tb8 Sc12 Si15 Ni1'
_cell_volume   735.64271736
_cell_formula_units_Z   1
loop_
 _symmetry_equiv_pos_site_id
 _symmetry_equiv_pos_as_xyz
  1  'x, y, z'
loop_
 _atom_site_type_symbol
 _atom_site_label
 _atom_site_symmetry_multiplicity
 _atom_site_fract_x
 _atom_site_fract_y
 _atom_site_fract_z
 _atom_site_occupancy
  Tb  Tb0  1  0.011778  0.177968  0.096051  1
  Tb  Tb1  1  0.989457  0.824509  0.904319  1
  Tb  Tb2  1  0.489272  0.677100  0.903773  1
  Tb  Tb3  1  0.989457  0.824509  0.595681  1
  Tb  Tb4  1  0.511707  0.323069  0.095695  1
  Tb  Tb5  1  0.011778  0.177968  0.403949  1
  Tb  Tb6  1  0.511707  0.323069  0.404305  1
  Tb  Tb7  1  0.489272  0.677100  0.596227  1
  Sc  Sc8  1  0.162616  0.507236  0.750000  1
  Sc  Sc9  1  0.839505  0.498146  0.250000  1
  Sc  Sc10  1  0.339388  0.004345  0.250000  1
  Sc  Sc11  1  0.669311  0.999861  0.750000  1
  Sc  Sc12  1  0.315704  0.172198  0.628181  1
  Sc  Sc13  1  0.671821  0.826172  0.374426  1
  Sc  Sc14  1  0.171173  0.676864  0.374249  1
  Sc  Sc15  1  0.671821  0.826172  0.125574  1
  Sc  Sc16  1  0.835980  0.319423  0.628151  1
  Sc  Sc17  1  0.315704  0.172198  0.871819  1
  Sc  Sc18  1  0.835980  0.319423  0.871849  1
  Sc  Sc19  1  0.171173  0.676864  0.125751  1
  Si  Si20  1  0.969344  0.883793  0.250000  1
  Si  Si21  1  0.469834  0.616201  0.250000  1
  Si  Si22  1  0.531929  0.383939  0.750000  1
  Si  Si23  1  0.282003  0.875305  0.750000  1
  Si  Si24  1  0.713548  0.129119  0.250000  1
  Si  Si25  1  0.213413  0.373018  0.250000  1
  Si  Si26  1  0.782855  0.624132  0.750000  1
  Si  Si27  1  0.158368  0.466102  0.538831  1
  Si  Si28  1  0.843122  0.535661  0.462475  1
  Si  Si29  1  0.344802  0.964928  0.461418  1
  Si  Si30  1  0.843122  0.535661  0.037525  1
  Si  Si31  1  0.656162  0.035183  0.540283  1
  Si  Si32  1  0.158368  0.466102  0.961169  1
  Si  Si33  1  0.656162  0.035183  0.959717  1
  Si  Si34  1  0.344802  0.964928  0.038582  1
  Ni  Ni35  1  0.027565  0.106550  0.750000  1
