# generated using pymatgen
data_Nd5Pd6Pt13
_symmetry_space_group_name_H-M   'P 1'
_cell_length_a   5.43716966
_cell_length_b   5.43716924
_cell_length_c   18.18874027
_cell_angle_alpha   81.35654399
_cell_angle_beta   81.35654290
_cell_angle_gamma   60.04186887
_symmetry_Int_Tables_number   1
_chemical_formula_structural   Nd5Pd6Pt13
_chemical_formula_sum   'Nd5 Pd6 Pt13'
_cell_volume   458.79588769
_cell_formula_units_Z   1
loop_
 _symmetry_equiv_pos_site_id
 _symmetry_equiv_pos_as_xyz
  1  'x, y, z'
loop_
 _atom_site_type_symbol
 _atom_site_label
 _atom_site_symmetry_multiplicity
 _atom_site_fract_x
 _atom_site_fract_y
 _atom_site_fract_z
 _atom_site_occupancy
  Nd  Nd0  1  0.000000  0.000000  0.000000  1
  Nd  Nd1  1  0.075925  0.075925  0.772534  1
  Nd  Nd2  1  0.924075  0.924075  0.227466  1
  Nd  Nd3  1  0.151926  0.151926  0.544159  1
  Nd  Nd4  1  0.848074  0.848074  0.455841  1
  Pd  Pd5  1  0.249877  0.249876  0.251108  1
  Pd  Pd6  1  0.750123  0.750124  0.748892  1
  Pd  Pd7  1  0.331479  0.331479  0.000101  1
  Pd  Pd8  1  0.668521  0.668521  0.999899  1
  Pd  Pd9  1  0.414938  0.414938  0.749646  1
  Pd  Pd10  1  0.585062  0.585062  0.250354  1
  Pt  Pt11  1  0.500000  0.500000  0.500000  1
  Pt  Pt12  1  0.122777  0.627727  0.623129  1
  Pt  Pt13  1  0.628113  0.628113  0.622899  1
  Pt  Pt14  1  0.627726  0.122777  0.623129  1
  Pt  Pt15  1  0.877223  0.372273  0.376871  1
  Pt  Pt16  1  0.371887  0.371887  0.377101  1
  Pt  Pt17  1  0.372274  0.877223  0.376871  1
  Pt  Pt18  1  0.041931  0.542607  0.875394  1
  Pt  Pt19  1  0.541490  0.541490  0.875675  1
  Pt  Pt20  1  0.542607  0.041931  0.875394  1
  Pt  Pt21  1  0.958069  0.457393  0.124606  1
  Pt  Pt22  1  0.458510  0.458510  0.124325  1
  Pt  Pt23  1  0.457393  0.958069  0.124606  1
