# generated using pymatgen
data_Dy8In4IrAu7
_symmetry_space_group_name_H-M   'P 1'
_cell_length_a   8.01149555
_cell_length_b   8.01149530
_cell_length_c   7.32426044
_cell_angle_alpha   90.21252383
_cell_angle_beta   90.21252362
_cell_angle_gamma   90.19503657
_symmetry_Int_Tables_number   1
_chemical_formula_structural   Dy8In4IrAu7
_chemical_formula_sum   'Dy8 In4 Ir1 Au7'
_cell_volume   470.09155050
_cell_formula_units_Z   1
loop_
 _symmetry_equiv_pos_site_id
 _symmetry_equiv_pos_as_xyz
  1  'x, y, z'
loop_
 _atom_site_type_symbol
 _atom_site_label
 _atom_site_symmetry_multiplicity
 _atom_site_fract_x
 _atom_site_fract_y
 _atom_site_fract_z
 _atom_site_occupancy
  Dy  Dy0  1  0.171613  0.171613  0.009559  1
  Dy  Dy1  1  0.841217  0.841217  0.998475  1
  Dy  Dy2  1  0.649972  0.333254  0.492218  1
  Dy  Dy3  1  0.333254  0.649972  0.492218  1
  Dy  Dy4  1  0.669435  0.316879  0.004943  1
  Dy  Dy5  1  0.316879  0.669435  0.004943  1
  Dy  Dy6  1  0.820346  0.820346  0.500103  1
  Dy  Dy7  1  0.187485  0.187485  0.494671  1
  In  In8  1  0.497140  0.004630  0.248820  1
  In  In9  1  0.499152  0.994154  0.749382  1
  In  In10  1  0.004630  0.497140  0.248820  1
  In  In11  1  0.994154  0.499152  0.749382  1
  Ir  Ir12  1  0.373435  0.373435  0.238597  1
  Au  Au13  1  0.628984  0.628984  0.768090  1
  Au  Au14  1  0.630584  0.630584  0.228536  1
  Au  Au15  1  0.874072  0.132314  0.731433  1
  Au  Au16  1  0.873448  0.128790  0.269248  1
  Au  Au17  1  0.373093  0.373093  0.769882  1
  Au  Au18  1  0.128790  0.873448  0.269248  1
  Au  Au19  1  0.132314  0.874072  0.731433  1
