# generated using pymatgen
data_YbTm2Hf5(Si4Ru3)4
_symmetry_space_group_name_H-M   'P 1'
_cell_length_a   10.02886349
_cell_length_b   10.00939739
_cell_length_c   13.48415815
_cell_angle_alpha   53.54110956
_cell_angle_beta   53.34397335
_cell_angle_gamma   31.08852848
_symmetry_Int_Tables_number   1
_chemical_formula_structural   YbTm2Hf5(Si4Ru3)4
_chemical_formula_sum   'Yb1 Tm2 Hf5 Si16 Ru12'
_cell_volume   549.34438456
_cell_formula_units_Z   1
loop_
 _symmetry_equiv_pos_site_id
 _symmetry_equiv_pos_as_xyz
  1  'x, y, z'
loop_
 _atom_site_type_symbol
 _atom_site_label
 _atom_site_symmetry_multiplicity
 _atom_site_fract_x
 _atom_site_fract_y
 _atom_site_fract_z
 _atom_site_occupancy
  Yb  Yb0  1  0.299980  0.561948  0.640846  1
  Tm  Tm1  1  0.439832  0.703769  0.855869  1
  Tm  Tm2  1  0.701659  0.440439  0.355751  1
  Hf  Hf3  1  0.560524  0.287517  0.149624  1
  Hf  Hf4  1  0.039444  0.295928  0.634786  1
  Hf  Hf5  1  0.705070  0.960642  0.864643  1
  Hf  Hf6  1  0.961211  0.703298  0.365280  1
  Hf  Hf7  1  0.295124  0.040363  0.134856  1
  Si  Si8  1  0.874523  0.123550  0.248719  1
  Si  Si9  1  0.119798  0.879900  0.751202  1
  Si  Si10  1  0.380856  0.618159  0.248448  1
  Si  Si11  1  0.623549  0.375882  0.750193  1
  Si  Si12  1  0.976073  0.254741  0.891578  1
  Si  Si13  1  0.750571  0.019877  0.609941  1
  Si  Si14  1  0.025080  0.745882  0.109420  1
  Si  Si15  1  0.247554  0.982313  0.388800  1
  Si  Si16  1  0.572071  0.083552  0.066033  1
  Si  Si17  1  0.914547  0.428905  0.435097  1
  Si  Si18  1  0.426356  0.920153  0.933647  1
  Si  Si19  1  0.083966  0.572034  0.566288  1
  Si  Si20  1  0.385085  0.143216  0.398003  1
  Si  Si21  1  0.858125  0.612471  0.102692  1
  Si  Si22  1  0.615481  0.855692  0.602274  1
  Si  Si23  1  0.144666  0.388954  0.894751  1
  Ru  Ru24  1  0.646635  0.834198  0.282069  1
  Ru  Ru25  1  0.169873  0.353907  0.217409  1
  Ru  Ru26  1  0.759819  0.482427  0.070006  1
  Ru  Ru27  1  0.833075  0.648011  0.782971  1
  Ru  Ru28  1  0.904720  0.138814  0.586201  1
  Ru  Ru29  1  0.850866  0.106228  0.918932  1
  Ru  Ru30  1  0.097881  0.861111  0.409610  1
  Ru  Ru31  1  0.143537  0.894434  0.086657  1
  Ru  Ru32  1  0.239646  0.515818  0.931392  1
  Ru  Ru33  1  0.488198  0.757471  0.571302  1
  Ru  Ru34  1  0.511913  0.242971  0.427553  1
  Ru  Ru35  1  0.352692  0.165423  0.717158  1
