# generated using pymatgen
data_Eu4TmPt2
_symmetry_space_group_name_H-M   'P 1'
_cell_length_a   6.73726326
_cell_length_b   7.47772424
_cell_length_c   9.03307204
_cell_angle_alpha   96.97444026
_cell_angle_beta   111.89594462
_cell_angle_gamma   90.00000060
_symmetry_Int_Tables_number   1
_chemical_formula_structural   Eu4TmPt2
_chemical_formula_sum   'Eu8 Tm2 Pt4'
_cell_volume   418.62100823
_cell_formula_units_Z   2
loop_
 _symmetry_equiv_pos_site_id
 _symmetry_equiv_pos_as_xyz
  1  'x, y, z'
loop_
 _atom_site_type_symbol
 _atom_site_label
 _atom_site_symmetry_multiplicity
 _atom_site_fract_x
 _atom_site_fract_y
 _atom_site_fract_z
 _atom_site_occupancy
  Eu  Eu0  1  0.979508  0.924594  0.180828  1
  Eu  Eu1  1  0.201320  0.424594  0.180828  1
  Eu  Eu2  1  0.792711  0.315071  0.432799  1
  Eu  Eu3  1  0.640088  0.815072  0.432799  1
  Eu  Eu4  1  0.359912  0.184928  0.567201  1
  Eu  Eu5  1  0.207289  0.684929  0.567201  1
  Eu  Eu6  1  0.798680  0.575406  0.819171  1
  Eu  Eu7  1  0.020492  0.075406  0.819171  1
  Tm  Tm8  1  0.566147  0.250000  0.000000  1
  Tm  Tm9  1  0.433852  0.750000  0.000000  1
  Pt  Pt10  1  0.789820  0.570558  0.198669  1
  Pt  Pt11  1  0.408850  0.070559  0.198669  1
  Pt  Pt12  1  0.591150  0.929441  0.801331  1
  Pt  Pt13  1  0.210180  0.429442  0.801331  1
