# generated using pymatgen
data_EuHf(NiP)3
_symmetry_space_group_name_H-M   'P 1'
_cell_length_a   3.79625700
_cell_length_b   10.24818800
_cell_length_c   12.30459000
_cell_angle_alpha   90.00000000
_cell_angle_beta   90.00000000
_cell_angle_gamma   90.00000000
_symmetry_Int_Tables_number   1
_chemical_formula_structural   EuHf(NiP)3
_chemical_formula_sum   'Eu4 Hf4 Ni12 P12'
_cell_volume   478.70706464
_cell_formula_units_Z   4
loop_
 _symmetry_equiv_pos_site_id
 _symmetry_equiv_pos_as_xyz
  1  'x, y, z'
loop_
 _atom_site_type_symbol
 _atom_site_label
 _atom_site_symmetry_multiplicity
 _atom_site_fract_x
 _atom_site_fract_y
 _atom_site_fract_z
 _atom_site_occupancy
  Eu  Eu0  1  0.250000  0.070667  0.208413  1
  Eu  Eu1  1  0.750000  0.929333  0.791587  1
  Eu  Eu2  1  0.750000  0.570667  0.291587  1
  Eu  Eu3  1  0.250000  0.429333  0.708413  1
  Hf  Hf4  1  0.250000  0.158804  0.498877  1
  Hf  Hf5  1  0.750000  0.841196  0.501123  1
  Hf  Hf6  1  0.750000  0.658804  0.001123  1
  Hf  Hf7  1  0.250000  0.341196  0.998877  1
  Ni  Ni8  1  0.250000  0.728671  0.662841  1
  Ni  Ni9  1  0.750000  0.271329  0.337159  1
  Ni  Ni10  1  0.750000  0.228671  0.837159  1
  Ni  Ni11  1  0.250000  0.771329  0.162841  1
  Ni  Ni12  1  0.250000  0.365787  0.217774  1
  Ni  Ni13  1  0.750000  0.634213  0.782226  1
  Ni  Ni14  1  0.750000  0.865787  0.282226  1
  Ni  Ni15  1  0.250000  0.134213  0.717774  1
  Ni  Ni16  1  0.250000  0.599780  0.484669  1
  Ni  Ni17  1  0.750000  0.400220  0.515331  1
  Ni  Ni18  1  0.750000  0.099780  0.015331  1
  Ni  Ni19  1  0.250000  0.900220  0.984669  1
  P  P20  1  0.250000  0.943234  0.618261  1
  P  P21  1  0.750000  0.056766  0.381739  1
  P  P22  1  0.750000  0.443234  0.881739  1
  P  P23  1  0.250000  0.556766  0.118261  1
  P  P24  1  0.250000  0.393303  0.403509  1
  P  P25  1  0.750000  0.606697  0.596491  1
  P  P26  1  0.750000  0.893303  0.096491  1
  P  P27  1  0.250000  0.106697  0.903509  1
  P  P28  1  0.250000  0.773924  0.354030  1
  P  P29  1  0.750000  0.226076  0.645970  1
  P  P30  1  0.750000  0.273924  0.145970  1
  P  P31  1  0.250000  0.726076  0.854030  1
