# generated using pymatgen
data_Tb2YIn3Ga2Cu
_symmetry_space_group_name_H-M   'P 1'
_cell_length_a   7.29013029
_cell_length_b   7.29013116
_cell_length_c   4.37509000
_cell_angle_alpha   90.00000000
_cell_angle_beta   90.00000000
_cell_angle_gamma   119.93186977
_symmetry_Int_Tables_number   1
_chemical_formula_structural   Tb2YIn3Ga2Cu
_chemical_formula_sum   'Tb2 Y1 In3 Ga2 Cu1'
_cell_volume   201.50508031
_cell_formula_units_Z   1
loop_
 _symmetry_equiv_pos_site_id
 _symmetry_equiv_pos_as_xyz
  1  'x, y, z'
loop_
 _atom_site_type_symbol
 _atom_site_label
 _atom_site_symmetry_multiplicity
 _atom_site_fract_x
 _atom_site_fract_y
 _atom_site_fract_z
 _atom_site_occupancy
  Tb  Tb0  1  0.410080  0.000114  0.500000  1
  Tb  Tb1  1  0.000114  0.410080  0.500000  1
  Y  Y2  1  0.590244  0.590244  0.500000  1
  In  In3  1  0.753372  0.000145  0.000000  1
  In  In4  1  0.000145  0.753372  0.000000  1
  In  In5  1  0.246449  0.246449  0.000000  1
  Ga  Ga6  1  0.333607  0.666454  0.000000  1
  Ga  Ga7  1  0.666454  0.333607  0.000000  1
  Cu  Cu8  1  0.999536  0.999536  0.500000  1
