# generated using pymatgen
data_Pr3ThSb10
_symmetry_space_group_name_H-M   'P 1'
_cell_length_a   4.26203600
_cell_length_b   13.58277330
_cell_length_c   15.23197570
_cell_angle_alpha   77.57074123
_cell_angle_beta   90.00000000
_cell_angle_gamma   90.00000000
_symmetry_Int_Tables_number   1
_chemical_formula_structural   Pr3ThSb10
_chemical_formula_sum   'Pr6 Th2 Sb20'
_cell_volume   861.11636903
_cell_formula_units_Z   2
loop_
 _symmetry_equiv_pos_site_id
 _symmetry_equiv_pos_as_xyz
  1  'x, y, z'
loop_
 _atom_site_type_symbol
 _atom_site_label
 _atom_site_symmetry_multiplicity
 _atom_site_fract_x
 _atom_site_fract_y
 _atom_site_fract_z
 _atom_site_occupancy
  Pr  Pr0  1  0.250000  0.665829  0.857729  1
  Pr  Pr1  1  0.750000  0.334171  0.142271  1
  Pr  Pr2  1  0.250000  0.669562  0.574351  1
  Pr  Pr3  1  0.750000  0.330438  0.425649  1
  Pr  Pr4  1  0.250000  0.951400  0.359837  1
  Pr  Pr5  1  0.750000  0.048600  0.640163  1
  Th  Th6  1  0.250000  0.390396  0.771790  1
  Th  Th7  1  0.750000  0.609604  0.228210  1
  Sb  Sb8  1  0.250000  0.142023  0.777891  1
  Sb  Sb9  1  0.750000  0.857977  0.222109  1
  Sb  Sb10  1  0.250000  0.142124  0.477018  1
  Sb  Sb11  1  0.750000  0.857876  0.522982  1
  Sb  Sb12  1  0.250000  0.145251  0.176198  1
  Sb  Sb13  1  0.750000  0.854749  0.823802  1
  Sb  Sb14  1  0.250000  0.420884  0.976064  1
  Sb  Sb15  1  0.750000  0.579116  0.023936  1
  Sb  Sb16  1  0.750000  0.029439  0.902641  1
  Sb  Sb17  1  0.250000  0.970561  0.097359  1
  Sb  Sb18  1  0.750000  0.140258  0.321233  1
  Sb  Sb19  1  0.250000  0.859742  0.678767  1
  Sb  Sb20  1  0.750000  0.278661  0.937275  1
  Sb  Sb21  1  0.250000  0.721339  0.062725  1
  Sb  Sb22  1  0.750000  0.286135  0.654924  1
  Sb  Sb23  1  0.250000  0.713865  0.345076  1
  Sb  Sb24  1  0.750000  0.571491  0.736387  1
  Sb  Sb25  1  0.250000  0.428509  0.263613  1
  Sb  Sb26  1  0.750000  0.570617  0.448342  1
  Sb  Sb27  1  0.250000  0.429383  0.551658  1
