# generated using pymatgen
data_Tb6Sb(P3Rh5)4
_symmetry_space_group_name_H-M   'P 1'
_cell_length_a   13.46978100
_cell_length_b   13.46977979
_cell_length_c   3.92583300
_cell_angle_alpha   90.00000000
_cell_angle_beta   90.00000000
_cell_angle_gamma   119.99999560
_symmetry_Int_Tables_number   1
_chemical_formula_structural   Tb6Sb(P3Rh5)4
_chemical_formula_sum   'Tb6 Sb1 P12 Rh20'
_cell_volume   616.85558731
_cell_formula_units_Z   1
loop_
 _symmetry_equiv_pos_site_id
 _symmetry_equiv_pos_as_xyz
  1  'x, y, z'
loop_
 _atom_site_type_symbol
 _atom_site_label
 _atom_site_symmetry_multiplicity
 _atom_site_fract_x
 _atom_site_fract_y
 _atom_site_fract_z
 _atom_site_occupancy
  Tb  Tb0  1  0.528768  0.716253  0.249894  1
  Tb  Tb1  1  0.283747  0.812515  0.249894  1
  Tb  Tb2  1  0.187485  0.471232  0.249894  1
  Tb  Tb3  1  0.471232  0.283747  0.750106  1
  Tb  Tb4  1  0.716253  0.187485  0.750106  1
  Tb  Tb5  1  0.812515  0.528768  0.750106  1
  Sb  Sb6  1  0.000000  0.000000  0.000000  1
  P  P7  1  0.527300  0.139178  0.249606  1
  P  P8  1  0.860822  0.388123  0.249606  1
  P  P9  1  0.611877  0.472700  0.249606  1
  P  P10  1  0.946601  0.713403  0.248567  1
  P  P11  1  0.286597  0.233198  0.248567  1
  P  P12  1  0.766802  0.053399  0.248567  1
  P  P13  1  0.388123  0.527300  0.750394  1
  P  P14  1  0.472700  0.860822  0.750394  1
  P  P15  1  0.139178  0.611877  0.750394  1
  P  P16  1  0.713403  0.766802  0.751433  1
  P  P17  1  0.233198  0.946601  0.751433  1
  P  P18  1  0.053399  0.286597  0.751433  1
  Rh  Rh19  1  0.333333  0.666667  0.753021  1
  Rh  Rh20  1  0.918705  0.252874  0.244805  1
  Rh  Rh21  1  0.747126  0.665830  0.244805  1
  Rh  Rh22  1  0.334170  0.081295  0.244805  1
  Rh  Rh23  1  0.440709  0.023992  0.748889  1
  Rh  Rh24  1  0.976008  0.416718  0.748889  1
  Rh  Rh25  1  0.583282  0.559291  0.748889  1
  Rh  Rh26  1  0.666667  0.333333  0.246979  1
  Rh  Rh27  1  0.099428  0.203430  0.264938  1
  Rh  Rh28  1  0.796570  0.895998  0.264938  1
  Rh  Rh29  1  0.104002  0.900572  0.264938  1
  Rh  Rh30  1  0.023992  0.583282  0.251111  1
  Rh  Rh31  1  0.416718  0.440709  0.251111  1
  Rh  Rh32  1  0.559291  0.976008  0.251111  1
  Rh  Rh33  1  0.665830  0.918705  0.755195  1
  Rh  Rh34  1  0.081295  0.747126  0.755195  1
  Rh  Rh35  1  0.252874  0.334170  0.755195  1
  Rh  Rh36  1  0.900572  0.796570  0.735062  1
  Rh  Rh37  1  0.203430  0.104002  0.735062  1
  Rh  Rh38  1  0.895998  0.099428  0.735062  1
