# generated using pymatgen
data_Ho5Er3(B6Ir)4
_symmetry_space_group_name_H-M   'P 1'
_cell_length_a   3.62914300
_cell_length_b   9.16467314
_cell_length_c   11.50436800
_cell_angle_alpha   89.98902393
_cell_angle_beta   90.00000000
_cell_angle_gamma   90.00000000
_symmetry_Int_Tables_number   1
_chemical_formula_structural   Ho5Er3(B6Ir)4
_chemical_formula_sum   'Ho5 Er3 B24 Ir4'
_cell_volume   382.63423029
_cell_formula_units_Z   1
loop_
 _symmetry_equiv_pos_site_id
 _symmetry_equiv_pos_as_xyz
  1  'x, y, z'
loop_
 _atom_site_type_symbol
 _atom_site_label
 _atom_site_symmetry_multiplicity
 _atom_site_fract_x
 _atom_site_fract_y
 _atom_site_fract_z
 _atom_site_occupancy
  Ho  Ho0  1  0.500000  0.322266  0.413146  1
  Ho  Ho1  1  0.500000  0.677764  0.586916  1
  Ho  Ho2  1  0.500000  0.177566  0.912962  1
  Ho  Ho3  1  0.500000  0.822447  0.086860  1
  Ho  Ho4  1  0.500000  0.444721  0.125506  1
  Er  Er5  1  0.500000  0.555279  0.874411  1
  Er  Er6  1  0.500000  0.055294  0.625479  1
  Er  Er7  1  0.500000  0.944782  0.374649  1
  B  B8  1  0.000000  0.110435  0.469920  1
  B  B9  1  0.000000  0.889590  0.530185  1
  B  B10  1  0.000000  0.388946  0.969430  1
  B  B11  1  0.000000  0.611254  0.030061  1
  B  B12  1  0.000000  0.132660  0.315918  1
  B  B13  1  0.000000  0.867285  0.684161  1
  B  B14  1  0.000000  0.367177  0.815694  1
  B  B15  1  0.000000  0.633110  0.184324  1
  B  B16  1  0.000000  0.053356  0.066229  1
  B  B17  1  0.000000  0.946455  0.933640  1
  B  B18  1  0.000000  0.446483  0.566294  1
  B  B19  1  0.000000  0.553622  0.433828  1
  B  B20  1  0.000000  0.482701  0.287112  1
  B  B21  1  0.000000  0.517493  0.713112  1
  B  B22  1  0.000000  0.017510  0.786792  1
  B  B23  1  0.000000  0.982421  0.213250  1
  B  B24  1  0.000000  0.249523  0.079319  1
  B  B25  1  0.000000  0.750097  0.920498  1
  B  B26  1  0.000000  0.249982  0.579381  1
  B  B27  1  0.000000  0.750084  0.420699  1
  B  B28  1  0.000000  0.293798  0.234742  1
  B  B29  1  0.000000  0.705880  0.765366  1
  B  B30  1  0.000000  0.205827  0.734495  1
  B  B31  1  0.000000  0.794295  0.265542  1
  Ir  Ir32  1  0.500000  0.138650  0.178939  1
  Ir  Ir33  1  0.500000  0.860903  0.821014  1
  Ir  Ir34  1  0.500000  0.360844  0.678855  1
  Ir  Ir35  1  0.500000  0.639497  0.321274  1
