# generated using pymatgen
data_Tm16Al6FeNi
_symmetry_space_group_name_H-M   'P 1'
_cell_length_a   10.08111300
_cell_length_b   10.08111242
_cell_length_c   6.72737700
_cell_angle_alpha   90.00000000
_cell_angle_beta   90.00000000
_cell_angle_gamma   120.00000518
_symmetry_Int_Tables_number   1
_chemical_formula_structural   Tm16Al6FeNi
_chemical_formula_sum   'Tm16 Al6 Fe1 Ni1'
_cell_volume   592.09762059
_cell_formula_units_Z   1
loop_
 _symmetry_equiv_pos_site_id
 _symmetry_equiv_pos_as_xyz
  1  'x, y, z'
loop_
 _atom_site_type_symbol
 _atom_site_label
 _atom_site_symmetry_multiplicity
 _atom_site_fract_x
 _atom_site_fract_y
 _atom_site_fract_z
 _atom_site_occupancy
  Tm  Tm0  1  0.175210  0.824790  0.998346  1
  Tm  Tm1  1  0.350782  0.175391  0.496506  1
  Tm  Tm2  1  0.824609  0.649218  0.496506  1
  Tm  Tm3  1  0.175210  0.350419  0.998346  1
  Tm  Tm4  1  0.649581  0.824790  0.998346  1
  Tm  Tm5  1  0.824609  0.175391  0.496506  1
  Tm  Tm6  1  0.333333  0.666667  0.667582  1
  Tm  Tm7  1  0.666667  0.333333  0.168731  1
  Tm  Tm8  1  0.466179  0.533821  0.290331  1
  Tm  Tm9  1  0.940868  0.470435  0.791327  1
  Tm  Tm10  1  0.529565  0.059132  0.791327  1
  Tm  Tm11  1  0.466179  0.932356  0.290331  1
  Tm  Tm12  1  0.067644  0.533821  0.290331  1
  Tm  Tm13  1  0.529565  0.470435  0.791327  1
  Tm  Tm14  1  0.000000  0.000000  0.276390  1
  Tm  Tm15  1  0.000000  0.000000  0.773076  1
  Al  Al16  1  0.162008  0.837992  0.530098  1
  Al  Al17  1  0.326055  0.163027  0.030276  1
  Al  Al18  1  0.836973  0.673945  0.030276  1
  Al  Al19  1  0.162008  0.324015  0.530098  1
  Al  Al20  1  0.675985  0.837992  0.530098  1
  Al  Al21  1  0.836973  0.163027  0.030276  1
  Fe  Fe22  1  0.333333  0.666667  0.061600  1
  Ni  Ni23  1  0.666667  0.333333  0.565971  1
