# generated using pymatgen
data_Zr12MnAl3Ir7RhN4
_symmetry_space_group_name_H-M   'P 1'
_cell_length_a   8.57478484
_cell_length_b   8.58012743
_cell_length_c   8.58012800
_cell_angle_alpha   60.00000552
_cell_angle_beta   59.97939277
_cell_angle_gamma   59.97939004
_symmetry_Int_Tables_number   1
_chemical_formula_structural   Zr12MnAl3Ir7RhN4
_chemical_formula_sum   'Zr12 Mn1 Al3 Ir7 Rh1 N4'
_cell_volume   446.23168450
_cell_formula_units_Z   1
loop_
 _symmetry_equiv_pos_site_id
 _symmetry_equiv_pos_as_xyz
  1  'x, y, z'
loop_
 _atom_site_type_symbol
 _atom_site_label
 _atom_site_symmetry_multiplicity
 _atom_site_fract_x
 _atom_site_fract_y
 _atom_site_fract_z
 _atom_site_occupancy
  Zr  Zr0  1  0.808707  0.809539  0.190878  1
  Zr  Zr1  1  0.192230  0.191796  0.807987  1
  Zr  Zr2  1  0.808707  0.190878  0.809539  1
  Zr  Zr3  1  0.192230  0.807987  0.191796  1
  Zr  Zr4  1  0.192230  0.807987  0.807987  1
  Zr  Zr5  1  0.808707  0.190878  0.190878  1
  Zr  Zr6  1  0.441463  0.441250  0.058644  1
  Zr  Zr7  1  0.059408  0.056165  0.442213  1
  Zr  Zr8  1  0.441463  0.058644  0.441250  1
  Zr  Zr9  1  0.059408  0.442213  0.056165  1
  Zr  Zr10  1  0.059408  0.442213  0.442213  1
  Zr  Zr11  1  0.441463  0.058644  0.058644  1
  Mn  Mn12  1  0.124777  0.625074  0.625074  1
  Al  Al13  1  0.624571  0.126020  0.624704  1
  Al  Al14  1  0.624571  0.624704  0.126020  1
  Al  Al15  1  0.624571  0.624704  0.624704  1
  Ir  Ir16  1  0.414066  0.751343  0.417296  1
  Ir  Ir17  1  0.414066  0.417296  0.751343  1
  Ir  Ir18  1  0.414066  0.417296  0.417296  1
  Ir  Ir19  1  0.498699  0.833767  0.833767  1
  Ir  Ir20  1  0.835145  0.498880  0.832986  1
  Ir  Ir21  1  0.835145  0.832986  0.498880  1
  Ir  Ir22  1  0.835145  0.832986  0.832986  1
  Rh  Rh23  1  0.751516  0.416162  0.416162  1
  N  N24  1  0.624703  0.125099  0.125099  1
  N  N25  1  0.124511  0.624687  0.125401  1
  N  N26  1  0.124511  0.125401  0.624687  1
  N  N27  1  0.124511  0.125401  0.125401  1
