# generated using pymatgen
data_Er3TmTc5Os3
_symmetry_space_group_name_H-M   'P 1'
_cell_length_a   5.30071202
_cell_length_b   5.23337793
_cell_length_c   8.99825800
_cell_angle_alpha   90.00047944
_cell_angle_beta   89.99950305
_cell_angle_gamma   119.47252027
_symmetry_Int_Tables_number   1
_chemical_formula_structural   Er3TmTc5Os3
_chemical_formula_sum   'Er3 Tm1 Tc5 Os3'
_cell_volume   217.31480080
_cell_formula_units_Z   1
loop_
 _symmetry_equiv_pos_site_id
 _symmetry_equiv_pos_as_xyz
  1  'x, y, z'
loop_
 _atom_site_type_symbol
 _atom_site_label
 _atom_site_symmetry_multiplicity
 _atom_site_fract_x
 _atom_site_fract_y
 _atom_site_fract_z
 _atom_site_occupancy
  Er  Er0  1  0.668240  0.334239  0.562859  1
  Er  Er1  1  0.330817  0.665308  0.435394  1
  Er  Er2  1  0.330811  0.665314  0.064582  1
  Tm  Tm3  1  0.668271  0.334246  0.937141  1
  Tc  Tc4  1  0.171310  0.343045  0.750062  1
  Tc  Tc5  1  0.170920  0.828786  0.750060  1
  Tc  Tc6  1  0.657577  0.828279  0.750070  1
  Tc  Tc7  1  0.829706  0.659003  0.249954  1
  Tc  Tc8  1  0.830192  0.170885  0.249952  1
  Os  Os9  1  0.998124  0.999028  0.499276  1
  Os  Os10  1  0.998098  0.999021  0.000702  1
  Os  Os11  1  0.345933  0.172844  0.249948  1
