# generated using pymatgen
data_Nd5Tl2(InPd)2
_symmetry_space_group_name_H-M   'P 1'
_cell_length_a   3.79079000
_cell_length_b   8.20319800
_cell_length_c   18.85705200
_cell_angle_alpha   90.00000000
_cell_angle_beta   90.00000000
_cell_angle_gamma   90.00000000
_symmetry_Int_Tables_number   1
_chemical_formula_structural   Nd5Tl2(InPd)2
_chemical_formula_sum   'Nd10 Tl4 In4 Pd4'
_cell_volume   586.39022107
_cell_formula_units_Z   2
loop_
 _symmetry_equiv_pos_site_id
 _symmetry_equiv_pos_as_xyz
  1  'x, y, z'
loop_
 _atom_site_type_symbol
 _atom_site_label
 _atom_site_symmetry_multiplicity
 _atom_site_fract_x
 _atom_site_fract_y
 _atom_site_fract_z
 _atom_site_occupancy
  Nd  Nd0  1  0.000000  0.500000  0.500000  1
  Nd  Nd1  1  0.000000  0.000000  0.000000  1
  Nd  Nd2  1  0.000000  0.740963  0.281550  1
  Nd  Nd3  1  0.000000  0.259037  0.718450  1
  Nd  Nd4  1  0.000000  0.759037  0.781550  1
  Nd  Nd5  1  0.000000  0.240963  0.218450  1
  Nd  Nd6  1  0.000000  0.617435  0.084252  1
  Nd  Nd7  1  0.000000  0.382565  0.915748  1
  Nd  Nd8  1  0.000000  0.882565  0.584252  1
  Nd  Nd9  1  0.000000  0.117435  0.415748  1
  Tl  Tl10  1  0.500000  0.711773  0.930810  1
  Tl  Tl11  1  0.500000  0.288227  0.069190  1
  Tl  Tl12  1  0.500000  0.788227  0.430810  1
  Tl  Tl13  1  0.500000  0.211773  0.569190  1
  In  In14  1  0.500000  0.582596  0.651783  1
  In  In15  1  0.500000  0.417404  0.348217  1
  In  In16  1  0.500000  0.917404  0.151783  1
  In  In17  1  0.500000  0.082596  0.848217  1
  Pd  Pd18  1  0.500000  0.528173  0.197783  1
  Pd  Pd19  1  0.500000  0.471827  0.802217  1
  Pd  Pd20  1  0.500000  0.971827  0.697783  1
  Pd  Pd21  1  0.500000  0.028173  0.302217  1
