# generated using pymatgen
data_Er20Ir6(OsRh)3
_symmetry_space_group_name_H-M   'P 1'
_cell_length_a   10.76553402
_cell_length_b   10.76677704
_cell_length_c   6.36247904
_cell_angle_alpha   89.98975143
_cell_angle_beta   90.00712283
_cell_angle_gamma   89.99813767
_symmetry_Int_Tables_number   1
_chemical_formula_structural   Er20Ir6(OsRh)3
_chemical_formula_sum   'Er20 Ir6 Os3 Rh3'
_cell_volume   737.47559278
_cell_formula_units_Z   1
loop_
 _symmetry_equiv_pos_site_id
 _symmetry_equiv_pos_as_xyz
  1  'x, y, z'
loop_
 _atom_site_type_symbol
 _atom_site_label
 _atom_site_symmetry_multiplicity
 _atom_site_fract_x
 _atom_site_fract_y
 _atom_site_fract_z
 _atom_site_occupancy
  Er  Er0  1  0.293662  0.086276  0.376785  1
  Er  Er1  1  0.293705  0.914023  0.876828  1
  Er  Er2  1  0.705333  0.086684  0.876403  1
  Er  Er3  1  0.705366  0.912998  0.376291  1
  Er  Er4  1  0.585010  0.793549  0.877310  1
  Er  Er5  1  0.585417  0.206471  0.377206  1
  Er  Er6  1  0.413570  0.793698  0.376897  1
  Er  Er7  1  0.413878  0.206261  0.876935  1
  Er  Er8  1  0.208439  0.413042  0.625261  1
  Er  Er9  1  0.207832  0.587219  0.119733  1
  Er  Er10  1  0.791965  0.413788  0.119684  1
  Er  Er11  1  0.791392  0.585997  0.625341  1
  Er  Er12  1  0.913159  0.707428  0.120538  1
  Er  Er13  1  0.913429  0.292096  0.626339  1
  Er  Er14  1  0.087992  0.708028  0.625377  1
  Er  Er15  1  0.088210  0.292514  0.119856  1
  Er  Er16  1  0.000492  0.000039  0.499521  1
  Er  Er17  1  0.000507  0.999974  0.999884  1
  Er  Er18  1  0.500000  0.500023  0.999828  1
  Er  Er19  1  0.499982  0.500007  0.499484  1
  Ir  Ir20  1  0.151373  0.153126  0.749878  1
  Ir  Ir21  1  0.151075  0.846416  0.250719  1
  Ir  Ir22  1  0.653631  0.347814  0.749754  1
  Ir  Ir23  1  0.654119  0.651880  0.250554  1
  Ir  Ir24  1  0.346336  0.348405  0.250379  1
  Ir  Ir25  1  0.346773  0.651917  0.749611  1
  Os  Os26  1  0.500727  0.000003  0.123790  1
  Os  Os27  1  0.500752  0.000007  0.623457  1
  Os  Os28  1  0.999583  0.500068  0.877007  1
  Rh  Rh29  1  0.848464  0.153173  0.250441  1
  Rh  Rh30  1  0.848173  0.847160  0.749625  1
  Rh  Rh31  1  0.999653  0.499919  0.379284  1
