# generated using pymatgen
data_Ac5(Sn5Pd2)2
_symmetry_space_group_name_H-M   'P 1'
_cell_length_a   14.67056000
_cell_length_b   14.67056000
_cell_length_c   4.83111300
_cell_angle_alpha   90.00000000
_cell_angle_beta   90.00000000
_cell_angle_gamma   90.00000000
_symmetry_Int_Tables_number   1
_chemical_formula_structural   Ac5(Sn5Pd2)2
_chemical_formula_sum   'Ac10 Sn20 Pd8'
_cell_volume   1039.77789314
_cell_formula_units_Z   2
loop_
 _symmetry_equiv_pos_site_id
 _symmetry_equiv_pos_as_xyz
  1  'x, y, z'
loop_
 _atom_site_type_symbol
 _atom_site_label
 _atom_site_symmetry_multiplicity
 _atom_site_fract_x
 _atom_site_fract_y
 _atom_site_fract_z
 _atom_site_occupancy
  Ac  Ac0  1  0.500000  0.500000  0.000000  1
  Ac  Ac1  1  0.000000  0.000000  0.000000  1
  Ac  Ac2  1  0.681548  0.181548  0.500000  1
  Ac  Ac3  1  0.318452  0.818452  0.500000  1
  Ac  Ac4  1  0.181548  0.318452  0.500000  1
  Ac  Ac5  1  0.818452  0.681548  0.500000  1
  Ac  Ac6  1  0.892758  0.392758  0.500000  1
  Ac  Ac7  1  0.107242  0.607242  0.500000  1
  Ac  Ac8  1  0.392758  0.107242  0.500000  1
  Ac  Ac9  1  0.607242  0.892758  0.500000  1
  Sn  Sn10  1  0.569428  0.069428  0.000000  1
  Sn  Sn11  1  0.430572  0.930572  0.000000  1
  Sn  Sn12  1  0.069428  0.430572  0.000000  1
  Sn  Sn13  1  0.930572  0.569428  0.000000  1
  Sn  Sn14  1  0.649555  0.701209  0.000000  1
  Sn  Sn15  1  0.350445  0.298791  0.000000  1
  Sn  Sn16  1  0.149555  0.798791  0.000000  1
  Sn  Sn17  1  0.850445  0.201209  0.000000  1
  Sn  Sn18  1  0.298791  0.649555  0.000000  1
  Sn  Sn19  1  0.701209  0.350445  0.000000  1
  Sn  Sn20  1  0.201209  0.149555  0.000000  1
  Sn  Sn21  1  0.798791  0.850445  0.000000  1
  Sn  Sn22  1  0.665089  0.494302  0.500000  1
  Sn  Sn23  1  0.334911  0.505698  0.500000  1
  Sn  Sn24  1  0.165089  0.005698  0.500000  1
  Sn  Sn25  1  0.834911  0.994302  0.500000  1
  Sn  Sn26  1  0.505698  0.665089  0.500000  1
  Sn  Sn27  1  0.494302  0.334911  0.500000  1
  Sn  Sn28  1  0.994302  0.165089  0.500000  1
  Sn  Sn29  1  0.005698  0.834911  0.500000  1
  Pd  Pd30  1  0.743808  0.533387  0.000000  1
  Pd  Pd31  1  0.256192  0.466613  0.000000  1
  Pd  Pd32  1  0.243808  0.966613  0.000000  1
  Pd  Pd33  1  0.756192  0.033387  0.000000  1
  Pd  Pd34  1  0.466613  0.743808  0.000000  1
  Pd  Pd35  1  0.533387  0.256192  0.000000  1
  Pd  Pd36  1  0.033387  0.243808  0.000000  1
  Pd  Pd37  1  0.966613  0.756192  0.000000  1
