# generated using pymatgen
data_Dy10In3Bi2Sb
_symmetry_space_group_name_H-M   'P 1'
_cell_length_a   6.56711503
_cell_length_b   9.04093417
_cell_length_c   9.03749201
_cell_angle_alpha   119.98416057
_cell_angle_beta   89.99787505
_cell_angle_gamma   90.00398213
_symmetry_Int_Tables_number   1
_chemical_formula_structural   Dy10In3Bi2Sb
_chemical_formula_sum   'Dy10 In3 Bi2 Sb1'
_cell_volume   464.76753300
_cell_formula_units_Z   1
loop_
 _symmetry_equiv_pos_site_id
 _symmetry_equiv_pos_as_xyz
  1  'x, y, z'
loop_
 _atom_site_type_symbol
 _atom_site_label
 _atom_site_symmetry_multiplicity
 _atom_site_fract_x
 _atom_site_fract_y
 _atom_site_fract_z
 _atom_site_occupancy
  Dy  Dy0  1  0.504307  0.330117  0.664136  1
  Dy  Dy1  1  0.504311  0.669886  0.333806  1
  Dy  Dy2  1  0.995625  0.669996  0.334065  1
  Dy  Dy3  1  0.995623  0.329967  0.663878  1
  Dy  Dy4  1  0.750036  0.237619  0.000320  1
  Dy  Dy5  1  0.750047  0.762304  0.762627  1
  Dy  Dy6  1  0.750044  0.000001  0.239102  1
  Dy  Dy7  1  0.250048  0.764923  0.003591  1
  Dy  Dy8  1  0.250030  0.235080  0.238670  1
  Dy  Dy9  1  0.250025  0.000007  0.759516  1
  In  In10  1  0.750103  0.605719  0.999456  1
  In  In11  1  0.749930  0.394295  0.393755  1
  In  In12  1  0.749949  0.000017  0.606265  1
  Bi  Bi13  1  0.249790  0.394948  0.000452  1
  Bi  Bi14  1  0.250067  0.605086  0.605504  1
  Sb  Sb15  1  0.250068  0.000032  0.394857  1
