# generated using pymatgen
data_Sr4LaNp5O18
_symmetry_space_group_name_H-M   'P 1'
_cell_length_a   6.96230166
_cell_length_b   7.70836048
_cell_length_c   8.71220633
_cell_angle_alpha   100.53613972
_cell_angle_beta   97.99135794
_cell_angle_gamma   107.05285368
_symmetry_Int_Tables_number   1
_chemical_formula_structural   Sr4LaNp5O18
_chemical_formula_sum   'Sr4 La1 Np5 O18'
_cell_volume   430.14267511
_cell_formula_units_Z   1
loop_
 _symmetry_equiv_pos_site_id
 _symmetry_equiv_pos_as_xyz
  1  'x, y, z'
loop_
 _atom_site_type_symbol
 _atom_site_label
 _atom_site_symmetry_multiplicity
 _atom_site_fract_x
 _atom_site_fract_y
 _atom_site_fract_z
 _atom_site_occupancy
  Sr  Sr0  1  0.801996  0.103592  0.583364  1
  Sr  Sr1  1  0.597328  0.694706  0.195922  1
  Sr  Sr2  1  0.402672  0.305294  0.804078  1
  Sr  Sr3  1  0.198004  0.896408  0.416636  1
  La  La4  1  0.000000  0.500000  0.000000  1
  Np  Np5  1  0.000000  0.000000  0.000000  1
  Np  Np6  1  0.792315  0.578568  0.587484  1
  Np  Np7  1  0.620565  0.196750  0.195296  1
  Np  Np8  1  0.379435  0.803250  0.804704  1
  Np  Np9  1  0.207685  0.421432  0.412516  1
  O  O10  1  0.825895  0.783098  0.469502  1
  O  O11  1  0.007117  0.236046  0.172578  1
  O  O12  1  0.673427  0.400824  0.068735  1
  O  O13  1  0.455625  0.999783  0.683044  1
  O  O14  1  0.860028  0.348675  0.417026  1
  O  O15  1  0.493089  0.388816  0.344907  1
  O  O16  1  0.239482  0.605775  0.271739  1
  O  O17  1  0.977142  0.815410  0.144114  1
  O  O18  1  0.667443  0.940536  0.991816  1
  O  O19  1  0.332557  0.059464  0.008184  1
  O  O20  1  0.022858  0.184590  0.855886  1
  O  O21  1  0.760518  0.394225  0.728261  1
  O  O22  1  0.506911  0.611184  0.655093  1
  O  O23  1  0.139972  0.651325  0.582974  1
  O  O24  1  0.544375  0.000217  0.316956  1
  O  O25  1  0.326573  0.599176  0.931265  1
  O  O26  1  0.992883  0.763954  0.827422  1
  O  O27  1  0.174105  0.216902  0.530498  1
