# generated using pymatgen
data_CeNd(SnRh)2
_symmetry_space_group_name_H-M   'P 1'
_cell_length_a   7.54410400
_cell_length_b   7.54410475
_cell_length_c   8.16040800
_cell_angle_alpha   90.00000000
_cell_angle_beta   90.00000000
_cell_angle_gamma   120.00000549
_symmetry_Int_Tables_number   1
_chemical_formula_structural   CeNd(SnRh)2
_chemical_formula_sum   'Ce3 Nd3 Sn6 Rh6'
_cell_volume   402.21462433
_cell_formula_units_Z   3
loop_
 _symmetry_equiv_pos_site_id
 _symmetry_equiv_pos_as_xyz
  1  'x, y, z'
loop_
 _atom_site_type_symbol
 _atom_site_label
 _atom_site_symmetry_multiplicity
 _atom_site_fract_x
 _atom_site_fract_y
 _atom_site_fract_z
 _atom_site_occupancy
  Ce  Ce0  1  0.999885  0.411969  0.250000  1
  Ce  Ce1  1  0.588031  0.587918  0.250000  1
  Ce  Ce2  1  0.412082  0.000115  0.250000  1
  Nd  Nd3  1  0.999991  0.412339  0.750000  1
  Nd  Nd4  1  0.587661  0.587652  0.750000  1
  Nd  Nd5  1  0.412348  0.000009  0.750000  1
  Sn  Sn6  1  0.252660  0.252715  0.499276  1
  Sn  Sn7  1  0.000055  0.747340  0.499276  1
  Sn  Sn8  1  0.000055  0.747340  0.000724  1
  Sn  Sn9  1  0.747285  0.999945  0.499276  1
  Sn  Sn10  1  0.747285  0.999945  0.000724  1
  Sn  Sn11  1  0.252660  0.252715  0.000724  1
  Rh  Rh12  1  0.333333  0.666667  0.478460  1
  Rh  Rh13  1  0.666667  0.333333  0.478835  1
  Rh  Rh14  1  0.333333  0.666667  0.021540  1
  Rh  Rh15  1  0.000000  0.000000  0.750000  1
  Rh  Rh16  1  0.000000  0.000000  0.250000  1
  Rh  Rh17  1  0.666667  0.333333  0.021165  1
