# generated using pymatgen
data_Tm4IrRh3O14
_symmetry_space_group_name_H-M   'P 1'
_cell_length_a   7.17922779
_cell_length_b   7.17922841
_cell_length_c   7.17922839
_cell_angle_alpha   59.95290039
_cell_angle_beta   59.95290001
_cell_angle_gamma   59.95290116
_symmetry_Int_Tables_number   1
_chemical_formula_structural   Tm4IrRh3O14
_chemical_formula_sum   'Tm4 Ir1 Rh3 O14'
_cell_volume   261.36902890
_cell_formula_units_Z   1
loop_
 _symmetry_equiv_pos_site_id
 _symmetry_equiv_pos_as_xyz
  1  'x, y, z'
loop_
 _atom_site_type_symbol
 _atom_site_label
 _atom_site_symmetry_multiplicity
 _atom_site_fract_x
 _atom_site_fract_y
 _atom_site_fract_z
 _atom_site_occupancy
  Tm  Tm0  1  0.625000  0.125000  0.125000  1
  Tm  Tm1  1  0.125000  0.625000  0.125000  1
  Tm  Tm2  1  0.125000  0.125000  0.625000  1
  Tm  Tm3  1  0.125000  0.125000  0.125000  1
  Ir  Ir4  1  0.625000  0.625000  0.625000  1
  Rh  Rh5  1  0.125000  0.625000  0.625000  1
  Rh  Rh6  1  0.625000  0.125000  0.625000  1
  Rh  Rh7  1  0.625000  0.625000  0.125000  1
  O  O8  1  0.712408  0.712408  0.289829  1
  O  O9  1  0.284535  0.284535  0.712984  1
  O  O10  1  0.712408  0.289829  0.712408  1
  O  O11  1  0.284535  0.712984  0.284535  1
  O  O12  1  0.289829  0.712408  0.712408  1
  O  O13  1  0.712984  0.284535  0.284535  1
  O  O14  1  0.537592  0.537592  0.960171  1
  O  O15  1  0.965465  0.965465  0.537016  1
  O  O16  1  0.537592  0.960171  0.537592  1
  O  O17  1  0.965465  0.537016  0.965465  1
  O  O18  1  0.960171  0.537592  0.537592  1
  O  O19  1  0.537016  0.965465  0.965465  1
  O  O20  1  0.250641  0.250641  0.250641  1
  O  O21  1  0.999359  0.999359  0.999359  1
