# generated using pymatgen
data_Ac4Ir2Pd
_symmetry_space_group_name_H-M   'P 1'
_cell_length_a   8.14602197
_cell_length_b   8.12912891
_cell_length_c   8.14144792
_cell_angle_alpha   109.00798510
_cell_angle_beta   109.70680095
_cell_angle_gamma   109.64580188
_symmetry_Int_Tables_number   1
_chemical_formula_structural   Ac4Ir2Pd
_chemical_formula_sum   'Ac8 Ir4 Pd2'
_cell_volume   415.27773130
_cell_formula_units_Z   2
loop_
 _symmetry_equiv_pos_site_id
 _symmetry_equiv_pos_as_xyz
  1  'x, y, z'
loop_
 _atom_site_type_symbol
 _atom_site_label
 _atom_site_symmetry_multiplicity
 _atom_site_fract_x
 _atom_site_fract_y
 _atom_site_fract_z
 _atom_site_occupancy
  Ac  Ac0  1  0.119001  0.496556  0.991589  1
  Ac  Ac1  1  0.504258  0.000204  0.616193  1
  Ac  Ac2  1  0.392725  0.391931  0.389526  1
  Ac  Ac3  1  0.996801  0.115792  0.507417  1
  Ac  Ac4  1  0.880999  0.877556  0.872588  1
  Ac  Ac5  1  0.003199  0.618992  0.510617  1
  Ac  Ac6  1  0.607275  0.499206  0.996801  1
  Ac  Ac7  1  0.495742  0.995948  0.111936  1
  Ir  Ir8  1  0.376024  0.629080  0.751001  1
  Ir  Ir9  1  0.246355  0.122595  0.875455  1
  Ir  Ir10  1  0.753645  0.376240  0.629100  1
  Ir  Ir11  1  0.623976  0.753056  0.374977  1
  Pd  Pd12  1  0.877404  0.250125  0.125102  1
  Pd  Pd13  1  0.122596  0.872721  0.247699  1
