# generated using pymatgen
data_Li8B3HPd12
_symmetry_space_group_name_H-M   'P 1'
_cell_length_a   6.78721421
_cell_length_b   6.78721421
_cell_length_c   6.78721421
_cell_angle_alpha   89.97975854
_cell_angle_beta   89.97975854
_cell_angle_gamma   90.02024146
_symmetry_Int_Tables_number   1
_chemical_formula_structural   Li8B3HPd12
_chemical_formula_sum   'Li8 B3 H1 Pd12'
_cell_volume   312.66162974
_cell_formula_units_Z   1
loop_
 _symmetry_equiv_pos_site_id
 _symmetry_equiv_pos_as_xyz
  1  'x, y, z'
loop_
 _atom_site_type_symbol
 _atom_site_label
 _atom_site_symmetry_multiplicity
 _atom_site_fract_x
 _atom_site_fract_y
 _atom_site_fract_z
 _atom_site_occupancy
  Li  Li0  1  0.306649  0.305636  0.306186  1
  Li  Li1  1  0.056186  0.444364  0.556649  1
  Li  Li2  1  0.555584  0.055584  0.444416  1
  Li  Li3  1  0.443351  0.556186  0.055636  1
  Li  Li4  1  0.194416  0.694416  0.805584  1
  Li  Li5  1  0.944364  0.943351  0.943814  1
  Li  Li6  1  0.805636  0.193814  0.693351  1
  Li  Li7  1  0.693814  0.806649  0.194364  1
  B  B8  1  0.375000  0.129661  0.879661  1
  B  B9  1  0.629661  0.620339  0.625000  1
  B  B10  1  0.120339  0.875000  0.370339  1
  H  H11  1  0.875000  0.375000  0.125000  1
  Pd  Pd12  1  0.194368  0.055632  0.625000  1
  Pd  Pd13  1  0.445141  0.375000  0.695141  1
  Pd  Pd14  1  0.048270  0.618900  0.201470  1
  Pd  Pd15  1  0.951470  0.131100  0.298270  1
  Pd  Pd16  1  0.304859  0.945141  0.125000  1
  Pd  Pd17  1  0.701730  0.451470  0.368900  1
  Pd  Pd18  1  0.555632  0.875000  0.805632  1
  Pd  Pd19  1  0.631100  0.201730  0.048530  1
  Pd  Pd20  1  0.375000  0.694368  0.444368  1
  Pd  Pd21  1  0.875000  0.804859  0.554859  1
  Pd  Pd22  1  0.118900  0.298530  0.951730  1
  Pd  Pd23  1  0.798530  0.548270  0.881100  1
