# generated using pymatgen
data_Tb4DyCo19(SiP5)2
_symmetry_space_group_name_H-M   'P 1'
_cell_length_a   12.04371305
_cell_length_b   12.03618377
_cell_length_c   3.69249400
_cell_angle_alpha   90.00000000
_cell_angle_beta   90.00000000
_cell_angle_gamma   119.97931038
_symmetry_Int_Tables_number   1
_chemical_formula_structural   Tb4DyCo19(SiP5)2
_chemical_formula_sum   'Tb4 Dy1 Co19 Si2 P10'
_cell_volume   463.64987217
_cell_formula_units_Z   1
loop_
 _symmetry_equiv_pos_site_id
 _symmetry_equiv_pos_as_xyz
  1  'x, y, z'
loop_
 _atom_site_type_symbol
 _atom_site_label
 _atom_site_symmetry_multiplicity
 _atom_site_fract_x
 _atom_site_fract_y
 _atom_site_fract_z
 _atom_site_occupancy
  Tb  Tb0  1  0.665545  0.332890  0.000000  1
  Tb  Tb1  1  0.334455  0.667346  0.000000  1
  Tb  Tb2  1  0.184946  0.185173  0.500000  1
  Tb  Tb3  1  0.815054  0.000228  0.500000  1
  Dy  Dy4  1  0.000000  0.811742  0.500000  1
  Co  Co5  1  0.559270  0.556294  0.000000  1
  Co  Co6  1  0.440730  0.997024  0.000000  1
  Co  Co7  1  0.000000  0.447885  0.000000  1
  Co  Co8  1  0.824927  0.203988  0.000000  1
  Co  Co9  1  0.801679  0.622529  0.000000  1
  Co  Co10  1  0.377312  0.174321  0.000000  1
  Co  Co11  1  0.198321  0.820850  0.000000  1
  Co  Co12  1  0.622688  0.797009  0.000000  1
  Co  Co13  1  0.175073  0.379061  0.000000  1
  Co  Co14  1  0.640662  0.126521  0.500000  1
  Co  Co15  1  0.875212  0.516767  0.500000  1
  Co  Co16  1  0.485476  0.358327  0.500000  1
  Co  Co17  1  0.124788  0.641556  0.500000  1
  Co  Co18  1  0.514524  0.872852  0.500000  1
  Co  Co19  1  0.359338  0.485859  0.500000  1
  Co  Co20  1  0.716921  0.715339  0.500000  1
  Co  Co21  1  0.283079  0.998418  0.500000  1
  Co  Co22  1  0.000000  0.286268  0.500000  1
  Co  Co23  1  0.000000  0.000222  0.000000  1
  Si  Si24  1  0.370044  0.370117  0.000000  1
  Si  Si25  1  0.629956  0.000073  0.000000  1
  P  P26  1  0.000000  0.631105  0.000000  1
  P  P27  1  0.833159  0.313366  0.500000  1
  P  P28  1  0.686280  0.520687  0.500000  1
  P  P29  1  0.478125  0.164850  0.500000  1
  P  P30  1  0.313720  0.834406  0.500000  1
  P  P31  1  0.521875  0.686724  0.500000  1
  P  P32  1  0.166841  0.480207  0.500000  1
  P  P33  1  0.818999  0.817982  0.000000  1
  P  P34  1  0.181001  0.998983  0.000000  1
  P  P35  1  0.000000  0.183028  0.000000  1
