# generated using pymatgen
data_Tb2Er(In2Rh)2
_symmetry_space_group_name_H-M   'P 1'
_cell_length_a   7.94268641
_cell_length_b   7.95040899
_cell_length_c   3.75628200
_cell_angle_alpha   90.00000000
_cell_angle_beta   90.00000000
_cell_angle_gamma   119.93094199
_symmetry_Int_Tables_number   1
_chemical_formula_structural   Tb2Er(In2Rh)2
_chemical_formula_sum   'Tb2 Er1 In4 Rh2'
_cell_volume   205.56420912
_cell_formula_units_Z   1
loop_
 _symmetry_equiv_pos_site_id
 _symmetry_equiv_pos_as_xyz
  1  'x, y, z'
loop_
 _atom_site_type_symbol
 _atom_site_label
 _atom_site_symmetry_multiplicity
 _atom_site_fract_x
 _atom_site_fract_y
 _atom_site_fract_z
 _atom_site_occupancy
  Tb  Tb0  1  0.701694  0.955823  0.500000  1
  Tb  Tb1  1  0.255025  0.298681  0.500000  1
  Er  Er2  1  0.042256  0.745255  0.500000  1
  In  In3  1  0.926310  0.337608  0.000000  1
  In  In4  1  0.410134  0.073052  0.000000  1
  In  In5  1  0.665363  0.590978  0.000000  1
  In  In6  1  0.332357  0.666981  0.000000  1
  Rh  Rh7  1  0.666390  0.334203  0.500000  1
  Rh  Rh8  1  0.000471  0.997417  0.000000  1
