# generated using pymatgen
data_Lu2Al9Ni2Ru
_symmetry_space_group_name_H-M   'P 1'
_cell_length_a   7.45930291
_cell_length_b   7.45930342
_cell_length_c   9.26729609
_cell_angle_alpha   89.65878059
_cell_angle_beta   89.65879122
_cell_angle_gamma   119.81072303
_symmetry_Int_Tables_number   1
_chemical_formula_structural   Lu2Al9Ni2Ru
_chemical_formula_sum   'Lu4 Al18 Ni4 Ru2'
_cell_volume   447.37810020
_cell_formula_units_Z   2
loop_
 _symmetry_equiv_pos_site_id
 _symmetry_equiv_pos_as_xyz
  1  'x, y, z'
loop_
 _atom_site_type_symbol
 _atom_site_label
 _atom_site_symmetry_multiplicity
 _atom_site_fract_x
 _atom_site_fract_y
 _atom_site_fract_z
 _atom_site_occupancy
  Lu  Lu0  1  0.995121  0.668211  0.251339  1
  Lu  Lu1  1  0.004879  0.331789  0.748661  1
  Lu  Lu2  1  0.668211  0.995121  0.251339  1
  Lu  Lu3  1  0.331789  0.004879  0.748661  1
  Al  Al4  1  0.119992  0.119992  0.248984  1
  Al  Al5  1  0.880008  0.880008  0.751016  1
  Al  Al6  1  0.997403  0.333452  0.074613  1
  Al  Al7  1  0.002597  0.666548  0.925387  1
  Al  Al8  1  0.999433  0.666262  0.574933  1
  Al  Al9  1  0.333738  0.000567  0.425067  1
  Al  Al10  1  0.000567  0.333738  0.425067  1
  Al  Al11  1  0.666262  0.999433  0.574933  1
  Al  Al12  1  0.666548  0.002597  0.925387  1
  Al  Al13  1  0.333452  0.997403  0.074613  1
  Al  Al14  1  0.331638  0.331638  0.548845  1
  Al  Al15  1  0.668362  0.668362  0.451155  1
  Al  Al16  1  0.668659  0.668659  0.051149  1
  Al  Al17  1  0.331341  0.331341  0.948851  1
  Al  Al18  1  0.338718  0.550931  0.247295  1
  Al  Al19  1  0.661282  0.449069  0.752705  1
  Al  Al20  1  0.550931  0.338718  0.247295  1
  Al  Al21  1  0.449069  0.661282  0.752705  1
  Ni  Ni22  1  0.674334  0.325666  0.000000  1
  Ni  Ni23  1  0.325666  0.674334  0.000000  1
  Ni  Ni24  1  0.000000  0.000000  0.000000  1
  Ni  Ni25  1  0.000000  0.000000  0.500000  1
  Ru  Ru26  1  0.327637  0.672363  0.500000  1
  Ru  Ru27  1  0.672363  0.327637  0.500000  1
