# generated using pymatgen
data_TbY2Mg3Al2Hg
_symmetry_space_group_name_H-M   'P 1'
_cell_length_a   7.51971255
_cell_length_b   7.51134834
_cell_length_c   4.42612400
_cell_angle_alpha   90.00000000
_cell_angle_beta   90.00000000
_cell_angle_gamma   119.96322841
_symmetry_Int_Tables_number   1
_chemical_formula_structural   TbY2Mg3Al2Hg
_chemical_formula_sum   'Tb1 Y2 Mg3 Al2 Hg1'
_cell_volume   216.58788123
_cell_formula_units_Z   1
loop_
 _symmetry_equiv_pos_site_id
 _symmetry_equiv_pos_as_xyz
  1  'x, y, z'
loop_
 _atom_site_type_symbol
 _atom_site_label
 _atom_site_symmetry_multiplicity
 _atom_site_fract_x
 _atom_site_fract_y
 _atom_site_fract_z
 _atom_site_occupancy
  Tb  Tb0  1  0.000000  0.575237  0.000000  1
  Y  Y1  1  0.424934  0.424865  0.000000  1
  Y  Y2  1  0.575066  0.999931  0.000000  1
  Mg  Mg3  1  0.753236  0.753185  0.500000  1
  Mg  Mg4  1  0.246764  0.999949  0.500000  1
  Mg  Mg5  1  0.000000  0.246758  0.500000  1
  Al  Al6  1  0.666623  0.333367  0.500000  1
  Al  Al7  1  0.333377  0.666746  0.500000  1
  Hg  Hg8  1  0.000000  0.999961  0.000000  1
