# generated using pymatgen
data_Cs3K(SeO3)2
_symmetry_space_group_name_H-M   'P 1'
_cell_length_a   6.54534300
_cell_length_b   6.54534334
_cell_length_c   7.98023400
_cell_angle_alpha   90.00000000
_cell_angle_beta   90.00000000
_cell_angle_gamma   119.99999321
_symmetry_Int_Tables_number   1
_chemical_formula_structural   Cs3K(SeO3)2
_chemical_formula_sum   'Cs3 K1 Se2 O6'
_cell_volume   296.08140336
_cell_formula_units_Z   1
loop_
 _symmetry_equiv_pos_site_id
 _symmetry_equiv_pos_as_xyz
  1  'x, y, z'
loop_
 _atom_site_type_symbol
 _atom_site_label
 _atom_site_symmetry_multiplicity
 _atom_site_fract_x
 _atom_site_fract_y
 _atom_site_fract_z
 _atom_site_occupancy
  Cs  Cs0  1  0.000000  0.000000  0.000000  1
  Cs  Cs1  1  0.666667  0.333334  0.342344  1
  Cs  Cs2  1  0.333333  0.666667  0.657655  1
  K  K3  1  0.000000  0.000000  0.500000  1
  Se  Se4  1  0.333333  0.666667  0.198638  1
  Se  Se5  1  0.666667  0.333334  0.801361  1
  O  O6  1  0.194354  0.388707  0.287638  1
  O  O7  1  0.194354  0.805646  0.287638  1
  O  O8  1  0.611293  0.805646  0.287638  1
  O  O9  1  0.388706  0.194353  0.712361  1
  O  O10  1  0.805645  0.194353  0.712361  1
  O  O11  1  0.805646  0.611294  0.712361  1
