# generated using pymatgen
data_SmTc4Bi3F28
_symmetry_space_group_name_H-M   'P 1'
_cell_length_a   5.72635576
_cell_length_b   9.19775758
_cell_length_c   12.27640827
_cell_angle_alpha   61.86463009
_cell_angle_beta   89.92961970
_cell_angle_gamma   90.01878688
_symmetry_Int_Tables_number   1
_chemical_formula_structural   SmTc4Bi3F28
_chemical_formula_sum   'Sm1 Tc4 Bi3 F28'
_cell_volume   570.18900925
_cell_formula_units_Z   1
loop_
 _symmetry_equiv_pos_site_id
 _symmetry_equiv_pos_as_xyz
  1  'x, y, z'
loop_
 _atom_site_type_symbol
 _atom_site_label
 _atom_site_symmetry_multiplicity
 _atom_site_fract_x
 _atom_site_fract_y
 _atom_site_fract_z
 _atom_site_occupancy
  Sm  Sm0  1  0.758447  0.809563  0.764722  1
  Tc  Tc1  1  0.742614  0.272151  0.457387  1
  Tc  Tc2  1  0.243658  0.726448  0.041709  1
  Tc  Tc3  1  0.257373  0.727253  0.543659  1
  Tc  Tc4  1  0.756772  0.274474  0.957021  1
  Bi  Bi5  1  0.738214  0.814934  0.262743  1
  Bi  Bi6  1  0.239193  0.184020  0.237814  1
  Bi  Bi7  1  0.261521  0.180789  0.737168  1
  F  F8  1  0.450160  0.709434  0.919880  1
  F  F9  1  0.942946  0.292100  0.578726  1
  F  F10  1  0.555271  0.292256  0.079553  1
  F  F11  1  0.054532  0.708369  0.422787  1
  F  F12  1  0.456160  0.282588  0.543870  1
  F  F13  1  0.962242  0.716616  0.951966  1
  F  F14  1  0.541429  0.717693  0.455382  1
  F  F15  1  0.041195  0.284715  0.044684  1
  F  F16  1  0.764901  0.516314  0.859200  1
  F  F17  1  0.266982  0.489191  0.641618  1
  F  F18  1  0.234696  0.487374  0.139713  1
  F  F19  1  0.732468  0.512338  0.358976  1
  F  F20  1  0.759815  0.031739  0.053185  1
  F  F21  1  0.259721  0.970780  0.446460  1
  F  F22  1  0.240066  0.969619  0.946544  1
  F  F23  1  0.740903  0.030268  0.555057  1
  F  F24  1  0.985484  0.734314  0.639494  1
  F  F25  1  0.481630  0.268140  0.864428  1
  F  F26  1  0.019625  0.267676  0.363725  1
  F  F27  1  0.518784  0.733109  0.134742  1
  F  F28  1  0.046109  0.744812  0.166394  1
  F  F29  1  0.547981  0.253550  0.331232  1
  F  F30  1  0.952219  0.256439  0.831858  1
  F  F31  1  0.458394  0.746944  0.667460  1
  F  F32  1  0.408738  0.968239  0.229553  1
  F  F33  1  0.908514  0.029377  0.270829  1
  F  F34  1  0.583651  0.027115  0.769509  1
  F  F35  1  0.087588  0.969260  0.730953  1
