# generated using pymatgen
data_NaTb2Y4RuI12
_symmetry_space_group_name_H-M   'P 1'
_cell_length_a   9.80555732
_cell_length_b   9.81173798
_cell_length_c   9.80902506
_cell_angle_alpha   106.94100138
_cell_angle_beta   106.93709147
_cell_angle_gamma   106.91458814
_symmetry_Int_Tables_number   1
_chemical_formula_structural   NaTb2Y4RuI12
_chemical_formula_sum   'Na1 Tb2 Y4 Ru1 I12'
_cell_volume   787.41756968
_cell_formula_units_Z   1
loop_
 _symmetry_equiv_pos_site_id
 _symmetry_equiv_pos_as_xyz
  1  'x, y, z'
loop_
 _atom_site_type_symbol
 _atom_site_label
 _atom_site_symmetry_multiplicity
 _atom_site_fract_x
 _atom_site_fract_y
 _atom_site_fract_z
 _atom_site_occupancy
  Na  Na0  1  0.500009  0.500030  0.500005  1
  Tb  Tb1  1  0.029783  0.100484  0.301938  1
  Tb  Tb2  1  0.301933  0.029862  0.100428  1
  Y  Y3  1  0.899364  0.697736  0.969914  1
  Y  Y4  1  0.969929  0.899428  0.697667  1
  Y  Y5  1  0.697684  0.969952  0.899368  1
  Y  Y6  1  0.100536  0.302220  0.029911  1
  Ru  Ru7  1  0.000516  0.000177  0.000619  1
  I  I8  1  0.626538  0.856989  0.548401  1
  I  I9  1  0.548386  0.626535  0.856966  1
  I  I10  1  0.856978  0.548404  0.626515  1
  I  I11  1  0.373680  0.143110  0.451932  1
  I  I12  1  0.451668  0.373641  0.143010  1
  I  I13  1  0.143106  0.451894  0.373503  1
  I  I14  1  0.683498  0.074548  0.223404  1
  I  I15  1  0.223382  0.683278  0.074514  1
  I  I16  1  0.074559  0.223473  0.683639  1
  I  I17  1  0.316555  0.925363  0.776282  1
  I  I18  1  0.776538  0.316581  0.925427  1
  I  I19  1  0.925358  0.776293  0.316556  1
