# generated using pymatgen
data_Tb2Nb3Ni9P7
_symmetry_space_group_name_H-M   'P 1'
_cell_length_a   9.32780500
_cell_length_b   9.32780654
_cell_length_c   3.72504700
_cell_angle_alpha   90.00000000
_cell_angle_beta   90.00000000
_cell_angle_gamma   120.00000519
_symmetry_Int_Tables_number   1
_chemical_formula_structural   Tb2Nb3Ni9P7
_chemical_formula_sum   'Tb2 Nb3 Ni9 P7'
_cell_volume   280.68638954
_cell_formula_units_Z   1
loop_
 _symmetry_equiv_pos_site_id
 _symmetry_equiv_pos_as_xyz
  1  'x, y, z'
loop_
 _atom_site_type_symbol
 _atom_site_label
 _atom_site_symmetry_multiplicity
 _atom_site_fract_x
 _atom_site_fract_y
 _atom_site_fract_z
 _atom_site_occupancy
  Tb  Tb0  1  0.333333  0.666667  0.000000  1
  Tb  Tb1  1  0.666667  0.333333  0.500000  1
  Nb  Nb2  1  0.224867  0.119379  0.500000  1
  Nb  Nb3  1  0.880621  0.105487  0.500000  1
  Nb  Nb4  1  0.894513  0.775133  0.500000  1
  Ni  Ni5  1  0.128930  0.286137  0.000000  1
  Ni  Ni6  1  0.713863  0.842794  0.000000  1
  Ni  Ni7  1  0.157206  0.871070  0.000000  1
  Ni  Ni8  1  0.432687  0.369724  0.000000  1
  Ni  Ni9  1  0.630276  0.062963  0.000000  1
  Ni  Ni10  1  0.937037  0.567313  0.000000  1
  Ni  Ni11  1  0.057464  0.444553  0.500000  1
  Ni  Ni12  1  0.555447  0.612911  0.500000  1
  Ni  Ni13  1  0.387089  0.942536  0.500000  1
  P  P14  1  0.289670  0.409857  0.500000  1
  P  P15  1  0.590143  0.879813  0.500000  1
  P  P16  1  0.120187  0.710330  0.500000  1
  P  P17  1  0.415243  0.110708  0.000000  1
  P  P18  1  0.889292  0.304534  0.000000  1
  P  P19  1  0.695466  0.584757  0.000000  1
  P  P20  1  0.000000  0.000000  0.000000  1
