# generated using pymatgen
data_Sc2CrFe(Co4P3)2
_symmetry_space_group_name_H-M   'P 1'
_cell_length_a   3.58780400
_cell_length_b   10.17695200
_cell_length_c   11.68801100
_cell_angle_alpha   90.00000000
_cell_angle_beta   90.00000000
_cell_angle_gamma   90.00000000
_symmetry_Int_Tables_number   1
_chemical_formula_structural   Sc2CrFe(Co4P3)2
_chemical_formula_sum   'Sc4 Cr2 Fe2 Co16 P12'
_cell_volume   426.76328313
_cell_formula_units_Z   2
loop_
 _symmetry_equiv_pos_site_id
 _symmetry_equiv_pos_as_xyz
  1  'x, y, z'
loop_
 _atom_site_type_symbol
 _atom_site_label
 _atom_site_symmetry_multiplicity
 _atom_site_fract_x
 _atom_site_fract_y
 _atom_site_fract_z
 _atom_site_occupancy
  Sc  Sc0  1  0.250000  0.580474  0.704190  1
  Sc  Sc1  1  0.250000  0.919526  0.204190  1
  Sc  Sc2  1  0.750000  0.417857  0.293804  1
  Sc  Sc3  1  0.750000  0.082143  0.793804  1
  Cr  Cr4  1  0.250000  0.709302  0.990403  1
  Cr  Cr5  1  0.250000  0.790698  0.490403  1
  Fe  Fe6  1  0.750000  0.287763  0.011482  1
  Fe  Fe7  1  0.750000  0.212237  0.511482  1
  Co  Co8  1  0.250000  0.407448  0.486124  1
  Co  Co9  1  0.250000  0.092552  0.986124  1
  Co  Co10  1  0.750000  0.593322  0.513726  1
  Co  Co11  1  0.750000  0.906678  0.013726  1
  Co  Co12  1  0.250000  0.222141  0.177743  1
  Co  Co13  1  0.250000  0.277860  0.677743  1
  Co  Co14  1  0.750000  0.779355  0.823892  1
  Co  Co15  1  0.750000  0.720645  0.323892  1
  Co  Co16  1  0.250000  0.884200  0.700360  1
  Co  Co17  1  0.250000  0.615800  0.200360  1
  Co  Co18  1  0.750000  0.116337  0.299609  1
  Co  Co19  1  0.750000  0.383663  0.799609  1
  Co  Co20  1  0.250000  0.463608  0.931488  1
  Co  Co21  1  0.250000  0.036392  0.431488  1
  Co  Co22  1  0.750000  0.535149  0.068242  1
  Co  Co23  1  0.750000  0.964851  0.568242  1
  P  P24  1  0.250000  0.418334  0.114604  1
  P  P25  1  0.250000  0.081666  0.614604  1
  P  P26  1  0.750000  0.579764  0.883886  1
  P  P27  1  0.750000  0.920236  0.383886  1
  P  P28  1  0.250000  0.263872  0.867431  1
  P  P29  1  0.250000  0.236128  0.367431  1
  P  P30  1  0.750000  0.735057  0.134640  1
  P  P31  1  0.750000  0.764943  0.634640  1
  P  P32  1  0.250000  0.593503  0.388726  1
  P  P33  1  0.250000  0.906497  0.888726  1
  P  P34  1  0.750000  0.400373  0.609649  1
  P  P35  1  0.750000  0.099627  0.109649  1
