# generated using pymatgen
data_Y2Si5GeAsRh12
_symmetry_space_group_name_H-M   'P 1'
_cell_length_a   9.80837156
_cell_length_b   9.86073441
_cell_length_c   3.86844605
_cell_angle_alpha   89.98944609
_cell_angle_beta   90.04089318
_cell_angle_gamma   120.17201090
_symmetry_Int_Tables_number   1
_chemical_formula_structural   Y2Si5GeAsRh12
_chemical_formula_sum   'Y2 Si5 Ge1 As1 Rh12'
_cell_volume   323.45796877
_cell_formula_units_Z   1
loop_
 _symmetry_equiv_pos_site_id
 _symmetry_equiv_pos_as_xyz
  1  'x, y, z'
loop_
 _atom_site_type_symbol
 _atom_site_label
 _atom_site_symmetry_multiplicity
 _atom_site_fract_x
 _atom_site_fract_y
 _atom_site_fract_z
 _atom_site_occupancy
  Y  Y0  1  0.338949  0.667037  0.750899  1
  Y  Y1  1  0.998044  0.000827  0.252121  1
  Si  Si2  1  0.955300  0.220375  0.751001  1
  Si  Si3  1  0.775023  0.734140  0.751969  1
  Si  Si4  1  0.267192  0.045700  0.750447  1
  Si  Si5  1  0.375439  0.441365  0.250822  1
  Si  Si6  1  0.556973  0.932860  0.250868  1
  Ge  Ge7  1  0.665469  0.333061  0.577969  1
  As  As8  1  0.072884  0.624220  0.251415  1
  Rh  Rh9  1  0.731507  0.953316  0.752536  1
  Rh  Rh10  1  0.044492  0.784390  0.752176  1
  Rh  Rh11  1  0.220818  0.266040  0.752251  1
  Rh  Rh12  1  0.603328  0.715400  0.250258  1
  Rh  Rh13  1  0.285536  0.893364  0.249589  1
  Rh  Rh14  1  0.110788  0.390216  0.249971  1
  Rh  Rh15  1  0.938466  0.453615  0.751358  1
  Rh  Rh16  1  0.541031  0.481855  0.749812  1
  Rh  Rh17  1  0.518348  0.060051  0.749572  1
  Rh  Rh18  1  0.405934  0.214207  0.252002  1
  Rh  Rh19  1  0.785716  0.190974  0.252475  1
  Rh  Rh20  1  0.808762  0.596988  0.254671  1
