# generated using pymatgen
data_Dy2YAl12(RuRh)2
_symmetry_space_group_name_H-M   'P 1'
_cell_length_a   8.83563102
_cell_length_b   8.77965373
_cell_length_c   9.56106900
_cell_angle_alpha   90.00000000
_cell_angle_beta   90.00000000
_cell_angle_gamma   119.79064560
_symmetry_Int_Tables_number   1
_chemical_formula_structural   Dy2YAl12(RuRh)2
_chemical_formula_sum   'Dy4 Y2 Al24 Ru4 Rh4'
_cell_volume   643.67162970
_cell_formula_units_Z   2
loop_
 _symmetry_equiv_pos_site_id
 _symmetry_equiv_pos_as_xyz
  1  'x, y, z'
loop_
 _atom_site_type_symbol
 _atom_site_label
 _atom_site_symmetry_multiplicity
 _atom_site_fract_x
 _atom_site_fract_y
 _atom_site_fract_z
 _atom_site_occupancy
  Dy  Dy0  1  0.616274  0.808136  0.250000  1
  Dy  Dy1  1  0.810129  0.196106  0.750000  1
  Dy  Dy2  1  0.810129  0.614022  0.750000  1
  Dy  Dy3  1  0.383973  0.191987  0.750000  1
  Y  Y4  1  0.189925  0.804171  0.250000  1
  Y  Y5  1  0.189925  0.385754  0.250000  1
  Al  Al6  1  0.560885  0.437903  0.250000  1
  Al  Al7  1  0.560885  0.122984  0.250000  1
  Al  Al8  1  0.876135  0.438067  0.250000  1
  Al  Al9  1  0.439214  0.562147  0.750000  1
  Al  Al10  1  0.439214  0.877065  0.750000  1
  Al  Al11  1  0.123857  0.561929  0.750000  1
  Al  Al12  1  0.324910  0.162456  0.422580  1
  Al  Al13  1  0.837790  0.164168  0.422357  1
  Al  Al14  1  0.837790  0.673622  0.422357  1
  Al  Al15  1  0.675225  0.837612  0.577563  1
  Al  Al16  1  0.162102  0.835786  0.577818  1
  Al  Al17  1  0.162102  0.326316  0.577818  1
  Al  Al18  1  0.675225  0.837612  0.922437  1
  Al  Al19  1  0.162102  0.835786  0.922182  1
  Al  Al20  1  0.162102  0.326316  0.922182  1
  Al  Al21  1  0.324910  0.162456  0.077420  1
  Al  Al22  1  0.837790  0.164168  0.077643  1
  Al  Al23  1  0.837790  0.673622  0.077643  1
  Al  Al24  1  0.668900  0.334450  0.522733  1
  Al  Al25  1  0.331140  0.665570  0.477478  1
  Al  Al26  1  0.331140  0.665570  0.022522  1
  Al  Al27  1  0.668900  0.334450  0.977267  1
  Al  Al28  1  0.997522  0.998761  0.250000  1
  Al  Al29  1  0.002150  0.001075  0.750000  1
  Ru  Ru30  1  0.000051  0.000025  0.499929  1
  Ru  Ru31  1  0.000051  0.000025  0.000071  1
  Ru  Ru32  1  0.999902  0.499951  0.500191  1
  Ru  Ru33  1  0.999902  0.499951  0.999809  1
  Rh  Rh34  1  0.499991  0.500021  0.500039  1
  Rh  Rh35  1  0.499991  0.999970  0.500039  1
  Rh  Rh36  1  0.499991  0.500021  0.999961  1
  Rh  Rh37  1  0.499991  0.999970  0.999961  1
