# generated using pymatgen
data_Pr7NdTiZn7Rh8
_symmetry_space_group_name_H-M   'P 1'
_cell_length_a   4.04309300
_cell_length_b   7.38377063
_cell_length_c   16.72238213
_cell_angle_alpha   90.17985708
_cell_angle_beta   90.00000000
_cell_angle_gamma   90.00000000
_symmetry_Int_Tables_number   1
_chemical_formula_structural   Pr7NdTiZn7Rh8
_chemical_formula_sum   'Pr7 Nd1 Ti1 Zn7 Rh8'
_cell_volume   499.21535130
_cell_formula_units_Z   1
loop_
 _symmetry_equiv_pos_site_id
 _symmetry_equiv_pos_as_xyz
  1  'x, y, z'
loop_
 _atom_site_type_symbol
 _atom_site_label
 _atom_site_symmetry_multiplicity
 _atom_site_fract_x
 _atom_site_fract_y
 _atom_site_fract_z
 _atom_site_occupancy
  Pr  Pr0  1  0.750000  0.448536  0.216789  1
  Pr  Pr1  1  0.750000  0.954828  0.274141  1
  Pr  Pr2  1  0.750000  0.826716  0.058635  1
  Pr  Pr3  1  0.250000  0.169459  0.939110  1
  Pr  Pr4  1  0.250000  0.546007  0.785565  1
  Pr  Pr5  1  0.750000  0.354630  0.440009  1
  Pr  Pr6  1  0.250000  0.667481  0.567856  1
  Nd  Nd7  1  0.250000  0.045862  0.717991  1
  Ti  Ti8  1  0.250000  0.993708  0.439296  1
  Zn  Zn9  1  0.750000  0.500415  0.939872  1
  Zn  Zn10  1  0.750000  0.002219  0.564050  1
  Zn  Zn11  1  0.250000  0.636716  0.345908  1
  Zn  Zn12  1  0.750000  0.366773  0.650187  1
  Zn  Zn13  1  0.750000  0.875194  0.850284  1
  Zn  Zn14  1  0.250000  0.496181  0.060426  1
  Zn  Zn15  1  0.250000  0.122334  0.145102  1
  Rh  Rh16  1  0.250000  0.232015  0.558138  1
  Rh  Rh17  1  0.750000  0.256719  0.065494  1
  Rh  Rh18  1  0.250000  0.228646  0.324715  1
  Rh  Rh19  1  0.750000  0.251917  0.813125  1
  Rh  Rh20  1  0.250000  0.742020  0.935315  1
  Rh  Rh21  1  0.750000  0.752740  0.689203  1
  Rh  Rh22  1  0.750000  0.786037  0.433393  1
  Rh  Rh23  1  0.250000  0.742842  0.185397  1
