# generated using pymatgen
data_Y2GaTc2Os
_symmetry_space_group_name_H-M   'P 1'
_cell_length_a   5.36351565
_cell_length_b   5.43088889
_cell_length_c   8.87241800
_cell_angle_alpha   90.00000000
_cell_angle_beta   90.00000000
_cell_angle_gamma   120.41640227
_symmetry_Int_Tables_number   1
_chemical_formula_structural   Y2GaTc2Os
_chemical_formula_sum   'Y4 Ga2 Tc4 Os2'
_cell_volume   222.87198661
_cell_formula_units_Z   2
loop_
 _symmetry_equiv_pos_site_id
 _symmetry_equiv_pos_as_xyz
  1  'x, y, z'
loop_
 _atom_site_type_symbol
 _atom_site_label
 _atom_site_symmetry_multiplicity
 _atom_site_fract_x
 _atom_site_fract_y
 _atom_site_fract_z
 _atom_site_occupancy
  Y  Y0  1  0.343504  0.671752  0.442917  1
  Y  Y1  1  0.671171  0.335585  0.563674  1
  Y  Y2  1  0.671171  0.335585  0.936326  1
  Y  Y3  1  0.343504  0.671752  0.057083  1
  Ga  Ga4  1  0.814118  0.163533  0.250000  1
  Ga  Ga5  1  0.814118  0.650586  0.250000  1
  Tc  Tc6  1  0.311664  0.155833  0.250000  1
  Tc  Tc7  1  0.169852  0.832212  0.750000  1
  Tc  Tc8  1  0.169852  0.337640  0.750000  1
  Tc  Tc9  1  0.652056  0.826028  0.750000  1
  Os  Os10  1  0.019495  0.009748  0.497621  1
  Os  Os11  1  0.019495  0.009748  0.002379  1
