# generated using pymatgen
data_Sc2Si7Ir12
_symmetry_space_group_name_H-M   'P 1'
_cell_length_a   9.72839400
_cell_length_b   9.72839420
_cell_length_c   3.84167200
_cell_angle_alpha   90.00000000
_cell_angle_beta   90.00000000
_cell_angle_gamma   120.00000611
_symmetry_Int_Tables_number   1
_chemical_formula_structural   Sc2Si7Ir12
_chemical_formula_sum   'Sc2 Si7 Ir12'
_cell_volume   314.87138812
_cell_formula_units_Z   1
loop_
 _symmetry_equiv_pos_site_id
 _symmetry_equiv_pos_as_xyz
  1  'x, y, z'
loop_
 _atom_site_type_symbol
 _atom_site_label
 _atom_site_symmetry_multiplicity
 _atom_site_fract_x
 _atom_site_fract_y
 _atom_site_fract_z
 _atom_site_occupancy
  Sc  Sc0  1  0.333333  0.666667  0.750154  1
  Sc  Sc1  1  0.666667  0.333333  0.249846  1
  Si  Si2  1  0.000000  0.000000  0.500000  1
  Si  Si3  1  0.290439  0.881969  0.249034  1
  Si  Si4  1  0.591530  0.709561  0.249034  1
  Si  Si5  1  0.118031  0.408470  0.249034  1
  Si  Si6  1  0.709561  0.118031  0.750966  1
  Si  Si7  1  0.408470  0.290439  0.750966  1
  Si  Si8  1  0.881969  0.591530  0.750966  1
  Ir  Ir9  1  0.262579  0.116950  0.252879  1
  Ir  Ir10  1  0.854372  0.737421  0.252879  1
  Ir  Ir11  1  0.883050  0.145628  0.252879  1
  Ir  Ir12  1  0.737421  0.883050  0.747121  1
  Ir  Ir13  1  0.145628  0.262579  0.747121  1
  Ir  Ir14  1  0.116950  0.854372  0.747121  1
  Ir  Ir15  1  0.065228  0.619607  0.249194  1
  Ir  Ir16  1  0.554380  0.934772  0.249194  1
  Ir  Ir17  1  0.380393  0.445620  0.249194  1
  Ir  Ir18  1  0.934772  0.380393  0.750806  1
  Ir  Ir19  1  0.445620  0.065228  0.750806  1
  Ir  Ir20  1  0.619607  0.554380  0.750806  1
