# generated using pymatgen
data_LiEr4Co19As12
_symmetry_space_group_name_H-M   'P 1'
_cell_length_a   3.77421000
_cell_length_b   10.65238725
_cell_length_c   12.18457752
_cell_angle_alpha   89.86375922
_cell_angle_beta   90.00000000
_cell_angle_gamma   90.00000000
_symmetry_Int_Tables_number   1
_chemical_formula_structural   LiEr4Co19As12
_chemical_formula_sum   'Li1 Er4 Co19 As12'
_cell_volume   489.87159151
_cell_formula_units_Z   1
loop_
 _symmetry_equiv_pos_site_id
 _symmetry_equiv_pos_as_xyz
  1  'x, y, z'
loop_
 _atom_site_type_symbol
 _atom_site_label
 _atom_site_symmetry_multiplicity
 _atom_site_fract_x
 _atom_site_fract_y
 _atom_site_fract_z
 _atom_site_occupancy
  Li  Li0  1  0.250000  0.699840  0.990665  1
  Er  Er1  1  0.250000  0.580188  0.700369  1
  Er  Er2  1  0.250000  0.921106  0.202503  1
  Er  Er3  1  0.750000  0.419805  0.298884  1
  Er  Er4  1  0.750000  0.078322  0.798443  1
  Co  Co5  1  0.250000  0.788236  0.491585  1
  Co  Co6  1  0.750000  0.292515  0.009109  1
  Co  Co7  1  0.750000  0.212354  0.507763  1
  Co  Co8  1  0.250000  0.406660  0.487750  1
  Co  Co9  1  0.250000  0.093842  0.987459  1
  Co  Co10  1  0.750000  0.592727  0.513623  1
  Co  Co11  1  0.750000  0.910306  0.013821  1
  Co  Co12  1  0.250000  0.217890  0.177080  1
  Co  Co13  1  0.250000  0.283618  0.676833  1
  Co  Co14  1  0.750000  0.785333  0.819909  1
  Co  Co15  1  0.750000  0.715498  0.326034  1
  Co  Co16  1  0.250000  0.884924  0.696244  1
  Co  Co17  1  0.250000  0.618053  0.199389  1
  Co  Co18  1  0.750000  0.117143  0.302355  1
  Co  Co19  1  0.750000  0.381247  0.802205  1
  Co  Co20  1  0.250000  0.465680  0.931184  1
  Co  Co21  1  0.250000  0.031976  0.431465  1
  Co  Co22  1  0.750000  0.531709  0.067535  1
  Co  Co23  1  0.750000  0.970061  0.566978  1
  As  As24  1  0.250000  0.417947  0.114897  1
  As  As25  1  0.250000  0.084600  0.613993  1
  As  As26  1  0.750000  0.582153  0.882239  1
  As  As27  1  0.750000  0.916134  0.385496  1
  As  As28  1  0.250000  0.265957  0.868830  1
  As  As29  1  0.250000  0.232496  0.369208  1
  As  As30  1  0.750000  0.732775  0.134527  1
  As  As31  1  0.750000  0.769218  0.629662  1
  As  As32  1  0.250000  0.600286  0.392396  1
  As  As33  1  0.250000  0.897916  0.891356  1
  As  As34  1  0.750000  0.398857  0.609318  1
  As  As35  1  0.750000  0.102629  0.108897  1
