# generated using pymatgen
data_Tb8Th4OsRu3
_symmetry_space_group_name_H-M   'P 1'
_cell_length_a   6.39386810
_cell_length_b   7.25634817
_cell_length_c   9.63798900
_cell_angle_alpha   90.00000000
_cell_angle_beta   90.00000000
_cell_angle_gamma   89.96598310
_symmetry_Int_Tables_number   1
_chemical_formula_structural   Tb8Th4OsRu3
_chemical_formula_sum   'Tb8 Th4 Os1 Ru3'
_cell_volume   447.16534162
_cell_formula_units_Z   1
loop_
 _symmetry_equiv_pos_site_id
 _symmetry_equiv_pos_as_xyz
  1  'x, y, z'
loop_
 _atom_site_type_symbol
 _atom_site_label
 _atom_site_symmetry_multiplicity
 _atom_site_fract_x
 _atom_site_fract_y
 _atom_site_fract_z
 _atom_site_occupancy
  Tb  Tb0  1  0.333479  0.676044  0.064585  1
  Tb  Tb1  1  0.166649  0.176224  0.432841  1
  Tb  Tb2  1  0.665836  0.324653  0.566402  1
  Tb  Tb3  1  0.830454  0.822689  0.933022  1
  Tb  Tb4  1  0.665836  0.324653  0.933598  1
  Tb  Tb5  1  0.830454  0.822689  0.566978  1
  Tb  Tb6  1  0.333479  0.676044  0.435415  1
  Tb  Tb7  1  0.166649  0.176224  0.067159  1
  Th  Th8  1  0.845188  0.549237  0.250000  1
  Th  Th9  1  0.654559  0.048208  0.250000  1
  Th  Th10  1  0.152912  0.450891  0.750000  1
  Th  Th11  1  0.345697  0.955202  0.750000  1
  Os  Os12  1  0.536218  0.627163  0.750000  1
  Ru  Ru13  1  0.027681  0.869945  0.250000  1
  Ru  Ru14  1  0.473260  0.370204  0.250000  1
  Ru  Ru15  1  0.971648  0.129933  0.750000  1
