# generated using pymatgen
data_AlZn21(PdRh)2
_symmetry_space_group_name_H-M   'P 1'
_cell_length_a   7.94572039
_cell_length_b   7.97009273
_cell_length_c   7.93990505
_cell_angle_alpha   109.57643526
_cell_angle_beta   109.45202607
_cell_angle_gamma   109.47707610
_symmetry_Int_Tables_number   1
_chemical_formula_structural   AlZn21(PdRh)2
_chemical_formula_sum   'Al1 Zn21 Pd2 Rh2'
_cell_volume   386.63060628
_cell_formula_units_Z   1
loop_
 _symmetry_equiv_pos_site_id
 _symmetry_equiv_pos_as_xyz
  1  'x, y, z'
loop_
 _atom_site_type_symbol
 _atom_site_label
 _atom_site_symmetry_multiplicity
 _atom_site_fract_x
 _atom_site_fract_y
 _atom_site_fract_z
 _atom_site_occupancy
  Al  Al0  1  0.994844  0.791708  0.000000  1
  Zn  Zn1  1  0.784129  0.000291  0.000000  1
  Zn  Zn2  1  0.997932  0.000139  0.780818  1
  Zn  Zn3  1  0.217114  0.219321  0.219182  1
  Zn  Zn4  1  0.354192  0.620111  0.353355  1
  Zn  Zn5  1  0.267684  0.001297  0.648236  1
  Zn  Zn6  1  0.651846  0.001217  0.270478  1
  Zn  Zn7  1  0.270706  0.648364  0.000000  1
  Zn  Zn8  1  0.732570  0.733101  0.381921  1
  Zn  Zn9  1  0.381369  0.730740  0.729522  1
  Zn  Zn10  1  0.000693  0.649173  0.271816  1
  Zn  Zn11  1  0.000837  0.266756  0.646645  1
  Zn  Zn12  1  0.648427  0.269044  0.000000  1
  Zn  Zn13  1  0.350649  0.351180  0.618079  1
  Zn  Zn14  1  0.619448  0.353062  0.351764  1
  Zn  Zn15  1  0.728877  0.377358  0.728184  1
  Zn  Zn16  1  0.356869  0.356790  0.000000  1
  Zn  Zn17  1  0.999721  0.639609  0.640477  1
  Zn  Zn18  1  0.996686  0.354855  0.355650  1
  Zn  Zn19  1  0.359245  0.999132  0.359523  1
  Zn  Zn20  1  0.641036  0.999205  0.644350  1
  Zn  Zn21  1  0.638021  0.641058  0.000000  1
  Pd  Pd22  1  0.000487  0.347925  0.000000  1
  Pd  Pd23  1  0.340401  0.996495  0.000000  1
  Rh  Rh24  1  0.000786  0.993711  0.335351  1
  Rh  Rh25  1  0.665435  0.658360  0.664649  1
