# generated using pymatgen
data_PrZr7(Si4Mo3)4
_symmetry_space_group_name_H-M   'P 1'
_cell_length_a   6.66415017
_cell_length_b   6.81073118
_cell_length_c   12.77349307
_cell_angle_alpha   90.18301887
_cell_angle_beta   90.00808460
_cell_angle_gamma   90.02062845
_symmetry_Int_Tables_number   1
_chemical_formula_structural   PrZr7(Si4Mo3)4
_chemical_formula_sum   'Pr1 Zr7 Si16 Mo12'
_cell_volume   579.75692141
_cell_formula_units_Z   1
loop_
 _symmetry_equiv_pos_site_id
 _symmetry_equiv_pos_as_xyz
  1  'x, y, z'
loop_
 _atom_site_type_symbol
 _atom_site_label
 _atom_site_symmetry_multiplicity
 _atom_site_fract_x
 _atom_site_fract_y
 _atom_site_fract_z
 _atom_site_occupancy
  Pr  Pr0  1  0.998649  0.166590  0.091173  1
  Zr  Zr1  1  0.498695  0.330168  0.092798  1
  Zr  Zr2  1  0.997233  0.172189  0.406784  1
  Zr  Zr3  1  0.503616  0.672089  0.593641  1
  Zr  Zr4  1  0.004036  0.825470  0.901521  1
  Zr  Zr5  1  0.505609  0.670521  0.903982  1
  Zr  Zr6  1  0.003614  0.828709  0.594177  1
  Zr  Zr7  1  0.496326  0.329475  0.409929  1
  Si  Si8  1  0.665999  0.041620  0.543428  1
  Si  Si9  1  0.168329  0.463908  0.953426  1
  Si  Si10  1  0.343929  0.952526  0.041211  1
  Si  Si11  1  0.834584  0.541507  0.458174  1
  Si  Si12  1  0.333040  0.958403  0.458394  1
  Si  Si13  1  0.832373  0.549348  0.041160  1
  Si  Si14  1  0.661894  0.039529  0.952816  1
  Si  Si15  1  0.165490  0.458259  0.543939  1
  Si  Si16  1  0.531671  0.376468  0.748510  1
  Si  Si17  1  0.032358  0.125986  0.750381  1
  Si  Si18  1  0.466829  0.624763  0.251184  1
  Si  Si19  1  0.965021  0.868113  0.254012  1
  Si  Si20  1  0.797222  0.635891  0.748015  1
  Si  Si21  1  0.299753  0.864851  0.748763  1
  Si  Si22  1  0.205290  0.365989  0.253528  1
  Si  Si23  1  0.693974  0.137636  0.253662  1
  Mo  Mo24  1  0.831571  0.335032  0.623410  1
  Mo  Mo25  1  0.334489  0.165695  0.874487  1
  Mo  Mo26  1  0.169162  0.664082  0.124773  1
  Mo  Mo27  1  0.665215  0.833643  0.378358  1
  Mo  Mo28  1  0.170107  0.663109  0.378467  1
  Mo  Mo29  1  0.664266  0.833072  0.125944  1
  Mo  Mo30  1  0.828423  0.338527  0.873234  1
  Mo  Mo31  1  0.330945  0.165204  0.623613  1
  Mo  Mo32  1  0.666580  0.988897  0.747739  1
  Mo  Mo33  1  0.165277  0.513277  0.749261  1
  Mo  Mo34  1  0.334699  0.006905  0.253448  1
  Mo  Mo35  1  0.833737  0.492547  0.252657  1
