# generated using pymatgen
data_PrSm7(Tm3Sn4)4
_symmetry_space_group_name_H-M   'P 1'
_cell_length_a   8.02525180
_cell_length_b   8.21898813
_cell_length_c   15.50066600
_cell_angle_alpha   89.97027503
_cell_angle_beta   89.21313078
_cell_angle_gamma   90.48501555
_symmetry_Int_Tables_number   1
_chemical_formula_structural   PrSm7(Tm3Sn4)4
_chemical_formula_sum   'Pr1 Sm7 Tm12 Sn16'
_cell_volume   1022.28214261
_cell_formula_units_Z   1
loop_
 _symmetry_equiv_pos_site_id
 _symmetry_equiv_pos_as_xyz
  1  'x, y, z'
loop_
 _atom_site_type_symbol
 _atom_site_label
 _atom_site_symmetry_multiplicity
 _atom_site_fract_x
 _atom_site_fract_y
 _atom_site_fract_z
 _atom_site_occupancy
  Pr  Pr0  1  0.510530  0.321541  0.905159  1
  Sm  Sm1  1  0.015404  0.178010  0.595552  1
  Sm  Sm2  1  0.483780  0.679053  0.402721  1
  Sm  Sm3  1  0.984945  0.823866  0.097817  1
  Sm  Sm4  1  0.487499  0.679502  0.096786  1
  Sm  Sm5  1  0.983642  0.822240  0.402641  1
  Sm  Sm6  1  0.515905  0.320662  0.596444  1
  Sm  Sm7  1  0.013903  0.175677  0.904014  1
  Tm  Tm8  1  0.356530  0.836728  0.876660  1
  Tm  Tm9  1  0.861612  0.663069  0.623403  1
  Tm  Tm10  1  0.639939  0.162982  0.376818  1
  Tm  Tm11  1  0.145495  0.333790  0.126066  1
  Tm  Tm12  1  0.645287  0.162555  0.123480  1
  Tm  Tm13  1  0.139754  0.337969  0.375700  1
  Tm  Tm14  1  0.359095  0.838147  0.621924  1
  Tm  Tm15  1  0.854346  0.664160  0.874185  1
  Tm  Tm16  1  0.190470  0.503790  0.748636  1
  Tm  Tm17  1  0.691275  0.997220  0.748656  1
  Tm  Tm18  1  0.810548  0.496750  0.251792  1
  Tm  Tm19  1  0.309161  0.002644  0.251010  1
  Sn  Sn20  1  0.304289  0.038978  0.042908  1
  Sn  Sn21  1  0.800879  0.461046  0.458096  1
  Sn  Sn22  1  0.699462  0.958421  0.541231  1
  Sn  Sn23  1  0.185614  0.542305  0.960003  1
  Sn  Sn24  1  0.696012  0.955857  0.958857  1
  Sn  Sn25  1  0.199361  0.539256  0.541329  1
  Sn  Sn26  1  0.300070  0.041887  0.457401  1
  Sn  Sn27  1  0.813647  0.462287  0.043212  1
  Sn  Sn28  1  0.554767  0.625552  0.749088  1
  Sn  Sn29  1  0.056899  0.877263  0.749582  1
  Sn  Sn30  1  0.446326  0.376162  0.249120  1
  Sn  Sn31  1  0.943293  0.122051  0.251168  1
  Sn  Sn32  1  0.321979  0.144600  0.749710  1
  Sn  Sn33  1  0.825176  0.353149  0.749873  1
  Sn  Sn34  1  0.676133  0.854352  0.249466  1
  Sn  Sn35  1  0.176974  0.646476  0.249493  1
