# generated using pymatgen
data_Sc2MnWC3
_symmetry_space_group_name_H-M   'P 1'
_cell_length_a   5.69574014
_cell_length_b   5.69574074
_cell_length_c   5.41637645
_cell_angle_alpha   110.24217617
_cell_angle_beta   110.24218164
_cell_angle_gamma   32.40185914
_symmetry_Int_Tables_number   1
_chemical_formula_structural   Sc2MnWC3
_chemical_formula_sum   'Sc2 Mn1 W1 C3'
_cell_volume   87.83386154
_cell_formula_units_Z   1
loop_
 _symmetry_equiv_pos_site_id
 _symmetry_equiv_pos_as_xyz
  1  'x, y, z'
loop_
 _atom_site_type_symbol
 _atom_site_label
 _atom_site_symmetry_multiplicity
 _atom_site_fract_x
 _atom_site_fract_y
 _atom_site_fract_z
 _atom_site_occupancy
  Sc  Sc0  1  0.387884  0.387884  0.170271  1
  Sc  Sc1  1  0.611281  0.611281  0.842816  1
  Mn  Mn2  1  0.158954  0.158954  0.319561  1
  W  W3  1  0.845350  0.845350  0.669825  1
  C  C4  1  0.005878  0.005878  0.012925  1
  C  C5  1  0.752955  0.752955  0.258233  1
  C  C6  1  0.237699  0.237699  0.726372  1
