# generated using pymatgen
data_TiMn2(AlRu2)3
_symmetry_space_group_name_H-M   'P 1'
_cell_length_a   4.24552700
_cell_length_b   6.04259800
_cell_length_c   12.72646500
_cell_angle_alpha   90.00005546
_cell_angle_beta   89.99875341
_cell_angle_gamma   90.00002298
_symmetry_Int_Tables_number   1
_chemical_formula_structural   TiMn2(AlRu2)3
_chemical_formula_sum   'Ti2 Mn4 Al6 Ru12'
_cell_volume   326.48489800
_cell_formula_units_Z   2
loop_
 _symmetry_equiv_pos_site_id
 _symmetry_equiv_pos_as_xyz
  1  'x, y, z'
loop_
 _atom_site_type_symbol
 _atom_site_label
 _atom_site_symmetry_multiplicity
 _atom_site_fract_x
 _atom_site_fract_y
 _atom_site_fract_z
 _atom_site_occupancy
  Ti  Ti0  1  0.999993  0.000000  0.999162  1
  Ti  Ti1  1  0.499918  0.500001  0.167547  1
  Mn  Mn2  1  0.999926  0.000005  0.334075  1
  Mn  Mn3  1  0.500003  0.500003  0.500545  1
  Mn  Mn4  1  0.000036  0.999999  0.666120  1
  Mn  Mn5  1  0.500070  0.499998  0.832510  1
  Al  Al6  1  0.999987  0.500001  0.999606  1
  Al  Al7  1  0.499909  0.999998  0.167137  1
  Al  Al8  1  0.999905  0.500005  0.334900  1
  Al  Al9  1  0.499999  0.999994  0.501175  1
  Al  Al10  1  0.000126  0.500002  0.665407  1
  Al  Al11  1  0.500084  0.999998  0.831797  1
  Ru  Ru12  1  0.499992  0.253037  0.996946  1
  Ru  Ru13  1  0.499992  0.746962  0.996946  1
  Ru  Ru14  1  0.999915  0.246974  0.169748  1
  Ru  Ru15  1  0.999914  0.753027  0.169748  1
  Ru  Ru16  1  0.499919  0.246197  0.337297  1
  Ru  Ru17  1  0.499919  0.753804  0.337296  1
  Ru  Ru18  1  0.000002  0.250748  0.500965  1
  Ru  Ru19  1  0.000002  0.749252  0.500965  1
  Ru  Ru20  1  0.500104  0.249270  0.665687  1
  Ru  Ru21  1  0.500105  0.750728  0.665687  1
  Ru  Ru22  1  0.000085  0.253835  0.829367  1
  Ru  Ru23  1  0.000084  0.746162  0.829368  1
