# generated using pymatgen
data_Tm5In4RuPt
_symmetry_space_group_name_H-M   'P 1'
_cell_length_a   3.53518600
_cell_length_b   8.06485441
_cell_length_c   18.25516753
_cell_angle_alpha   89.91109915
_cell_angle_beta   90.00000000
_cell_angle_gamma   90.00000000
_symmetry_Int_Tables_number   1
_chemical_formula_structural   Tm5In4RuPt
_chemical_formula_sum   'Tm10 In8 Ru2 Pt2'
_cell_volume   520.46808110
_cell_formula_units_Z   2
loop_
 _symmetry_equiv_pos_site_id
 _symmetry_equiv_pos_as_xyz
  1  'x, y, z'
loop_
 _atom_site_type_symbol
 _atom_site_label
 _atom_site_symmetry_multiplicity
 _atom_site_fract_x
 _atom_site_fract_y
 _atom_site_fract_z
 _atom_site_occupancy
  Tm  Tm0  1  0.000000  0.500000  0.500000  1
  Tm  Tm1  1  0.000000  0.000000  0.000000  1
  Tm  Tm2  1  0.000000  0.751184  0.278700  1
  Tm  Tm3  1  0.000000  0.248816  0.721300  1
  Tm  Tm4  1  0.000000  0.761773  0.777469  1
  Tm  Tm5  1  0.000000  0.238227  0.222531  1
  Tm  Tm6  1  0.000000  0.620524  0.086731  1
  Tm  Tm7  1  0.000000  0.379476  0.913269  1
  Tm  Tm8  1  0.000000  0.881566  0.587313  1
  Tm  Tm9  1  0.000000  0.118434  0.412687  1
  In  In10  1  0.500000  0.706886  0.933957  1
  In  In11  1  0.500000  0.293114  0.066043  1
  In  In12  1  0.500000  0.795142  0.431319  1
  In  In13  1  0.500000  0.204858  0.568681  1
  In  In14  1  0.500000  0.573572  0.648181  1
  In  In15  1  0.500000  0.426428  0.351819  1
  In  In16  1  0.500000  0.933132  0.150044  1
  In  In17  1  0.500000  0.066868  0.849956  1
  Ru  Ru18  1  0.500000  0.978357  0.695801  1
  Ru  Ru19  1  0.500000  0.021643  0.304199  1
  Pt  Pt20  1  0.500000  0.523025  0.196448  1
  Pt  Pt21  1  0.500000  0.476975  0.803552  1
