# generated using pymatgen
data_CuBi3Ir3RuO14
_symmetry_space_group_name_H-M   'P 1'
_cell_length_a   7.36291683
_cell_length_b   7.38208814
_cell_length_c   7.19273601
_cell_angle_alpha   59.31773635
_cell_angle_beta   59.21419278
_cell_angle_gamma   60.08587186
_symmetry_Int_Tables_number   1
_chemical_formula_structural   CuBi3Ir3RuO14
_chemical_formula_sum   'Cu1 Bi3 Ir3 Ru1 O14'
_cell_volume   273.51017560
_cell_formula_units_Z   1
loop_
 _symmetry_equiv_pos_site_id
 _symmetry_equiv_pos_as_xyz
  1  'x, y, z'
loop_
 _atom_site_type_symbol
 _atom_site_label
 _atom_site_symmetry_multiplicity
 _atom_site_fract_x
 _atom_site_fract_y
 _atom_site_fract_z
 _atom_site_occupancy
  Cu  Cu0  1  0.125000  0.125000  0.625000  1
  Bi  Bi1  1  0.125000  0.625000  0.125000  1
  Bi  Bi2  1  0.625000  0.125000  0.125000  1
  Bi  Bi3  1  0.125000  0.125000  0.125000  1
  Ir  Ir4  1  0.625000  0.625000  0.125000  1
  Ir  Ir5  1  0.125000  0.625000  0.625000  1
  Ir  Ir6  1  0.625000  0.625000  0.625000  1
  Ru  Ru7  1  0.625000  0.125000  0.625000  1
  O  O8  1  0.234338  0.235434  0.295890  1
  O  O9  1  0.015662  0.014566  0.954110  1
  O  O10  1  0.560773  0.946816  0.546289  1
  O  O11  1  0.292734  0.710188  0.287966  1
  O  O12  1  0.540889  0.539812  0.962034  1
  O  O13  1  0.952529  0.548388  0.546554  1
  O  O14  1  0.541721  0.955069  0.961489  1
  O  O15  1  0.946121  0.946816  0.546289  1
  O  O16  1  0.957266  0.539812  0.962034  1
  O  O17  1  0.708279  0.294931  0.288511  1
  O  O18  1  0.297471  0.701612  0.703446  1
  O  O19  1  0.689227  0.303184  0.703711  1
  O  O20  1  0.303879  0.303184  0.703711  1
  O  O21  1  0.709111  0.710188  0.287966  1
