# generated using pymatgen
data_Ho3Lu4Th(CdNi)2
_symmetry_space_group_name_H-M   'P 1'
_cell_length_a   9.47075721
_cell_length_b   9.47075693
_cell_length_c   9.49272600
_cell_angle_alpha   59.92323608
_cell_angle_beta   59.92323705
_cell_angle_gamma   60.07003209
_symmetry_Int_Tables_number   1
_chemical_formula_structural   Ho3Lu4Th(CdNi)2
_chemical_formula_sum   'Ho6 Lu8 Th2 Cd4 Ni4'
_cell_volume   601.68510126
_cell_formula_units_Z   2
loop_
 _symmetry_equiv_pos_site_id
 _symmetry_equiv_pos_as_xyz
  1  'x, y, z'
loop_
 _atom_site_type_symbol
 _atom_site_label
 _atom_site_symmetry_multiplicity
 _atom_site_fract_x
 _atom_site_fract_y
 _atom_site_fract_z
 _atom_site_occupancy
  Ho  Ho0  1  0.936724  0.563679  0.565238  1
  Ho  Ho1  1  0.563679  0.936724  0.934358  1
  Ho  Ho2  1  0.563679  0.936724  0.565238  1
  Ho  Ho3  1  0.936724  0.563679  0.934358  1
  Ho  Ho4  1  0.564272  0.564272  0.935728  1
  Ho  Ho5  1  0.937198  0.937198  0.562802  1
  Lu  Lu6  1  0.348815  0.949505  0.350840  1
  Lu  Lu7  1  0.949505  0.348815  0.350840  1
  Lu  Lu8  1  0.814750  0.187897  0.185465  1
  Lu  Lu9  1  0.187897  0.814750  0.811886  1
  Lu  Lu10  1  0.187897  0.814750  0.185465  1
  Lu  Lu11  1  0.814750  0.187897  0.811886  1
  Lu  Lu12  1  0.185341  0.185341  0.814659  1
  Lu  Lu13  1  0.813154  0.813154  0.186846  1
  Th  Th14  1  0.344187  0.344187  0.351978  1
  Th  Th15  1  0.344187  0.344187  0.959648  1
  Cd  Cd16  1  0.583024  0.583024  0.579410  1
  Cd  Cd17  1  0.583024  0.583024  0.254545  1
  Cd  Cd18  1  0.584236  0.254325  0.580720  1
  Cd  Cd19  1  0.254325  0.584236  0.580720  1
  Ni  Ni20  1  0.142876  0.142876  0.142306  1
  Ni  Ni21  1  0.142876  0.142876  0.571940  1
  Ni  Ni22  1  0.145159  0.571721  0.141560  1
  Ni  Ni23  1  0.571721  0.145159  0.141560  1
