# generated using pymatgen
data_LuCo4ReSiP2
_symmetry_space_group_name_H-M   'P 1'
_cell_length_a   3.70902700
_cell_length_b   10.31885100
_cell_length_c   11.78774200
_cell_angle_alpha   90.00000000
_cell_angle_beta   90.00000000
_cell_angle_gamma   90.00000000
_symmetry_Int_Tables_number   1
_chemical_formula_structural   LuCo4ReSiP2
_chemical_formula_sum   'Lu4 Co16 Re4 Si4 P8'
_cell_volume   451.15103505
_cell_formula_units_Z   4
loop_
 _symmetry_equiv_pos_site_id
 _symmetry_equiv_pos_as_xyz
  1  'x, y, z'
loop_
 _atom_site_type_symbol
 _atom_site_label
 _atom_site_symmetry_multiplicity
 _atom_site_fract_x
 _atom_site_fract_y
 _atom_site_fract_z
 _atom_site_occupancy
  Lu  Lu0  1  0.250000  0.582759  0.702517  1
  Lu  Lu1  1  0.250000  0.917241  0.202517  1
  Lu  Lu2  1  0.750000  0.417241  0.297483  1
  Lu  Lu3  1  0.750000  0.082759  0.797483  1
  Co  Co4  1  0.250000  0.406596  0.487687  1
  Co  Co5  1  0.250000  0.093404  0.987687  1
  Co  Co6  1  0.750000  0.593404  0.512313  1
  Co  Co7  1  0.750000  0.906596  0.012313  1
  Co  Co8  1  0.250000  0.216077  0.177369  1
  Co  Co9  1  0.250000  0.283923  0.677369  1
  Co  Co10  1  0.750000  0.783923  0.822631  1
  Co  Co11  1  0.750000  0.716077  0.322631  1
  Co  Co12  1  0.250000  0.883843  0.701864  1
  Co  Co13  1  0.250000  0.616157  0.201864  1
  Co  Co14  1  0.750000  0.116157  0.298136  1
  Co  Co15  1  0.750000  0.383843  0.798136  1
  Co  Co16  1  0.250000  0.464256  0.931000  1
  Co  Co17  1  0.250000  0.035744  0.431000  1
  Co  Co18  1  0.750000  0.535744  0.069000  1
  Co  Co19  1  0.750000  0.964256  0.569000  1
  Re  Re20  1  0.250000  0.709251  0.988642  1
  Re  Re21  1  0.250000  0.790749  0.488642  1
  Re  Re22  1  0.750000  0.290749  0.011358  1
  Re  Re23  1  0.750000  0.209251  0.511358  1
  Si  Si24  1  0.250000  0.418355  0.115885  1
  Si  Si25  1  0.250000  0.081645  0.615885  1
  Si  Si26  1  0.750000  0.581645  0.884115  1
  Si  Si27  1  0.750000  0.918355  0.384115  1
  P  P28  1  0.250000  0.267776  0.864993  1
  P  P29  1  0.250000  0.232224  0.364993  1
  P  P30  1  0.750000  0.732224  0.135007  1
  P  P31  1  0.750000  0.767776  0.635007  1
  P  P32  1  0.250000  0.595624  0.390071  1
  P  P33  1  0.250000  0.904376  0.890071  1
  P  P34  1  0.750000  0.404376  0.609929  1
  P  P35  1  0.750000  0.095624  0.109929  1
