# generated using pymatgen
data_Ac2ZrRuF14
_symmetry_space_group_name_H-M   'P 1'
_cell_length_a   6.00762242
_cell_length_b   6.44209337
_cell_length_c   8.80302652
_cell_angle_alpha   78.56733573
_cell_angle_beta   89.88971103
_cell_angle_gamma   90.15671625
_symmetry_Int_Tables_number   1
_chemical_formula_structural   Ac2ZrRuF14
_chemical_formula_sum   'Ac2 Zr1 Ru1 F14'
_cell_volume   333.92957953
_cell_formula_units_Z   1
loop_
 _symmetry_equiv_pos_site_id
 _symmetry_equiv_pos_as_xyz
  1  'x, y, z'
loop_
 _atom_site_type_symbol
 _atom_site_label
 _atom_site_symmetry_multiplicity
 _atom_site_fract_x
 _atom_site_fract_y
 _atom_site_fract_z
 _atom_site_occupancy
  Ac  Ac0  1  0.201792  0.658612  0.311875  1
  Ac  Ac1  1  0.702005  0.337283  0.693886  1
  Zr  Zr2  1  0.710661  0.190508  0.224049  1
  Ru  Ru3  1  0.210894  0.811665  0.776540  1
  F  F4  1  0.385468  0.443680  0.524857  1
  F  F5  1  0.880866  0.555918  0.472142  1
  F  F6  1  0.920243  0.940956  0.224892  1
  F  F7  1  0.415676  0.052779  0.772364  1
  F  F8  1  0.452533  0.977984  0.241555  1
  F  F9  1  0.959247  0.013246  0.761602  1
  F  F10  1  0.503485  0.443910  0.210743  1
  F  F11  1  0.006676  0.568272  0.784203  1
  F  F12  1  0.203849  0.765026  0.998610  1
  F  F13  1  0.701473  0.240130  0.988659  1
  F  F14  1  0.219132  0.859951  0.553992  1
  F  F15  1  0.718414  0.143423  0.459329  1
  F  F16  1  0.990098  0.376075  0.212095  1
  F  F17  1  0.470212  0.620582  0.788606  1
