# generated using pymatgen
data_La(BrO3)3
_symmetry_space_group_name_H-M   'P 1'
_cell_length_a   8.35524459
_cell_length_b   7.71439880
_cell_length_c   7.54760577
_cell_angle_alpha   73.60018057
_cell_angle_beta   68.66730259
_cell_angle_gamma   68.48171016
_symmetry_Int_Tables_number   1
_chemical_formula_structural   La(BrO3)3
_chemical_formula_sum   'La2 Br6 O18'
_cell_volume   415.29896689
_cell_formula_units_Z   2
loop_
 _symmetry_equiv_pos_site_id
 _symmetry_equiv_pos_as_xyz
  1  'x, y, z'
loop_
 _atom_site_type_symbol
 _atom_site_label
 _atom_site_symmetry_multiplicity
 _atom_site_fract_x
 _atom_site_fract_y
 _atom_site_fract_z
 _atom_site_occupancy
  La  La0  1  0.753849  0.718295  0.225235  1
  La  La1  1  0.246151  0.281705  0.774765  1
  Br  Br2  1  0.190512  0.670615  0.307263  1
  Br  Br3  1  0.809488  0.329385  0.692737  1
  Br  Br4  1  0.807078  0.226036  0.216793  1
  Br  Br5  1  0.192922  0.773964  0.783207  1
  Br  Br6  1  0.709239  0.895474  0.702120  1
  Br  Br7  1  0.290761  0.104526  0.297880  1
  O  O8  1  0.244377  0.561090  0.517452  1
  O  O9  1  0.755623  0.438910  0.482548  1
  O  O10  1  0.934585  0.442953  0.721620  1
  O  O11  1  0.065415  0.557047  0.278380  1
  O  O12  1  0.960547  0.124604  0.638303  1
  O  O13  1  0.039453  0.875396  0.361697  1
  O  O14  1  0.014670  0.254761  0.090200  1
  O  O15  1  0.985330  0.745239  0.909800  1
  O  O16  1  0.230769  0.909976  0.894134  1
  O  O17  1  0.769231  0.090024  0.105866  1
  O  O18  1  0.673179  0.446890  0.163309  1
  O  O19  1  0.326821  0.553110  0.836691  1
  O  O20  1  0.573566  0.125236  0.682139  1
  O  O21  1  0.426434  0.874764  0.317861  1
  O  O22  1  0.623506  0.800951  0.930754  1
  O  O23  1  0.376494  0.199049  0.069246  1
  O  O24  1  0.651685  0.803944  0.564579  1
  O  O25  1  0.348315  0.196056  0.435421  1
