# generated using pymatgen
data_Ti8CrFe(B2P)2
_symmetry_space_group_name_H-M   'P 1'
_cell_length_a   5.84171778
_cell_length_b   5.84171843
_cell_length_c   7.03422444
_cell_angle_alpha   114.53412367
_cell_angle_beta   114.53414529
_cell_angle_gamma   89.99999627
_symmetry_Int_Tables_number   1
_chemical_formula_structural   Ti8CrFe(B2P)2
_chemical_formula_sum   'Ti8 Cr1 Fe1 B4 P2'
_cell_volume   194.29914113
_cell_formula_units_Z   1
loop_
 _symmetry_equiv_pos_site_id
 _symmetry_equiv_pos_as_xyz
  1  'x, y, z'
loop_
 _atom_site_type_symbol
 _atom_site_label
 _atom_site_symmetry_multiplicity
 _atom_site_fract_x
 _atom_site_fract_y
 _atom_site_fract_z
 _atom_site_occupancy
  Ti  Ti0  1  0.041382  0.538890  0.731137  1
  Ti  Ti1  1  0.689754  0.192247  0.731137  1
  Ti  Ti2  1  0.192247  0.041382  0.731137  1
  Ti  Ti3  1  0.538890  0.689754  0.731137  1
  Ti  Ti4  1  0.958618  0.461110  0.268863  1
  Ti  Ti5  1  0.310246  0.807753  0.268863  1
  Ti  Ti6  1  0.807753  0.958618  0.268863  1
  Ti  Ti7  1  0.461110  0.310246  0.268863  1
  Cr  Cr8  1  0.000000  0.000000  0.000000  1
  Fe  Fe9  1  0.500000  0.500000  0.000000  1
  B  B10  1  0.385972  0.886611  0.000000  1
  B  B11  1  0.614028  0.113389  0.000000  1
  B  B12  1  0.113389  0.385972  0.000000  1
  B  B13  1  0.886611  0.614028  0.000000  1
  P  P14  1  0.244871  0.244871  0.489742  1
  P  P15  1  0.755129  0.755129  0.510258  1
