# generated using pymatgen
data_Ac2Dy3(Sn5Ir2)2
_symmetry_space_group_name_H-M   'P 1'
_cell_length_a   14.24672600
_cell_length_b   14.24672600
_cell_length_c   4.65526600
_cell_angle_alpha   90.00000000
_cell_angle_beta   90.00000000
_cell_angle_gamma   90.00000000
_symmetry_Int_Tables_number   1
_chemical_formula_structural   Ac2Dy3(Sn5Ir2)2
_chemical_formula_sum   'Ac4 Dy6 Sn20 Ir8'
_cell_volume   944.87562381
_cell_formula_units_Z   2
loop_
 _symmetry_equiv_pos_site_id
 _symmetry_equiv_pos_as_xyz
  1  'x, y, z'
loop_
 _atom_site_type_symbol
 _atom_site_label
 _atom_site_symmetry_multiplicity
 _atom_site_fract_x
 _atom_site_fract_y
 _atom_site_fract_z
 _atom_site_occupancy
  Ac  Ac0  1  0.887607  0.387607  0.500000  1
  Ac  Ac1  1  0.112393  0.612393  0.500000  1
  Ac  Ac2  1  0.387607  0.112393  0.500000  1
  Ac  Ac3  1  0.612393  0.887607  0.500000  1
  Dy  Dy4  1  0.500000  0.500000  0.000000  1
  Dy  Dy5  1  0.000000  0.000000  0.000000  1
  Dy  Dy6  1  0.677299  0.177299  0.500000  1
  Dy  Dy7  1  0.322701  0.822701  0.500000  1
  Dy  Dy8  1  0.177299  0.322701  0.500000  1
  Dy  Dy9  1  0.822701  0.677299  0.500000  1
  Sn  Sn10  1  0.572588  0.072588  0.000000  1
  Sn  Sn11  1  0.427412  0.927412  0.000000  1
  Sn  Sn12  1  0.072588  0.427412  0.000000  1
  Sn  Sn13  1  0.927412  0.572588  0.000000  1
  Sn  Sn14  1  0.655466  0.697413  0.000000  1
  Sn  Sn15  1  0.344534  0.302587  0.000000  1
  Sn  Sn16  1  0.155466  0.802587  0.000000  1
  Sn  Sn17  1  0.844534  0.197413  0.000000  1
  Sn  Sn18  1  0.302587  0.655466  0.000000  1
  Sn  Sn19  1  0.697413  0.344534  0.000000  1
  Sn  Sn20  1  0.197413  0.155466  0.000000  1
  Sn  Sn21  1  0.802587  0.844534  0.000000  1
  Sn  Sn22  1  0.658474  0.510435  0.500000  1
  Sn  Sn23  1  0.341526  0.489565  0.500000  1
  Sn  Sn24  1  0.158474  0.989565  0.500000  1
  Sn  Sn25  1  0.841526  0.010435  0.500000  1
  Sn  Sn26  1  0.489565  0.658474  0.500000  1
  Sn  Sn27  1  0.510435  0.341526  0.500000  1
  Sn  Sn28  1  0.010435  0.158474  0.500000  1
  Sn  Sn29  1  0.989565  0.841526  0.500000  1
  Ir  Ir30  1  0.743848  0.528826  0.000000  1
  Ir  Ir31  1  0.256152  0.471174  0.000000  1
  Ir  Ir32  1  0.243848  0.971174  0.000000  1
  Ir  Ir33  1  0.756152  0.028826  0.000000  1
  Ir  Ir34  1  0.471174  0.743848  0.000000  1
  Ir  Ir35  1  0.528826  0.256152  0.000000  1
  Ir  Ir36  1  0.028826  0.243848  0.000000  1
  Ir  Ir37  1  0.971174  0.756152  0.000000  1
