# generated using pymatgen
data_Dy12Ho8(Ir3Rh)3
_symmetry_space_group_name_H-M   'P 1'
_cell_length_a   10.85899900
_cell_length_b   10.85889400
_cell_length_c   6.37544400
_cell_angle_alpha   90.00000000
_cell_angle_beta   90.00000000
_cell_angle_gamma   89.99803719
_symmetry_Int_Tables_number   1
_chemical_formula_structural   Dy12Ho8(Ir3Rh)3
_chemical_formula_sum   'Dy12 Ho8 Ir9 Rh3'
_cell_volume   751.77143898
_cell_formula_units_Z   1
loop_
 _symmetry_equiv_pos_site_id
 _symmetry_equiv_pos_as_xyz
  1  'x, y, z'
loop_
 _atom_site_type_symbol
 _atom_site_label
 _atom_site_symmetry_multiplicity
 _atom_site_fract_x
 _atom_site_fract_y
 _atom_site_fract_z
 _atom_site_occupancy
  Dy  Dy0  1  0.290228  0.088509  0.378752  1
  Dy  Dy1  1  0.290145  0.911220  0.878647  1
  Dy  Dy2  1  0.709855  0.088780  0.878647  1
  Dy  Dy3  1  0.709772  0.911491  0.378752  1
  Dy  Dy4  1  0.588748  0.790198  0.878739  1
  Dy  Dy5  1  0.588475  0.209721  0.378844  1
  Dy  Dy6  1  0.411525  0.790279  0.378844  1
  Dy  Dy7  1  0.411252  0.209802  0.878739  1
  Dy  Dy8  1  0.208889  0.411612  0.620240  1
  Dy  Dy9  1  0.209182  0.588600  0.122430  1
  Dy  Dy10  1  0.790818  0.411400  0.122430  1
  Dy  Dy11  1  0.791111  0.588388  0.620240  1
  Ho  Ho12  1  0.911483  0.709236  0.122373  1
  Ho  Ho13  1  0.911689  0.291051  0.620070  1
  Ho  Ho14  1  0.088311  0.708949  0.620070  1
  Ho  Ho15  1  0.088517  0.290764  0.122373  1
  Ho  Ho16  1  0.000000  0.000000  0.500364  1
  Ho  Ho17  1  0.000000  0.000000  0.000216  1
  Ho  Ho18  1  0.500000  0.500000  0.000157  1
  Ho  Ho19  1  0.500000  0.500000  0.500311  1
  Ir  Ir20  1  0.846050  0.153282  0.249971  1
  Ir  Ir21  1  0.846203  0.846454  0.750104  1
  Ir  Ir22  1  0.153797  0.153546  0.750104  1
  Ir  Ir23  1  0.153950  0.846718  0.249971  1
  Ir  Ir24  1  0.653556  0.345965  0.749786  1
  Ir  Ir25  1  0.653296  0.654178  0.249647  1
  Ir  Ir26  1  0.346704  0.345822  0.249647  1
  Ir  Ir27  1  0.346444  0.654035  0.749786  1
  Ir  Ir28  1  0.000000  0.500000  0.377443  1
  Rh  Rh29  1  0.500000  0.000000  0.121868  1
  Rh  Rh30  1  0.500000  0.000000  0.621986  1
  Rh  Rh31  1  0.000000  0.500000  0.878454  1
