# generated using pymatgen
data_Sm2Eu2Fe(Si2Pt)5
_symmetry_space_group_name_H-M   'P 1'
_cell_length_a   8.24035348
_cell_length_b   8.24127973
_cell_length_c   8.24128151
_cell_angle_alpha   137.60460048
_cell_angle_beta   104.80423148
_cell_angle_gamma   90.34393994
_symmetry_Int_Tables_number   1
_chemical_formula_structural   Sm2Eu2Fe(Si2Pt)5
_chemical_formula_sum   'Sm2 Eu2 Fe1 Si10 Pt5'
_cell_volume   348.17544045
_cell_formula_units_Z   1
loop_
 _symmetry_equiv_pos_site_id
 _symmetry_equiv_pos_as_xyz
  1  'x, y, z'
loop_
 _atom_site_type_symbol
 _atom_site_label
 _atom_site_symmetry_multiplicity
 _atom_site_fract_x
 _atom_site_fract_y
 _atom_site_fract_z
 _atom_site_occupancy
  Sm  Sm0  1  0.103305  0.871740  0.233609  1
  Sm  Sm1  1  0.896695  0.130305  0.768436  1
  Eu  Eu2  1  0.636926  0.366995  0.264082  1
  Eu  Eu3  1  0.363074  0.627157  0.730071  1
  Fe  Fe4  1  0.500000  0.754513  0.254513  1
  Si  Si5  1  0.000000  0.745606  0.745606  1
  Si  Si6  1  0.000000  0.254168  0.254168  1
  Si  Si7  1  0.275440  0.022687  0.749286  1
  Si  Si8  1  0.724560  0.473846  0.747247  1
  Si  Si9  1  0.722824  0.974350  0.250849  1
  Si  Si10  1  0.277176  0.528025  0.251527  1
  Si  Si11  1  0.750935  0.621022  0.163954  1
  Si  Si12  1  0.249065  0.413019  0.870087  1
  Si  Si13  1  0.454616  0.088471  0.334221  1
  Si  Si14  1  0.545384  0.879607  0.633856  1
  Pt  Pt15  1  0.500000  0.248832  0.748832  1
  Pt  Pt16  1  0.024426  0.638850  0.384988  1
  Pt  Pt17  1  0.975574  0.360562  0.614424  1
  Pt  Pt18  1  0.246675  0.136700  0.110216  1
  Pt  Pt19  1  0.753325  0.863541  0.890025  1
