# generated using pymatgen
data_Ho9TmCo2Br15
_symmetry_space_group_name_H-M   'P 1'
_cell_length_a   9.20076349
_cell_length_b   10.04014458
_cell_length_c   10.82855800
_cell_angle_alpha   92.31920142
_cell_angle_beta   114.17363661
_cell_angle_gamma   110.53142299
_symmetry_Int_Tables_number   1
_chemical_formula_structural   Ho9TmCo2Br15
_chemical_formula_sum   'Ho9 Tm1 Co2 Br15'
_cell_volume   834.54876084
_cell_formula_units_Z   1
loop_
 _symmetry_equiv_pos_site_id
 _symmetry_equiv_pos_as_xyz
  1  'x, y, z'
loop_
 _atom_site_type_symbol
 _atom_site_label
 _atom_site_symmetry_multiplicity
 _atom_site_fract_x
 _atom_site_fract_y
 _atom_site_fract_z
 _atom_site_occupancy
  Ho  Ho0  1  0.796892  0.398500  0.269361  1
  Ho  Ho1  1  0.203329  0.601767  0.730825  1
  Ho  Ho2  1  0.666606  0.752113  0.823107  1
  Ho  Ho3  1  0.333460  0.247797  0.176804  1
  Ho  Ho4  1  0.527280  0.708226  0.099348  1
  Ho  Ho5  1  0.472327  0.291680  0.900530  1
  Ho  Ho6  1  0.591904  0.047120  0.333816  1
  Ho  Ho7  1  0.407879  0.952813  0.666176  1
  Ho  Ho8  1  0.729328  0.077931  0.049182  1
  Tm  Tm9  1  0.271405  0.922211  0.950908  1
  Co  Co10  1  0.467475  0.831479  0.883554  1
  Co  Co11  1  0.531456  0.168177  0.116222  1
  Br  Br12  1  0.999953  0.000080  0.000079  1
  Br  Br13  1  0.639072  0.886119  0.585107  1
  Br  Br14  1  0.361041  0.113922  0.414901  1
  Br  Br15  1  0.889484  0.306806  0.527481  1
  Br  Br16  1  0.110563  0.693189  0.472547  1
  Br  Br17  1  0.299811  0.764402  0.189562  1
  Br  Br18  1  0.700455  0.235628  0.810521  1
  Br  Br19  1  0.062261  0.340074  0.224630  1
  Br  Br20  1  0.166862  0.059606  0.696338  1
  Br  Br21  1  0.833329  0.940528  0.303676  1
  Br  Br22  1  0.243034  0.414261  0.946581  1
  Br  Br23  1  0.757064  0.585772  0.053441  1
  Br  Br24  1  0.408091  0.467061  0.669157  1
  Br  Br25  1  0.591963  0.532947  0.330850  1
  Br  Br26  1  0.937675  0.659790  0.775302  1
