# generated using pymatgen
data_HoTm4Mn2O12
_symmetry_space_group_name_H-M   'P 1'
_cell_length_a   6.73526528
_cell_length_b   6.73526436
_cell_length_c   7.13360806
_cell_angle_alpha   74.58832825
_cell_angle_beta   74.58832794
_cell_angle_gamma   50.08428022
_symmetry_Int_Tables_number   1
_chemical_formula_structural   HoTm4Mn2O12
_chemical_formula_sum   'Ho1 Tm4 Mn2 O12'
_cell_volume   237.28558195
_cell_formula_units_Z   1
loop_
 _symmetry_equiv_pos_site_id
 _symmetry_equiv_pos_as_xyz
  1  'x, y, z'
loop_
 _atom_site_type_symbol
 _atom_site_label
 _atom_site_symmetry_multiplicity
 _atom_site_fract_x
 _atom_site_fract_y
 _atom_site_fract_z
 _atom_site_occupancy
  Ho  Ho0  1  0.000000  0.000000  0.500000  1
  Tm  Tm1  1  0.304504  0.304504  0.356844  1
  Tm  Tm2  1  0.695496  0.695496  0.643156  1
  Tm  Tm3  1  0.307512  0.307512  0.835474  1
  Tm  Tm4  1  0.692488  0.692488  0.164526  1
  Mn  Mn5  1  0.753026  0.246974  0.000000  1
  Mn  Mn6  1  0.246974  0.753026  0.000000  1
  O  O7  1  0.901709  0.424303  0.917441  1
  O  O8  1  0.424303  0.901709  0.917441  1
  O  O9  1  0.098291  0.575697  0.082559  1
  O  O10  1  0.575697  0.098291  0.082559  1
  O  O11  1  0.097160  0.595222  0.575029  1
  O  O12  1  0.595222  0.097160  0.575029  1
  O  O13  1  0.902840  0.404778  0.424971  1
  O  O14  1  0.404778  0.902840  0.424971  1
  O  O15  1  0.999534  0.999534  0.820713  1
  O  O16  1  0.000466  0.000466  0.179287  1
  O  O17  1  0.499942  0.499942  0.815924  1
  O  O18  1  0.500058  0.500058  0.184076  1
