# generated using pymatgen
data_TbPa11(SiPd)12
_symmetry_space_group_name_H-M   'P 1'
_cell_length_a   4.35033500
_cell_length_b   7.41935200
_cell_length_c   20.91568400
_cell_angle_alpha   90.00089581
_cell_angle_beta   90.00000000
_cell_angle_gamma   90.00000000
_symmetry_Int_Tables_number   1
_chemical_formula_structural   TbPa11(SiPd)12
_chemical_formula_sum   'Tb1 Pa11 Si12 Pd12'
_cell_volume   675.08856091
_cell_formula_units_Z   1
loop_
 _symmetry_equiv_pos_site_id
 _symmetry_equiv_pos_as_xyz
  1  'x, y, z'
loop_
 _atom_site_type_symbol
 _atom_site_label
 _atom_site_symmetry_multiplicity
 _atom_site_fract_x
 _atom_site_fract_y
 _atom_site_fract_z
 _atom_site_occupancy
  Tb  Tb0  1  0.250000  0.784099  0.500201  1
  Pa  Pa1  1  0.250000  0.715453  0.333546  1
  Pa  Pa2  1  0.750000  0.285916  0.665619  1
  Pa  Pa3  1  0.750000  0.216236  0.166693  1
  Pa  Pa4  1  0.250000  0.782409  0.833662  1
  Pa  Pa5  1  0.250000  0.778117  0.165686  1
  Pa  Pa6  1  0.750000  0.222828  0.833421  1
  Pa  Pa7  1  0.750000  0.280666  0.334068  1
  Pa  Pa8  1  0.250000  0.718219  0.666092  1
  Pa  Pa9  1  0.250000  0.714384  0.000819  1
  Pa  Pa10  1  0.750000  0.285668  0.999057  1
  Pa  Pa11  1  0.750000  0.217668  0.499950  1
  Si  Si12  1  0.250000  0.090458  0.070280  1
  Si  Si13  1  0.750000  0.910003  0.929771  1
  Si  Si14  1  0.750000  0.587929  0.426136  1
  Si  Si15  1  0.250000  0.413160  0.570590  1
  Si  Si16  1  0.250000  0.086395  0.258206  1
  Si  Si17  1  0.750000  0.914575  0.742515  1
  Si  Si18  1  0.750000  0.587183  0.240788  1
  Si  Si19  1  0.250000  0.411428  0.757934  1
  Si  Si20  1  0.250000  0.088324  0.405150  1
  Si  Si21  1  0.750000  0.910981  0.597309  1
  Si  Si22  1  0.750000  0.586937  0.090677  1
  Si  Si23  1  0.250000  0.412484  0.908987  1
  Pd  Pd24  1  0.250000  0.418224  0.239613  1
  Pd  Pd25  1  0.750000  0.582815  0.760295  1
  Pd  Pd26  1  0.750000  0.917890  0.262661  1
  Pd  Pd27  1  0.250000  0.080485  0.737011  1
  Pd  Pd28  1  0.250000  0.418798  0.432996  1
  Pd  Pd29  1  0.750000  0.580190  0.569174  1
  Pd  Pd30  1  0.750000  0.920689  0.069552  1
  Pd  Pd31  1  0.250000  0.079338  0.929694  1
  Pd  Pd32  1  0.250000  0.417017  0.099422  1
  Pd  Pd33  1  0.750000  0.582791  0.900769  1
  Pd  Pd34  1  0.750000  0.918399  0.406018  1
  Pd  Pd35  1  0.250000  0.081845  0.595641  1
