# generated using pymatgen
data_Nd17Dy3Si15Ag
_symmetry_space_group_name_H-M   'P 1'
_cell_length_a   7.72111382
_cell_length_b   7.92599358
_cell_length_c   15.17627100
_cell_angle_alpha   90.30591895
_cell_angle_beta   90.77417675
_cell_angle_gamma   90.23248187
_symmetry_Int_Tables_number   1
_chemical_formula_structural   Nd17Dy3Si15Ag
_chemical_formula_sum   'Nd17 Dy3 Si15 Ag1'
_cell_volume   928.64388406
_cell_formula_units_Z   1
loop_
 _symmetry_equiv_pos_site_id
 _symmetry_equiv_pos_as_xyz
  1  'x, y, z'
loop_
 _atom_site_type_symbol
 _atom_site_label
 _atom_site_symmetry_multiplicity
 _atom_site_fract_x
 _atom_site_fract_y
 _atom_site_fract_z
 _atom_site_occupancy
  Nd  Nd0  1  0.679546  0.176468  0.623599  1
  Nd  Nd1  1  0.186969  0.320598  0.878861  1
  Nd  Nd2  1  0.314527  0.819800  0.121167  1
  Nd  Nd3  1  0.821793  0.676205  0.375589  1
  Nd  Nd4  1  0.314699  0.825483  0.379396  1
  Nd  Nd5  1  0.811675  0.680058  0.121654  1
  Nd  Nd6  1  0.685152  0.180571  0.878578  1
  Nd  Nd7  1  0.179760  0.319149  0.622872  1
  Nd  Nd8  1  0.528457  0.679215  0.603202  1
  Nd  Nd9  1  0.036488  0.812183  0.899640  1
  Nd  Nd10  1  0.463797  0.316035  0.100083  1
  Nd  Nd11  1  0.975421  0.188129  0.395605  1
  Nd  Nd12  1  0.466537  0.321341  0.397564  1
  Nd  Nd13  1  0.964679  0.186578  0.099974  1
  Nd  Nd14  1  0.537728  0.687192  0.898368  1
  Nd  Nd15  1  0.031735  0.812957  0.602741  1
  Nd  Nd16  1  0.856297  0.509935  0.749417  1
  Dy  Dy17  1  0.353355  0.986215  0.749646  1
  Dy  Dy18  1  0.145821  0.488419  0.249947  1
  Dy  Dy19  1  0.650029  0.013743  0.246772  1
  Si  Si20  1  0.135610  0.525264  0.042426  1
  Si  Si21  1  0.362217  0.025824  0.958556  1
  Si  Si22  1  0.857226  0.470528  0.538322  1
  Si  Si23  1  0.347173  0.023912  0.546415  1
  Si  Si24  1  0.864174  0.473004  0.960245  1
  Si  Si25  1  0.635104  0.975599  0.040991  1
  Si  Si26  1  0.141001  0.527924  0.460323  1
  Si  Si27  1  0.476992  0.398145  0.751336  1
  Si  Si28  1  0.978593  0.096041  0.752120  1
  Si  Si29  1  0.518284  0.601013  0.248701  1
  Si  Si30  1  0.022290  0.902146  0.247824  1
  Si  Si31  1  0.739684  0.878020  0.751321  1
  Si  Si32  1  0.245831  0.625600  0.751985  1
  Si  Si33  1  0.262401  0.125849  0.247833  1
  Si  Si34  1  0.758470  0.375237  0.248221  1
  Ag  Ag35  1  0.650485  0.975620  0.458700  1
