# generated using pymatgen
data_Nd2RhN3
_symmetry_space_group_name_H-M   'P 1'
_cell_length_a   3.59604361
_cell_length_b   3.78664333
_cell_length_c   7.04373951
_cell_angle_alpha   105.59257218
_cell_angle_beta   104.78929665
_cell_angle_gamma   90.00000909
_symmetry_Int_Tables_number   1
_chemical_formula_structural   Nd2RhN3
_chemical_formula_sum   'Nd2 Rh1 N3'
_cell_volume   89.08089741
_cell_formula_units_Z   1
loop_
 _symmetry_equiv_pos_site_id
 _symmetry_equiv_pos_as_xyz
  1  'x, y, z'
loop_
 _atom_site_type_symbol
 _atom_site_label
 _atom_site_symmetry_multiplicity
 _atom_site_fract_x
 _atom_site_fract_y
 _atom_site_fract_z
 _atom_site_occupancy
  Nd  Nd0  1  0.651077  0.651078  0.302159  1
  Nd  Nd1  1  0.348922  0.348922  0.697842  1
  Rh  Rh2  1  0.000000  0.000000  0.000000  1
  N  N3  1  0.000001  0.499999  0.999999  1
  N  N4  1  0.165761  0.165761  0.331523  1
  N  N5  1  0.834238  0.834238  0.668477  1
