# generated using pymatgen
data_NdYEr(Si3Pd10)2
_symmetry_space_group_name_H-M   'P 1'
_cell_length_a   8.73491090
_cell_length_b   8.73491060
_cell_length_c   8.73491100
_cell_angle_alpha   60.00000228
_cell_angle_beta   60.00000341
_cell_angle_gamma   60.00000552
_symmetry_Int_Tables_number   1
_chemical_formula_structural   NdYEr(Si3Pd10)2
_chemical_formula_sum   'Nd1 Y1 Er1 Si6 Pd20'
_cell_volume   471.25987875
_cell_formula_units_Z   1
loop_
 _symmetry_equiv_pos_site_id
 _symmetry_equiv_pos_as_xyz
  1  'x, y, z'
loop_
 _atom_site_type_symbol
 _atom_site_label
 _atom_site_symmetry_multiplicity
 _atom_site_fract_x
 _atom_site_fract_y
 _atom_site_fract_z
 _atom_site_occupancy
  Nd  Nd0  1  0.250000  0.250000  0.250000  1
  Y  Y1  1  0.750000  0.750000  0.750000  1
  Er  Er2  1  0.000000  0.000000  0.000000  1
  Si  Si3  1  0.733105  0.266895  0.266895  1
  Si  Si4  1  0.266895  0.733105  0.733105  1
  Si  Si5  1  0.266895  0.733105  0.266895  1
  Si  Si6  1  0.733105  0.266895  0.733105  1
  Si  Si7  1  0.266895  0.266895  0.733105  1
  Si  Si8  1  0.733105  0.733105  0.266895  1
  Pd  Pd9  1  0.345450  0.999525  0.999525  1
  Pd  Pd10  1  0.655499  0.999525  0.999525  1
  Pd  Pd11  1  0.999525  0.345450  0.655499  1
  Pd  Pd12  1  0.999525  0.655499  0.345450  1
  Pd  Pd13  1  0.999525  0.345450  0.999525  1
  Pd  Pd14  1  0.655499  0.999525  0.345450  1
  Pd  Pd15  1  0.999525  0.655499  0.999525  1
  Pd  Pd16  1  0.345450  0.999525  0.655499  1
  Pd  Pd17  1  0.999525  0.999525  0.345450  1
  Pd  Pd18  1  0.999525  0.999525  0.655499  1
  Pd  Pd19  1  0.655499  0.345450  0.999525  1
  Pd  Pd20  1  0.345450  0.655499  0.999525  1
  Pd  Pd21  1  0.385162  0.385162  0.385162  1
  Pd  Pd22  1  0.616201  0.616201  0.616201  1
  Pd  Pd23  1  0.385162  0.385162  0.844514  1
  Pd  Pd24  1  0.385162  0.844514  0.385162  1
  Pd  Pd25  1  0.616201  0.616201  0.151395  1
  Pd  Pd26  1  0.616201  0.151395  0.616201  1
  Pd  Pd27  1  0.844514  0.385162  0.385162  1
  Pd  Pd28  1  0.151395  0.616201  0.616201  1
