# generated using pymatgen
data_Lu2BC2
_symmetry_space_group_name_H-M   'P 1'
_cell_length_a   3.50494667
_cell_length_b   3.50494602
_cell_length_c   5.97584840
_cell_angle_alpha   106.71607019
_cell_angle_beta   106.71607117
_cell_angle_gamma   89.97941530
_symmetry_Int_Tables_number   1
_chemical_formula_structural   Lu2BC2
_chemical_formula_sum   'Lu2 B1 C2'
_cell_volume   67.06579124
_cell_formula_units_Z   1
loop_
 _symmetry_equiv_pos_site_id
 _symmetry_equiv_pos_as_xyz
  1  'x, y, z'
loop_
 _atom_site_type_symbol
 _atom_site_label
 _atom_site_symmetry_multiplicity
 _atom_site_fract_x
 _atom_site_fract_y
 _atom_site_fract_z
 _atom_site_occupancy
  Lu  Lu0  1  0.652820  0.652820  0.299917  1
  Lu  Lu1  1  0.347179  0.347179  0.700083  1
  B  B2  1  0.000000  0.000000  0.000000  1
  C  C3  1  0.138606  0.138606  0.274041  1
  C  C4  1  0.861393  0.861393  0.725958  1
