# generated using pymatgen
data_Tm4ZrTiSn5
_symmetry_space_group_name_H-M   'P 1'
_cell_length_a   11.16721357
_cell_length_b   11.16721338
_cell_length_c   11.17851900
_cell_angle_alpha   148.37217887
_cell_angle_beta   131.99671797
_cell_angle_gamma   58.52679237
_symmetry_Int_Tables_number   1
_chemical_formula_structural   Tm4ZrTiSn5
_chemical_formula_sum   'Tm8 Zr2 Ti2 Sn10'
_cell_volume   539.22105659
_cell_formula_units_Z   2
loop_
 _symmetry_equiv_pos_site_id
 _symmetry_equiv_pos_as_xyz
  1  'x, y, z'
loop_
 _atom_site_type_symbol
 _atom_site_label
 _atom_site_symmetry_multiplicity
 _atom_site_fract_x
 _atom_site_fract_y
 _atom_site_fract_z
 _atom_site_occupancy
  Tm  Tm0  1  0.672411  0.441310  0.236526  1
  Tm  Tm1  1  0.327589  0.558690  0.763474  1
  Tm  Tm2  1  0.204782  0.935885  0.263474  1
  Tm  Tm3  1  0.795218  0.064115  0.736526  1
  Tm  Tm4  1  0.257471  0.145973  0.112840  1
  Tm  Tm5  1  0.742529  0.854027  0.887160  1
  Tm  Tm6  1  0.033133  0.644632  0.387160  1
  Tm  Tm7  1  0.966867  0.355368  0.612840  1
  Zr  Zr8  1  0.304986  0.554986  0.250000  1
  Zr  Zr9  1  0.695014  0.445014  0.750000  1
  Ti  Ti10  1  0.693298  0.943298  0.250000  1
  Ti  Ti11  1  0.306702  0.056702  0.750000  1
  Sn  Sn12  1  0.587260  0.275683  0.286472  1
  Sn  Sn13  1  0.412740  0.724317  0.713528  1
  Sn  Sn14  1  0.989211  0.800788  0.213528  1
  Sn  Sn15  1  0.010789  0.199212  0.786472  1
  Sn  Sn16  1  0.000338  0.250338  0.250000  1
  Sn  Sn17  1  0.999662  0.749662  0.750000  1
  Sn  Sn18  1  0.479681  0.069169  0.394131  1
  Sn  Sn19  1  0.520319  0.930831  0.605869  1
  Sn  Sn20  1  0.675039  0.585548  0.105869  1
  Sn  Sn21  1  0.324961  0.414452  0.894131  1
