# generated using pymatgen
data_Tl6IO12
_symmetry_space_group_name_H-M   'P 1'
_cell_length_a   6.58867556
_cell_length_b   6.58867683
_cell_length_c   6.58867613
_cell_angle_alpha   97.64118980
_cell_angle_beta   97.64118828
_cell_angle_gamma   97.64119081
_symmetry_Int_Tables_number   1
_chemical_formula_structural   Tl6IO12
_chemical_formula_sum   'Tl6 I1 O12'
_cell_volume   277.63799602
_cell_formula_units_Z   1
loop_
 _symmetry_equiv_pos_site_id
 _symmetry_equiv_pos_as_xyz
  1  'x, y, z'
loop_
 _atom_site_type_symbol
 _atom_site_label
 _atom_site_symmetry_multiplicity
 _atom_site_fract_x
 _atom_site_fract_y
 _atom_site_fract_z
 _atom_site_occupancy
  Tl  Tl0  1  0.607586  0.309673  0.138857  1
  Tl  Tl1  1  0.138856  0.607586  0.309674  1
  Tl  Tl2  1  0.690326  0.861143  0.392414  1
  Tl  Tl3  1  0.309674  0.138856  0.607585  1
  Tl  Tl4  1  0.861143  0.392414  0.690326  1
  Tl  Tl5  1  0.392414  0.690326  0.861143  1
  I  I6  1  0.000000  0.000000  0.000000  1
  O  O7  1  0.710792  0.931371  0.028559  1
  O  O8  1  0.971442  0.289208  0.068631  1
  O  O9  1  0.421777  0.605256  0.173564  1
  O  O10  1  0.068631  0.971441  0.289209  1
  O  O11  1  0.826436  0.578222  0.394744  1
  O  O12  1  0.605256  0.173563  0.421777  1
  O  O13  1  0.394743  0.826436  0.578222  1
  O  O14  1  0.173564  0.421777  0.605256  1
  O  O15  1  0.931370  0.028560  0.710792  1
  O  O16  1  0.578223  0.394744  0.826435  1
  O  O17  1  0.028559  0.710793  0.931370  1
  O  O18  1  0.289208  0.068630  0.971442  1
