# generated using pymatgen
data_ThCo3P3Ru2
_symmetry_space_group_name_H-M   'P 1'
_cell_length_a   3.82499500
_cell_length_b   10.63396300
_cell_length_c   12.04738500
_cell_angle_alpha   90.00000000
_cell_angle_beta   90.00000000
_cell_angle_gamma   90.00000000
_symmetry_Int_Tables_number   1
_chemical_formula_structural   ThCo3P3Ru2
_chemical_formula_sum   'Th4 Co12 P12 Ru8'
_cell_volume   490.02564168
_cell_formula_units_Z   4
loop_
 _symmetry_equiv_pos_site_id
 _symmetry_equiv_pos_as_xyz
  1  'x, y, z'
loop_
 _atom_site_type_symbol
 _atom_site_label
 _atom_site_symmetry_multiplicity
 _atom_site_fract_x
 _atom_site_fract_y
 _atom_site_fract_z
 _atom_site_occupancy
  Th  Th0  1  0.250000  0.585753  0.707291  1
  Th  Th1  1  0.250000  0.914247  0.207291  1
  Th  Th2  1  0.750000  0.414247  0.292709  1
  Th  Th3  1  0.750000  0.085753  0.792709  1
  Co  Co4  1  0.250000  0.225891  0.178295  1
  Co  Co5  1  0.250000  0.274109  0.678295  1
  Co  Co6  1  0.750000  0.774109  0.821705  1
  Co  Co7  1  0.750000  0.725891  0.321705  1
  Co  Co8  1  0.250000  0.884930  0.699937  1
  Co  Co9  1  0.250000  0.615070  0.199937  1
  Co  Co10  1  0.750000  0.115070  0.300063  1
  Co  Co11  1  0.750000  0.384930  0.800063  1
  Co  Co12  1  0.250000  0.464541  0.932840  1
  Co  Co13  1  0.250000  0.035459  0.432840  1
  Co  Co14  1  0.750000  0.535459  0.067160  1
  Co  Co15  1  0.750000  0.964541  0.567160  1
  P  P16  1  0.250000  0.422446  0.109236  1
  P  P17  1  0.250000  0.077554  0.609236  1
  P  P18  1  0.750000  0.577554  0.890764  1
  P  P19  1  0.750000  0.922446  0.390764  1
  P  P20  1  0.250000  0.278821  0.865994  1
  P  P21  1  0.250000  0.221179  0.365994  1
  P  P22  1  0.750000  0.721179  0.134006  1
  P  P23  1  0.750000  0.778821  0.634006  1
  P  P24  1  0.250000  0.604749  0.387825  1
  P  P25  1  0.250000  0.895251  0.887825  1
  P  P26  1  0.750000  0.395251  0.612175  1
  P  P27  1  0.750000  0.104749  0.112175  1
  Ru  Ru28  1  0.250000  0.706621  0.984186  1
  Ru  Ru29  1  0.250000  0.793379  0.484186  1
  Ru  Ru30  1  0.750000  0.293379  0.015814  1
  Ru  Ru31  1  0.750000  0.206621  0.515814  1
  Ru  Ru32  1  0.250000  0.401618  0.486836  1
  Ru  Ru33  1  0.250000  0.098382  0.986836  1
  Ru  Ru34  1  0.750000  0.598382  0.513164  1
  Ru  Ru35  1  0.750000  0.901618  0.013164  1
