# generated using pymatgen
data_Ho3Al12ReRh3
_symmetry_space_group_name_H-M   'P 1'
_cell_length_a   8.82740400
_cell_length_b   8.82740477
_cell_length_c   9.56146500
_cell_angle_alpha   90.00000000
_cell_angle_beta   90.00000000
_cell_angle_gamma   119.99999712
_symmetry_Int_Tables_number   1
_chemical_formula_structural   Ho3Al12ReRh3
_chemical_formula_sum   'Ho6 Al24 Re2 Rh6'
_cell_volume   645.23977058
_cell_formula_units_Z   2
loop_
 _symmetry_equiv_pos_site_id
 _symmetry_equiv_pos_as_xyz
  1  'x, y, z'
loop_
 _atom_site_type_symbol
 _atom_site_label
 _atom_site_symmetry_multiplicity
 _atom_site_fract_x
 _atom_site_fract_y
 _atom_site_fract_z
 _atom_site_occupancy
  Ho  Ho0  1  0.191382  0.382764  0.250000  1
  Ho  Ho1  1  0.808618  0.617236  0.750000  1
  Ho  Ho2  1  0.617236  0.808618  0.250000  1
  Ho  Ho3  1  0.382764  0.191382  0.750000  1
  Ho  Ho4  1  0.191382  0.808618  0.250000  1
  Ho  Ho5  1  0.808618  0.191382  0.750000  1
  Al  Al6  1  0.333333  0.666667  0.030435  1
  Al  Al7  1  0.666667  0.333333  0.969565  1
  Al  Al8  1  0.666667  0.333333  0.530435  1
  Al  Al9  1  0.333333  0.666667  0.469565  1
  Al  Al10  1  0.163758  0.327518  0.575675  1
  Al  Al11  1  0.836242  0.672482  0.424325  1
  Al  Al12  1  0.672482  0.836242  0.575675  1
  Al  Al13  1  0.836242  0.672482  0.075675  1
  Al  Al14  1  0.327518  0.163758  0.424325  1
  Al  Al15  1  0.163758  0.327518  0.924325  1
  Al  Al16  1  0.163758  0.836242  0.575675  1
  Al  Al17  1  0.327518  0.163758  0.075675  1
  Al  Al18  1  0.836242  0.163758  0.424325  1
  Al  Al19  1  0.672482  0.836242  0.924325  1
  Al  Al20  1  0.836242  0.163758  0.075675  1
  Al  Al21  1  0.163758  0.836242  0.924325  1
  Al  Al22  1  0.562651  0.125303  0.250000  1
  Al  Al23  1  0.437349  0.874697  0.750000  1
  Al  Al24  1  0.874697  0.437349  0.250000  1
  Al  Al25  1  0.125303  0.562651  0.750000  1
  Al  Al26  1  0.562651  0.437349  0.250000  1
  Al  Al27  1  0.437349  0.562651  0.750000  1
  Al  Al28  1  0.000000  0.000000  0.250000  1
  Al  Al29  1  0.000000  0.000000  0.750000  1
  Re  Re30  1  0.000000  0.000000  0.000000  1
  Re  Re31  1  0.000000  0.000000  0.500000  1
  Rh  Rh32  1  0.500000  0.000000  0.000000  1
  Rh  Rh33  1  0.000000  0.500000  0.000000  1
  Rh  Rh34  1  0.500000  0.000000  0.500000  1
  Rh  Rh35  1  0.500000  0.500000  0.000000  1
  Rh  Rh36  1  0.000000  0.500000  0.500000  1
  Rh  Rh37  1  0.500000  0.500000  0.500000  1
