# generated using pymatgen
data_Sm3Tm2Bi3O14
_symmetry_space_group_name_H-M   'P 1'
_cell_length_a   6.63302245
_cell_length_b   6.67312065
_cell_length_c   7.79082700
_cell_angle_alpha   106.74629267
_cell_angle_beta   89.70077972
_cell_angle_gamma   98.76253468
_symmetry_Int_Tables_number   1
_chemical_formula_structural   Sm3Tm2Bi3O14
_chemical_formula_sum   'Sm3 Tm2 Bi3 O14'
_cell_volume   326.09334378
_cell_formula_units_Z   1
loop_
 _symmetry_equiv_pos_site_id
 _symmetry_equiv_pos_as_xyz
  1  'x, y, z'
loop_
 _atom_site_type_symbol
 _atom_site_label
 _atom_site_symmetry_multiplicity
 _atom_site_fract_x
 _atom_site_fract_y
 _atom_site_fract_z
 _atom_site_occupancy
  Sm  Sm0  1  0.271071  0.537723  0.883116  1
  Sm  Sm1  1  0.738577  0.457106  0.113440  1
  Sm  Sm2  1  0.745830  0.479486  0.618263  1
  Tm  Tm3  1  0.460889  0.009119  0.255372  1
  Tm  Tm4  1  0.536481  0.998538  0.748803  1
  Bi  Bi5  1  0.994424  0.999171  0.500175  1
  Bi  Bi6  1  0.999134  0.996122  0.997822  1
  Bi  Bi7  1  0.283684  0.537213  0.388578  1
  O  O8  1  0.451098  0.661308  0.172430  1
  O  O9  1  0.555040  0.345339  0.832692  1
  O  O10  1  0.304487  0.929552  0.951091  1
  O  O11  1  0.695646  0.067448  0.050860  1
  O  O12  1  0.299724  0.936398  0.518618  1
  O  O13  1  0.695713  0.076711  0.487951  1
  O  O14  1  0.543170  0.355766  0.342283  1
  O  O15  1  0.461550  0.648437  0.656386  1
  O  O16  1  0.927598  0.662098  0.945307  1
  O  O17  1  0.068316  0.324287  0.032414  1
  O  O18  1  0.067523  0.336611  0.625006  1
  O  O19  1  0.909855  0.664216  0.384566  1
  O  O20  1  0.867618  0.909612  0.727895  1
  O  O21  1  0.122572  0.067743  0.266932  1
