# generated using pymatgen
data_La2Zn21Pd
_symmetry_space_group_name_H-M   'P 1'
_cell_length_a   8.32627936
_cell_length_b   8.32072715
_cell_length_c   8.32627975
_cell_angle_alpha   100.15013131
_cell_angle_beta   99.79208466
_cell_angle_gamma   130.86297344
_symmetry_Int_Tables_number   1
_chemical_formula_structural   La2Zn21Pd
_chemical_formula_sum   'La2 Zn21 Pd1'
_cell_volume   396.62598713
_cell_formula_units_Z   1
loop_
 _symmetry_equiv_pos_site_id
 _symmetry_equiv_pos_as_xyz
  1  'x, y, z'
loop_
 _atom_site_type_symbol
 _atom_site_label
 _atom_site_symmetry_multiplicity
 _atom_site_fract_x
 _atom_site_fract_y
 _atom_site_fract_z
 _atom_site_occupancy
  La  La0  1  0.250968  0.745914  0.494946  1
  La  La1  1  0.999032  0.004086  0.005054  1
  Zn  Zn2  1  0.902481  0.575345  0.083455  1
  Zn  Zn3  1  0.625000  0.875000  0.250000  1
  Zn  Zn4  1  0.426908  0.510236  0.327765  1
  Zn  Zn5  1  0.491890  0.575345  0.672864  1
  Zn  Zn6  1  0.423728  0.094538  0.912662  1
  Zn  Zn7  1  0.758110  0.174655  0.827136  1
  Zn  Zn8  1  0.487027  0.817398  0.914544  1
  Zn  Zn9  1  0.505790  0.499140  0.993351  1
  Zn  Zn10  1  0.762973  0.932602  0.585456  1
  Zn  Zn11  1  0.744210  0.250860  0.506649  1
  Zn  Zn12  1  0.068124  0.655462  0.829190  1
  Zn  Zn13  1  0.125000  0.375000  0.750000  1
  Zn  Zn14  1  0.347519  0.174655  0.416545  1
  Zn  Zn15  1  0.826272  0.655462  0.587338  1
  Zn  Zn16  1  0.902853  0.817398  0.330370  1
  Zn  Zn17  1  0.181876  0.094538  0.670810  1
  Zn  Zn18  1  0.067529  0.239764  0.416672  1
  Zn  Zn19  1  0.347147  0.932602  0.169630  1
  Zn  Zn20  1  0.823092  0.239764  0.172235  1
  Zn  Zn21  1  0.182471  0.510236  0.083328  1
  Zn  Zn22  1  0.625000  0.375000  0.250000  1
  Pd  Pd23  1  0.625000  0.375000  0.750000  1
