# generated using pymatgen
data_Th3In3Pt2Rh
_symmetry_space_group_name_H-M   'P 1'
_cell_length_a   7.63600400
_cell_length_b   7.63755348
_cell_length_c   4.16814900
_cell_angle_alpha   90.00000000
_cell_angle_beta   90.00000000
_cell_angle_gamma   119.99329777
_symmetry_Int_Tables_number   1
_chemical_formula_structural   Th3In3Pt2Rh
_chemical_formula_sum   'Th3 In3 Pt2 Rh1'
_cell_volume   210.53466105
_cell_formula_units_Z   1
loop_
 _symmetry_equiv_pos_site_id
 _symmetry_equiv_pos_as_xyz
  1  'x, y, z'
loop_
 _atom_site_type_symbol
 _atom_site_label
 _atom_site_symmetry_multiplicity
 _atom_site_fract_x
 _atom_site_fract_y
 _atom_site_fract_z
 _atom_site_occupancy
  Th  Th0  1  0.589031  0.000000  0.500000  1
  Th  Th1  1  0.000007  0.589021  0.500000  1
  Th  Th2  1  0.410986  0.410979  0.500000  1
  In  In3  1  0.245107  0.000000  0.000000  1
  In  In4  1  0.999993  0.245174  0.000000  1
  In  In5  1  0.754819  0.754827  0.000000  1
  Pt  Pt6  1  0.333314  0.666654  0.000000  1
  Pt  Pt7  1  0.666660  0.333346  0.000000  1
  Rh  Rh8  1  0.999987  0.000000  0.500000  1
