# generated using pymatgen
data_TbAgPt4
_symmetry_space_group_name_H-M   'P 1'
_cell_length_a   5.37501515
_cell_length_b   5.37501550
_cell_length_c   5.37501500
_cell_angle_alpha   60.00000924
_cell_angle_beta   60.00000709
_cell_angle_gamma   59.99999977
_symmetry_Int_Tables_number   1
_chemical_formula_structural   TbAgPt4
_chemical_formula_sum   'Tb1 Ag1 Pt4'
_cell_volume   109.80551408
_cell_formula_units_Z   1
loop_
 _symmetry_equiv_pos_site_id
 _symmetry_equiv_pos_as_xyz
  1  'x, y, z'
loop_
 _atom_site_type_symbol
 _atom_site_label
 _atom_site_symmetry_multiplicity
 _atom_site_fract_x
 _atom_site_fract_y
 _atom_site_fract_z
 _atom_site_occupancy
  Tb  Tb0  1  0.000000  0.000000  0.000000  1
  Ag  Ag1  1  0.250000  0.250000  0.250000  1
  Pt  Pt2  1  0.624596  0.624596  0.126211  1
  Pt  Pt3  1  0.624596  0.126211  0.624596  1
  Pt  Pt4  1  0.126211  0.624596  0.624596  1
  Pt  Pt5  1  0.624596  0.624596  0.624596  1
