# generated using pymatgen
data_Te4As4Ir3Rh
_symmetry_space_group_name_H-M   'P 1'
_cell_length_a   6.24612942
_cell_length_b   6.24612942
_cell_length_c   6.24612942
_cell_angle_alpha   89.94545196
_cell_angle_beta   89.94545196
_cell_angle_gamma   90.05454804
_symmetry_Int_Tables_number   1
_chemical_formula_structural   Te4As4Ir3Rh
_chemical_formula_sum   'Te4 As4 Ir3 Rh1'
_cell_volume   243.68699026
_cell_formula_units_Z   1
loop_
 _symmetry_equiv_pos_site_id
 _symmetry_equiv_pos_as_xyz
  1  'x, y, z'
loop_
 _atom_site_type_symbol
 _atom_site_label
 _atom_site_symmetry_multiplicity
 _atom_site_fract_x
 _atom_site_fract_y
 _atom_site_fract_z
 _atom_site_occupancy
  Te  Te0  1  0.122000  0.622000  0.878000  1
  Te  Te1  1  0.621725  0.877902  0.122531  1
  Te  Te2  1  0.877469  0.121725  0.622098  1
  Te  Te3  1  0.377902  0.377469  0.378275  1
  As  As4  1  0.876964  0.376964  0.123036  1
  As  As5  1  0.377068  0.123714  0.877397  1
  As  As6  1  0.122603  0.877068  0.376286  1
  As  As7  1  0.623714  0.622603  0.622932  1
  Ir  Ir8  1  0.988967  0.511276  0.488780  1
  Ir  Ir9  1  0.511220  0.488967  0.988724  1
  Ir  Ir10  1  0.011276  0.011220  0.011033  1
  Rh  Rh11  1  0.489093  0.989093  0.510907  1
