# generated using pymatgen
data_Tm2Pt5Rh
_symmetry_space_group_name_H-M   'P 1'
_cell_length_a   5.77858997
_cell_length_b   5.77858980
_cell_length_c   5.76369800
_cell_angle_alpha   60.08520060
_cell_angle_beta   60.08520159
_cell_angle_gamma   59.82956663
_symmetry_Int_Tables_number   1
_chemical_formula_structural   Tm2Pt5Rh
_chemical_formula_sum   'Tm2 Pt5 Rh1'
_cell_volume   136.08934035
_cell_formula_units_Z   1
loop_
 _symmetry_equiv_pos_site_id
 _symmetry_equiv_pos_as_xyz
  1  'x, y, z'
loop_
 _atom_site_type_symbol
 _atom_site_label
 _atom_site_symmetry_multiplicity
 _atom_site_fract_x
 _atom_site_fract_y
 _atom_site_fract_z
 _atom_site_occupancy
  Tm  Tm0  1  0.000000  0.000000  0.500000  1
  Tm  Tm1  1  0.500000  0.500000  0.000000  1
  Pt  Pt2  1  0.000000  0.000000  0.000000  1
  Pt  Pt3  1  0.000000  0.500000  0.000000  1
  Pt  Pt4  1  0.500000  0.000000  0.000000  1
  Pt  Pt5  1  0.000000  0.500000  0.500000  1
  Pt  Pt6  1  0.500000  0.000000  0.500000  1
  Rh  Rh7  1  0.500000  0.500000  0.500000  1
