# generated using pymatgen
data_NdMn(Sb4Ru)3
_symmetry_space_group_name_H-M   'P 1'
_cell_length_a   8.12325916
_cell_length_b   8.12428847
_cell_length_c   8.12325901
_cell_angle_alpha   109.47378544
_cell_angle_beta   109.46864969
_cell_angle_gamma   109.47378651
_symmetry_Int_Tables_number   1
_chemical_formula_structural   NdMn(Sb4Ru)3
_chemical_formula_sum   'Nd1 Mn1 Sb12 Ru3'
_cell_volume   412.67706483
_cell_formula_units_Z   1
loop_
 _symmetry_equiv_pos_site_id
 _symmetry_equiv_pos_as_xyz
  1  'x, y, z'
loop_
 _atom_site_type_symbol
 _atom_site_label
 _atom_site_symmetry_multiplicity
 _atom_site_fract_x
 _atom_site_fract_y
 _atom_site_fract_z
 _atom_site_occupancy
  Nd  Nd0  1  0.000000  0.000000  0.000000  1
  Mn  Mn1  1  0.000000  0.500000  0.000000  1
  Sb  Sb2  1  0.338226  0.180632  0.842237  1
  Sb  Sb3  1  0.661774  0.819368  0.157763  1
  Sb  Sb4  1  0.661203  0.504112  0.842194  1
  Sb  Sb5  1  0.338797  0.495888  0.157806  1
  Sb  Sb6  1  0.180991  0.842909  0.338797  1
  Sb  Sb7  1  0.819009  0.157091  0.661203  1
  Sb  Sb8  1  0.504011  0.842406  0.661774  1
  Sb  Sb9  1  0.495989  0.157594  0.338226  1
  Sb  Sb10  1  0.842194  0.338082  0.180991  1
  Sb  Sb11  1  0.157806  0.661918  0.819009  1
  Sb  Sb12  1  0.842237  0.661605  0.504011  1
  Sb  Sb13  1  0.157763  0.338395  0.495989  1
  Ru  Ru14  1  0.000000  0.000000  0.500000  1
  Ru  Ru15  1  0.500000  0.000000  0.000000  1
  Ru  Ru16  1  0.500000  0.500000  0.500000  1
