# generated using pymatgen
data_HfNb(SiRh)2
_symmetry_space_group_name_H-M   'P 1'
_cell_length_a   3.85860000
_cell_length_b   6.48453150
_cell_length_c   7.40759755
_cell_angle_alpha   90.64924432
_cell_angle_beta   90.00000000
_cell_angle_gamma   90.00000000
_symmetry_Int_Tables_number   1
_chemical_formula_structural   HfNb(SiRh)2
_chemical_formula_sum   'Hf2 Nb2 Si4 Rh4'
_cell_volume   185.33517875
_cell_formula_units_Z   2
loop_
 _symmetry_equiv_pos_site_id
 _symmetry_equiv_pos_as_xyz
  1  'x, y, z'
loop_
 _atom_site_type_symbol
 _atom_site_label
 _atom_site_symmetry_multiplicity
 _atom_site_fract_x
 _atom_site_fract_y
 _atom_site_fract_z
 _atom_site_occupancy
  Hf  Hf0  1  0.250000  0.024520  0.314266  1
  Hf  Hf1  1  0.750000  0.975480  0.685734  1
  Nb  Nb2  1  0.250000  0.522802  0.174628  1
  Nb  Nb3  1  0.750000  0.477198  0.825372  1
  Si  Si4  1  0.250000  0.760720  0.883315  1
  Si  Si5  1  0.750000  0.239280  0.116685  1
  Si  Si6  1  0.250000  0.279244  0.624508  1
  Si  Si7  1  0.750000  0.720756  0.375492  1
  Rh  Rh8  1  0.750000  0.856121  0.066516  1
  Rh  Rh9  1  0.250000  0.143879  0.933484  1
  Rh  Rh10  1  0.750000  0.349061  0.438569  1
  Rh  Rh11  1  0.250000  0.650939  0.561431  1
