# generated using pymatgen
data_Ca3Yb2P3
_symmetry_space_group_name_H-M   'P 1'
_cell_length_a   8.27264400
_cell_length_b   8.27264362
_cell_length_c   6.60760400
_cell_angle_alpha   90.00000000
_cell_angle_beta   90.00000000
_cell_angle_gamma   119.99999352
_symmetry_Int_Tables_number   1
_chemical_formula_structural   Ca3Yb2P3
_chemical_formula_sum   'Ca6 Yb4 P6'
_cell_volume   391.61860736
_cell_formula_units_Z   2
loop_
 _symmetry_equiv_pos_site_id
 _symmetry_equiv_pos_as_xyz
  1  'x, y, z'
loop_
 _atom_site_type_symbol
 _atom_site_label
 _atom_site_symmetry_multiplicity
 _atom_site_fract_x
 _atom_site_fract_y
 _atom_site_fract_z
 _atom_site_occupancy
  Ca  Ca0  1  0.255861  0.000000  0.250000  1
  Ca  Ca1  1  0.255861  0.255861  0.750000  1
  Ca  Ca2  1  0.000000  0.744139  0.750000  1
  Ca  Ca3  1  0.000000  0.255861  0.250000  1
  Ca  Ca4  1  0.744139  0.744139  0.250000  1
  Ca  Ca5  1  0.744139  0.000000  0.750000  1
  Yb  Yb6  1  0.333333  0.666667  0.000000  1
  Yb  Yb7  1  0.666667  0.333333  0.500000  1
  Yb  Yb8  1  0.666667  0.333333  0.000000  1
  Yb  Yb9  1  0.333333  0.666667  0.500000  1
  P  P10  1  0.609749  0.000000  0.250000  1
  P  P11  1  0.609749  0.609749  0.750000  1
  P  P12  1  0.000000  0.390251  0.750000  1
  P  P13  1  0.000000  0.609749  0.250000  1
  P  P14  1  0.390251  0.390251  0.250000  1
  P  P15  1  0.390251  0.000000  0.750000  1
