# generated using pymatgen
data_Ca3La(B8Ru7)2
_symmetry_space_group_name_H-M   'P 1'
_cell_length_a   6.44910928
_cell_length_b   6.45001328
_cell_length_c   10.10169500
_cell_angle_alpha   90.00000000
_cell_angle_beta   90.00000000
_cell_angle_gamma   90.03374907
_symmetry_Int_Tables_number   1
_chemical_formula_structural   Ca3La(B8Ru7)2
_chemical_formula_sum   'Ca3 La1 B16 Ru14'
_cell_volume   420.19852276
_cell_formula_units_Z   1
loop_
 _symmetry_equiv_pos_site_id
 _symmetry_equiv_pos_as_xyz
  1  'x, y, z'
loop_
 _atom_site_type_symbol
 _atom_site_label
 _atom_site_symmetry_multiplicity
 _atom_site_fract_x
 _atom_site_fract_y
 _atom_site_fract_z
 _atom_site_occupancy
  Ca  Ca0  1  0.114702  0.731563  0.500000  1
  Ca  Ca1  1  0.884828  0.266353  0.500000  1
  Ca  Ca2  1  0.262467  0.119420  0.000000  1
  La  La3  1  0.734821  0.884130  0.000000  1
  B  B4  1  0.500571  0.000762  0.588179  1
  B  B5  1  0.500571  0.000762  0.411821  1
  B  B6  1  0.898663  0.273220  0.168125  1
  B  B7  1  0.102082  0.725278  0.830949  1
  B  B8  1  0.498830  0.500672  0.341464  1
  B  B9  1  0.499590  0.500870  0.841010  1
  B  B10  1  0.276217  0.102706  0.667794  1
  B  B11  1  0.102082  0.725278  0.169051  1
  B  B12  1  0.276217  0.102706  0.332206  1
  B  B13  1  0.898663  0.273220  0.831875  1
  B  B14  1  0.498830  0.500672  0.658536  1
  B  B15  1  0.499590  0.500870  0.158990  1
  B  B16  1  0.999341  0.499238  0.911080  1
  B  B17  1  0.726139  0.898346  0.667258  1
  B  B18  1  0.726139  0.898346  0.332742  1
  B  B19  1  0.999341  0.499238  0.088920  1
  Ru  Ru20  1  0.204846  0.394256  0.755545  1
  Ru  Ru21  1  0.404623  0.288671  0.500000  1
  Ru  Ru22  1  0.394266  0.795864  0.255143  1
  Ru  Ru23  1  0.204846  0.394256  0.244455  1
  Ru  Ru24  1  0.594849  0.713161  0.500000  1
  Ru  Ru25  1  0.605817  0.204780  0.744550  1
  Ru  Ru26  1  0.285997  0.596334  0.000000  1
  Ru  Ru27  1  0.712150  0.400731  0.000000  1
  Ru  Ru28  1  0.795179  0.603933  0.246145  1
  Ru  Ru29  1  0.795179  0.603933  0.753855  1
  Ru  Ru30  1  0.394266  0.795864  0.744857  1
  Ru  Ru31  1  0.001239  0.999896  0.251457  1
  Ru  Ru32  1  0.605817  0.204780  0.255450  1
  Ru  Ru33  1  0.001239  0.999896  0.748543  1
