# generated using pymatgen
data_Mg2Pd9Au5
_symmetry_space_group_name_H-M   'P 1'
_cell_length_a   6.98853238
_cell_length_b   6.98853304
_cell_length_c   6.98853289
_cell_angle_alpha   109.22676722
_cell_angle_beta   107.86467746
_cell_angle_gamma   111.34127146
_symmetry_Int_Tables_number   1
_chemical_formula_structural   Mg2Pd9Au5
_chemical_formula_sum   'Mg2 Pd9 Au5'
_cell_volume   262.49947981
_cell_formula_units_Z   1
loop_
 _symmetry_equiv_pos_site_id
 _symmetry_equiv_pos_as_xyz
  1  'x, y, z'
loop_
 _atom_site_type_symbol
 _atom_site_label
 _atom_site_symmetry_multiplicity
 _atom_site_fract_x
 _atom_site_fract_y
 _atom_site_fract_z
 _atom_site_occupancy
  Mg  Mg0  1  0.000000  0.500000  0.500000  1
  Mg  Mg1  1  0.500000  0.500000  0.000000  1
  Pd  Pd2  1  0.499739  0.251226  0.248511  1
  Pd  Pd3  1  0.500261  0.748774  0.751489  1
  Pd  Pd4  1  0.002715  0.251226  0.751489  1
  Pd  Pd5  1  0.249656  0.001123  0.751467  1
  Pd  Pd6  1  0.997285  0.748774  0.248511  1
  Pd  Pd7  1  0.750344  0.998877  0.248533  1
  Pd  Pd8  1  0.249656  0.498190  0.248533  1
  Pd  Pd9  1  0.750344  0.501810  0.751467  1
  Pd  Pd10  1  0.000000  0.000000  0.000000  1
  Au  Au11  1  0.500000  0.000000  0.500000  1
  Au  Au12  1  0.247609  0.249772  0.497383  1
  Au  Au13  1  0.752391  0.750228  0.502617  1
  Au  Au14  1  0.247609  0.750228  0.997837  1
  Au  Au15  1  0.752391  0.249772  0.002163  1
