# generated using pymatgen
data_DyEr7(TcBr4)2
_symmetry_space_group_name_H-M   'P 1'
_cell_length_a   8.91525111
_cell_length_b   8.90684609
_cell_length_c   6.57620966
_cell_angle_alpha   89.47749495
_cell_angle_beta   89.37831115
_cell_angle_gamma   89.33655916
_symmetry_Int_Tables_number   1
_chemical_formula_structural   DyEr7(TcBr4)2
_chemical_formula_sum   'Dy1 Er7 Tc2 Br8'
_cell_volume   522.10869725
_cell_formula_units_Z   1
loop_
 _symmetry_equiv_pos_site_id
 _symmetry_equiv_pos_as_xyz
  1  'x, y, z'
loop_
 _atom_site_type_symbol
 _atom_site_label
 _atom_site_symmetry_multiplicity
 _atom_site_fract_x
 _atom_site_fract_y
 _atom_site_fract_z
 _atom_site_occupancy
  Dy  Dy0  1  0.249925  0.900825  0.011147  1
  Er  Er1  1  0.753077  0.098197  0.987950  1
  Er  Er2  1  0.097623  0.752646  0.487830  1
  Er  Er3  1  0.901551  0.247585  0.512103  1
  Er  Er4  1  0.753006  0.903067  0.508175  1
  Er  Er5  1  0.246398  0.097426  0.491558  1
  Er  Er6  1  0.096359  0.247700  0.991518  1
  Er  Er7  1  0.902315  0.752832  0.008457  1
  Tc  Tc8  1  0.993687  0.006304  0.250038  1
  Tc  Tc9  1  0.005499  0.994031  0.749379  1
  Br  Br10  1  0.421208  0.816822  0.407464  1
  Br  Br11  1  0.578958  0.182970  0.594222  1
  Br  Br12  1  0.182501  0.578310  0.094279  1
  Br  Br13  1  0.816890  0.421131  0.905875  1
  Br  Br14  1  0.416226  0.192717  0.096422  1
  Br  Br15  1  0.584853  0.807310  0.903546  1
  Br  Br16  1  0.807832  0.583701  0.403600  1
  Br  Br17  1  0.192093  0.416426  0.596436  1
