# generated using pymatgen
data_Lu5(Si7Ir2)2
_symmetry_space_group_name_H-M   'P 1'
_cell_length_a   7.88168769
_cell_length_b   7.95610700
_cell_length_c   12.55372100
_cell_angle_alpha   90.00000000
_cell_angle_beta   98.85926836
_cell_angle_gamma   90.00000000
_symmetry_Int_Tables_number   1
_chemical_formula_structural   Lu5(Si7Ir2)2
_chemical_formula_sum   'Lu10 Si28 Ir8'
_cell_volume   777.82132743
_cell_formula_units_Z   2
loop_
 _symmetry_equiv_pos_site_id
 _symmetry_equiv_pos_as_xyz
  1  'x, y, z'
loop_
 _atom_site_type_symbol
 _atom_site_label
 _atom_site_symmetry_multiplicity
 _atom_site_fract_x
 _atom_site_fract_y
 _atom_site_fract_z
 _atom_site_occupancy
  Lu  Lu0  1  0.658777  0.750950  0.628641  1
  Lu  Lu1  1  0.841223  0.250950  0.371359  1
  Lu  Lu2  1  0.158777  0.749050  0.628641  1
  Lu  Lu3  1  0.341223  0.249050  0.371359  1
  Lu  Lu4  1  0.844207  0.751235  0.371263  1
  Lu  Lu5  1  0.655793  0.251235  0.628737  1
  Lu  Lu6  1  0.155793  0.248765  0.628737  1
  Lu  Lu7  1  0.344207  0.748765  0.371263  1
  Lu  Lu8  1  0.500000  0.000000  0.000000  1
  Lu  Lu9  1  0.000000  0.500000  0.000000  1
  Si  Si10  1  0.169093  0.003723  0.813606  1
  Si  Si11  1  0.386385  0.999257  0.552710  1
  Si  Si12  1  0.113615  0.499257  0.447290  1
  Si  Si13  1  0.613615  0.000743  0.447290  1
  Si  Si14  1  0.666238  0.667778  0.999907  1
  Si  Si15  1  0.833762  0.167778  0.000093  1
  Si  Si16  1  0.333762  0.332222  0.000093  1
  Si  Si17  1  0.166238  0.832222  0.999907  1
  Si  Si18  1  0.950601  0.783229  0.814540  1
  Si  Si19  1  0.549399  0.283229  0.185460  1
  Si  Si20  1  0.049399  0.216771  0.185460  1
  Si  Si21  1  0.450601  0.716771  0.814540  1
  Si  Si22  1  0.957805  0.216636  0.814422  1
  Si  Si23  1  0.542195  0.716636  0.185578  1
  Si  Si24  1  0.042195  0.783364  0.185578  1
  Si  Si25  1  0.457805  0.283364  0.814422  1
  Si  Si26  1  0.739818  0.996374  0.813721  1
  Si  Si27  1  0.760182  0.496374  0.186279  1
  Si  Si28  1  0.260182  0.003626  0.186279  1
  Si  Si29  1  0.239818  0.503626  0.813721  1
  Si  Si30  1  0.669093  0.496277  0.813606  1
  Si  Si31  1  0.830907  0.996277  0.186394  1
  Si  Si32  1  0.330907  0.503723  0.186394  1
  Si  Si33  1  0.891228  0.999443  0.562794  1
  Si  Si34  1  0.391228  0.500557  0.562794  1
  Si  Si35  1  0.108772  0.000557  0.437206  1
  Si  Si36  1  0.608772  0.499443  0.437206  1
  Si  Si37  1  0.886385  0.500743  0.552710  1
  Ir  Ir38  1  0.870792  0.873374  0.000505  1
  Ir  Ir39  1  0.370792  0.626626  0.000505  1
  Ir  Ir40  1  0.629208  0.373374  0.999495  1
  Ir  Ir41  1  0.129208  0.126626  0.999495  1
  Ir  Ir42  1  0.438123  0.999962  0.747302  1
  Ir  Ir43  1  0.061877  0.499962  0.252698  1
  Ir  Ir44  1  0.561877  0.000038  0.252698  1
  Ir  Ir45  1  0.938123  0.500038  0.747302  1
