# generated using pymatgen
data_Nd3Mg2CdSn2Pd
_symmetry_space_group_name_H-M   'P 1'
_cell_length_a   7.62072500
_cell_length_b   7.57777256
_cell_length_c   4.64983800
_cell_angle_alpha   90.00000000
_cell_angle_beta   90.00000000
_cell_angle_gamma   120.18768523
_symmetry_Int_Tables_number   1
_chemical_formula_structural   Nd3Mg2CdSn2Pd
_chemical_formula_sum   'Nd3 Mg2 Cd1 Sn2 Pd1'
_cell_volume   232.10358254
_cell_formula_units_Z   1
loop_
 _symmetry_equiv_pos_site_id
 _symmetry_equiv_pos_as_xyz
  1  'x, y, z'
loop_
 _atom_site_type_symbol
 _atom_site_label
 _atom_site_symmetry_multiplicity
 _atom_site_fract_x
 _atom_site_fract_y
 _atom_site_fract_z
 _atom_site_occupancy
  Nd  Nd0  1  0.595750  0.000000  0.000000  1
  Nd  Nd1  1  0.001446  0.600624  0.000000  1
  Nd  Nd2  1  0.400822  0.399376  0.000000  1
  Mg  Mg3  1  0.001291  0.229025  0.500000  1
  Mg  Mg4  1  0.772267  0.770975  0.500000  1
  Cd  Cd5  1  0.232909  0.000000  0.500000  1
  Sn  Sn6  1  0.334288  0.664244  0.500000  1
  Sn  Sn7  1  0.670045  0.335756  0.500000  1
  Pd  Pd8  1  0.991182  0.000000  0.000000  1
