# generated using pymatgen
data_Lu4Al4NiRh3
_symmetry_space_group_name_H-M   'P 1'
_cell_length_a   4.15116800
_cell_length_b   6.70471971
_cell_length_c   7.79890830
_cell_angle_alpha   90.16020439
_cell_angle_beta   90.00000000
_cell_angle_gamma   90.00000000
_symmetry_Int_Tables_number   1
_chemical_formula_structural   Lu4Al4NiRh3
_chemical_formula_sum   'Lu4 Al4 Ni1 Rh3'
_cell_volume   217.06162680
_cell_formula_units_Z   1
loop_
 _symmetry_equiv_pos_site_id
 _symmetry_equiv_pos_as_xyz
  1  'x, y, z'
loop_
 _atom_site_type_symbol
 _atom_site_label
 _atom_site_symmetry_multiplicity
 _atom_site_fract_x
 _atom_site_fract_y
 _atom_site_fract_z
 _atom_site_occupancy
  Lu  Lu0  1  0.250000  0.963608  0.319847  1
  Lu  Lu1  1  0.750000  0.538033  0.824240  1
  Lu  Lu2  1  0.250000  0.467493  0.177212  1
  Lu  Lu3  1  0.750000  0.034189  0.677043  1
  Al  Al4  1  0.750000  0.638410  0.435776  1
  Al  Al5  1  0.750000  0.131544  0.059765  1
  Al  Al6  1  0.250000  0.363119  0.559100  1
  Al  Al7  1  0.250000  0.859855  0.945544  1
  Ni  Ni8  1  0.750000  0.768814  0.125505  1
  Rh  Rh9  1  0.750000  0.261361  0.375496  1
  Rh  Rh10  1  0.250000  0.236890  0.877511  1
  Rh  Rh11  1  0.250000  0.736681  0.622962  1
