# generated using pymatgen
data_Np2Co12P7
_symmetry_space_group_name_H-M   'P 1'
_cell_length_a   9.03065303
_cell_length_b   9.02746526
_cell_length_c   3.58559000
_cell_angle_alpha   90.00000000
_cell_angle_beta   90.00000000
_cell_angle_gamma   119.99977591
_symmetry_Int_Tables_number   1
_chemical_formula_structural   Np2Co12P7
_chemical_formula_sum   'Np2 Co12 P7'
_cell_volume   253.14958649
_cell_formula_units_Z   1
loop_
 _symmetry_equiv_pos_site_id
 _symmetry_equiv_pos_as_xyz
  1  'x, y, z'
loop_
 _atom_site_type_symbol
 _atom_site_label
 _atom_site_symmetry_multiplicity
 _atom_site_fract_x
 _atom_site_fract_y
 _atom_site_fract_z
 _atom_site_occupancy
  Np  Np0  1  0.999938  0.999915  0.000000  1
  Np  Np1  1  0.333444  0.666699  0.500000  1
  Co  Co2  1  0.101644  0.391232  0.000000  1
  Co  Co3  1  0.608727  0.710540  0.000000  1
  Co  Co4  1  0.289504  0.898270  0.000000  1
  Co  Co5  1  0.047399  0.766209  0.500000  1
  Co  Co6  1  0.233549  0.280909  0.500000  1
  Co  Co7  1  0.718988  0.952661  0.500000  1
  Co  Co8  1  0.819956  0.604565  0.000000  1
  Co  Co9  1  0.395860  0.215487  0.000000  1
  Co  Co10  1  0.784390  0.180200  0.000000  1
  Co  Co11  1  0.902085  0.437304  0.500000  1
  Co  Co12  1  0.562712  0.464877  0.500000  1
  Co  Co13  1  0.535214  0.097843  0.500000  1
  P  P14  1  0.776721  0.735191  0.500000  1
  P  P15  1  0.264907  0.041480  0.500000  1
  P  P16  1  0.958385  0.223293  0.500000  1
  P  P17  1  0.666675  0.333344  0.000000  1
  P  P18  1  0.071942  0.624949  0.000000  1
  P  P19  1  0.374998  0.446927  0.000000  1
  P  P20  1  0.552964  0.928105  0.000000  1
