# generated using pymatgen
data_Ho3In3Ni2Au
_symmetry_space_group_name_H-M   'P 1'
_cell_length_a   7.64917100
_cell_length_b   7.64917090
_cell_length_c   3.71857300
_cell_angle_alpha   90.00000000
_cell_angle_beta   90.00000000
_cell_angle_gamma   120.00000476
_symmetry_Int_Tables_number   1
_chemical_formula_structural   Ho3In3Ni2Au
_chemical_formula_sum   'Ho3 In3 Ni2 Au1'
_cell_volume   188.42375593
_cell_formula_units_Z   1
loop_
 _symmetry_equiv_pos_site_id
 _symmetry_equiv_pos_as_xyz
  1  'x, y, z'
loop_
 _atom_site_type_symbol
 _atom_site_label
 _atom_site_symmetry_multiplicity
 _atom_site_fract_x
 _atom_site_fract_y
 _atom_site_fract_z
 _atom_site_occupancy
  Ho  Ho0  1  0.982482  0.581727  0.500000  1
  Ho  Ho1  1  0.418273  0.400755  0.500000  1
  Ho  Ho2  1  0.599245  0.017518  0.500000  1
  In  In3  1  0.253972  0.004471  0.000000  1
  In  In4  1  0.750499  0.746028  0.000000  1
  In  In5  1  0.995529  0.249501  0.000000  1
  Ni  Ni6  1  0.000000  0.000000  0.500000  1
  Ni  Ni7  1  0.666667  0.333333  0.000000  1
  Au  Au8  1  0.333333  0.666667  0.000000  1
