# generated using pymatgen
data_Tb5Dy2Ho13Pb16
_symmetry_space_group_name_H-M   'P 1'
_cell_length_a   8.20025864
_cell_length_b   8.27698107
_cell_length_c   15.62584422
_cell_angle_alpha   90.00014618
_cell_angle_beta   90.03142343
_cell_angle_gamma   89.98913686
_symmetry_Int_Tables_number   1
_chemical_formula_structural   Tb5Dy2Ho13Pb16
_chemical_formula_sum   'Tb5 Dy2 Ho13 Pb16'
_cell_volume   1060.57877052
_cell_formula_units_Z   1
loop_
 _symmetry_equiv_pos_site_id
 _symmetry_equiv_pos_as_xyz
  1  'x, y, z'
loop_
 _atom_site_type_symbol
 _atom_site_label
 _atom_site_symmetry_multiplicity
 _atom_site_fract_x
 _atom_site_fract_y
 _atom_site_fract_z
 _atom_site_occupancy
  Tb  Tb0  1  0.036180  0.176752  0.600096  1
  Tb  Tb1  1  0.463803  0.676710  0.399937  1
  Tb  Tb2  1  0.963750  0.823341  0.100080  1
  Tb  Tb3  1  0.463758  0.676663  0.100053  1
  Tb  Tb4  1  0.963797  0.823287  0.399920  1
  Dy  Dy5  1  0.536236  0.323343  0.600081  1
  Dy  Dy6  1  0.036269  0.176735  0.899864  1
  Ho  Ho7  1  0.376544  0.841266  0.879106  1
  Ho  Ho8  1  0.876472  0.658769  0.620966  1
  Ho  Ho9  1  0.623476  0.158864  0.379096  1
  Ho  Ho10  1  0.123387  0.341056  0.120852  1
  Ho  Ho11  1  0.623389  0.158935  0.120789  1
  Ho  Ho12  1  0.123475  0.341119  0.379055  1
  Ho  Ho13  1  0.376535  0.841208  0.620971  1
  Ho  Ho14  1  0.876477  0.658700  0.879105  1
  Ho  Ho15  1  0.536393  0.323392  0.899841  1
  Ho  Ho16  1  0.208462  0.504309  0.750141  1
  Ho  Ho17  1  0.708268  0.995655  0.750136  1
  Ho  Ho18  1  0.791689  0.495490  0.249928  1
  Ho  Ho19  1  0.291696  0.004508  0.249924  1
  Pb  Pb20  1  0.281459  0.033216  0.042697  1
  Pb  Pb21  1  0.781501  0.466747  0.457317  1
  Pb  Pb22  1  0.718292  0.966904  0.542816  1
  Pb  Pb23  1  0.218687  0.532774  0.957129  1
  Pb  Pb24  1  0.718343  0.967177  0.957147  1
  Pb  Pb25  1  0.218493  0.533086  0.542824  1
  Pb  Pb26  1  0.281604  0.033171  0.457252  1
  Pb  Pb27  1  0.781338  0.466635  0.042580  1
  Pb  Pb28  1  0.571519  0.626318  0.749997  1
  Pb  Pb29  1  0.071530  0.873539  0.750009  1
  Pb  Pb30  1  0.428454  0.373531  0.250005  1
  Pb  Pb31  1  0.928457  0.126498  0.250012  1
  Pb  Pb32  1  0.347154  0.153483  0.750153  1
  Pb  Pb33  1  0.846754  0.346830  0.750111  1
  Pb  Pb34  1  0.653179  0.846944  0.250001  1
  Pb  Pb35  1  0.153175  0.653046  0.250006  1
