# generated using pymatgen
data_Tb5HoCo9(P4Ru3)3
_symmetry_space_group_name_H-M   'P 1'
_cell_length_a   3.84225400
_cell_length_b   10.66536683
_cell_length_c   12.51239401
_cell_angle_alpha   89.75986663
_cell_angle_beta   90.00000000
_cell_angle_gamma   90.00000000
_symmetry_Int_Tables_number   1
_chemical_formula_structural   Tb5HoCo9(P4Ru3)3
_chemical_formula_sum   'Tb5 Ho1 Co9 P12 Ru9'
_cell_volume   512.74149616
_cell_formula_units_Z   1
loop_
 _symmetry_equiv_pos_site_id
 _symmetry_equiv_pos_as_xyz
  1  'x, y, z'
loop_
 _atom_site_type_symbol
 _atom_site_label
 _atom_site_symmetry_multiplicity
 _atom_site_fract_x
 _atom_site_fract_y
 _atom_site_fract_z
 _atom_site_occupancy
  Tb  Tb0  1  0.000000  0.500241  0.525019  1
  Tb  Tb1  1  0.500000  0.000685  0.471854  1
  Tb  Tb2  1  0.500000  0.820456  0.200902  1
  Tb  Tb3  1  0.000000  0.678780  0.799965  1
  Tb  Tb4  1  0.000000  0.321210  0.798949  1
  Ho  Ho5  1  0.500000  0.181217  0.201083  1
  Co  Co6  1  0.000000  0.498355  0.986620  1
  Co  Co7  1  0.500000  0.000709  0.016533  1
  Co  Co8  1  0.000000  0.374640  0.279675  1
  Co  Co9  1  0.500000  0.331105  0.990277  1
  Co  Co10  1  0.500000  0.666027  0.991785  1
  Co  Co11  1  0.000000  0.168355  0.012796  1
  Co  Co12  1  0.000000  0.832833  0.011206  1
  Co  Co13  1  0.500000  0.500237  0.703350  1
  Co  Co14  1  0.000000  0.001521  0.296489  1
  P  P15  1  0.500000  0.315474  0.616203  1
  P  P16  1  0.500000  0.686380  0.618474  1
  P  P17  1  0.000000  0.189607  0.377311  1
  P  P18  1  0.000000  0.813100  0.380398  1
  P  P19  1  0.500000  0.499258  0.883246  1
  P  P20  1  0.000000  0.000721  0.118841  1
  P  P21  1  0.500000  0.845754  0.902097  1
  P  P22  1  0.500000  0.153996  0.900526  1
  P  P23  1  0.000000  0.653350  0.100169  1
  P  P24  1  0.000000  0.345419  0.103945  1
  P  P25  1  0.500000  0.499631  0.338402  1
  P  P26  1  0.000000  0.000905  0.661989  1
  Ru  Ru27  1  0.500000  0.300754  0.421894  1
  Ru  Ru28  1  0.500000  0.702667  0.427516  1
  Ru  Ru29  1  0.000000  0.204641  0.568527  1
  Ru  Ru30  1  0.000000  0.798642  0.571855  1
  Ru  Ru31  1  0.500000  0.875856  0.719492  1
  Ru  Ru32  1  0.500000  0.125607  0.717247  1
  Ru  Ru33  1  0.000000  0.618370  0.281872  1
  Ru  Ru34  1  0.500000  0.491925  0.149768  1
  Ru  Ru35  1  0.000000  0.001570  0.853724  1
