# generated using pymatgen
data_Ca10InGa4Bi
_symmetry_space_group_name_H-M   'P 1'
_cell_length_a   9.38030081
_cell_length_b   9.38030126
_cell_length_c   9.38030014
_cell_angle_alpha   128.68410568
_cell_angle_beta   128.68411077
_cell_angle_gamma   75.51939190
_symmetry_Int_Tables_number   1
_chemical_formula_structural   Ca10InGa4Bi
_chemical_formula_sum   'Ca10 In1 Ga4 Bi1'
_cell_volume   489.36210868
_cell_formula_units_Z   1
loop_
 _symmetry_equiv_pos_site_id
 _symmetry_equiv_pos_as_xyz
  1  'x, y, z'
loop_
 _atom_site_type_symbol
 _atom_site_label
 _atom_site_symmetry_multiplicity
 _atom_site_fract_x
 _atom_site_fract_y
 _atom_site_fract_z
 _atom_site_occupancy
  Ca  Ca0  1  0.499286  0.499286  0.000000  1
  Ca  Ca1  1  0.000714  0.000714  0.000000  1
  Ca  Ca2  1  0.537120  0.033504  0.847847  1
  Ca  Ca3  1  0.185658  0.689273  0.152153  1
  Ca  Ca4  1  0.033504  0.185658  0.496385  1
  Ca  Ca5  1  0.689273  0.537120  0.503615  1
  Ca  Ca6  1  0.466496  0.962880  0.152153  1
  Ca  Ca7  1  0.810727  0.314342  0.847847  1
  Ca  Ca8  1  0.962880  0.810727  0.496385  1
  Ca  Ca9  1  0.314342  0.466496  0.503615  1
  In  In10  1  0.750000  0.750000  0.000000  1
  Ga  Ga11  1  0.886722  0.386722  0.273444  1
  Ga  Ga12  1  0.113278  0.613278  0.726556  1
  Ga  Ga13  1  0.386722  0.113278  0.500000  1
  Ga  Ga14  1  0.613278  0.886722  0.500000  1
  Bi  Bi15  1  0.250000  0.250000  0.000000  1
