# generated using pymatgen
data_PrNdEr6(BeSi3)4
_symmetry_space_group_name_H-M   'P 1'
_cell_length_a   7.85964900
_cell_length_b   7.85953623
_cell_length_c   8.14213000
_cell_angle_alpha   90.00000000
_cell_angle_beta   90.00000000
_cell_angle_gamma   120.00360901
_symmetry_Int_Tables_number   1
_chemical_formula_structural   PrNdEr6(BeSi3)4
_chemical_formula_sum   'Pr1 Nd1 Er6 Be4 Si12'
_cell_volume   435.56496621
_cell_formula_units_Z   1
loop_
 _symmetry_equiv_pos_site_id
 _symmetry_equiv_pos_as_xyz
  1  'x, y, z'
loop_
 _atom_site_type_symbol
 _atom_site_label
 _atom_site_symmetry_multiplicity
 _atom_site_fract_x
 _atom_site_fract_y
 _atom_site_fract_z
 _atom_site_occupancy
  Pr  Pr0  1  0.000015  0.999985  0.750000  1
  Nd  Nd1  1  0.999997  0.000014  0.250000  1
  Er  Er2  1  0.499571  0.500434  0.750000  1
  Er  Er3  1  0.500369  0.499607  0.250000  1
  Er  Er4  1  0.000834  0.500415  0.750000  1
  Er  Er5  1  0.999192  0.499591  0.250000  1
  Er  Er6  1  0.499597  0.999182  0.750000  1
  Er  Er7  1  0.500459  0.000872  0.250000  1
  Be  Be8  1  0.666663  0.333314  0.998561  1
  Be  Be9  1  0.333334  0.666663  0.002346  1
  Be  Be10  1  0.333334  0.666663  0.497654  1
  Be  Be11  1  0.666663  0.333314  0.501439  1
  Si  Si12  1  0.826107  0.173849  0.000271  1
  Si  Si13  1  0.173881  0.826152  0.000842  1
  Si  Si14  1  0.347776  0.173839  0.000275  1
  Si  Si15  1  0.173881  0.826152  0.499158  1
  Si  Si16  1  0.652234  0.826160  0.000840  1
  Si  Si17  1  0.826107  0.173849  0.499729  1
  Si  Si18  1  0.826125  0.652197  0.000274  1
  Si  Si19  1  0.652234  0.826160  0.499160  1
  Si  Si20  1  0.173862  0.347778  0.000842  1
  Si  Si21  1  0.347776  0.173839  0.499725  1
  Si  Si22  1  0.173862  0.347778  0.499158  1
  Si  Si23  1  0.826125  0.652197  0.499726  1
