# generated using pymatgen
data_Yb3PtAu
_symmetry_space_group_name_H-M   'P 1'
_cell_length_a   7.58561683
_cell_length_b   7.58682688
_cell_length_c   7.61331000
_cell_angle_alpha   69.82231789
_cell_angle_beta   70.07167230
_cell_angle_gamma   70.21845416
_symmetry_Int_Tables_number   1
_chemical_formula_structural   Yb3PtAu
_chemical_formula_sum   'Yb9 Pt3 Au3'
_cell_volume   374.32804958
_cell_formula_units_Z   3
loop_
 _symmetry_equiv_pos_site_id
 _symmetry_equiv_pos_as_xyz
  1  'x, y, z'
loop_
 _atom_site_type_symbol
 _atom_site_label
 _atom_site_symmetry_multiplicity
 _atom_site_fract_x
 _atom_site_fract_y
 _atom_site_fract_z
 _atom_site_occupancy
  Yb  Yb0  1  0.005794  0.998979  0.992329  1
  Yb  Yb1  1  0.398915  0.665546  0.137408  1
  Yb  Yb2  1  0.198158  0.201897  0.193643  1
  Yb  Yb3  1  0.859077  0.587144  0.334020  1
  Yb  Yb4  1  0.664664  0.151322  0.415637  1
  Yb  Yb5  1  0.329849  0.853250  0.608365  1
  Yb  Yb6  1  0.155740  0.396575  0.669654  1
  Yb  Yb7  1  0.804838  0.811578  0.802896  1
  Yb  Yb8  1  0.593780  0.331607  0.838790  1
  Pt  Pt9  1  0.953920  0.172683  0.588199  1
  Pt  Pt10  1  0.409504  0.045262  0.837349  1
  Pt  Pt11  1  0.161130  0.591915  0.951149  1
  Au  Au12  1  0.823975  0.409899  0.045908  1
  Au  Au13  1  0.590764  0.948236  0.176557  1
  Au  Au14  1  0.049893  0.834106  0.408095  1
