# generated using pymatgen
data_Er20Zn5InCo2
_symmetry_space_group_name_H-M   'P 1'
_cell_length_a   9.26788300
_cell_length_b   9.26788244
_cell_length_c   9.45433600
_cell_angle_alpha   90.00000000
_cell_angle_beta   90.00000000
_cell_angle_gamma   120.01002148
_symmetry_Int_Tables_number   1
_chemical_formula_structural   Er20Zn5InCo2
_chemical_formula_sum   'Er20 Zn5 In1 Co2'
_cell_volume   703.19999363
_cell_formula_units_Z   1
loop_
 _symmetry_equiv_pos_site_id
 _symmetry_equiv_pos_as_xyz
  1  'x, y, z'
loop_
 _atom_site_type_symbol
 _atom_site_label
 _atom_site_symmetry_multiplicity
 _atom_site_fract_x
 _atom_site_fract_y
 _atom_site_fract_z
 _atom_site_occupancy
  Er  Er0  1  0.005019  0.994981  0.509884  1
  Er  Er1  1  0.005019  0.994981  0.990116  1
  Er  Er2  1  0.540508  0.459492  0.250000  1
  Er  Er3  1  0.533300  0.085711  0.250000  1
  Er  Er4  1  0.914289  0.466700  0.250000  1
  Er  Er5  1  0.456656  0.543344  0.750000  1
  Er  Er6  1  0.457164  0.915598  0.750000  1
  Er  Er7  1  0.084402  0.542836  0.750000  1
  Er  Er8  1  0.210093  0.789907  0.438769  1
  Er  Er9  1  0.208896  0.418939  0.438693  1
  Er  Er10  1  0.581061  0.791104  0.438693  1
  Er  Er11  1  0.790957  0.209043  0.563202  1
  Er  Er12  1  0.789283  0.580781  0.563172  1
  Er  Er13  1  0.419219  0.210717  0.563172  1
  Er  Er14  1  0.790957  0.209043  0.936798  1
  Er  Er15  1  0.789283  0.580781  0.936828  1
  Er  Er16  1  0.419219  0.210717  0.936828  1
  Er  Er17  1  0.210093  0.789907  0.061231  1
  Er  Er18  1  0.208896  0.418939  0.061307  1
  Er  Er19  1  0.581061  0.791104  0.061307  1
  Zn  Zn20  1  0.889426  0.775715  0.250000  1
  Zn  Zn21  1  0.224285  0.110574  0.250000  1
  Zn  Zn22  1  0.117312  0.882688  0.750000  1
  Zn  Zn23  1  0.113685  0.229249  0.750000  1
  Zn  Zn24  1  0.770751  0.886315  0.750000  1
  In  In25  1  0.888356  0.111644  0.250000  1
  Co  Co26  1  0.333941  0.666059  0.250000  1
  Co  Co27  1  0.666871  0.333129  0.750000  1
