# generated using pymatgen
data_NdTm3(ScIr)4
_symmetry_space_group_name_H-M   'P 1'
_cell_length_a   7.12587271
_cell_length_b   4.25000400
_cell_length_c   8.74726403
_cell_angle_alpha   90.00000000
_cell_angle_beta   89.09520496
_cell_angle_gamma   90.00000000
_symmetry_Int_Tables_number   1
_chemical_formula_structural   NdTm3(ScIr)4
_chemical_formula_sum   'Nd1 Tm3 Sc4 Ir4'
_cell_volume   264.87775162
_cell_formula_units_Z   1
loop_
 _symmetry_equiv_pos_site_id
 _symmetry_equiv_pos_as_xyz
  1  'x, y, z'
loop_
 _atom_site_type_symbol
 _atom_site_label
 _atom_site_symmetry_multiplicity
 _atom_site_fract_x
 _atom_site_fract_y
 _atom_site_fract_z
 _atom_site_occupancy
  Nd  Nd0  1  0.510839  0.750000  0.674712  1
  Tm  Tm1  1  0.979428  0.250000  0.173012  1
  Tm  Tm2  1  0.481605  0.250000  0.324926  1
  Tm  Tm3  1  0.019532  0.750000  0.831646  1
  Sc  Sc4  1  0.859380  0.250000  0.563521  1
  Sc  Sc5  1  0.360559  0.250000  0.941203  1
  Sc  Sc6  1  0.140893  0.750000  0.430473  1
  Sc  Sc7  1  0.644061  0.750000  0.068469  1
  Ir  Ir8  1  0.746868  0.250000  0.897187  1
  Ir  Ir9  1  0.232452  0.250000  0.602139  1
  Ir  Ir10  1  0.260694  0.750000  0.108293  1
  Ir  Ir11  1  0.763690  0.750000  0.384417  1
