# generated using pymatgen
data_Sr8Cd7(In3Au4)3
_symmetry_space_group_name_H-M   'P 1'
_cell_length_a   15.41889889
_cell_length_b   15.38472775
_cell_length_c   4.53661800
_cell_angle_alpha   90.00000000
_cell_angle_beta   90.00000000
_cell_angle_gamma   119.66955411
_symmetry_Int_Tables_number   1
_chemical_formula_structural   Sr8Cd7(In3Au4)3
_chemical_formula_sum   'Sr8 Cd7 In9 Au12'
_cell_volume   935.06654743
_cell_formula_units_Z   1
loop_
 _symmetry_equiv_pos_site_id
 _symmetry_equiv_pos_as_xyz
  1  'x, y, z'
loop_
 _atom_site_type_symbol
 _atom_site_label
 _atom_site_symmetry_multiplicity
 _atom_site_fract_x
 _atom_site_fract_y
 _atom_site_fract_z
 _atom_site_occupancy
  Sr  Sr0  1  0.450836  0.997112  0.000000  1
  Sr  Sr1  1  0.002837  0.454586  0.000000  1
  Sr  Sr2  1  0.544879  0.545931  0.000000  1
  Sr  Sr3  1  0.333281  0.666884  0.000000  1
  Sr  Sr4  1  0.664782  0.333619  0.000000  1
  Sr  Sr5  1  0.819907  0.998453  0.500000  1
  Sr  Sr6  1  0.003322  0.822829  0.500000  1
  Sr  Sr7  1  0.180021  0.180065  0.500000  1
  Cd  Cd8  1  0.279959  0.999762  0.500000  1
  Cd  Cd9  1  0.001622  0.281235  0.500000  1
  Cd  Cd10  1  0.718436  0.720342  0.500000  1
  Cd  Cd11  1  0.349301  0.472218  0.500000  1
  Cd  Cd12  1  0.526336  0.875394  0.500000  1
  Cd  Cd13  1  0.472020  0.349133  0.500000  1
  Cd  Cd14  1  0.124367  0.651431  0.500000  1
  In  In15  1  0.180333  0.378163  0.000000  1
  In  In16  1  0.621154  0.802038  0.000000  1
  In  In17  1  0.379787  0.180350  0.000000  1
  In  In18  1  0.197881  0.818586  0.000000  1
  In  In19  1  0.800125  0.622722  0.000000  1
  In  In20  1  0.822892  0.200154  0.000000  1
  In  In21  1  0.876343  0.528385  0.500000  1
  In  In22  1  0.651989  0.123246  0.500000  1
  In  In23  1  0.999953  0.999987  0.000000  1
  Au  Au24  1  0.174177  0.494924  0.500000  1
  Au  Au25  1  0.504002  0.678001  0.500000  1
  Au  Au26  1  0.495637  0.173088  0.500000  1
  Au  Au27  1  0.320838  0.825719  0.500000  1
  Au  Au28  1  0.678344  0.503170  0.500000  1
  Au  Au29  1  0.824047  0.321500  0.500000  1
  Au  Au30  1  0.175505  0.000506  0.000000  1
  Au  Au31  1  0.000239  0.175549  0.000000  1
  Au  Au32  1  0.825362  0.825269  0.000000  1
  Au  Au33  1  0.660161  0.001590  0.000000  1
  Au  Au34  1  0.999155  0.658053  0.000000  1
  Au  Au35  1  0.340170  0.340008  0.000000  1
