# generated using pymatgen
data_Ho4B16Ir5Ru11
_symmetry_space_group_name_H-M   'P 1'
_cell_length_a   9.22789545
_cell_length_b   7.51106612
_cell_length_c   7.50730382
_cell_angle_alpha   89.97760463
_cell_angle_beta   113.96877952
_cell_angle_gamma   114.30098182
_symmetry_Int_Tables_number   1
_chemical_formula_structural   Ho4B16Ir5Ru11
_chemical_formula_sum   'Ho4 B16 Ir5 Ru11'
_cell_volume   424.56262793
_cell_formula_units_Z   1
loop_
 _symmetry_equiv_pos_site_id
 _symmetry_equiv_pos_as_xyz
  1  'x, y, z'
loop_
 _atom_site_type_symbol
 _atom_site_label
 _atom_site_symmetry_multiplicity
 _atom_site_fract_x
 _atom_site_fract_y
 _atom_site_fract_z
 _atom_site_occupancy
  Ho  Ho0  1  0.749635  0.877918  0.124127  1
  Ho  Ho1  1  0.252462  0.627618  0.375679  1
  Ho  Ho2  1  0.750770  0.375758  0.623871  1
  Ho  Ho3  1  0.246069  0.124654  0.871591  1
  B  B4  1  0.911759  0.285248  0.066241  1
  B  B5  1  0.413253  0.564963  0.124062  1
  B  B6  1  0.083767  0.212957  0.151928  1
  B  B7  1  0.587774  0.146644  0.210786  1
  B  B8  1  0.412521  0.056358  0.291425  1
  B  B9  1  0.915589  0.623001  0.357888  1
  B  B10  1  0.588181  0.652209  0.377760  1
  B  B11  1  0.086419  0.878898  0.443449  1
  B  B12  1  0.913563  0.125808  0.565033  1
  B  B13  1  0.412105  0.346177  0.626790  1
  B  B14  1  0.086165  0.374964  0.653384  1
  B  B15  1  0.588399  0.935560  0.711628  1
  B  B16  1  0.414834  0.845695  0.783010  1
  B  B17  1  0.913175  0.789884  0.845169  1
  B  B18  1  0.585810  0.432339  0.871467  1
  B  B19  1  0.085916  0.710847  0.931943  1
  Ir  Ir20  1  0.876169  0.551705  0.039498  1
  Ir  Ir21  1  0.378682  0.838914  0.049288  1
  Ir  Ir22  1  0.120351  0.948220  0.162158  1
  Ir  Ir23  1  0.624555  0.462679  0.174972  1
  Ir  Ir24  1  0.374467  0.335470  0.322283  1
  Ru  Ru25  1  0.873090  0.323369  0.335502  1
  Ru  Ru26  1  0.625974  0.960534  0.448929  1
  Ru  Ru27  1  0.127231  0.179481  0.461750  1
  Ru  Ru28  1  0.874841  0.825473  0.539530  1
  Ru  Ru29  1  0.371605  0.037155  0.549793  1
  Ru  Ru30  1  0.128257  0.677146  0.665964  1
  Ru  Ru31  1  0.626207  0.665707  0.676882  1
  Ru  Ru32  1  0.372557  0.536422  0.821950  1
  Ru  Ru33  1  0.873496  0.051790  0.833499  1
  Ru  Ru34  1  0.627013  0.167150  0.948909  1
  Ru  Ru35  1  0.127336  0.451291  0.961854  1
