# generated using pymatgen
data_SmY3Co8(PRu)12
_symmetry_space_group_name_H-M   'P 1'
_cell_length_a   3.80426000
_cell_length_b   10.65813105
_cell_length_c   12.14970106
_cell_angle_alpha   90.01131760
_cell_angle_beta   90.00000000
_cell_angle_gamma   90.00000000
_symmetry_Int_Tables_number   1
_chemical_formula_structural   SmY3Co8(PRu)12
_chemical_formula_sum   'Sm1 Y3 Co8 P12 Ru12'
_cell_volume   492.62543432
_cell_formula_units_Z   1
loop_
 _symmetry_equiv_pos_site_id
 _symmetry_equiv_pos_as_xyz
  1  'x, y, z'
loop_
 _atom_site_type_symbol
 _atom_site_label
 _atom_site_symmetry_multiplicity
 _atom_site_fract_x
 _atom_site_fract_y
 _atom_site_fract_z
 _atom_site_occupancy
  Sm  Sm0  1  0.250000  0.915669  0.206724  1
  Y  Y1  1  0.750000  0.084537  0.793332  1
  Y  Y2  1  0.750000  0.415584  0.293426  1
  Y  Y3  1  0.250000  0.584296  0.706620  1
  Co  Co4  1  0.250000  0.611789  0.195201  1
  Co  Co5  1  0.750000  0.387605  0.804365  1
  Co  Co6  1  0.750000  0.113391  0.305551  1
  Co  Co7  1  0.250000  0.887589  0.695880  1
  Co  Co8  1  0.250000  0.037658  0.436376  1
  Co  Co9  1  0.750000  0.962814  0.565730  1
  Co  Co10  1  0.750000  0.536639  0.064285  1
  Co  Co11  1  0.250000  0.462725  0.934947  1
  P  P12  1  0.250000  0.074277  0.613042  1
  P  P13  1  0.750000  0.925444  0.389261  1
  P  P14  1  0.750000  0.574006  0.887246  1
  P  P15  1  0.250000  0.425731  0.112172  1
  P  P16  1  0.250000  0.227969  0.371584  1
  P  P17  1  0.750000  0.771798  0.628482  1
  P  P18  1  0.750000  0.726793  0.127764  1
  P  P19  1  0.250000  0.272246  0.871236  1
  P  P20  1  0.250000  0.898366  0.887117  1
  P  P21  1  0.750000  0.103123  0.112008  1
  P  P22  1  0.750000  0.398254  0.612861  1
  P  P23  1  0.250000  0.601740  0.387168  1
  Ru  Ru24  1  0.250000  0.793825  0.486075  1
  Ru  Ru25  1  0.750000  0.206496  0.514329  1
  Ru  Ru26  1  0.750000  0.294245  0.013558  1
  Ru  Ru27  1  0.250000  0.706018  0.985744  1
  Ru  Ru28  1  0.250000  0.095347  0.985656  1
  Ru  Ru29  1  0.750000  0.905479  0.012171  1
  Ru  Ru30  1  0.750000  0.594567  0.514196  1
  Ru  Ru31  1  0.250000  0.405341  0.486072  1
  Ru  Ru32  1  0.250000  0.276312  0.680490  1
  Ru  Ru33  1  0.750000  0.722395  0.319751  1
  Ru  Ru34  1  0.750000  0.775585  0.819225  1
  Ru  Ru35  1  0.250000  0.224347  0.180355  1
