# generated using pymatgen
data_Sc8Ta2Nb9Si16Tc
_symmetry_space_group_name_H-M   'P 1'
_cell_length_a   6.68099600
_cell_length_b   6.89660602
_cell_length_c   13.13008600
_cell_angle_alpha   90.00000000
_cell_angle_beta   90.00000000
_cell_angle_gamma   89.99717964
_symmetry_Int_Tables_number   1
_chemical_formula_structural   Sc8Ta2Nb9Si16Tc
_chemical_formula_sum   'Sc8 Ta2 Nb9 Si16 Tc1'
_cell_volume   604.98443136
_cell_formula_units_Z   1
loop_
 _symmetry_equiv_pos_site_id
 _symmetry_equiv_pos_as_xyz
  1  'x, y, z'
loop_
 _atom_site_type_symbol
 _atom_site_label
 _atom_site_symmetry_multiplicity
 _atom_site_fract_x
 _atom_site_fract_y
 _atom_site_fract_z
 _atom_site_occupancy
  Sc  Sc0  1  0.497358  0.675163  0.593749  1
  Sc  Sc1  1  0.000846  0.826293  0.905867  1
  Sc  Sc2  1  0.498880  0.325730  0.095222  1
  Sc  Sc3  1  0.998990  0.174522  0.404646  1
  Sc  Sc4  1  0.498880  0.325730  0.404778  1
  Sc  Sc5  1  0.998990  0.174522  0.095354  1
  Sc  Sc6  1  0.497358  0.675163  0.906251  1
  Sc  Sc7  1  0.000846  0.826293  0.594133  1
  Ta  Ta8  1  0.162183  0.506038  0.250000  1
  Ta  Ta9  1  0.662342  0.994290  0.250000  1
  Nb  Nb10  1  0.664685  0.170669  0.625863  1
  Nb  Nb11  1  0.165008  0.328678  0.873736  1
  Nb  Nb12  1  0.336728  0.826332  0.124690  1
  Nb  Nb13  1  0.836633  0.672923  0.376258  1
  Nb  Nb14  1  0.336728  0.826332  0.375310  1
  Nb  Nb15  1  0.836633  0.672923  0.123742  1
  Nb  Nb16  1  0.664685  0.170669  0.874137  1
  Nb  Nb17  1  0.165008  0.328678  0.626264  1
  Nb  Nb18  1  0.337712  0.004428  0.750000  1
  Si  Si19  1  0.669391  0.967545  0.459864  1
  Si  Si20  1  0.169528  0.532924  0.039375  1
  Si  Si21  1  0.330813  0.033808  0.960204  1
  Si  Si22  1  0.830876  0.466245  0.542605  1
  Si  Si23  1  0.330813  0.033808  0.539796  1
  Si  Si24  1  0.830876  0.466245  0.957395  1
  Si  Si25  1  0.669391  0.967545  0.040136  1
  Si  Si26  1  0.169528  0.532924  0.460625  1
  Si  Si27  1  0.468837  0.390501  0.750000  1
  Si  Si28  1  0.959930  0.113469  0.750000  1
  Si  Si29  1  0.540209  0.613634  0.250000  1
  Si  Si30  1  0.038782  0.887037  0.250000  1
  Si  Si31  1  0.705699  0.853685  0.750000  1
  Si  Si32  1  0.197539  0.637112  0.750000  1
  Si  Si33  1  0.294645  0.138487  0.250000  1
  Si  Si34  1  0.794885  0.361674  0.250000  1
  Tc  Tc35  1  0.837767  0.497983  0.750000  1
