# generated using pymatgen
data_Zr10AlSnPb6
_symmetry_space_group_name_H-M   'P 1'
_cell_length_a   8.95283600
_cell_length_b   8.95283651
_cell_length_c   5.97899800
_cell_angle_alpha   90.00000000
_cell_angle_beta   90.00000000
_cell_angle_gamma   119.99999812
_symmetry_Int_Tables_number   1
_chemical_formula_structural   Zr10AlSnPb6
_chemical_formula_sum   'Zr10 Al1 Sn1 Pb6'
_cell_volume   415.03080327
_cell_formula_units_Z   1
loop_
 _symmetry_equiv_pos_site_id
 _symmetry_equiv_pos_as_xyz
  1  'x, y, z'
loop_
 _atom_site_type_symbol
 _atom_site_label
 _atom_site_symmetry_multiplicity
 _atom_site_fract_x
 _atom_site_fract_y
 _atom_site_fract_z
 _atom_site_occupancy
  Zr  Zr0  1  0.333333  0.666667  0.000000  1
  Zr  Zr1  1  0.666667  0.333333  0.500000  1
  Zr  Zr2  1  0.666667  0.333333  0.000000  1
  Zr  Zr3  1  0.333333  0.666667  0.500000  1
  Zr  Zr4  1  0.272589  0.000000  0.261522  1
  Zr  Zr5  1  0.272589  0.272589  0.738478  1
  Zr  Zr6  1  0.000000  0.727411  0.738478  1
  Zr  Zr7  1  0.000000  0.272589  0.261522  1
  Zr  Zr8  1  0.727411  0.727411  0.261522  1
  Zr  Zr9  1  0.727411  0.000000  0.738478  1
  Al  Al10  1  0.000000  0.000000  0.500000  1
  Sn  Sn11  1  0.000000  0.000000  0.000000  1
  Pb  Pb12  1  0.613534  0.000000  0.247808  1
  Pb  Pb13  1  0.613534  0.613534  0.752192  1
  Pb  Pb14  1  0.000000  0.386466  0.752192  1
  Pb  Pb15  1  0.000000  0.613534  0.247808  1
  Pb  Pb16  1  0.386466  0.386466  0.247808  1
  Pb  Pb17  1  0.386466  0.000000  0.752192  1
