# generated using pymatgen
data_Tm6Zn16Pd7Se
_symmetry_space_group_name_H-M   'P 1'
_cell_length_a   9.05877761
_cell_length_b   9.05877648
_cell_length_c   9.05877700
_cell_angle_alpha   60.00000175
_cell_angle_beta   60.00000587
_cell_angle_gamma   59.99999979
_symmetry_Int_Tables_number   1
_chemical_formula_structural   Tm6Zn16Pd7Se
_chemical_formula_sum   'Tm6 Zn16 Pd7 Se1'
_cell_volume   525.64645155
_cell_formula_units_Z   1
loop_
 _symmetry_equiv_pos_site_id
 _symmetry_equiv_pos_as_xyz
  1  'x, y, z'
loop_
 _atom_site_type_symbol
 _atom_site_label
 _atom_site_symmetry_multiplicity
 _atom_site_fract_x
 _atom_site_fract_y
 _atom_site_fract_z
 _atom_site_occupancy
  Tm  Tm0  1  0.718925  0.281075  0.281075  1
  Tm  Tm1  1  0.281075  0.718925  0.718925  1
  Tm  Tm2  1  0.281075  0.718925  0.281075  1
  Tm  Tm3  1  0.718925  0.281075  0.718925  1
  Tm  Tm4  1  0.281075  0.281075  0.718925  1
  Tm  Tm5  1  0.718925  0.718925  0.281075  1
  Zn  Zn6  1  0.122392  0.122392  0.122392  1
  Zn  Zn7  1  0.877608  0.877608  0.877608  1
  Zn  Zn8  1  0.122392  0.122392  0.632825  1
  Zn  Zn9  1  0.122392  0.632825  0.122392  1
  Zn  Zn10  1  0.877608  0.877608  0.367175  1
  Zn  Zn11  1  0.877608  0.367175  0.877608  1
  Zn  Zn12  1  0.632825  0.122392  0.122392  1
  Zn  Zn13  1  0.367175  0.877608  0.877608  1
  Zn  Zn14  1  0.333136  0.333136  0.333136  1
  Zn  Zn15  1  0.666864  0.666864  0.666864  1
  Zn  Zn16  1  0.333136  0.333136  0.000593  1
  Zn  Zn17  1  0.333136  0.000593  0.333136  1
  Zn  Zn18  1  0.666864  0.666864  0.999407  1
  Zn  Zn19  1  0.666864  0.999407  0.666864  1
  Zn  Zn20  1  0.000593  0.333136  0.333136  1
  Zn  Zn21  1  0.999407  0.666864  0.666864  1
  Pd  Pd22  1  0.500000  0.000000  0.000000  1
  Pd  Pd23  1  0.000000  0.500000  0.500000  1
  Pd  Pd24  1  0.000000  0.500000  0.000000  1
  Pd  Pd25  1  0.500000  0.000000  0.500000  1
  Pd  Pd26  1  0.000000  0.000000  0.500000  1
  Pd  Pd27  1  0.500000  0.500000  0.000000  1
  Pd  Pd28  1  0.000000  0.000000  0.000000  1
  Se  Se29  1  0.500000  0.500000  0.500000  1
