# generated using pymatgen
data_TbHo7(Tm3Sn4)4
_symmetry_space_group_name_H-M   'P 1'
_cell_length_a   7.97313117
_cell_length_b   8.10772105
_cell_length_c   15.31881828
_cell_angle_alpha   90.00638737
_cell_angle_beta   89.97899885
_cell_angle_gamma   89.98927604
_symmetry_Int_Tables_number   1
_chemical_formula_structural   TbHo7(Tm3Sn4)4
_chemical_formula_sum   'Tb1 Ho7 Tm12 Sn16'
_cell_volume   990.26842546
_cell_formula_units_Z   1
loop_
 _symmetry_equiv_pos_site_id
 _symmetry_equiv_pos_as_xyz
  1  'x, y, z'
loop_
 _atom_site_type_symbol
 _atom_site_label
 _atom_site_symmetry_multiplicity
 _atom_site_fract_x
 _atom_site_fract_y
 _atom_site_fract_z
 _atom_site_occupancy
  Tb  Tb0  1  0.020815  0.179504  0.902827  1
  Ho  Ho1  1  0.520886  0.320554  0.902752  1
  Ho  Ho2  1  0.020898  0.179518  0.597295  1
  Ho  Ho3  1  0.479119  0.679482  0.402756  1
  Ho  Ho4  1  0.979142  0.820470  0.097267  1
  Ho  Ho5  1  0.479133  0.679515  0.097235  1
  Ho  Ho6  1  0.979112  0.820510  0.402754  1
  Ho  Ho7  1  0.520890  0.320537  0.597224  1
  Tm  Tm8  1  0.367098  0.836440  0.877416  1
  Tm  Tm9  1  0.867069  0.663488  0.622578  1
  Tm  Tm10  1  0.632925  0.163467  0.377403  1
  Tm  Tm11  1  0.132981  0.336579  0.122663  1
  Tm  Tm12  1  0.632950  0.163441  0.122602  1
  Tm  Tm13  1  0.132927  0.336522  0.377396  1
  Tm  Tm14  1  0.367079  0.836507  0.622586  1
  Tm  Tm15  1  0.867046  0.663518  0.877403  1
  Tm  Tm16  1  0.198141  0.503822  0.749953  1
  Tm  Tm17  1  0.697981  0.996169  0.749935  1
  Tm  Tm18  1  0.801920  0.496252  0.250011  1
  Tm  Tm19  1  0.301926  0.003744  0.249986  1
  Sn  Sn20  1  0.294497  0.037002  0.041816  1
  Sn  Sn21  1  0.794209  0.462855  0.458310  1
  Sn  Sn22  1  0.705797  0.962876  0.541674  1
  Sn  Sn23  1  0.205898  0.537343  0.958362  1
  Sn  Sn24  1  0.705432  0.962604  0.958387  1
  Sn  Sn25  1  0.205779  0.537139  0.541675  1
  Sn  Sn26  1  0.294227  0.037145  0.458314  1
  Sn  Sn27  1  0.794201  0.462890  0.041692  1
  Sn  Sn28  1  0.564214  0.620925  0.749999  1
  Sn  Sn29  1  0.064217  0.878908  0.749981  1
  Sn  Sn30  1  0.435807  0.379070  0.249994  1
  Sn  Sn31  1  0.935798  0.120958  0.250008  1
  Sn  Sn32  1  0.330031  0.147277  0.749931  1
  Sn  Sn33  1  0.829653  0.352949  0.749822  1
  Sn  Sn34  1  0.670114  0.852715  0.249988  1
  Sn  Sn35  1  0.170089  0.647303  0.250002  1
