# generated using pymatgen
data_LaErHf2(NiAs)4
_symmetry_space_group_name_H-M   'P 1'
_cell_length_a   4.01491300
_cell_length_b   4.01491319
_cell_length_c   15.07097000
_cell_angle_alpha   90.00000000
_cell_angle_beta   90.00000000
_cell_angle_gamma   120.00002319
_symmetry_Int_Tables_number   1
_chemical_formula_structural   LaErHf2(NiAs)4
_chemical_formula_sum   'La1 Er1 Hf2 Ni4 As4'
_cell_volume   210.38948639
_cell_formula_units_Z   1
loop_
 _symmetry_equiv_pos_site_id
 _symmetry_equiv_pos_as_xyz
  1  'x, y, z'
loop_
 _atom_site_type_symbol
 _atom_site_label
 _atom_site_symmetry_multiplicity
 _atom_site_fract_x
 _atom_site_fract_y
 _atom_site_fract_z
 _atom_site_occupancy
  La  La0  1  0.000000  0.000000  0.000000  1
  Er  Er1  1  0.000000  0.000000  0.500000  1
  Hf  Hf2  1  0.000000  0.000000  0.255731  1
  Hf  Hf3  1  0.000000  0.000000  0.744269  1
  Ni  Ni4  1  0.333333  0.666667  0.167791  1
  Ni  Ni5  1  0.666667  0.333333  0.832209  1
  Ni  Ni6  1  0.666667  0.333333  0.651487  1
  Ni  Ni7  1  0.333333  0.666667  0.348513  1
  As  As8  1  0.333333  0.666667  0.617760  1
  As  As9  1  0.666667  0.333333  0.382240  1
  As  As10  1  0.666667  0.333333  0.132380  1
  As  As11  1  0.333333  0.666667  0.867620  1
