# generated using pymatgen
data_Er4Ge3Bi3Rh7
_symmetry_space_group_name_H-M   'P 1'
_cell_length_a   7.48634938
_cell_length_b   7.48634961
_cell_length_c   7.59080400
_cell_angle_alpha   109.75410907
_cell_angle_beta   109.75410973
_cell_angle_gamma   109.18685930
_symmetry_Int_Tables_number   1
_chemical_formula_structural   Er4Ge3Bi3Rh7
_chemical_formula_sum   'Er4 Ge3 Bi3 Rh7'
_cell_volume   326.34572111
_cell_formula_units_Z   1
loop_
 _symmetry_equiv_pos_site_id
 _symmetry_equiv_pos_as_xyz
  1  'x, y, z'
loop_
 _atom_site_type_symbol
 _atom_site_label
 _atom_site_symmetry_multiplicity
 _atom_site_fract_x
 _atom_site_fract_y
 _atom_site_fract_z
 _atom_site_occupancy
  Er  Er0  1  0.000000  0.000000  0.555505  1
  Er  Er1  1  0.000000  0.471516  0.982404  1
  Er  Er2  1  0.471516  0.000000  0.982404  1
  Er  Er3  1  0.528484  0.528484  0.510889  1
  Ge  Ge4  1  0.337452  0.337452  0.007172  1
  Ge  Ge5  1  0.662548  0.000000  0.669720  1
  Ge  Ge6  1  0.000000  0.662548  0.669720  1
  Bi  Bi7  1  0.705814  0.705814  0.013455  1
  Bi  Bi8  1  0.294186  0.000000  0.307641  1
  Bi  Bi9  1  0.000000  0.294186  0.307641  1
  Rh  Rh10  1  0.750232  0.251495  0.510193  1
  Rh  Rh11  1  0.748505  0.498737  0.258699  1
  Rh  Rh12  1  0.501263  0.249768  0.759962  1
  Rh  Rh13  1  0.249768  0.501263  0.759962  1
  Rh  Rh14  1  0.251495  0.750232  0.510193  1
  Rh  Rh15  1  0.498737  0.748505  0.258699  1
  Rh  Rh16  1  0.000000  0.000000  0.935744  1
