# generated using pymatgen
data_Y4Lu3ScPt4
_symmetry_space_group_name_H-M   'P 1'
_cell_length_a   4.73293700
_cell_length_b   7.11541086
_cell_length_c   8.60263200
_cell_angle_alpha   90.19886929
_cell_angle_beta   90.00000000
_cell_angle_gamma   90.00000000
_symmetry_Int_Tables_number   1
_chemical_formula_structural   Y4Lu3ScPt4
_chemical_formula_sum   'Y4 Lu3 Sc1 Pt4'
_cell_volume   289.70729767
_cell_formula_units_Z   1
loop_
 _symmetry_equiv_pos_site_id
 _symmetry_equiv_pos_as_xyz
  1  'x, y, z'
loop_
 _atom_site_type_symbol
 _atom_site_label
 _atom_site_symmetry_multiplicity
 _atom_site_fract_x
 _atom_site_fract_y
 _atom_site_fract_z
 _atom_site_occupancy
  Y  Y0  1  0.250000  0.981144  0.328024  1
  Y  Y1  1  0.250000  0.490747  0.176643  1
  Y  Y2  1  0.750000  0.008691  0.666595  1
  Y  Y3  1  0.750000  0.514019  0.828287  1
  Lu  Lu4  1  0.250000  0.856862  0.922194  1
  Lu  Lu5  1  0.250000  0.357432  0.575510  1
  Lu  Lu6  1  0.750000  0.144571  0.076327  1
  Sc  Sc7  1  0.750000  0.640543  0.425118  1
  Pt  Pt8  1  0.250000  0.253387  0.906140  1
  Pt  Pt9  1  0.250000  0.747247  0.590598  1
  Pt  Pt10  1  0.750000  0.749837  0.100248  1
  Pt  Pt11  1  0.750000  0.255523  0.404318  1
