# generated using pymatgen
data_Tb10Bi3Pb3C2
_symmetry_space_group_name_H-M   'P 1'
_cell_length_a   9.15637600
_cell_length_b   9.15637717
_cell_length_c   6.59046700
_cell_angle_alpha   90.00000000
_cell_angle_beta   90.00000000
_cell_angle_gamma   120.00000299
_symmetry_Int_Tables_number   1
_chemical_formula_structural   Tb10Bi3Pb3C2
_chemical_formula_sum   'Tb10 Bi3 Pb3 C2'
_cell_volume   478.51339642
_cell_formula_units_Z   1
loop_
 _symmetry_equiv_pos_site_id
 _symmetry_equiv_pos_as_xyz
  1  'x, y, z'
loop_
 _atom_site_type_symbol
 _atom_site_label
 _atom_site_symmetry_multiplicity
 _atom_site_fract_x
 _atom_site_fract_y
 _atom_site_fract_z
 _atom_site_occupancy
  Tb  Tb0  1  0.666667  0.333333  0.995412  1
  Tb  Tb1  1  0.333333  0.666667  0.995412  1
  Tb  Tb2  1  0.333333  0.666667  0.504588  1
  Tb  Tb3  1  0.666667  0.333333  0.504588  1
  Tb  Tb4  1  0.790443  0.790443  0.750000  1
  Tb  Tb5  1  0.209557  0.000000  0.750000  1
  Tb  Tb6  1  0.000000  0.209557  0.750000  1
  Tb  Tb7  1  0.209043  0.209043  0.250000  1
  Tb  Tb8  1  0.790957  0.000000  0.250000  1
  Tb  Tb9  1  0.000000  0.790957  0.250000  1
  Bi  Bi10  1  0.597297  0.597297  0.250000  1
  Bi  Bi11  1  0.402703  0.000000  0.250000  1
  Bi  Bi12  1  0.000000  0.402703  0.250000  1
  Pb  Pb13  1  0.402851  0.402851  0.750000  1
  Pb  Pb14  1  0.597149  0.000000  0.750000  1
  Pb  Pb15  1  0.000000  0.597149  0.750000  1
  C  C16  1  0.000000  0.000000  0.001796  1
  C  C17  1  0.000000  0.000000  0.498204  1
