# generated using pymatgen
data_CaSm3(Ga8Pt3)3
_symmetry_space_group_name_H-M   'P 1'
_cell_length_a   7.59310626
_cell_length_b   7.64187815
_cell_length_c   13.38516500
_cell_angle_alpha   84.63668451
_cell_angle_beta   79.27432967
_cell_angle_gamma   60.15590893
_symmetry_Int_Tables_number   1
_chemical_formula_structural   CaSm3(Ga8Pt3)3
_chemical_formula_sum   'Ca1 Sm3 Ga24 Pt9'
_cell_volume   661.91082804
_cell_formula_units_Z   1
loop_
 _symmetry_equiv_pos_site_id
 _symmetry_equiv_pos_as_xyz
  1  'x, y, z'
loop_
 _atom_site_type_symbol
 _atom_site_label
 _atom_site_symmetry_multiplicity
 _atom_site_fract_x
 _atom_site_fract_y
 _atom_site_fract_z
 _atom_site_occupancy
  Ca  Ca0  1  0.394751  0.168558  0.808894  1
  Sm  Sm1  1  0.605196  0.832631  0.189911  1
  Sm  Sm2  1  0.731505  0.498205  0.810857  1
  Sm  Sm3  1  0.267866  0.501865  0.189210  1
  Ga  Ga4  1  0.686291  0.835042  0.940356  1
  Ga  Ga5  1  0.313327  0.166503  0.059892  1
  Ga  Ga6  1  0.145616  0.832604  0.559850  1
  Ga  Ga7  1  0.854203  0.167504  0.439694  1
  Ga  Ga8  1  0.479308  0.166608  0.556425  1
  Ga  Ga9  1  0.521194  0.833254  0.442780  1
  Ga  Ga10  1  0.221940  0.164938  0.325143  1
  Ga  Ga11  1  0.779181  0.835306  0.673417  1
  Ga  Ga12  1  0.437591  0.504237  0.671526  1
  Ga  Ga13  1  0.562532  0.496045  0.327033  1
  Ga  Ga14  1  0.107550  0.162864  0.671037  1
  Ga  Ga15  1  0.892789  0.836718  0.327483  1
  Ga  Ga16  1  0.355397  0.498201  0.941087  1
  Ga  Ga17  1  0.643427  0.501448  0.060165  1
  Ga  Ga18  1  0.019473  0.167553  0.947538  1
  Ga  Ga19  1  0.980374  0.831389  0.054645  1
  Ga  Ga20  1  0.186968  0.498930  0.441801  1
  Ga  Ga21  1  0.813477  0.500947  0.557931  1
  Ga  Ga22  1  0.736036  0.164172  0.182426  1
  Ga  Ga23  1  0.265823  0.833302  0.817916  1
  Ga  Ga24  1  0.060004  0.632350  0.816980  1
  Ga  Ga25  1  0.937543  0.368287  0.183750  1
  Ga  Ga26  1  0.858495  0.039463  0.816660  1
  Ga  Ga27  1  0.141744  0.961051  0.183966  1
  Pt  Pt28  1  0.118882  0.495774  0.638114  1
  Pt  Pt29  1  0.882929  0.502737  0.361742  1
  Pt  Pt30  1  0.659704  0.169955  0.000016  1
  Pt  Pt31  1  0.339894  0.830234  0.001561  1
  Pt  Pt32  1  0.542077  0.166681  0.360740  1
  Pt  Pt33  1  0.457461  0.835102  0.638912  1
  Pt  Pt34  1  0.779863  0.171029  0.636521  1
  Pt  Pt35  1  0.219703  0.828855  0.363133  1
  Pt  Pt36  1  0.999890  0.499660  0.000887  1
