# generated using pymatgen
data_La3Pr(HgPt2)2
_symmetry_space_group_name_H-M   'P 1'
_cell_length_a   7.96404772
_cell_length_b   7.96404772
_cell_length_c   3.92693700
_cell_angle_alpha   90.00000000
_cell_angle_beta   90.00000000
_cell_angle_gamma   90.37970167
_symmetry_Int_Tables_number   1
_chemical_formula_structural   La3Pr(HgPt2)2
_chemical_formula_sum   'La3 Pr1 Hg2 Pt4'
_cell_volume   249.06465715
_cell_formula_units_Z   1
loop_
 _symmetry_equiv_pos_site_id
 _symmetry_equiv_pos_as_xyz
  1  'x, y, z'
loop_
 _atom_site_type_symbol
 _atom_site_label
 _atom_site_symmetry_multiplicity
 _atom_site_fract_x
 _atom_site_fract_y
 _atom_site_fract_z
 _atom_site_occupancy
  La  La0  1  0.326956  0.173045  0.500001  1
  La  La1  1  0.826764  0.326996  0.500001  1
  La  La2  1  0.173005  0.673237  0.500001  1
  Pr  Pr3  1  0.672928  0.827073  0.500001  1
  Hg  Hg4  1  0.999409  0.999561  0.000000  1
  Hg  Hg5  1  0.500439  0.500591  0.000000  1
  Pt  Pt6  1  0.627473  0.127887  0.000000  1
  Pt  Pt7  1  0.127886  0.372114  0.000000  1
  Pt  Pt8  1  0.873031  0.626969  0.000000  1
  Pt  Pt9  1  0.372113  0.872527  0.000000  1
