# generated using pymatgen
data_RbBa2CoH12Pt
_symmetry_space_group_name_H-M   'P 1'
_cell_length_a   5.67812900
_cell_length_b   5.67812928
_cell_length_c   8.69543300
_cell_angle_alpha   90.00000000
_cell_angle_beta   90.00000000
_cell_angle_gamma   120.00000417
_symmetry_Int_Tables_number   1
_chemical_formula_structural   RbBa2CoH12Pt
_chemical_formula_sum   'Rb1 Ba2 Co1 H12 Pt1'
_cell_volume   242.79087384
_cell_formula_units_Z   1
loop_
 _symmetry_equiv_pos_site_id
 _symmetry_equiv_pos_as_xyz
  1  'x, y, z'
loop_
 _atom_site_type_symbol
 _atom_site_label
 _atom_site_symmetry_multiplicity
 _atom_site_fract_x
 _atom_site_fract_y
 _atom_site_fract_z
 _atom_site_occupancy
  Rb  Rb0  1  0.000000  0.000000  0.973484  1
  Ba  Ba1  1  0.666667  0.333333  0.371300  1
  Ba  Ba2  1  0.333333  0.666667  0.675859  1
  Co  Co3  1  0.666667  0.333333  0.744923  1
  H  H4  1  0.191437  0.808563  0.356484  1
  H  H5  1  0.617126  0.808563  0.356484  1
  H  H6  1  0.191437  0.382874  0.356484  1
  H  H7  1  0.802066  0.197934  0.646501  1
  H  H8  1  0.395869  0.197934  0.646501  1
  H  H9  1  0.802066  0.604131  0.646501  1
  H  H10  1  0.547339  0.094678  0.858071  1
  H  H11  1  0.547339  0.452661  0.858071  1
  H  H12  1  0.905322  0.452661  0.858071  1
  H  H13  1  0.463662  0.927324  0.133786  1
  H  H14  1  0.463662  0.536338  0.133786  1
  H  H15  1  0.072676  0.536338  0.133786  1
  Pt  Pt16  1  0.333333  0.666667  0.249902  1
