# generated using pymatgen
data_Tb8Hf8ZrSi16Mo3
_symmetry_space_group_name_H-M   'P 1'
_cell_length_a   7.21739273
_cell_length_b   7.21739295
_cell_length_c   13.19975407
_cell_angle_alpha   90.12339203
_cell_angle_beta   90.12339203
_cell_angle_gamma   90.07673149
_symmetry_Int_Tables_number   1
_chemical_formula_structural   Tb8Hf8ZrSi16Mo3
_chemical_formula_sum   'Tb8 Hf8 Zr1 Si16 Mo3'
_cell_volume   687.58140264
_cell_formula_units_Z   1
loop_
 _symmetry_equiv_pos_site_id
 _symmetry_equiv_pos_as_xyz
  1  'x, y, z'
loop_
 _atom_site_type_symbol
 _atom_site_label
 _atom_site_symmetry_multiplicity
 _atom_site_fract_x
 _atom_site_fract_y
 _atom_site_fract_z
 _atom_site_occupancy
  Tb  Tb0  1  0.999547  0.344456  0.215221  1
  Tb  Tb1  1  0.003500  0.656554  0.714582  1
  Tb  Tb2  1  0.154902  0.500207  0.463763  1
  Tb  Tb3  1  0.499793  0.845098  0.036237  1
  Tb  Tb4  1  0.846399  0.501516  0.967721  1
  Tb  Tb5  1  0.498484  0.153601  0.532279  1
  Tb  Tb6  1  0.343446  0.996500  0.785418  1
  Tb  Tb7  1  0.655544  0.000453  0.284779  1
  Hf  Hf8  1  0.146457  0.992581  0.373523  1
  Hf  Hf9  1  0.855032  0.005073  0.876871  1
  Hf  Hf10  1  0.506233  0.649019  0.621420  1
  Hf  Hf11  1  0.350981  0.493767  0.878580  1
  Hf  Hf12  1  0.492249  0.352823  0.125743  1
  Hf  Hf13  1  0.647177  0.507751  0.374257  1
  Hf  Hf14  1  0.994927  0.144968  0.623129  1
  Hf  Hf15  1  0.007419  0.853543  0.126477  1
  Zr  Zr16  1  0.675748  0.324252  0.750000  1
  Si  Si17  1  0.361460  0.296754  0.316773  1
  Si  Si18  1  0.637311  0.706716  0.817475  1
  Si  Si19  1  0.204336  0.861965  0.565877  1
  Si  Si20  1  0.138035  0.795664  0.934123  1
  Si  Si21  1  0.796008  0.137778  0.067417  1
  Si  Si22  1  0.862222  0.203992  0.432583  1
  Si  Si23  1  0.293284  0.362689  0.682525  1
  Si  Si24  1  0.703246  0.638540  0.183227  1
  Si  Si25  1  0.295376  0.051575  0.184407  1
  Si  Si26  1  0.705386  0.946202  0.682391  1
  Si  Si27  1  0.448099  0.794860  0.432519  1
  Si  Si28  1  0.205140  0.551901  0.067481  1
  Si  Si29  1  0.547657  0.202984  0.937070  1
  Si  Si30  1  0.797016  0.452343  0.562930  1
  Si  Si31  1  0.053798  0.294614  0.817609  1
  Si  Si32  1  0.948425  0.704624  0.315593  1
  Mo  Mo33  1  0.176947  0.175539  0.001539  1
  Mo  Mo34  1  0.824461  0.823053  0.498461  1
  Mo  Mo35  1  0.323958  0.676042  0.250000  1
