# generated using pymatgen
data_Dy3Th(Al8Pt3)3
_symmetry_space_group_name_H-M   'P 1'
_cell_length_a   7.56080816
_cell_length_b   7.58017764
_cell_length_c   13.19244508
_cell_angle_alpha   84.53932412
_cell_angle_beta   79.02996607
_cell_angle_gamma   59.91249136
_symmetry_Int_Tables_number   1
_chemical_formula_structural   Dy3Th(Al8Pt3)3
_chemical_formula_sum   'Dy3 Th1 Al24 Pt9'
_cell_volume   642.25951039
_cell_formula_units_Z   1
loop_
 _symmetry_equiv_pos_site_id
 _symmetry_equiv_pos_as_xyz
  1  'x, y, z'
loop_
 _atom_site_type_symbol
 _atom_site_label
 _atom_site_symmetry_multiplicity
 _atom_site_fract_x
 _atom_site_fract_y
 _atom_site_fract_z
 _atom_site_occupancy
  Dy  Dy0  1  0.606119  0.831489  0.192959  1
  Dy  Dy1  1  0.733482  0.499071  0.807569  1
  Dy  Dy2  1  0.266173  0.501261  0.193107  1
  Th  Th3  1  0.394172  0.167943  0.807193  1
  Al  Al4  1  0.686964  0.830512  0.946647  1
  Al  Al5  1  0.314943  0.166221  0.058143  1
  Al  Al6  1  0.146794  0.832641  0.560653  1
  Al  Al7  1  0.854031  0.167457  0.437828  1
  Al  Al8  1  0.480961  0.166502  0.556769  1
  Al  Al9  1  0.520209  0.832554  0.440703  1
  Al  Al10  1  0.217539  0.165400  0.329800  1
  Al  Al11  1  0.787232  0.831012  0.667422  1
  Al  Al12  1  0.438291  0.510274  0.667798  1
  Al  Al13  1  0.562558  0.493735  0.329503  1
  Al  Al14  1  0.106730  0.159988  0.666329  1
  Al  Al15  1  0.890328  0.839767  0.330819  1
  Al  Al16  1  0.351992  0.502712  0.946653  1
  Al  Al17  1  0.646684  0.500893  0.056330  1
  Al  Al18  1  0.011676  0.167540  0.955859  1
  Al  Al19  1  0.984131  0.832120  0.048136  1
  Al  Al20  1  0.185843  0.500208  0.440810  1
  Al  Al21  1  0.813634  0.500490  0.558368  1
  Al  Al22  1  0.734378  0.163948  0.183572  1
  Al  Al23  1  0.264629  0.832853  0.816563  1
  Al  Al24  1  0.058780  0.634941  0.815343  1
  Al  Al25  1  0.937889  0.369330  0.184988  1
  Al  Al26  1  0.859294  0.040730  0.816198  1
  Al  Al27  1  0.144454  0.958034  0.184327  1
  Pt  Pt28  1  0.121348  0.490984  0.638848  1
  Pt  Pt29  1  0.879745  0.508064  0.361331  1
  Pt  Pt30  1  0.656507  0.171490  0.999706  1
  Pt  Pt31  1  0.342998  0.829301  0.999810  1
  Pt  Pt32  1  0.537458  0.166856  0.361242  1
  Pt  Pt33  1  0.462079  0.834342  0.638721  1
  Pt  Pt34  1  0.778012  0.175004  0.637523  1
  Pt  Pt35  1  0.220979  0.825048  0.362707  1
  Pt  Pt36  1  0.000963  0.499284  0.999722  1
