# generated using pymatgen
data_Tb8Pd19Pt5Pb
_symmetry_space_group_name_H-M   'P 1'
_cell_length_a   8.45410000
_cell_length_b   8.46104800
_cell_length_c   8.42376300
_cell_angle_alpha   90.00000000
_cell_angle_beta   90.00000000
_cell_angle_gamma   90.00000000
_symmetry_Int_Tables_number   1
_chemical_formula_structural   Tb8Pd19Pt5Pb
_chemical_formula_sum   'Tb8 Pd19 Pt5 Pb1'
_cell_volume   602.55636590
_cell_formula_units_Z   1
loop_
 _symmetry_equiv_pos_site_id
 _symmetry_equiv_pos_as_xyz
  1  'x, y, z'
loop_
 _atom_site_type_symbol
 _atom_site_label
 _atom_site_symmetry_multiplicity
 _atom_site_fract_x
 _atom_site_fract_y
 _atom_site_fract_z
 _atom_site_occupancy
  Tb  Tb0  1  0.252799  0.253351  0.252438  1
  Tb  Tb1  1  0.747647  0.746626  0.746793  1
  Tb  Tb2  1  0.747647  0.746626  0.253207  1
  Tb  Tb3  1  0.747201  0.253351  0.747562  1
  Tb  Tb4  1  0.252799  0.253351  0.747562  1
  Tb  Tb5  1  0.252353  0.746626  0.253207  1
  Tb  Tb6  1  0.252353  0.746626  0.746793  1
  Tb  Tb7  1  0.747201  0.253351  0.252438  1
  Pd  Pd8  1  0.500000  0.733349  0.000000  1
  Pd  Pd9  1  0.500000  0.999993  0.267397  1
  Pd  Pd10  1  0.267648  0.999993  0.500000  1
  Pd  Pd11  1  0.500000  0.999993  0.732603  1
  Pd  Pd12  1  0.732352  0.999993  0.500000  1
  Pd  Pd13  1  0.000000  0.500036  0.267305  1
  Pd  Pd14  1  0.000000  0.500036  0.732695  1
  Pd  Pd15  1  0.255086  0.500067  0.500000  1
  Pd  Pd16  1  0.744914  0.500067  0.500000  1
  Pd  Pd17  1  0.500000  0.255180  0.500000  1
  Pd  Pd18  1  0.500000  0.744789  0.500000  1
  Pd  Pd19  1  0.500000  0.500078  0.255313  1
  Pd  Pd20  1  0.500000  0.500078  0.744687  1
  Pd  Pd21  1  0.316054  0.999737  0.000000  1
  Pd  Pd22  1  0.683946  0.999737  0.000000  1
  Pd  Pd23  1  0.000000  0.315999  0.000000  1
  Pd  Pd24  1  0.000000  0.684087  0.000000  1
  Pd  Pd25  1  0.000000  0.000007  0.316152  1
  Pd  Pd26  1  0.000000  0.000007  0.683848  1
  Pt  Pt27  1  0.266344  0.500151  0.000000  1
  Pt  Pt28  1  0.733656  0.500151  0.000000  1
  Pt  Pt29  1  0.000000  0.266351  0.500000  1
  Pt  Pt30  1  0.500000  0.266241  0.000000  1
  Pt  Pt31  1  0.000000  0.733811  0.500000  1
  Pb  Pb32  1  0.000000  0.000162  0.000000  1
