# generated using pymatgen
data_Tm(Al3Pd)3
_symmetry_space_group_name_H-M   'P 1'
_cell_length_a   10.41109441
_cell_length_b   10.41109480
_cell_length_c   10.41109600
_cell_angle_alpha   42.21989573
_cell_angle_beta   42.21990157
_cell_angle_gamma   42.21989519
_symmetry_Int_Tables_number   1
_chemical_formula_structural   Tm(Al3Pd)3
_chemical_formula_sum   'Tm2 Al18 Pd6'
_cell_volume   461.14037755
_cell_formula_units_Z   2
loop_
 _symmetry_equiv_pos_site_id
 _symmetry_equiv_pos_as_xyz
  1  'x, y, z'
loop_
 _atom_site_type_symbol
 _atom_site_label
 _atom_site_symmetry_multiplicity
 _atom_site_fract_x
 _atom_site_fract_y
 _atom_site_fract_z
 _atom_site_occupancy
  Tm  Tm0  1  0.166861  0.166861  0.166861  1
  Tm  Tm1  1  0.833139  0.833139  0.833139  1
  Al  Al2  1  0.107379  0.435434  0.764040  1
  Al  Al3  1  0.435434  0.764040  0.107379  1
  Al  Al4  1  0.564566  0.892621  0.235960  1
  Al  Al5  1  0.949902  0.949902  0.949902  1
  Al  Al6  1  0.050098  0.050098  0.050098  1
  Al  Al7  1  0.295019  0.704981  0.500000  1
  Al  Al8  1  0.892621  0.235960  0.564566  1
  Al  Al9  1  0.384784  0.384784  0.384784  1
  Al  Al10  1  0.500000  0.295019  0.704981  1
  Al  Al11  1  0.235960  0.564566  0.892621  1
  Al  Al12  1  0.716400  0.716400  0.716400  1
  Al  Al13  1  0.615216  0.615216  0.615216  1
  Al  Al14  1  0.334357  0.000000  0.665643  1
  Al  Al15  1  0.704981  0.500000  0.295019  1
  Al  Al16  1  0.665643  0.334357  0.000000  1
  Al  Al17  1  0.283600  0.283600  0.283600  1
  Al  Al18  1  0.000000  0.665643  0.334357  1
  Al  Al19  1  0.764040  0.107379  0.435434  1
  Pd  Pd20  1  0.418981  0.076932  0.760824  1
  Pd  Pd21  1  0.581019  0.239176  0.923068  1
  Pd  Pd22  1  0.076932  0.760824  0.418981  1
  Pd  Pd23  1  0.760824  0.418981  0.076932  1
  Pd  Pd24  1  0.923068  0.581019  0.239176  1
  Pd  Pd25  1  0.239176  0.923068  0.581019  1
