# generated using pymatgen
data_TmMg2Sc3(Ni7B2)2
_symmetry_space_group_name_H-M   'P 1'
_cell_length_a   4.91196400
_cell_length_b   4.91196347
_cell_length_c   13.98034400
_cell_angle_alpha   90.00000000
_cell_angle_beta   90.00000000
_cell_angle_gamma   120.00000354
_symmetry_Int_Tables_number   1
_chemical_formula_structural   TmMg2Sc3(Ni7B2)2
_chemical_formula_sum   'Tm1 Mg2 Sc3 Ni14 B4'
_cell_volume   292.11830898
_cell_formula_units_Z   1
loop_
 _symmetry_equiv_pos_site_id
 _symmetry_equiv_pos_as_xyz
  1  'x, y, z'
loop_
 _atom_site_type_symbol
 _atom_site_label
 _atom_site_symmetry_multiplicity
 _atom_site_fract_x
 _atom_site_fract_y
 _atom_site_fract_z
 _atom_site_occupancy
  Tm  Tm0  1  0.666667  0.333333  0.254182  1
  Mg  Mg1  1  0.666667  0.333333  0.471909  1
  Mg  Mg2  1  0.333333  0.666667  0.965087  1
  Sc  Sc3  1  0.333333  0.666667  0.532429  1
  Sc  Sc4  1  0.666667  0.333333  0.027825  1
  Sc  Sc5  1  0.333333  0.666667  0.753481  1
  Ni  Ni6  1  0.000000  0.000000  0.998577  1
  Ni  Ni7  1  0.000000  0.000000  0.499876  1
  Ni  Ni8  1  0.166460  0.332919  0.144459  1
  Ni  Ni9  1  0.833647  0.667293  0.646663  1
  Ni  Ni10  1  0.667081  0.833540  0.144459  1
  Ni  Ni11  1  0.166460  0.833540  0.144459  1
  Ni  Ni12  1  0.833647  0.166353  0.646663  1
  Ni  Ni13  1  0.332707  0.166353  0.646663  1
  Ni  Ni14  1  0.833633  0.667267  0.853215  1
  Ni  Ni15  1  0.833633  0.166367  0.853215  1
  Ni  Ni16  1  0.332733  0.166367  0.853215  1
  Ni  Ni17  1  0.667309  0.833654  0.355981  1
  Ni  Ni18  1  0.166346  0.833654  0.355981  1
  Ni  Ni19  1  0.166346  0.332691  0.355981  1
  B  B20  1  0.333333  0.666667  0.249703  1
  B  B21  1  0.666667  0.333333  0.749464  1
  B  B22  1  0.000000  0.000000  0.248303  1
  B  B23  1  0.000000  0.000000  0.748210  1
