# generated using pymatgen
data_Zr6Al17Os7
_symmetry_space_group_name_H-M   'P 1'
_cell_length_a   8.82201915
_cell_length_b   8.82179082
_cell_length_c   8.82201912
_cell_angle_alpha   119.98582079
_cell_angle_beta   119.98802698
_cell_angle_gamma   90.02338277
_symmetry_Int_Tables_number   1
_chemical_formula_structural   Zr6Al17Os7
_chemical_formula_sum   'Zr6 Al17 Os7'
_cell_volume   485.57996710
_cell_formula_units_Z   1
loop_
 _symmetry_equiv_pos_site_id
 _symmetry_equiv_pos_as_xyz
  1  'x, y, z'
loop_
 _atom_site_type_symbol
 _atom_site_label
 _atom_site_symmetry_multiplicity
 _atom_site_fract_x
 _atom_site_fract_y
 _atom_site_fract_z
 _atom_site_occupancy
  Zr  Zr0  1  0.781983  0.281594  0.063084  1
  Zr  Zr1  1  0.218510  0.281594  0.499610  1
  Zr  Zr2  1  0.217880  0.717880  0.500000  1
  Zr  Zr3  1  0.218506  0.718898  0.936918  1
  Zr  Zr4  1  0.781979  0.718898  0.500391  1
  Zr  Zr5  1  0.780797  0.280800  0.500003  1
  Al  Al6  1  0.378306  0.121638  0.743332  1
  Al  Al7  1  0.378319  0.634966  0.256646  1
  Al  Al8  1  0.999165  0.499165  0.500000  1
  Al  Al9  1  0.160558  0.339597  0.179039  1
  Al  Al10  1  0.160542  0.981436  0.820892  1
  Al  Al11  1  0.160098  0.340095  0.819955  1
  Al  Al12  1  0.520139  0.340095  0.179998  1
  Al  Al13  1  0.839784  0.660224  0.820441  1
  Al  Al14  1  0.839796  0.019418  0.179622  1
  Al  Al15  1  0.839667  0.660303  0.179405  1
  Al  Al16  1  0.480899  0.660303  0.820634  1
  Al  Al17  1  0.378025  0.121757  0.256226  1
  Al  Al18  1  0.865532  0.121757  0.743733  1
  Al  Al19  1  0.621590  0.877760  0.256170  1
  Al  Al20  1  0.621578  0.365436  0.743858  1
  Al  Al21  1  0.621334  0.878188  0.743190  1
  Al  Al22  1  0.134999  0.878188  0.256854  1
  Os  Os23  1  0.999934  0.999915  0.499999  1
  Os  Os24  1  0.499916  0.999915  0.999981  1
  Os  Os25  1  0.500009  0.500008  0.000000  1
  Os  Os26  1  0.499914  0.499937  0.499994  1
  Os  Os27  1  0.999943  0.499937  0.000023  1
  Os  Os28  1  0.000005  0.000006  0.000001  1
  Os  Os29  1  0.500287  0.000289  0.500001  1
