# generated using pymatgen
data_Pr4Ho4Re3B24Ru
_symmetry_space_group_name_H-M   'P 1'
_cell_length_a   3.73537300
_cell_length_b   9.25542604
_cell_length_c   11.72483518
_cell_angle_alpha   90.08235021
_cell_angle_beta   90.00000000
_cell_angle_gamma   90.00000000
_symmetry_Int_Tables_number   1
_chemical_formula_structural   Pr4Ho4Re3B24Ru
_chemical_formula_sum   'Pr4 Ho4 Re3 B24 Ru1'
_cell_volume   405.35607660
_cell_formula_units_Z   1
loop_
 _symmetry_equiv_pos_site_id
 _symmetry_equiv_pos_as_xyz
  1  'x, y, z'
loop_
 _atom_site_type_symbol
 _atom_site_label
 _atom_site_symmetry_multiplicity
 _atom_site_fract_x
 _atom_site_fract_y
 _atom_site_fract_z
 _atom_site_occupancy
  Pr  Pr0  1  0.000000  0.321965  0.414841  1
  Pr  Pr1  1  0.000000  0.677389  0.586863  1
  Pr  Pr2  1  0.000000  0.823863  0.084316  1
  Pr  Pr3  1  0.000000  0.177587  0.913977  1
  Ho  Ho4  1  0.000000  0.941896  0.368695  1
  Ho  Ho5  1  0.000000  0.056657  0.630467  1
  Ho  Ho6  1  0.000000  0.442680  0.131411  1
  Ho  Ho7  1  0.000000  0.557057  0.869773  1
  Re  Re8  1  0.000000  0.361280  0.679931  1
  Re  Re9  1  0.000000  0.139331  0.181332  1
  Re  Re10  1  0.000000  0.860514  0.819251  1
  B  B11  1  0.500000  0.556090  0.429709  1
  B  B12  1  0.500000  0.444691  0.569893  1
  B  B13  1  0.500000  0.055476  0.069669  1
  B  B14  1  0.500000  0.944892  0.929934  1
  B  B15  1  0.500000  0.749320  0.415149  1
  B  B16  1  0.500000  0.249662  0.584295  1
  B  B17  1  0.500000  0.250428  0.084579  1
  B  B18  1  0.500000  0.750372  0.915659  1
  B  B19  1  0.500000  0.789994  0.266191  1
  B  B20  1  0.500000  0.209002  0.733525  1
  B  B21  1  0.500000  0.290815  0.234147  1
  B  B22  1  0.500000  0.708775  0.766455  1
  B  B23  1  0.500000  0.629756  0.186896  1
  B  B24  1  0.500000  0.370658  0.813180  1
  B  B25  1  0.500000  0.129479  0.314038  1
  B  B26  1  0.500000  0.870243  0.686368  1
  B  B27  1  0.500000  0.984676  0.213113  1
  B  B28  1  0.500000  0.015425  0.786212  1
  B  B29  1  0.500000  0.485727  0.287130  1
  B  B30  1  0.500000  0.516009  0.713421  1
  B  B31  1  0.500000  0.596539  0.027191  1
  B  B32  1  0.500000  0.403714  0.974032  1
  B  B33  1  0.500000  0.095632  0.473036  1
  B  B34  1  0.500000  0.902722  0.526411  1
  Ru  Ru35  1  0.000000  0.639688  0.318914  1
