# generated using pymatgen
data_Tb3TmIn4
_symmetry_space_group_name_H-M   'P 1'
_cell_length_a   6.51689903
_cell_length_b   6.51689971
_cell_length_c   10.36442000
_cell_angle_alpha   90.00000000
_cell_angle_beta   90.00000000
_cell_angle_gamma   104.11049854
_symmetry_Int_Tables_number   1
_chemical_formula_structural   Tb3TmIn4
_chemical_formula_sum   'Tb6 Tm2 In8'
_cell_volume   426.89539042
_cell_formula_units_Z   2
loop_
 _symmetry_equiv_pos_site_id
 _symmetry_equiv_pos_as_xyz
  1  'x, y, z'
loop_
 _atom_site_type_symbol
 _atom_site_label
 _atom_site_symmetry_multiplicity
 _atom_site_fract_x
 _atom_site_fract_y
 _atom_site_fract_z
 _atom_site_occupancy
  Tb  Tb0  1  0.524248  0.524248  0.250000  1
  Tb  Tb1  1  0.475752  0.475752  0.750000  1
  Tb  Tb2  1  0.247710  0.752290  0.500000  1
  Tb  Tb3  1  0.247710  0.752290  0.000000  1
  Tb  Tb4  1  0.752290  0.247710  0.500000  1
  Tb  Tb5  1  0.752290  0.247710  0.000000  1
  Tm  Tm6  1  0.982373  0.982373  0.250000  1
  Tm  Tm7  1  0.017627  0.017627  0.750000  1
  In  In8  1  0.250627  0.250627  0.013181  1
  In  In9  1  0.749373  0.749373  0.986819  1
  In  In10  1  0.250627  0.250627  0.486819  1
  In  In11  1  0.749373  0.749373  0.513181  1
  In  In12  1  0.486540  0.014495  0.250000  1
  In  In13  1  0.985505  0.513460  0.750000  1
  In  In14  1  0.513460  0.985505  0.750000  1
  In  In15  1  0.014495  0.486540  0.250000  1
