# generated using pymatgen
data_Lu15ThMgIn3Rh4
_symmetry_space_group_name_H-M   'P 1'
_cell_length_a   9.46796388
_cell_length_b   9.46796623
_cell_length_c   9.46796565
_cell_angle_alpha   60.47332903
_cell_angle_beta   60.47332693
_cell_angle_gamma   60.47333109
_symmetry_Int_Tables_number   1
_chemical_formula_structural   Lu15ThMgIn3Rh4
_chemical_formula_sum   'Lu15 Th1 Mg1 In3 Rh4'
_cell_volume   606.56426965
_cell_formula_units_Z   1
loop_
 _symmetry_equiv_pos_site_id
 _symmetry_equiv_pos_as_xyz
  1  'x, y, z'
loop_
 _atom_site_type_symbol
 _atom_site_label
 _atom_site_symmetry_multiplicity
 _atom_site_fract_x
 _atom_site_fract_y
 _atom_site_fract_z
 _atom_site_occupancy
  Lu  Lu0  1  0.603301  0.603301  0.193377  1
  Lu  Lu1  1  0.603301  0.193377  0.603301  1
  Lu  Lu2  1  0.193377  0.603301  0.603301  1
  Lu  Lu3  1  0.062646  0.438863  0.438863  1
  Lu  Lu4  1  0.440478  0.062327  0.062327  1
  Lu  Lu5  1  0.438863  0.062646  0.438863  1
  Lu  Lu6  1  0.062327  0.440478  0.062327  1
  Lu  Lu7  1  0.438863  0.438863  0.062646  1
  Lu  Lu8  1  0.062327  0.062327  0.440478  1
  Lu  Lu9  1  0.182911  0.818100  0.818100  1
  Lu  Lu10  1  0.813800  0.190378  0.190378  1
  Lu  Lu11  1  0.818100  0.182911  0.818100  1
  Lu  Lu12  1  0.190378  0.813800  0.190378  1
  Lu  Lu13  1  0.818100  0.818100  0.182911  1
  Lu  Lu14  1  0.190378  0.190378  0.813800  1
  Th  Th15  1  0.593915  0.593915  0.593915  1
  Mg  Mg16  1  0.828449  0.828449  0.828449  1
  In  In17  1  0.833442  0.833442  0.497709  1
  In  In18  1  0.833442  0.497709  0.833442  1
  In  In19  1  0.497709  0.833442  0.833442  1
  Rh  Rh20  1  0.394467  0.394467  0.394467  1
  Rh  Rh21  1  0.388217  0.388217  0.822992  1
  Rh  Rh22  1  0.388217  0.822992  0.388217  1
  Rh  Rh23  1  0.822992  0.388217  0.388217  1
