# generated using pymatgen
data_Ce2(DyAu2)5
_symmetry_space_group_name_H-M   'P 1'
_cell_length_a   8.80417100
_cell_length_b   8.80417090
_cell_length_c   10.47865100
_cell_angle_alpha   90.00000000
_cell_angle_beta   90.00000000
_cell_angle_gamma   107.05095401
_symmetry_Int_Tables_number   1
_chemical_formula_structural   Ce2(DyAu2)5
_chemical_formula_sum   'Ce4 Dy10 Au20'
_cell_volume   776.53378687
_cell_formula_units_Z   2
loop_
 _symmetry_equiv_pos_site_id
 _symmetry_equiv_pos_as_xyz
  1  'x, y, z'
loop_
 _atom_site_type_symbol
 _atom_site_label
 _atom_site_symmetry_multiplicity
 _atom_site_fract_x
 _atom_site_fract_y
 _atom_site_fract_z
 _atom_site_occupancy
  Ce  Ce0  1  0.309909  0.309909  0.192038  1
  Ce  Ce1  1  0.690091  0.690091  0.807962  1
  Ce  Ce2  1  0.190091  0.190091  0.692038  1
  Ce  Ce3  1  0.809909  0.809909  0.307962  1
  Dy  Dy4  1  0.695470  0.304530  0.000000  1
  Dy  Dy5  1  0.304530  0.695470  0.000000  1
  Dy  Dy6  1  0.804530  0.195470  0.500000  1
  Dy  Dy7  1  0.195470  0.804530  0.500000  1
  Dy  Dy8  1  0.000000  0.000000  0.000000  1
  Dy  Dy9  1  0.500000  0.500000  0.500000  1
  Dy  Dy10  1  0.002535  0.502535  0.250000  1
  Dy  Dy11  1  0.997465  0.497465  0.750000  1
  Dy  Dy12  1  0.497465  0.997465  0.750000  1
  Dy  Dy13  1  0.502535  0.002535  0.250000  1
  Au  Au14  1  0.861302  0.153142  0.209070  1
  Au  Au15  1  0.138698  0.846858  0.790930  1
  Au  Au16  1  0.638698  0.346858  0.709070  1
  Au  Au17  1  0.653142  0.361302  0.290930  1
  Au  Au18  1  0.361302  0.653142  0.290930  1
  Au  Au19  1  0.346858  0.638698  0.709070  1
  Au  Au20  1  0.846858  0.138698  0.790930  1
  Au  Au21  1  0.153142  0.861302  0.209070  1
  Au  Au22  1  0.938399  0.644439  0.005298  1
  Au  Au23  1  0.061601  0.355561  0.994702  1
  Au  Au24  1  0.561601  0.855561  0.505298  1
  Au  Au25  1  0.144439  0.438399  0.494702  1
  Au  Au26  1  0.438399  0.144439  0.494702  1
  Au  Au27  1  0.855561  0.561601  0.505298  1
  Au  Au28  1  0.355561  0.061601  0.994702  1
  Au  Au29  1  0.644439  0.938399  0.005298  1
  Au  Au30  1  0.101457  0.101457  0.401851  1
  Au  Au31  1  0.898543  0.898543  0.598149  1
  Au  Au32  1  0.398543  0.398543  0.901851  1
  Au  Au33  1  0.601457  0.601457  0.098149  1
