# generated using pymatgen
data_BaAl9FeCo
_symmetry_space_group_name_H-M   'P 1'
_cell_length_a   7.99773300
_cell_length_b   7.99773329
_cell_length_c   3.95968400
_cell_angle_alpha   90.00000000
_cell_angle_beta   90.00000000
_cell_angle_gamma   120.00000293
_symmetry_Int_Tables_number   1
_chemical_formula_structural   BaAl9FeCo
_chemical_formula_sum   'Ba1 Al9 Fe1 Co1'
_cell_volume   219.34359955
_cell_formula_units_Z   1
loop_
 _symmetry_equiv_pos_site_id
 _symmetry_equiv_pos_as_xyz
  1  'x, y, z'
loop_
 _atom_site_type_symbol
 _atom_site_label
 _atom_site_symmetry_multiplicity
 _atom_site_fract_x
 _atom_site_fract_y
 _atom_site_fract_z
 _atom_site_occupancy
  Ba  Ba0  1  0.000000  0.000000  0.000000  1
  Al  Al1  1  0.499944  0.999889  0.000000  1
  Al  Al2  1  0.499944  0.500056  0.000000  1
  Al  Al3  1  0.000111  0.500056  0.000000  1
  Al  Al4  1  0.217237  0.434473  0.500000  1
  Al  Al5  1  0.784136  0.215864  0.500000  1
  Al  Al6  1  0.431727  0.215864  0.500000  1
  Al  Al7  1  0.565527  0.782763  0.500000  1
  Al  Al8  1  0.217237  0.782763  0.500000  1
  Al  Al9  1  0.784136  0.568273  0.500000  1
  Fe  Fe10  1  0.333333  0.666667  0.000000  1
  Co  Co11  1  0.666667  0.333333  0.000000  1
