# generated using pymatgen
data_Lu4Zr2WO12
_symmetry_space_group_name_H-M   'P 1'
_cell_length_a   6.26776872
_cell_length_b   6.32060651
_cell_length_c   6.43225547
_cell_angle_alpha   100.18058080
_cell_angle_beta   99.08749535
_cell_angle_gamma   99.22720961
_symmetry_Int_Tables_number   1
_chemical_formula_structural   Lu4Zr2WO12
_chemical_formula_sum   'Lu4 Zr2 W1 O12'
_cell_volume   242.96983147
_cell_formula_units_Z   1
loop_
 _symmetry_equiv_pos_site_id
 _symmetry_equiv_pos_as_xyz
  1  'x, y, z'
loop_
 _atom_site_type_symbol
 _atom_site_label
 _atom_site_symmetry_multiplicity
 _atom_site_fract_x
 _atom_site_fract_y
 _atom_site_fract_z
 _atom_site_occupancy
  Lu  Lu0  1  0.391130  0.698468  0.864133  1
  Lu  Lu1  1  0.695679  0.864548  0.392001  1
  Lu  Lu2  1  0.608870  0.301532  0.135867  1
  Lu  Lu3  1  0.304321  0.135452  0.607999  1
  Zr  Zr4  1  0.850864  0.394103  0.678161  1
  Zr  Zr5  1  0.149136  0.605897  0.321839  1
  W  W6  1  0.000000  0.000000  0.000000  1
  O  O7  1  0.037219  0.680869  0.903764  1
  O  O8  1  0.687076  0.926760  0.059259  1
  O  O9  1  0.923769  0.079910  0.687053  1
  O  O10  1  0.962781  0.319131  0.096236  1
  O  O11  1  0.312924  0.073240  0.940741  1
  O  O12  1  0.076231  0.920090  0.312947  1
  O  O13  1  0.583816  0.183687  0.430260  1
  O  O14  1  0.176406  0.430396  0.575952  1
  O  O15  1  0.418908  0.581192  0.176816  1
  O  O16  1  0.416184  0.816313  0.569740  1
  O  O17  1  0.823594  0.569604  0.424048  1
  O  O18  1  0.581092  0.418808  0.823184  1
