# generated using pymatgen
data_Ac3(In2Pt)2
_symmetry_space_group_name_H-M   'P 1'
_cell_length_a   7.97282200
_cell_length_b   7.97282339
_cell_length_c   4.51202600
_cell_angle_alpha   90.00000000
_cell_angle_beta   90.00000000
_cell_angle_gamma   120.00000141
_symmetry_Int_Tables_number   1
_chemical_formula_structural   Ac3(In2Pt)2
_chemical_formula_sum   'Ac3 In4 Pt2'
_cell_volume   248.38560977
_cell_formula_units_Z   1
loop_
 _symmetry_equiv_pos_site_id
 _symmetry_equiv_pos_as_xyz
  1  'x, y, z'
loop_
 _atom_site_type_symbol
 _atom_site_label
 _atom_site_symmetry_multiplicity
 _atom_site_fract_x
 _atom_site_fract_y
 _atom_site_fract_z
 _atom_site_occupancy
  Ac  Ac0  1  0.688556  0.938289  0.500000  1
  Ac  Ac1  1  0.249733  0.311444  0.500000  1
  Ac  Ac2  1  0.061711  0.750267  0.500000  1
  In  In3  1  0.903480  0.333373  0.000000  1
  In  In4  1  0.429894  0.096520  0.000000  1
  In  In5  1  0.666627  0.570106  0.000000  1
  In  In6  1  0.333333  0.666667  0.000000  1
  Pt  Pt7  1  0.666667  0.333333  0.500000  1
  Pt  Pt8  1  0.000000  0.000000  0.000000  1
