# generated using pymatgen
data_Ti6NbVAs6
_symmetry_space_group_name_H-M   'P 1'
_cell_length_a   7.30836537
_cell_length_b   7.30836487
_cell_length_c   18.76438600
_cell_angle_alpha   90.00000000
_cell_angle_beta   90.00000000
_cell_angle_gamma   152.13659391
_symmetry_Int_Tables_number   1
_chemical_formula_structural   Ti6NbVAs6
_chemical_formula_sum   'Ti12 Nb2 V2 As12'
_cell_volume   468.41551257
_cell_formula_units_Z   2
loop_
 _symmetry_equiv_pos_site_id
 _symmetry_equiv_pos_as_xyz
  1  'x, y, z'
loop_
 _atom_site_type_symbol
 _atom_site_label
 _atom_site_symmetry_multiplicity
 _atom_site_fract_x
 _atom_site_fract_y
 _atom_site_fract_z
 _atom_site_occupancy
  Ti  Ti0  1  0.733287  0.266713  0.159929  1
  Ti  Ti1  1  0.266713  0.733287  0.840071  1
  Ti  Ti2  1  0.266713  0.733287  0.659929  1
  Ti  Ti3  1  0.733287  0.266713  0.340071  1
  Ti  Ti4  1  0.533597  0.466403  0.117531  1
  Ti  Ti5  1  0.466403  0.533597  0.882469  1
  Ti  Ti6  1  0.466403  0.533597  0.617531  1
  Ti  Ti7  1  0.533597  0.466403  0.382469  1
  Ti  Ti8  1  0.663544  0.336456  0.973947  1
  Ti  Ti9  1  0.336456  0.663544  0.026053  1
  Ti  Ti10  1  0.336456  0.663544  0.473947  1
  Ti  Ti11  1  0.663544  0.336456  0.526053  1
  Nb  Nb12  1  0.060448  0.939552  0.750000  1
  Nb  Nb13  1  0.939552  0.060448  0.250000  1
  V  V14  1  0.000000  0.000000  0.000000  1
  V  V15  1  0.000000  0.000000  0.500000  1
  As  As16  1  0.416488  0.583512  0.750000  1
  As  As17  1  0.583512  0.416488  0.250000  1
  As  As18  1  0.703459  0.296541  0.750000  1
  As  As19  1  0.296541  0.703459  0.250000  1
  As  As20  1  0.901768  0.098232  0.114366  1
  As  As21  1  0.098232  0.901768  0.885634  1
  As  As22  1  0.098232  0.901768  0.614366  1
  As  As23  1  0.901768  0.098232  0.385634  1
  As  As24  1  0.841364  0.158636  0.925466  1
  As  As25  1  0.158636  0.841364  0.074534  1
  As  As26  1  0.158636  0.841364  0.425466  1
  As  As27  1  0.841364  0.158636  0.574534  1
