# generated using pymatgen
data_Li14(Pd7O16)3
_symmetry_space_group_name_H-M   'P 1'
_cell_length_a   6.12472415
_cell_length_b   6.12472395
_cell_length_c   29.96767100
_cell_angle_alpha   89.94185034
_cell_angle_beta   89.94185034
_cell_angle_gamma   60.01494073
_symmetry_Int_Tables_number   1
_chemical_formula_structural   Li14(Pd7O16)3
_chemical_formula_sum   'Li14 Pd21 O48'
_cell_volume   973.69231719
_cell_formula_units_Z   1
loop_
 _symmetry_equiv_pos_site_id
 _symmetry_equiv_pos_as_xyz
  1  'x, y, z'
loop_
 _atom_site_type_symbol
 _atom_site_label
 _atom_site_symmetry_multiplicity
 _atom_site_fract_x
 _atom_site_fract_y
 _atom_site_fract_z
 _atom_site_occupancy
  Li  Li0  1  0.666676  0.666676  0.160778  1
  Li  Li1  1  0.666697  0.666697  0.042974  1
  Li  Li2  1  0.333325  0.333325  0.331206  1
  Li  Li3  1  0.333489  0.333489  0.214374  1
  Li  Li4  1  0.000096  0.000096  0.187921  1
  Li  Li5  1  0.999988  0.999988  0.376974  1
  Li  Li6  1  0.999666  0.999666  0.493751  1
  Li  Li7  1  0.659959  0.659959  0.669998  1
  Li  Li8  1  0.666257  0.666257  0.549542  1
  Li  Li9  1  0.350527  0.350527  0.710102  1
  Li  Li10  1  0.332533  0.332533  0.521184  1
  Li  Li11  1  0.316882  0.316882  0.831099  1
  Li  Li12  1  0.005733  0.005733  0.870346  1
  Li  Li13  1  0.833588  0.833588  0.769999  1
  Pd  Pd14  1  0.165125  0.670133  0.106274  1
  Pd  Pd15  1  0.670133  0.165125  0.106274  1
  Pd  Pd16  1  0.333924  0.333924  0.021585  1
  Pd  Pd17  1  0.165104  0.165104  0.106246  1
  Pd  Pd18  1  0.835389  0.329391  0.269951  1
  Pd  Pd19  1  0.329391  0.835389  0.269951  1
  Pd  Pd20  1  0.497848  0.003886  0.438418  1
  Pd  Pd21  1  0.835382  0.835382  0.269949  1
  Pd  Pd22  1  0.003886  0.497848  0.438418  1
  Pd  Pd23  1  0.666640  0.666640  0.354204  1
  Pd  Pd24  1  0.167651  0.663623  0.603083  1
  Pd  Pd25  1  0.497885  0.497885  0.438414  1
  Pd  Pd26  1  0.663623  0.167651  0.603083  1
  Pd  Pd27  1  0.167261  0.167261  0.603064  1
  Pd  Pd28  1  0.833483  0.332955  0.770134  1
  Pd  Pd29  1  0.332955  0.833483  0.770134  1
  Pd  Pd30  1  0.999161  0.999161  0.687478  1
  Pd  Pd31  1  0.499915  0.001411  0.937136  1
  Pd  Pd32  1  0.001411  0.499915  0.937136  1
  Pd  Pd33  1  0.667432  0.667432  0.852361  1
  Pd  Pd34  1  0.500381  0.500381  0.937196  1
  O  O35  1  0.483333  0.483333  0.065960  1
  O  O36  1  0.034344  0.483218  0.065892  1
  O  O37  1  0.333322  0.333322  0.140653  1
  O  O38  1  0.483218  0.034344  0.065892  1
  O  O39  1  0.152127  0.152127  0.233308  1
  O  O40  1  0.847912  0.304318  0.142907  1
  O  O41  1  0.304318  0.847912  0.142907  1
  O  O42  1  0.000009  0.000009  0.306626  1
  O  O43  1  0.696044  0.152216  0.233335  1
  O  O44  1  0.000166  0.000166  0.071982  1
  O  O45  1  0.152216  0.696044  0.233335  1
  O  O46  1  0.847859  0.847859  0.142927  1
  O  O47  1  0.816585  0.816585  0.398024  1
  O  O48  1  0.516545  0.966762  0.310348  1
  O  O49  1  0.966762  0.516545  0.310348  1
  O  O50  1  0.666282  0.666282  0.473084  1
  O  O51  1  0.666747  0.666747  0.235208  1
  O  O52  1  0.366623  0.816634  0.398026  1
  O  O53  1  0.516644  0.516644  0.310367  1
  O  O54  1  0.816634  0.366622  0.398026  1
  O  O55  1  0.483986  0.483986  0.566204  1
  O  O56  1  0.181209  0.637073  0.475037  1
  O  O57  1  0.637073  0.181209  0.475037  1
  O  O58  1  0.333472  0.333472  0.401758  1
  O  O59  1  0.028215  0.485475  0.566378  1
  O  O60  1  0.332734  0.332734  0.638165  1
  O  O61  1  0.485475  0.028215  0.566378  1
  O  O62  1  0.181102  0.181102  0.475047  1
  O  O63  1  0.148938  0.148938  0.731102  1
  O  O64  1  0.848442  0.301296  0.642679  1
  O  O65  1  0.301296  0.848442  0.642679  1
  O  O66  1  0.007333  0.007333  0.806235  1
  O  O67  1  0.703638  0.158296  0.728986  1
  O  O68  1  0.999494  0.999494  0.568604  1
  O  O69  1  0.158296  0.703638  0.728986  1
  O  O70  1  0.850825  0.850825  0.643681  1
  O  O71  1  0.508112  0.963316  0.811416  1
  O  O72  1  0.814889  0.814889  0.896790  1
  O  O73  1  0.963316  0.508112  0.811416  1
  O  O74  1  0.666321  0.666321  0.973123  1
  O  O75  1  0.659381  0.659381  0.734322  1
  O  O76  1  0.367076  0.817045  0.897860  1
  O  O77  1  0.817045  0.367076  0.897860  1
  O  O78  1  0.517677  0.517677  0.809268  1
  O  O79  1  0.188041  0.625783  0.976638  1
  O  O80  1  0.625783  0.188041  0.976638  1
  O  O81  1  0.335150  0.335150  0.901166  1
  O  O82  1  0.188597  0.188597  0.976656  1
