# generated using pymatgen
data_Sc4UFeCo5Si
_symmetry_space_group_name_H-M   'P 1'
_cell_length_a   5.16902509
_cell_length_b   5.16902578
_cell_length_c   7.56933258
_cell_angle_alpha   90.86900959
_cell_angle_beta   89.13098862
_cell_angle_gamma   120.03159042
_symmetry_Int_Tables_number   1
_chemical_formula_structural   Sc4UFeCo5Si
_chemical_formula_sum   'Sc4 U1 Fe1 Co5 Si1'
_cell_volume   175.06552683
_cell_formula_units_Z   1
loop_
 _symmetry_equiv_pos_site_id
 _symmetry_equiv_pos_as_xyz
  1  'x, y, z'
loop_
 _atom_site_type_symbol
 _atom_site_label
 _atom_site_symmetry_multiplicity
 _atom_site_fract_x
 _atom_site_fract_y
 _atom_site_fract_z
 _atom_site_occupancy
  Sc  Sc0  1  0.329084  0.670916  0.573493  1
  Sc  Sc1  1  0.664580  0.335420  0.423868  1
  Sc  Sc2  1  0.667824  0.332176  0.045600  1
  Sc  Sc3  1  0.335864  0.664136  0.953144  1
  U  U4  1  0.991693  0.008307  0.505472  1
  Fe  Fe5  1  0.835144  0.164856  0.741319  1
  Co  Co6  1  0.663436  0.831837  0.250416  1
  Co  Co7  1  0.168017  0.831983  0.251130  1
  Co  Co8  1  0.833914  0.658904  0.752253  1
  Co  Co9  1  0.168163  0.336564  0.250416  1
  Co  Co10  1  0.341096  0.166086  0.752253  1
  Si  Si11  1  0.001186  0.998814  0.000637  1
