# generated using pymatgen
data_Zn2InGeRh4
_symmetry_space_group_name_H-M   'P 1'
_cell_length_a   7.56485557
_cell_length_b   7.56485603
_cell_length_c   7.56485833
_cell_angle_alpha   33.53914996
_cell_angle_beta   33.53914226
_cell_angle_gamma   33.53916107
_symmetry_Int_Tables_number   1
_chemical_formula_structural   Zn2InGeRh4
_chemical_formula_sum   'Zn2 In1 Ge1 Rh4'
_cell_volume   117.70830708
_cell_formula_units_Z   1
loop_
 _symmetry_equiv_pos_site_id
 _symmetry_equiv_pos_as_xyz
  1  'x, y, z'
loop_
 _atom_site_type_symbol
 _atom_site_label
 _atom_site_symmetry_multiplicity
 _atom_site_fract_x
 _atom_site_fract_y
 _atom_site_fract_z
 _atom_site_occupancy
  Zn  Zn0  1  0.252710  0.252710  0.252710  1
  Zn  Zn1  1  0.747290  0.747290  0.747290  1
  In  In2  1  0.000000  0.000000  0.000000  1
  Ge  Ge3  1  0.500000  0.500000  0.500000  1
  Rh  Rh4  1  0.382277  0.382277  0.382277  1
  Rh  Rh5  1  0.869862  0.869862  0.869862  1
  Rh  Rh6  1  0.617723  0.617723  0.617723  1
  Rh  Rh7  1  0.130138  0.130138  0.130138  1
