# generated using pymatgen
data_Ce2Fe16WC3
_symmetry_space_group_name_H-M   'P 1'
_cell_length_a   6.53983772
_cell_length_b   6.53983793
_cell_length_c   6.53983553
_cell_angle_alpha   83.41976620
_cell_angle_beta   83.41976882
_cell_angle_gamma   83.41977340
_symmetry_Int_Tables_number   1
_chemical_formula_structural   Ce2Fe16WC3
_chemical_formula_sum   'Ce2 Fe16 W1 C3'
_cell_volume   274.56953456
_cell_formula_units_Z   1
loop_
 _symmetry_equiv_pos_site_id
 _symmetry_equiv_pos_as_xyz
  1  'x, y, z'
loop_
 _atom_site_type_symbol
 _atom_site_label
 _atom_site_symmetry_multiplicity
 _atom_site_fract_x
 _atom_site_fract_y
 _atom_site_fract_z
 _atom_site_occupancy
  Ce  Ce0  1  0.353103  0.353103  0.353103  1
  Ce  Ce1  1  0.653173  0.653173  0.653173  1
  Fe  Fe2  1  0.903644  0.903644  0.903644  1
  Fe  Fe3  1  0.282501  0.714315  0.998041  1
  Fe  Fe4  1  0.998042  0.282500  0.714315  1
  Fe  Fe5  1  0.714315  0.998041  0.282501  1
  Fe  Fe6  1  0.714315  0.282501  0.998041  1
  Fe  Fe7  1  0.998041  0.714315  0.282501  1
  Fe  Fe8  1  0.282500  0.998042  0.714315  1
  Fe  Fe9  1  0.657513  0.657513  0.142264  1
  Fe  Fe10  1  0.142263  0.657513  0.657514  1
  Fe  Fe11  1  0.657513  0.142263  0.657514  1
  Fe  Fe12  1  0.342796  0.342796  0.859637  1
  Fe  Fe13  1  0.342795  0.859639  0.342795  1
  Fe  Fe14  1  0.859639  0.342795  0.342795  1
  Fe  Fe15  1  0.999693  0.999693  0.501574  1
  Fe  Fe16  1  0.501573  0.999694  0.999693  1
  Fe  Fe17  1  0.999694  0.501573  0.999693  1
  W  W18  1  0.095290  0.095290  0.095290  1
  C  C19  1  0.500499  0.500499  0.000604  1
  C  C20  1  0.000605  0.500497  0.500499  1
  C  C21  1  0.500497  0.000605  0.500499  1
