# generated using pymatgen
data_Zr6Ti4Al12Co3Pt4
_symmetry_space_group_name_H-M   'P 1'
_cell_length_a   8.73035682
_cell_length_b   8.73035594
_cell_length_c   8.71363399
_cell_angle_alpha   60.02702855
_cell_angle_beta   60.02702833
_cell_angle_gamma   59.88845415
_symmetry_Int_Tables_number   1
_chemical_formula_structural   Zr6Ti4Al12Co3Pt4
_chemical_formula_sum   'Zr6 Ti4 Al12 Co3 Pt4'
_cell_volume   469.41592037
_cell_formula_units_Z   1
loop_
 _symmetry_equiv_pos_site_id
 _symmetry_equiv_pos_as_xyz
  1  'x, y, z'
loop_
 _atom_site_type_symbol
 _atom_site_label
 _atom_site_symmetry_multiplicity
 _atom_site_fract_x
 _atom_site_fract_y
 _atom_site_fract_z
 _atom_site_occupancy
  Zr  Zr0  1  0.689395  0.309345  0.310624  1
  Zr  Zr1  1  0.690880  0.310167  0.689470  1
  Zr  Zr2  1  0.688866  0.688866  0.312148  1
  Zr  Zr3  1  0.310167  0.690880  0.689470  1
  Zr  Zr4  1  0.309345  0.689395  0.310624  1
  Zr  Zr5  1  0.311142  0.311142  0.687346  1
  Ti  Ti6  1  0.650134  0.112976  0.127067  1
  Ti  Ti7  1  0.112976  0.650134  0.127067  1
  Ti  Ti8  1  0.121052  0.121052  0.648668  1
  Ti  Ti9  1  0.114837  0.114837  0.117478  1
  Al  Al10  1  0.355302  0.883919  0.873035  1
  Al  Al11  1  0.883919  0.355302  0.873035  1
  Al  Al12  1  0.877791  0.877791  0.357349  1
  Al  Al13  1  0.883422  0.883422  0.880503  1
  Al  Al14  1  0.996793  0.338506  0.339461  1
  Al  Al15  1  0.338506  0.996793  0.339461  1
  Al  Al16  1  0.334701  0.334701  0.996855  1
  Al  Al17  1  0.330659  0.330659  0.342073  1
  Al  Al18  1  0.003264  0.660864  0.660175  1
  Al  Al19  1  0.660864  0.003264  0.660175  1
  Al  Al20  1  0.665490  0.665490  0.002755  1
  Al  Al21  1  0.669485  0.669485  0.656959  1
  Co  Co22  1  0.000119  0.000119  0.002286  1
  Co  Co23  1  0.497501  0.003878  0.496030  1
  Co  Co24  1  0.003878  0.497501  0.496030  1
  Pt  Pt25  1  0.499139  0.000450  0.001378  1
  Pt  Pt26  1  0.498888  0.498888  0.001927  1
  Pt  Pt27  1  0.000450  0.499139  0.001378  1
  Pt  Pt28  1  0.001034  0.001034  0.499172  1
