# generated using pymatgen
data_Ta3Be2B2W3
_symmetry_space_group_name_H-M   'P 1'
_cell_length_a   6.24104392
_cell_length_b   6.23442099
_cell_length_c   3.26290200
_cell_angle_alpha   90.00000000
_cell_angle_beta   90.00000000
_cell_angle_gamma   90.34913600
_symmetry_Int_Tables_number   1
_chemical_formula_structural   Ta3Be2B2W3
_chemical_formula_sum   'Ta3 Be2 B2 W3'
_cell_volume   126.95486000
_cell_formula_units_Z   1
loop_
 _symmetry_equiv_pos_site_id
 _symmetry_equiv_pos_as_xyz
  1  'x, y, z'
loop_
 _atom_site_type_symbol
 _atom_site_label
 _atom_site_symmetry_multiplicity
 _atom_site_fract_x
 _atom_site_fract_y
 _atom_site_fract_z
 _atom_site_occupancy
  Ta  Ta0  1  0.821939  0.673016  0.500000  1
  Ta  Ta1  1  0.179175  0.317663  0.500000  1
  Ta  Ta2  1  0.677026  0.180784  0.500000  1
  Be  Be3  1  0.116834  0.616197  0.000000  1
  Be  Be4  1  0.609724  0.885786  0.000000  1
  B  B5  1  0.384305  0.111333  0.000000  1
  B  B6  1  0.885308  0.383784  0.000000  1
  W  W7  1  0.001888  0.003051  0.000000  1
  W  W8  1  0.500037  0.498024  0.000000  1
  W  W9  1  0.323764  0.830361  0.500000  1
