# generated using pymatgen
data_Y5Lu3Tc2(B12Os)2
_symmetry_space_group_name_H-M   'P 1'
_cell_length_a   3.64523300
_cell_length_b   9.11574912
_cell_length_c   11.51127603
_cell_angle_alpha   89.94151773
_cell_angle_beta   90.00000000
_cell_angle_gamma   90.00000000
_symmetry_Int_Tables_number   1
_chemical_formula_structural   Y5Lu3Tc2(B12Os)2
_chemical_formula_sum   'Y5 Lu3 Tc2 B24 Os2'
_cell_volume   382.50833176
_cell_formula_units_Z   1
loop_
 _symmetry_equiv_pos_site_id
 _symmetry_equiv_pos_as_xyz
  1  'x, y, z'
loop_
 _atom_site_type_symbol
 _atom_site_label
 _atom_site_symmetry_multiplicity
 _atom_site_fract_x
 _atom_site_fract_y
 _atom_site_fract_z
 _atom_site_occupancy
  Y  Y0  1  0.000000  0.324185  0.415249  1
  Y  Y1  1  0.000000  0.675701  0.585164  1
  Y  Y2  1  0.000000  0.820477  0.087059  1
  Y  Y3  1  0.000000  0.179499  0.912586  1
  Y  Y4  1  0.000000  0.941915  0.371505  1
  Lu  Lu5  1  0.000000  0.058210  0.629595  1
  Lu  Lu6  1  0.000000  0.444018  0.129203  1
  Lu  Lu7  1  0.000000  0.556069  0.870446  1
  Tc  Tc8  1  0.000000  0.637238  0.319434  1
  Tc  Tc9  1  0.000000  0.361409  0.680642  1
  B  B10  1  0.500000  0.552740  0.432724  1
  B  B11  1  0.500000  0.446356  0.567537  1
  B  B12  1  0.500000  0.054421  0.066732  1
  B  B13  1  0.500000  0.945901  0.932734  1
  B  B14  1  0.500000  0.747875  0.418684  1
  B  B15  1  0.500000  0.250435  0.581713  1
  B  B16  1  0.500000  0.250708  0.081235  1
  B  B17  1  0.500000  0.749724  0.918467  1
  B  B18  1  0.500000  0.790716  0.264889  1
  B  B19  1  0.500000  0.207873  0.734729  1
  B  B20  1  0.500000  0.292235  0.233922  1
  B  B21  1  0.500000  0.708416  0.765808  1
  B  B22  1  0.500000  0.629786  0.184353  1
  B  B23  1  0.500000  0.369787  0.815386  1
  B  B24  1  0.500000  0.131440  0.313934  1
  B  B25  1  0.500000  0.870001  0.685625  1
  B  B26  1  0.500000  0.983138  0.211635  1
  B  B27  1  0.500000  0.017656  0.787383  1
  B  B28  1  0.500000  0.481666  0.286554  1
  B  B29  1  0.500000  0.518012  0.713293  1
  B  B30  1  0.500000  0.600728  0.027434  1
  B  B31  1  0.500000  0.399293  0.972282  1
  B  B32  1  0.500000  0.103065  0.472873  1
  B  B33  1  0.500000  0.898352  0.529905  1
  Os  Os34  1  0.000000  0.139095  0.177921  1
  Os  Os35  1  0.000000  0.861860  0.821365  1
