# generated using pymatgen
data_YbDy3Sb2(RhO7)2
_symmetry_space_group_name_H-M   'P 1'
_cell_length_a   7.31839027
_cell_length_b   7.21092336
_cell_length_c   7.31839112
_cell_angle_alpha   60.18409455
_cell_angle_beta   60.83938576
_cell_angle_gamma   60.18409427
_symmetry_Int_Tables_number   1
_chemical_formula_structural   YbDy3Sb2(RhO7)2
_chemical_formula_sum   'Yb1 Dy3 Sb2 Rh2 O14'
_cell_volume   275.55283862
_cell_formula_units_Z   1
loop_
 _symmetry_equiv_pos_site_id
 _symmetry_equiv_pos_as_xyz
  1  'x, y, z'
loop_
 _atom_site_type_symbol
 _atom_site_label
 _atom_site_symmetry_multiplicity
 _atom_site_fract_x
 _atom_site_fract_y
 _atom_site_fract_z
 _atom_site_occupancy
  Yb  Yb0  1  0.125000  0.625000  0.125000  1
  Dy  Dy1  1  0.125000  0.125000  0.625000  1
  Dy  Dy2  1  0.625000  0.125000  0.125000  1
  Dy  Dy3  1  0.125000  0.125000  0.125000  1
  Sb  Sb4  1  0.125000  0.625000  0.625000  1
  Sb  Sb5  1  0.625000  0.625000  0.125000  1
  Rh  Rh6  1  0.625000  0.625000  0.625000  1
  Rh  Rh7  1  0.625000  0.125000  0.625000  1
  O  O8  1  0.287111  0.710058  0.710554  1
  O  O9  1  0.534413  0.960803  0.962651  1
  O  O10  1  0.712154  0.287590  0.712154  1
  O  O11  1  0.287349  0.289197  0.715587  1
  O  O12  1  0.710554  0.710058  0.287111  1
  O  O13  1  0.996808  0.008557  0.996808  1
  O  O14  1  0.296383  0.706535  0.296383  1
  O  O15  1  0.953617  0.543465  0.953617  1
  O  O16  1  0.962651  0.960803  0.534413  1
  O  O17  1  0.539446  0.539942  0.962889  1
  O  O18  1  0.253192  0.241443  0.253192  1
  O  O19  1  0.537846  0.962410  0.537846  1
  O  O20  1  0.715587  0.289197  0.287349  1
  O  O21  1  0.962889  0.539942  0.539446  1
