# generated using pymatgen
data_La3Ga2Sn3
_symmetry_space_group_name_H-M   'P 1'
_cell_length_a   6.60096140
_cell_length_b   6.60096136
_cell_length_c   10.36056900
_cell_angle_alpha   90.00000000
_cell_angle_beta   90.00000000
_cell_angle_gamma   102.05365132
_symmetry_Int_Tables_number   1
_chemical_formula_structural   La3Ga2Sn3
_chemical_formula_sum   'La6 Ga4 Sn6'
_cell_volume   441.48478997
_cell_formula_units_Z   2
loop_
 _symmetry_equiv_pos_site_id
 _symmetry_equiv_pos_as_xyz
  1  'x, y, z'
loop_
 _atom_site_type_symbol
 _atom_site_label
 _atom_site_symmetry_multiplicity
 _atom_site_fract_x
 _atom_site_fract_y
 _atom_site_fract_z
 _atom_site_occupancy
  La  La0  1  0.639444  0.639444  0.250000  1
  La  La1  1  0.360556  0.360556  0.750000  1
  La  La2  1  0.796133  0.203867  0.000000  1
  La  La3  1  0.203867  0.796133  0.000000  1
  La  La4  1  0.203867  0.796133  0.500000  1
  La  La5  1  0.796133  0.203867  0.500000  1
  Ga  Ga6  1  0.310327  0.310327  0.046414  1
  Ga  Ga7  1  0.689673  0.689673  0.953586  1
  Ga  Ga8  1  0.689673  0.689673  0.546414  1
  Ga  Ga9  1  0.310327  0.310327  0.453586  1
  Sn  Sn10  1  0.091899  0.489682  0.250000  1
  Sn  Sn11  1  0.908101  0.510318  0.750000  1
  Sn  Sn12  1  0.489682  0.091899  0.250000  1
  Sn  Sn13  1  0.510318  0.908101  0.750000  1
  Sn  Sn14  1  0.027578  0.027578  0.250000  1
  Sn  Sn15  1  0.972422  0.972422  0.750000  1
