# generated using pymatgen
data_DyY5Al24(IrRu3)2
_symmetry_space_group_name_H-M   'P 1'
_cell_length_a   8.80694200
_cell_length_b   8.82736516
_cell_length_c   9.56019902
_cell_angle_alpha   90.11567511
_cell_angle_beta   90.00237066
_cell_angle_gamma   119.92250402
_symmetry_Int_Tables_number   1
_chemical_formula_structural   DyY5Al24(IrRu3)2
_chemical_formula_sum   'Dy1 Y5 Al24 Ir2 Ru6'
_cell_volume   644.15621618
_cell_formula_units_Z   1
loop_
 _symmetry_equiv_pos_site_id
 _symmetry_equiv_pos_as_xyz
  1  'x, y, z'
loop_
 _atom_site_type_symbol
 _atom_site_label
 _atom_site_symmetry_multiplicity
 _atom_site_fract_x
 _atom_site_fract_y
 _atom_site_fract_z
 _atom_site_occupancy
  Dy  Dy0  1  0.386203  0.192051  0.750114  1
  Y  Y1  1  0.194115  0.807951  0.249909  1
  Y  Y2  1  0.192566  0.385152  0.249227  1
  Y  Y3  1  0.613850  0.807968  0.249905  1
  Y  Y4  1  0.805835  0.192057  0.750088  1
  Y  Y5  1  0.807386  0.614798  0.750773  1
  Al  Al6  1  0.561734  0.438611  0.249192  1
  Al  Al7  1  0.561263  0.122518  0.250778  1
  Al  Al8  1  0.876862  0.438598  0.249213  1
  Al  Al9  1  0.438249  0.561367  0.750807  1
  Al  Al10  1  0.438720  0.877487  0.749222  1
  Al  Al11  1  0.123137  0.561401  0.750788  1
  Al  Al12  1  0.325701  0.162033  0.423193  1
  Al  Al13  1  0.836334  0.162043  0.423165  1
  Al  Al14  1  0.837430  0.674852  0.423365  1
  Al  Al15  1  0.674296  0.837964  0.576837  1
  Al  Al16  1  0.163686  0.837993  0.576863  1
  Al  Al17  1  0.162590  0.325130  0.576662  1
  Al  Al18  1  0.673773  0.836597  0.923306  1
  Al  Al19  1  0.162849  0.836645  0.923270  1
  Al  Al20  1  0.162886  0.325693  0.922787  1
  Al  Al21  1  0.326226  0.163404  0.076663  1
  Al  Al22  1  0.837169  0.163386  0.076702  1
  Al  Al23  1  0.837135  0.674291  0.077185  1
  Al  Al24  1  0.665455  0.330928  0.519536  1
  Al  Al25  1  0.334524  0.669063  0.480502  1
  Al  Al26  1  0.333542  0.667058  0.018774  1
  Al  Al27  1  0.666430  0.332927  0.981189  1
  Al  Al28  1  0.000305  0.000605  0.250028  1
  Al  Al29  1  0.999818  0.999455  0.749972  1
  Ir  Ir30  1  0.499992  0.499973  0.500021  1
  Ir  Ir31  1  0.000005  0.500001  0.499998  1
  Ru  Ru32  1  0.999984  0.999991  0.499979  1
  Ru  Ru33  1  0.999979  0.999989  0.000024  1
  Ru  Ru34  1  0.499989  0.000022  0.500025  1
  Ru  Ru35  1  0.499996  0.499974  0.999971  1
  Ru  Ru36  1  0.499988  0.000029  0.999965  1
  Ru  Ru37  1  0.999995  0.499995  0.000001  1
