# generated using pymatgen
data_GdDyEr(CdGa)3
_symmetry_space_group_name_H-M   'P 1'
_cell_length_a   7.28858420
_cell_length_b   7.27034387
_cell_length_c   4.41143900
_cell_angle_alpha   90.00000000
_cell_angle_beta   90.00000000
_cell_angle_gamma   120.32275855
_symmetry_Int_Tables_number   1
_chemical_formula_structural   GdDyEr(CdGa)3
_chemical_formula_sum   'Gd1 Dy1 Er1 Cd3 Ga3'
_cell_volume   201.78429470
_cell_formula_units_Z   1
loop_
 _symmetry_equiv_pos_site_id
 _symmetry_equiv_pos_as_xyz
  1  'x, y, z'
loop_
 _atom_site_type_symbol
 _atom_site_label
 _atom_site_symmetry_multiplicity
 _atom_site_fract_x
 _atom_site_fract_y
 _atom_site_fract_z
 _atom_site_occupancy
  Gd  Gd0  1  0.424781  0.424834  0.500000  1
  Dy  Dy1  1  0.000346  0.576420  0.500000  1
  Er  Er2  1  0.576924  0.000097  0.500000  1
  Cd  Cd3  1  0.750778  0.750790  0.000000  1
  Cd  Cd4  1  0.249399  0.999931  0.000000  1
  Cd  Cd5  1  0.999789  0.249171  0.000000  1
  Ga  Ga6  1  0.667631  0.330971  0.000000  1
  Ga  Ga7  1  0.333560  0.669664  0.000000  1
  Ga  Ga8  1  0.996793  0.998123  0.500000  1
