# generated using pymatgen
data_Ti3Si4MoIr4
_symmetry_space_group_name_H-M   'P 1'
_cell_length_a   3.85976600
_cell_length_b   6.28001579
_cell_length_c   7.23029023
_cell_angle_alpha   89.79784303
_cell_angle_beta   90.00000000
_cell_angle_gamma   90.00000000
_symmetry_Int_Tables_number   1
_chemical_formula_structural   Ti3Si4MoIr4
_chemical_formula_sum   'Ti3 Si4 Mo1 Ir4'
_cell_volume   175.25674414
_cell_formula_units_Z   1
loop_
 _symmetry_equiv_pos_site_id
 _symmetry_equiv_pos_as_xyz
  1  'x, y, z'
loop_
 _atom_site_type_symbol
 _atom_site_label
 _atom_site_symmetry_multiplicity
 _atom_site_fract_x
 _atom_site_fract_y
 _atom_site_fract_z
 _atom_site_occupancy
  Ti  Ti0  1  0.250000  0.524754  0.684514  1
  Ti  Ti1  1  0.750000  0.975184  0.175370  1
  Ti  Ti2  1  0.750000  0.474416  0.317376  1
  Si  Si3  1  0.250000  0.769833  0.376593  1
  Si  Si4  1  0.250000  0.263342  0.117453  1
  Si  Si5  1  0.750000  0.223069  0.628296  1
  Si  Si6  1  0.750000  0.738179  0.875937  1
  Mo  Mo7  1  0.250000  0.023494  0.826376  1
  Ir  Ir8  1  0.250000  0.157090  0.440157  1
  Ir  Ir9  1  0.250000  0.651084  0.065737  1
  Ir  Ir10  1  0.750000  0.843794  0.556948  1
  Ir  Ir11  1  0.750000  0.355762  0.935244  1
