# generated using pymatgen
data_Hf6Al9Si7IrOs6
_symmetry_space_group_name_H-M   'P 1'
_cell_length_a   8.59787217
_cell_length_b   8.63168119
_cell_length_c   8.63168100
_cell_angle_alpha   59.99999689
_cell_angle_beta   59.86983348
_cell_angle_gamma   59.86984266
_symmetry_Int_Tables_number   1
_chemical_formula_structural   Hf6Al9Si7IrOs6
_chemical_formula_sum   'Hf6 Al9 Si7 Ir1 Os6'
_cell_volume   452.07398064
_cell_formula_units_Z   1
loop_
 _symmetry_equiv_pos_site_id
 _symmetry_equiv_pos_as_xyz
  1  'x, y, z'
loop_
 _atom_site_type_symbol
 _atom_site_label
 _atom_site_symmetry_multiplicity
 _atom_site_fract_x
 _atom_site_fract_y
 _atom_site_fract_z
 _atom_site_occupancy
  Hf  Hf0  1  0.688281  0.311347  0.311347  1
  Hf  Hf1  1  0.311201  0.688722  0.688722  1
  Hf  Hf2  1  0.311201  0.688722  0.311353  1
  Hf  Hf3  1  0.688281  0.311347  0.689025  1
  Hf  Hf4  1  0.311201  0.311353  0.688722  1
  Hf  Hf5  1  0.688281  0.689025  0.311347  1
  Al  Al6  1  0.014367  0.661878  0.661878  1
  Al  Al7  1  0.123339  0.122824  0.122824  1
  Al  Al8  1  0.880076  0.877101  0.877101  1
  Al  Al9  1  0.123339  0.122824  0.631013  1
  Al  Al10  1  0.123339  0.631013  0.122824  1
  Al  Al11  1  0.880076  0.877101  0.365722  1
  Al  Al12  1  0.880076  0.365722  0.877101  1
  Al  Al13  1  0.629490  0.123503  0.123503  1
  Al  Al14  1  0.370441  0.876520  0.876520  1
  Si  Si15  1  0.344890  0.344951  0.344951  1
  Si  Si16  1  0.657235  0.654467  0.654467  1
  Si  Si17  1  0.344890  0.344951  0.965207  1
  Si  Si18  1  0.344890  0.965207  0.344951  1
  Si  Si19  1  0.657235  0.654467  0.033830  1
  Si  Si20  1  0.657235  0.033830  0.654467  1
  Si  Si21  1  0.966431  0.344522  0.344522  1
  Ir  Ir22  1  0.001000  0.999667  0.999667  1
  Os  Os23  1  0.501275  0.999622  0.999622  1
  Os  Os24  1  0.999793  0.496538  0.496538  1
  Os  Os25  1  0.999793  0.496538  0.007132  1
  Os  Os26  1  0.501275  0.999622  0.499482  1
  Os  Os27  1  0.999793  0.007132  0.496538  1
  Os  Os28  1  0.501275  0.499482  0.999622  1
