# generated using pymatgen
data_Tb6Er4Ru3Rh
_symmetry_space_group_name_H-M   'P 1'
_cell_length_a   6.35254103
_cell_length_b   7.28248623
_cell_length_c   8.47232835
_cell_angle_alpha   96.75653478
_cell_angle_beta   111.87427710
_cell_angle_gamma   90.05006741
_symmetry_Int_Tables_number   1
_chemical_formula_structural   Tb6Er4Ru3Rh
_chemical_formula_sum   'Tb6 Er4 Ru3 Rh1'
_cell_volume   360.77901530
_cell_formula_units_Z   1
loop_
 _symmetry_equiv_pos_site_id
 _symmetry_equiv_pos_as_xyz
  1  'x, y, z'
loop_
 _atom_site_type_symbol
 _atom_site_label
 _atom_site_symmetry_multiplicity
 _atom_site_fract_x
 _atom_site_fract_y
 _atom_site_fract_z
 _atom_site_occupancy
  Tb  Tb0  1  0.792418  0.581217  0.814373  1
  Tb  Tb1  1  0.980044  0.915802  0.189223  1
  Tb  Tb2  1  0.208975  0.414654  0.186695  1
  Tb  Tb3  1  0.024617  0.086710  0.814459  1
  Tb  Tb4  1  0.204219  0.683196  0.564392  1
  Tb  Tb5  1  0.642458  0.814924  0.432069  1
  Er  Er6  1  0.792493  0.314521  0.433759  1
  Er  Er7  1  0.357534  0.186909  0.564886  1
  Er  Er8  1  0.420724  0.749136  0.000688  1
  Er  Er9  1  0.579411  0.252209  0.001489  1
  Ru  Ru10  1  0.821744  0.575617  0.218658  1
  Ru  Ru11  1  0.397407  0.075859  0.221250  1
  Ru  Ru12  1  0.178518  0.423621  0.779039  1
  Rh  Rh13  1  0.599438  0.925622  0.779020  1
