# generated using pymatgen
data_Ce8Al8Si3Tc5
_symmetry_space_group_name_H-M   'P 1'
_cell_length_a   4.37781300
_cell_length_b   7.12473726
_cell_length_c   15.56132197
_cell_angle_alpha   89.24371169
_cell_angle_beta   90.00000000
_cell_angle_gamma   90.00000000
_symmetry_Int_Tables_number   1
_chemical_formula_structural   Ce8Al8Si3Tc5
_chemical_formula_sum   'Ce8 Al8 Si3 Tc5'
_cell_volume   485.32729107
_cell_formula_units_Z   1
loop_
 _symmetry_equiv_pos_site_id
 _symmetry_equiv_pos_as_xyz
  1  'x, y, z'
loop_
 _atom_site_type_symbol
 _atom_site_label
 _atom_site_symmetry_multiplicity
 _atom_site_fract_x
 _atom_site_fract_y
 _atom_site_fract_z
 _atom_site_occupancy
  Ce  Ce0  1  0.250000  0.157065  0.556735  1
  Ce  Ce1  1  0.750000  0.838310  0.445616  1
  Ce  Ce2  1  0.250000  0.681930  0.932273  1
  Ce  Ce3  1  0.750000  0.350732  0.050531  1
  Ce  Ce4  1  0.250000  0.046230  0.788218  1
  Ce  Ce5  1  0.750000  0.949623  0.214913  1
  Ce  Ce6  1  0.250000  0.557570  0.717430  1
  Ce  Ce7  1  0.750000  0.449467  0.283053  1
  Al  Al8  1  0.250000  0.128299  0.348894  1
  Al  Al9  1  0.750000  0.863243  0.657012  1
  Al  Al10  1  0.250000  0.629211  0.148594  1
  Al  Al11  1  0.750000  0.364891  0.845653  1
  Al  Al12  1  0.250000  0.006600  0.060856  1
  Al  Al13  1  0.750000  0.006503  0.938803  1
  Al  Al14  1  0.250000  0.500917  0.438519  1
  Al  Al15  1  0.750000  0.495841  0.561632  1
  Si  Si16  1  0.250000  0.246682  0.183796  1
  Si  Si17  1  0.750000  0.247990  0.684279  1
  Si  Si18  1  0.250000  0.743888  0.314287  1
  Tc  Tc19  1  0.750000  0.278804  0.415288  1
  Tc  Tc20  1  0.250000  0.723843  0.579708  1
  Tc  Tc21  1  0.750000  0.780846  0.084645  1
  Tc  Tc22  1  0.250000  0.222434  0.918725  1
  Tc  Tc23  1  0.750000  0.729081  0.830540  1
