# generated using pymatgen
data_Sc12Ru2PtI16
_symmetry_space_group_name_H-M   'P 1'
_cell_length_a   9.12458041
_cell_length_b   11.77768752
_cell_length_c   12.44647386
_cell_angle_alpha   117.26692703
_cell_angle_beta   101.23560125
_cell_angle_gamma   100.83335877
_symmetry_Int_Tables_number   1
_chemical_formula_structural   Sc12Ru2PtI16
_chemical_formula_sum   'Sc12 Ru2 Pt1 I16'
_cell_volume   1105.64033166
_cell_formula_units_Z   1
loop_
 _symmetry_equiv_pos_site_id
 _symmetry_equiv_pos_as_xyz
  1  'x, y, z'
loop_
 _atom_site_type_symbol
 _atom_site_label
 _atom_site_symmetry_multiplicity
 _atom_site_fract_x
 _atom_site_fract_y
 _atom_site_fract_z
 _atom_site_occupancy
  Sc  Sc0  1  0.090457  0.267770  0.357490  1
  Sc  Sc1  1  0.909543  0.732230  0.642510  1
  Sc  Sc2  1  0.777002  0.535844  0.328530  1
  Sc  Sc3  1  0.222998  0.464156  0.671470  1
  Sc  Sc4  1  0.280457  0.733205  0.642541  1
  Sc  Sc5  1  0.719543  0.266795  0.357459  1
  Sc  Sc6  1  0.147778  0.536240  0.328830  1
  Sc  Sc7  1  0.852222  0.463760  0.671170  1
  Sc  Sc8  1  0.407707  0.361404  0.278478  1
  Sc  Sc9  1  0.592293  0.638596  0.721522  1
  Sc  Sc10  1  0.459406  0.312493  0.520294  1
  Sc  Sc11  1  0.540594  0.687507  0.479706  1
  Ru  Ru12  1  0.336174  0.500283  0.499634  1
  Ru  Ru13  1  0.663827  0.499717  0.500366  1
  Pt  Pt14  1  0.000000  0.500000  0.500000  1
  I  I15  1  0.393874  0.744896  0.890849  1
  I  I16  1  0.606126  0.255104  0.109151  1
  I  I17  1  0.190768  0.972492  0.786294  1
  I  I18  1  0.809232  0.027508  0.213706  1
  I  I19  1  0.334686  0.087476  0.246910  1
  I  I20  1  0.665314  0.912524  0.753090  1
  I  I21  1  0.558898  0.436319  0.803617  1
  I  I22  1  0.441102  0.563681  0.196383  1
  I  I23  1  0.306474  0.832523  0.461614  1
  I  I24  1  0.693526  0.167477  0.538386  1
  I  I25  1  0.162517  0.167005  0.535045  1
  I  I26  1  0.837483  0.832995  0.464955  1
  I  I27  1  0.926092  0.578878  0.157125  1
  I  I28  1  0.073908  0.421122  0.842875  1
  I  I29  1  0.930691  0.743268  0.890945  1
  I  I30  1  0.069309  0.256732  0.109055  1
