# generated using pymatgen
data_Dy3Ho2IrRu
_symmetry_space_group_name_H-M   'P 1'
_cell_length_a   6.39766175
_cell_length_b   7.25936107
_cell_length_c   8.49340330
_cell_angle_alpha   96.72280369
_cell_angle_beta   112.12481154
_cell_angle_gamma   89.99999565
_symmetry_Int_Tables_number   1
_chemical_formula_structural   Dy3Ho2IrRu
_chemical_formula_sum   'Dy6 Ho4 Ir2 Ru2'
_cell_volume   362.48337038
_cell_formula_units_Z   2
loop_
 _symmetry_equiv_pos_site_id
 _symmetry_equiv_pos_as_xyz
  1  'x, y, z'
loop_
 _atom_site_type_symbol
 _atom_site_label
 _atom_site_symmetry_multiplicity
 _atom_site_fract_x
 _atom_site_fract_y
 _atom_site_fract_z
 _atom_site_occupancy
  Dy  Dy0  1  0.978320  0.917759  0.186089  1
  Dy  Dy1  1  0.792231  0.582241  0.813911  1
  Dy  Dy2  1  0.023882  0.084968  0.814660  1
  Dy  Dy3  1  0.209222  0.415032  0.185340  1
  Dy  Dy4  1  0.643335  0.816376  0.435555  1
  Dy  Dy5  1  0.207780  0.683624  0.564445  1
  Ho  Ho6  1  0.355308  0.185760  0.563617  1
  Ho  Ho7  1  0.791691  0.314240  0.436383  1
  Ho  Ho8  1  0.424436  0.750000  0.000000  1
  Ho  Ho9  1  0.575643  0.250000  0.000000  1
  Ir  Ir10  1  0.823103  0.575536  0.220850  1
  Ir  Ir11  1  0.602254  0.924464  0.779150  1
  Ru  Ru12  1  0.176018  0.424697  0.779242  1
  Ru  Ru13  1  0.396776  0.075303  0.220758  1
