# generated using pymatgen
data_Yb3Zr(Ga8Pt3)3
_symmetry_space_group_name_H-M   'P 1'
_cell_length_a   7.54533654
_cell_length_b   7.54911756
_cell_length_c   13.31708323
_cell_angle_alpha   84.58531296
_cell_angle_beta   79.24979468
_cell_angle_gamma   60.05289171
_symmetry_Int_Tables_number   1
_chemical_formula_structural   Yb3Zr(Ga8Pt3)3
_chemical_formula_sum   'Yb3 Zr1 Ga24 Pt9'
_cell_volume   645.73695206
_cell_formula_units_Z   1
loop_
 _symmetry_equiv_pos_site_id
 _symmetry_equiv_pos_as_xyz
  1  'x, y, z'
loop_
 _atom_site_type_symbol
 _atom_site_label
 _atom_site_symmetry_multiplicity
 _atom_site_fract_x
 _atom_site_fract_y
 _atom_site_fract_z
 _atom_site_occupancy
  Yb  Yb0  1  0.604355  0.832156  0.190471  1
  Yb  Yb1  1  0.731640  0.499951  0.808743  1
  Yb  Yb2  1  0.268826  0.500948  0.190498  1
  Zr  Zr3  1  0.396139  0.165348  0.811146  1
  Ga  Ga4  1  0.681404  0.834928  0.936570  1
  Ga  Ga5  1  0.317384  0.166739  0.059329  1
  Ga  Ga6  1  0.147811  0.831589  0.561212  1
  Ga  Ga7  1  0.851947  0.167584  0.440166  1
  Ga  Ga8  1  0.479078  0.166928  0.560005  1
  Ga  Ga9  1  0.520581  0.833400  0.442944  1
  Ga  Ga10  1  0.220719  0.165746  0.324863  1
  Ga  Ga11  1  0.774222  0.836275  0.679987  1
  Ga  Ga12  1  0.437033  0.500159  0.681002  1
  Ga  Ga13  1  0.561352  0.496610  0.324473  1
  Ga  Ga14  1  0.107969  0.163482  0.680402  1
  Ga  Ga15  1  0.891687  0.837174  0.325469  1
  Ga  Ga16  1  0.360413  0.493046  0.936242  1
  Ga  Ga17  1  0.644381  0.502612  0.058406  1
  Ga  Ga18  1  0.023339  0.172567  0.939603  1
  Ga  Ga19  1  0.982011  0.830970  0.053035  1
  Ga  Ga20  1  0.186571  0.498697  0.442954  1
  Ga  Ga21  1  0.813582  0.501524  0.558276  1
  Ga  Ga22  1  0.732642  0.165238  0.182055  1
  Ga  Ga23  1  0.266458  0.838009  0.817470  1
  Ga  Ga24  1  0.064215  0.626003  0.816477  1
  Ga  Ga25  1  0.937895  0.371320  0.181813  1
  Ga  Ga26  1  0.851110  0.041436  0.816253  1
  Ga  Ga27  1  0.143928  0.959900  0.181917  1
  Pt  Pt28  1  0.118598  0.493941  0.639676  1
  Pt  Pt29  1  0.880186  0.505576  0.361504  1
  Pt  Pt30  1  0.662687  0.169129  0.997280  1
  Pt  Pt31  1  0.340003  0.829985  0.998550  1
  Pt  Pt32  1  0.539351  0.166333  0.362384  1
  Pt  Pt33  1  0.459989  0.832482  0.639875  1
  Pt  Pt34  1  0.780675  0.174374  0.637866  1
  Pt  Pt35  1  0.218382  0.826904  0.363340  1
  Pt  Pt36  1  0.001440  0.500938  0.997744  1
