# generated using pymatgen
data_Sm2UFe2Ge7
_symmetry_space_group_name_H-M   'P 1'
_cell_length_a   12.58216065
_cell_length_b   12.58216028
_cell_length_c   4.22836100
_cell_angle_alpha   90.00000000
_cell_angle_beta   90.00000000
_cell_angle_gamma   160.42451654
_symmetry_Int_Tables_number   1
_chemical_formula_structural   Sm2UFe2Ge7
_chemical_formula_sum   'Sm2 U1 Fe2 Ge7'
_cell_volume   224.27976666
_cell_formula_units_Z   1
loop_
 _symmetry_equiv_pos_site_id
 _symmetry_equiv_pos_as_xyz
  1  'x, y, z'
loop_
 _atom_site_type_symbol
 _atom_site_label
 _atom_site_symmetry_multiplicity
 _atom_site_fract_x
 _atom_site_fract_y
 _atom_site_fract_z
 _atom_site_occupancy
  Sm  Sm0  1  0.315754  0.684246  0.500000  1
  Sm  Sm1  1  0.684246  0.315754  0.500000  1
  U  U2  1  0.000000  0.000000  0.000000  1
  Fe  Fe3  1  0.124081  0.875919  0.000000  1
  Fe  Fe4  1  0.875919  0.124081  0.000000  1
  Ge  Ge5  1  0.500000  0.500000  0.500000  1
  Ge  Ge6  1  0.219384  0.780616  0.000000  1
  Ge  Ge7  1  0.780616  0.219384  0.000000  1
  Ge  Ge8  1  0.413703  0.586297  0.000000  1
  Ge  Ge9  1  0.586297  0.413703  0.000000  1
  Ge  Ge10  1  0.085860  0.914140  0.500000  1
  Ge  Ge11  1  0.914140  0.085860  0.500000  1
