# generated using pymatgen
data_HoTm15In2(AgPd2)2
_symmetry_space_group_name_H-M   'P 1'
_cell_length_a   9.48649482
_cell_length_b   9.48159255
_cell_length_c   9.50739900
_cell_angle_alpha   59.93286792
_cell_angle_beta   59.92281172
_cell_angle_gamma   59.88374440
_symmetry_Int_Tables_number   1
_chemical_formula_structural   HoTm15In2(AgPd2)2
_chemical_formula_sum   'Ho1 Tm15 In2 Ag2 Pd4'
_cell_volume   603.49967243
_cell_formula_units_Z   1
loop_
 _symmetry_equiv_pos_site_id
 _symmetry_equiv_pos_as_xyz
  1  'x, y, z'
loop_
 _atom_site_type_symbol
 _atom_site_label
 _atom_site_symmetry_multiplicity
 _atom_site_fract_x
 _atom_site_fract_y
 _atom_site_fract_z
 _atom_site_occupancy
  Ho  Ho0  1  0.435223  0.072779  0.431211  1
  Tm  Tm1  1  0.435660  0.436349  0.062960  1
  Tm  Tm2  1  0.639306  0.638795  0.074486  1
  Tm  Tm3  1  0.188548  0.810929  0.188159  1
  Tm  Tm4  1  0.069689  0.437831  0.058166  1
  Tm  Tm5  1  0.188489  0.809697  0.809588  1
  Tm  Tm6  1  0.070864  0.436287  0.432012  1
  Tm  Tm7  1  0.812087  0.188461  0.187491  1
  Tm  Tm8  1  0.648764  0.648859  0.646559  1
  Tm  Tm9  1  0.810095  0.188181  0.809693  1
  Tm  Tm10  1  0.186661  0.186726  0.812778  1
  Tm  Tm11  1  0.073345  0.639387  0.641215  1
  Tm  Tm12  1  0.437918  0.068969  0.057596  1
  Tm  Tm13  1  0.064046  0.064875  0.436786  1
  Tm  Tm14  1  0.639446  0.073167  0.641289  1
  Tm  Tm15  1  0.809421  0.808365  0.190147  1
  In  In16  1  0.417085  0.744863  0.421912  1
  In  In17  1  0.745534  0.416849  0.421813  1
  Ag  Ag18  1  0.413702  0.415578  0.415856  1
  Ag  Ag19  1  0.414403  0.414164  0.756737  1
  Pd  Pd20  1  0.435695  0.854883  0.857608  1
  Pd  Pd21  1  0.851943  0.851906  0.854283  1
  Pd  Pd22  1  0.855289  0.435906  0.856746  1
  Pd  Pd23  1  0.856786  0.856193  0.434915  1
