# generated using pymatgen
data_Ta3GaCu2N
_symmetry_space_group_name_H-M   'P 1'
_cell_length_a   8.17895405
_cell_length_b   8.17895494
_cell_length_c   8.17895400
_cell_angle_alpha   60.00000379
_cell_angle_beta   60.00000021
_cell_angle_gamma   60.00000139
_symmetry_Int_Tables_number   1
_chemical_formula_structural   Ta3GaCu2N
_chemical_formula_sum   'Ta12 Ga4 Cu8 N4'
_cell_volume   386.88186194
_cell_formula_units_Z   4
loop_
 _symmetry_equiv_pos_site_id
 _symmetry_equiv_pos_as_xyz
  1  'x, y, z'
loop_
 _atom_site_type_symbol
 _atom_site_label
 _atom_site_symmetry_multiplicity
 _atom_site_fract_x
 _atom_site_fract_y
 _atom_site_fract_z
 _atom_site_occupancy
  Ta  Ta0  1  0.818530  0.818530  0.181470  1
  Ta  Ta1  1  0.181470  0.181470  0.818530  1
  Ta  Ta2  1  0.818530  0.181470  0.818530  1
  Ta  Ta3  1  0.181470  0.818530  0.181470  1
  Ta  Ta4  1  0.181470  0.818530  0.818530  1
  Ta  Ta5  1  0.818530  0.181470  0.181470  1
  Ta  Ta6  1  0.431470  0.431470  0.068530  1
  Ta  Ta7  1  0.068530  0.068530  0.431470  1
  Ta  Ta8  1  0.431470  0.068530  0.431470  1
  Ta  Ta9  1  0.068530  0.431470  0.068530  1
  Ta  Ta10  1  0.068530  0.431470  0.431470  1
  Ta  Ta11  1  0.431470  0.068530  0.068530  1
  Ga  Ga12  1  0.125000  0.625000  0.625000  1
  Ga  Ga13  1  0.625000  0.125000  0.625000  1
  Ga  Ga14  1  0.625000  0.625000  0.125000  1
  Ga  Ga15  1  0.625000  0.625000  0.625000  1
  Cu  Cu16  1  0.746167  0.417944  0.417944  1
  Cu  Cu17  1  0.417944  0.746167  0.417944  1
  Cu  Cu18  1  0.417944  0.417944  0.746167  1
  Cu  Cu19  1  0.417944  0.417944  0.417944  1
  Cu  Cu20  1  0.503833  0.832056  0.832056  1
  Cu  Cu21  1  0.832056  0.503833  0.832056  1
  Cu  Cu22  1  0.832056  0.832056  0.503833  1
  Cu  Cu23  1  0.832056  0.832056  0.832056  1
  N  N24  1  0.625000  0.125000  0.125000  1
  N  N25  1  0.125000  0.625000  0.125000  1
  N  N26  1  0.125000  0.125000  0.625000  1
  N  N27  1  0.125000  0.125000  0.125000  1
