# generated using pymatgen
data_KPdPt5O12
_symmetry_space_group_name_H-M   'P 1'
_cell_length_a   8.72122533
_cell_length_b   8.64145033
_cell_length_c   8.70010700
_cell_angle_alpha   107.48270932
_cell_angle_beta   107.83855697
_cell_angle_gamma   113.31560711
_symmetry_Int_Tables_number   1
_chemical_formula_structural   KPdPt5O12
_chemical_formula_sum   'K2 Pd2 Pt10 O24'
_cell_volume   502.09645741
_cell_formula_units_Z   2
loop_
 _symmetry_equiv_pos_site_id
 _symmetry_equiv_pos_as_xyz
  1  'x, y, z'
loop_
 _atom_site_type_symbol
 _atom_site_label
 _atom_site_symmetry_multiplicity
 _atom_site_fract_x
 _atom_site_fract_y
 _atom_site_fract_z
 _atom_site_occupancy
  K  K0  1  0.288841  0.286400  0.000089  1
  K  K1  1  0.720298  0.718797  0.006382  1
  Pd  Pd2  1  0.856237  0.330559  0.184804  1
  Pd  Pd3  1  0.995180  0.807788  0.471688  1
  Pt  Pt4  1  0.666149  0.849492  0.518481  1
  Pt  Pt5  1  0.488019  0.005589  0.819792  1
  Pt  Pt6  1  0.818860  0.335647  0.817673  1
  Pt  Pt7  1  0.517930  0.999914  0.185911  1
  Pt  Pt8  1  0.660140  0.479617  0.481705  1
  Pt  Pt9  1  0.333030  0.149966  0.483534  1
  Pt  Pt10  1  0.333545  0.519573  0.522484  1
  Pt  Pt11  1  0.001224  0.182619  0.518621  1
  Pt  Pt12  1  0.146413  0.668906  0.814088  1
  Pt  Pt13  1  0.185248  0.665522  0.181408  1
  O  O14  1  0.678063  0.049735  0.724212  1
  O  O15  1  0.322017  0.968212  0.951879  1
  O  O16  1  0.659729  0.300607  0.951418  1
  O  O17  1  0.713771  0.988528  0.370451  1
  O  O18  1  0.618766  0.340583  0.629995  1
  O  O19  1  0.294945  0.010567  0.628918  1
  O  O20  1  0.677033  0.028167  0.053951  1
  O  O21  1  0.329182  0.955288  0.283844  1
  O  O22  1  0.656821  0.285847  0.285168  1
  O  O23  1  0.298885  0.349179  0.650372  1
  O  O24  1  0.959070  0.006940  0.639578  1
  O  O25  1  0.630243  0.685445  0.649717  1
  O  O26  1  0.039939  0.991319  0.353380  1
  O  O27  1  0.674957  0.637036  0.345330  1
  O  O28  1  0.365238  0.321571  0.355736  1
  O  O29  1  0.002409  0.380565  0.715427  1
  O  O30  1  0.338192  0.716435  0.721715  1
  O  O31  1  0.987920  0.633842  0.949451  1
  O  O32  1  0.377908  0.663147  0.378346  1
  O  O33  1  0.050451  0.329008  0.379509  1
  O  O34  1  0.946471  0.667799  0.621083  1
  O  O35  1  0.028373  0.373041  0.038566  1
  O  O36  1  0.347300  0.699706  0.046222  1
  O  O37  1  0.991201  0.617050  0.269072  1
