# generated using pymatgen
data_Sc6AlIn5Au6
_symmetry_space_group_name_H-M   'P 1'
_cell_length_a   7.67666365
_cell_length_b   7.65168337
_cell_length_c   7.25099250
_cell_angle_alpha   89.99999989
_cell_angle_beta   89.90862680
_cell_angle_gamma   119.89242024
_symmetry_Int_Tables_number   1
_chemical_formula_structural   Sc6AlIn5Au6
_chemical_formula_sum   'Sc6 Al1 In5 Au6'
_cell_volume   369.25520918
_cell_formula_units_Z   1
loop_
 _symmetry_equiv_pos_site_id
 _symmetry_equiv_pos_as_xyz
  1  'x, y, z'
loop_
 _atom_site_type_symbol
 _atom_site_label
 _atom_site_symmetry_multiplicity
 _atom_site_fract_x
 _atom_site_fract_y
 _atom_site_fract_z
 _atom_site_occupancy
  Sc  Sc0  1  0.598669  0.986787  0.751678  1
  Sc  Sc1  1  0.014464  0.609778  0.747519  1
  Sc  Sc2  1  0.387865  0.401931  0.748742  1
  Sc  Sc3  1  0.985536  0.595314  0.252481  1
  Sc  Sc4  1  0.612135  0.014066  0.251258  1
  Sc  Sc5  1  0.401331  0.388118  0.248322  1
  Al  Al6  1  0.000000  0.274235  0.500000  1
  In  In7  1  0.733756  0.731391  0.999601  1
  In  In8  1  0.266244  0.997635  0.000399  1
  In  In9  1  0.000000  0.276894  0.000000  1
  In  In10  1  0.719305  0.719579  0.499645  1
  In  In11  1  0.280695  0.000275  0.500355  1
  Au  Au12  1  0.000209  0.013586  0.737160  1
  Au  Au13  1  0.999791  0.013377  0.262840  1
  Au  Au14  1  0.663324  0.331795  0.970695  1
  Au  Au15  1  0.682116  0.329441  0.526423  1
  Au  Au16  1  0.317884  0.647326  0.473577  1
  Au  Au17  1  0.336676  0.668472  0.029305  1
