# generated using pymatgen
data_Dy2Lu2FeSi4Rh
_symmetry_space_group_name_H-M   'P 1'
_cell_length_a   5.59050019
_cell_length_b   5.59049974
_cell_length_c   9.93861907
_cell_angle_alpha   63.59641037
_cell_angle_beta   63.59641105
_cell_angle_gamma   43.57110065
_symmetry_Int_Tables_number   1
_chemical_formula_structural   Dy2Lu2FeSi4Rh
_chemical_formula_sum   'Dy2 Lu2 Fe1 Si4 Rh1'
_cell_volume   187.94824410
_cell_formula_units_Z   1
loop_
 _symmetry_equiv_pos_site_id
 _symmetry_equiv_pos_as_xyz
  1  'x, y, z'
loop_
 _atom_site_type_symbol
 _atom_site_label
 _atom_site_symmetry_multiplicity
 _atom_site_fract_x
 _atom_site_fract_y
 _atom_site_fract_z
 _atom_site_occupancy
  Dy  Dy0  1  0.811133  0.811133  0.108187  1
  Dy  Dy1  1  0.187496  0.187496  0.890163  1
  Lu  Lu2  1  0.999899  0.999899  0.326801  1
  Lu  Lu3  1  0.002255  0.002255  0.670742  1
  Fe  Fe4  1  0.271214  0.271214  0.378540  1
  Si  Si5  1  0.649099  0.649099  0.431490  1
  Si  Si6  1  0.362856  0.362856  0.557249  1
  Si  Si7  1  0.500585  0.500585  0.129969  1
  Si  Si8  1  0.486787  0.486787  0.879579  1
  Rh  Rh9  1  0.728678  0.728678  0.627279  1
