# generated using pymatgen
data_Sr2VBrO3
_symmetry_space_group_name_H-M   'P 1'
_cell_length_a   4.01059300
_cell_length_b   4.01059300
_cell_length_c   15.43005800
_cell_angle_alpha   90.00000000
_cell_angle_beta   90.00000000
_cell_angle_gamma   90.00000000
_symmetry_Int_Tables_number   1
_chemical_formula_structural   Sr2VBrO3
_chemical_formula_sum   'Sr4 V2 Br2 O6'
_cell_volume   248.19026427
_cell_formula_units_Z   2
loop_
 _symmetry_equiv_pos_site_id
 _symmetry_equiv_pos_as_xyz
  1  'x, y, z'
loop_
 _atom_site_type_symbol
 _atom_site_label
 _atom_site_symmetry_multiplicity
 _atom_site_fract_x
 _atom_site_fract_y
 _atom_site_fract_z
 _atom_site_occupancy
  Sr  Sr0  1  0.249999  0.249999  0.085209  1
  Sr  Sr1  1  0.249999  0.249999  0.321080  1
  Sr  Sr2  1  0.749999  0.749999  0.678919  1
  Sr  Sr3  1  0.749999  0.749999  0.914791  1
  V  V4  1  0.749999  0.749999  0.200847  1
  V  V5  1  0.249999  0.249999  0.799153  1
  Br  Br6  1  0.749999  0.749999  0.410306  1
  Br  Br7  1  0.249999  0.249999  0.589695  1
  O  O8  1  0.749999  0.749999  0.071098  1
  O  O9  1  0.749999  0.249999  0.217718  1
  O  O10  1  0.249999  0.749999  0.217718  1
  O  O11  1  0.749999  0.249999  0.782282  1
  O  O12  1  0.249999  0.749999  0.782282  1
  O  O13  1  0.249999  0.249999  0.928902  1
