# generated using pymatgen
data_RbLiNpTe3
_symmetry_space_group_name_H-M   'P 1'
_cell_length_a   4.44977000
_cell_length_b   8.63759125
_cell_length_c   11.70320300
_cell_angle_alpha   90.00000000
_cell_angle_beta   90.00000000
_cell_angle_gamma   75.07338597
_symmetry_Int_Tables_number   1
_chemical_formula_structural   RbLiNpTe3
_chemical_formula_sum   'Rb2 Li2 Np2 Te6'
_cell_volume   434.63770110
_cell_formula_units_Z   2
loop_
 _symmetry_equiv_pos_site_id
 _symmetry_equiv_pos_as_xyz
  1  'x, y, z'
loop_
 _atom_site_type_symbol
 _atom_site_label
 _atom_site_symmetry_multiplicity
 _atom_site_fract_x
 _atom_site_fract_y
 _atom_site_fract_z
 _atom_site_occupancy
  Rb  Rb0  1  0.743408  0.513181  0.250000  1
  Rb  Rb1  1  0.256592  0.486818  0.750000  1
  Li  Li2  1  0.465887  0.068225  0.250000  1
  Li  Li3  1  0.534113  0.931774  0.750000  1
  Np  Np4  1  0.000000  0.000000  0.000000  1
  Np  Np5  1  0.000000  0.000000  0.500000  1
  Te  Te6  1  0.378745  0.242510  0.054229  1
  Te  Te7  1  0.059641  0.880721  0.250000  1
  Te  Te8  1  0.378745  0.242510  0.445771  1
  Te  Te9  1  0.621254  0.757490  0.554229  1
  Te  Te10  1  0.940359  0.119279  0.750000  1
  Te  Te11  1  0.621254  0.757490  0.945771  1
