# generated using pymatgen
data_CaYAl20IrOs3
_symmetry_space_group_name_H-M   'P 1'
_cell_length_a   6.87609630
_cell_length_b   6.87439812
_cell_length_c   9.17120422
_cell_angle_alpha   90.22999588
_cell_angle_beta   90.05811797
_cell_angle_gamma   96.42942891
_symmetry_Int_Tables_number   1
_chemical_formula_structural   CaYAl20IrOs3
_chemical_formula_sum   'Ca1 Y1 Al20 Ir1 Os3'
_cell_volume   430.78335836
_cell_formula_units_Z   1
loop_
 _symmetry_equiv_pos_site_id
 _symmetry_equiv_pos_as_xyz
  1  'x, y, z'
loop_
 _atom_site_type_symbol
 _atom_site_label
 _atom_site_symmetry_multiplicity
 _atom_site_fract_x
 _atom_site_fract_y
 _atom_site_fract_z
 _atom_site_occupancy
  Ca  Ca0  1  0.627965  0.374198  0.749867  1
  Y  Y1  1  0.370175  0.626695  0.250133  1
  Al  Al2  1  0.280756  0.019888  0.747692  1
  Al  Al3  1  0.017505  0.281358  0.249440  1
  Al  Al4  1  0.719337  0.982039  0.252121  1
  Al  Al5  1  0.980283  0.717536  0.750722  1
  Al  Al6  1  0.878773  0.124426  0.954371  1
  Al  Al7  1  0.121215  0.876060  0.050641  1
  Al  Al8  1  0.876259  0.124354  0.544427  1
  Al  Al9  1  0.123264  0.876394  0.450927  1
  Al  Al10  1  0.647058  0.915856  0.748941  1
  Al  Al11  1  0.916547  0.645137  0.250320  1
  Al  Al12  1  0.353690  0.082494  0.250827  1
  Al  Al13  1  0.084061  0.353752  0.749658  1
  Al  Al14  1  0.339835  0.658417  0.897005  1
  Al  Al15  1  0.657541  0.344993  0.103264  1
  Al  Al16  1  0.341346  0.659863  0.600924  1
  Al  Al17  1  0.655472  0.343656  0.399046  1
  Al  Al18  1  0.725226  0.722150  0.999422  1
  Al  Al19  1  0.724768  0.722626  0.499795  1
  Al  Al20  1  0.276207  0.276201  0.001516  1
  Al  Al21  1  0.277092  0.275871  0.499066  1
  Ir  Ir22  1  0.500607  0.998188  0.000786  1
  Os  Os23  1  0.002241  0.499944  0.000764  1
  Os  Os24  1  0.500324  0.997962  0.499170  1
  Os  Os25  1  0.002448  0.499939  0.499155  1
