# generated using pymatgen
data_Cs2V5(TcTe2)7
_symmetry_space_group_name_H-M   'P 1'
_cell_length_a   10.24439701
_cell_length_b   10.22170398
_cell_length_c   10.25290311
_cell_angle_alpha   62.16105428
_cell_angle_beta   62.09522452
_cell_angle_gamma   62.27274899
_symmetry_Int_Tables_number   1
_chemical_formula_structural   Cs2V5(TcTe2)7
_chemical_formula_sum   'Cs2 V5 Tc7 Te14'
_cell_volume   796.07946222
_cell_formula_units_Z   1
loop_
 _symmetry_equiv_pos_site_id
 _symmetry_equiv_pos_as_xyz
  1  'x, y, z'
loop_
 _atom_site_type_symbol
 _atom_site_label
 _atom_site_symmetry_multiplicity
 _atom_site_fract_x
 _atom_site_fract_y
 _atom_site_fract_z
 _atom_site_occupancy
  Cs  Cs0  1  0.612547  0.610535  0.610370  1
  Cs  Cs1  1  0.388250  0.387478  0.392930  1
  V  V2  1  0.715183  0.879094  0.993733  1
  V  V3  1  0.994361  0.715140  0.878123  1
  V  V4  1  0.877237  0.994585  0.716199  1
  V  V5  1  0.279465  0.125530  0.006410  1
  V  V6  1  0.010034  0.281175  0.121786  1
  Tc  Tc7  1  0.125521  0.002085  0.285353  1
  Tc  Tc8  1  0.938314  0.813149  0.101135  1
  Tc  Tc9  1  0.101936  0.942162  0.811037  1
  Tc  Tc10  1  0.812295  0.104913  0.938702  1
  Tc  Tc11  1  0.058993  0.188323  0.896209  1
  Tc  Tc12  1  0.896260  0.059136  0.188034  1
  Tc  Tc13  1  0.186431  0.896973  0.059771  1
  Te  Te14  1  0.421736  0.815197  0.165299  1
  Te  Te15  1  0.165515  0.423428  0.817962  1
  Te  Te16  1  0.823021  0.161439  0.423186  1
  Te  Te17  1  0.578187  0.182767  0.832125  1
  Te  Te18  1  0.831575  0.578510  0.181131  1
  Te  Te19  1  0.184782  0.833133  0.577937  1
  Te  Te20  1  0.646451  0.985155  0.239250  1
  Te  Te21  1  0.240004  0.649066  0.981068  1
  Te  Te22  1  0.983123  0.242347  0.645537  1
  Te  Te23  1  0.352950  0.016048  0.761241  1
  Te  Te24  1  0.759660  0.352707  0.019546  1
  Te  Te25  1  0.015981  0.759845  0.355841  1
  Te  Te26  1  0.771322  0.770793  0.774149  1
  Te  Te27  1  0.228867  0.229288  0.225937  1
