# generated using pymatgen
data_Tb3DyMn2(Co2Si5)2
_symmetry_space_group_name_H-M   'P 1'
_cell_length_a   5.45537824
_cell_length_b   8.01159981
_cell_length_c   8.01177764
_cell_angle_alpha   73.07391686
_cell_angle_beta   70.09510123
_cell_angle_gamma   70.09464236
_symmetry_Int_Tables_number   1
_chemical_formula_structural   Tb3DyMn2(Co2Si5)2
_chemical_formula_sum   'Tb3 Dy1 Mn2 Co4 Si10'
_cell_volume   303.43437748
_cell_formula_units_Z   1
loop_
 _symmetry_equiv_pos_site_id
 _symmetry_equiv_pos_as_xyz
  1  'x, y, z'
loop_
 _atom_site_type_symbol
 _atom_site_label
 _atom_site_symmetry_multiplicity
 _atom_site_fract_x
 _atom_site_fract_y
 _atom_site_fract_z
 _atom_site_occupancy
  Tb  Tb0  1  0.865091  0.867561  0.402258  1
  Tb  Tb1  1  0.134914  0.132205  0.597965  1
  Tb  Tb2  1  0.365060  0.402258  0.867624  1
  Dy  Dy3  1  0.634941  0.597930  0.132186  1
  Mn  Mn4  1  0.249822  0.000103  0.000011  1
  Mn  Mn5  1  0.750065  0.000103  0.000011  1
  Co  Co6  1  0.640004  0.261600  0.458390  1
  Co  Co7  1  0.359971  0.738562  0.541499  1
  Co  Co8  1  0.140005  0.458680  0.261308  1
  Co  Co9  1  0.859855  0.541464  0.738828  1
  Si  Si10  1  0.250037  0.500159  0.499925  1
  Si  Si11  1  0.749878  0.500159  0.499925  1
  Si  Si12  1  0.030551  0.219501  0.219375  1
  Si  Si13  1  0.469643  0.780335  0.780632  1
  Si  Si14  1  0.969389  0.780335  0.780632  1
  Si  Si15  1  0.530572  0.219501  0.219375  1
  Si  Si16  1  0.600027  0.067188  0.732760  1
  Si  Si17  1  0.400215  0.932355  0.267215  1
  Si  Si18  1  0.100060  0.732566  0.067315  1
  Si  Si19  1  0.899899  0.267433  0.932768  1
