# generated using pymatgen
data_PrNd2Th5(Si3Ni)4
_symmetry_space_group_name_H-M   'P 1'
_cell_length_a   8.07265900
_cell_length_b   8.05325529
_cell_length_c   8.51414100
_cell_angle_alpha   90.00000000
_cell_angle_beta   90.00000000
_cell_angle_gamma   120.07973929
_symmetry_Int_Tables_number   1
_chemical_formula_structural   PrNd2Th5(Si3Ni)4
_chemical_formula_sum   'Pr1 Nd2 Th5 Si12 Ni4'
_cell_volume   478.97188832
_cell_formula_units_Z   1
loop_
 _symmetry_equiv_pos_site_id
 _symmetry_equiv_pos_as_xyz
  1  'x, y, z'
loop_
 _atom_site_type_symbol
 _atom_site_label
 _atom_site_symmetry_multiplicity
 _atom_site_fract_x
 _atom_site_fract_y
 _atom_site_fract_z
 _atom_site_occupancy
  Pr  Pr0  1  0.000038  0.000077  0.250000  1
  Nd  Nd1  1  0.500076  0.500082  0.250000  1
  Nd  Nd2  1  0.000005  0.500082  0.250000  1
  Th  Th3  1  0.500023  0.500089  0.750000  1
  Th  Th4  1  0.000065  0.500089  0.750000  1
  Th  Th5  1  0.500020  0.000042  0.750000  1
  Th  Th6  1  0.500048  0.000097  0.250000  1
  Th  Th7  1  0.000023  0.000044  0.750000  1
  Si  Si8  1  0.829856  0.170842  0.999813  1
  Si  Si9  1  0.170231  0.829201  0.999816  1
  Si  Si10  1  0.340987  0.170842  0.999813  1
  Si  Si11  1  0.170231  0.829201  0.500184  1
  Si  Si12  1  0.658969  0.829201  0.999816  1
  Si  Si13  1  0.829856  0.170842  0.500187  1
  Si  Si14  1  0.828259  0.656516  0.999801  1
  Si  Si15  1  0.658969  0.829201  0.500184  1
  Si  Si16  1  0.171696  0.343394  0.999831  1
  Si  Si17  1  0.340987  0.170842  0.500187  1
  Si  Si18  1  0.171696  0.343394  0.500169  1
  Si  Si19  1  0.828259  0.656516  0.500199  1
  Ni  Ni20  1  0.665119  0.330238  0.993697  1
  Ni  Ni21  1  0.334733  0.669468  0.993595  1
  Ni  Ni22  1  0.334733  0.669468  0.506405  1
  Ni  Ni23  1  0.665119  0.330238  0.506303  1
