# generated using pymatgen
data_SrTb2(Si3Pd10)2
_symmetry_space_group_name_H-M   'P 1'
_cell_length_a   8.75865275
_cell_length_b   8.75865328
_cell_length_c   8.75865300
_cell_angle_alpha   60.00000485
_cell_angle_beta   60.00000283
_cell_angle_gamma   60.00000609
_symmetry_Int_Tables_number   1
_chemical_formula_structural   SrTb2(Si3Pd10)2
_chemical_formula_sum   'Sr1 Tb2 Si6 Pd20'
_cell_volume   475.11310693
_cell_formula_units_Z   1
loop_
 _symmetry_equiv_pos_site_id
 _symmetry_equiv_pos_as_xyz
  1  'x, y, z'
loop_
 _atom_site_type_symbol
 _atom_site_label
 _atom_site_symmetry_multiplicity
 _atom_site_fract_x
 _atom_site_fract_y
 _atom_site_fract_z
 _atom_site_occupancy
  Sr  Sr0  1  0.250000  0.250000  0.250000  1
  Tb  Tb1  1  0.750000  0.750000  0.750000  1
  Tb  Tb2  1  0.000000  0.000000  0.000000  1
  Si  Si3  1  0.732582  0.267418  0.267418  1
  Si  Si4  1  0.267418  0.732582  0.732582  1
  Si  Si5  1  0.267418  0.732582  0.267418  1
  Si  Si6  1  0.732582  0.267418  0.732582  1
  Si  Si7  1  0.267418  0.267418  0.732582  1
  Si  Si8  1  0.732582  0.732582  0.267418  1
  Pd  Pd9  1  0.388121  0.388121  0.388121  1
  Pd  Pd10  1  0.617058  0.617058  0.617058  1
  Pd  Pd11  1  0.388121  0.388121  0.835638  1
  Pd  Pd12  1  0.388121  0.835638  0.388121  1
  Pd  Pd13  1  0.617058  0.617058  0.148826  1
  Pd  Pd14  1  0.617058  0.148826  0.617058  1
  Pd  Pd15  1  0.835638  0.388121  0.388121  1
  Pd  Pd16  1  0.148826  0.617058  0.617058  1
  Pd  Pd17  1  0.347915  0.996808  0.996808  1
  Pd  Pd18  1  0.658469  0.996808  0.996808  1
  Pd  Pd19  1  0.996808  0.347915  0.658469  1
  Pd  Pd20  1  0.996808  0.658469  0.347915  1
  Pd  Pd21  1  0.996808  0.347915  0.996808  1
  Pd  Pd22  1  0.658469  0.996808  0.347915  1
  Pd  Pd23  1  0.996808  0.658469  0.996808  1
  Pd  Pd24  1  0.347915  0.996808  0.658469  1
  Pd  Pd25  1  0.996808  0.996808  0.347915  1
  Pd  Pd26  1  0.996808  0.996808  0.658469  1
  Pd  Pd27  1  0.658469  0.347915  0.996808  1
  Pd  Pd28  1  0.347915  0.658469  0.996808  1
