# generated using pymatgen
data_LiTm16Zn3Co4
_symmetry_space_group_name_H-M   'P 1'
_cell_length_a   9.27024675
_cell_length_b   9.30057680
_cell_length_c   9.29978371
_cell_angle_alpha   59.71912771
_cell_angle_beta   59.56137200
_cell_angle_gamma   59.55343605
_symmetry_Int_Tables_number   1
_chemical_formula_structural   LiTm16Zn3Co4
_chemical_formula_sum   'Li1 Tm16 Zn3 Co4'
_cell_volume   561.95710029
_cell_formula_units_Z   1
loop_
 _symmetry_equiv_pos_site_id
 _symmetry_equiv_pos_as_xyz
  1  'x, y, z'
loop_
 _atom_site_type_symbol
 _atom_site_label
 _atom_site_symmetry_multiplicity
 _atom_site_fract_x
 _atom_site_fract_y
 _atom_site_fract_z
 _atom_site_occupancy
  Li  Li0  1  0.568420  0.568411  0.568387  1
  Tm  Tm1  1  0.351045  0.351147  0.351064  1
  Tm  Tm2  1  0.346474  0.346509  0.957788  1
  Tm  Tm3  1  0.346530  0.957732  0.346493  1
  Tm  Tm4  1  0.957766  0.346484  0.346421  1
  Tm  Tm5  1  0.809966  0.191012  0.190989  1
  Tm  Tm6  1  0.186398  0.812487  0.812503  1
  Tm  Tm7  1  0.190990  0.809935  0.190918  1
  Tm  Tm8  1  0.812514  0.186460  0.812384  1
  Tm  Tm9  1  0.190958  0.190908  0.809974  1
  Tm  Tm10  1  0.812537  0.812367  0.186448  1
  Tm  Tm11  1  0.942211  0.562099  0.562156  1
  Tm  Tm12  1  0.564125  0.936904  0.936908  1
  Tm  Tm13  1  0.562071  0.942270  0.562143  1
  Tm  Tm14  1  0.936868  0.564253  0.936774  1
  Tm  Tm15  1  0.562130  0.562145  0.942234  1
  Tm  Tm16  1  0.936880  0.936784  0.564291  1
  Zn  Zn17  1  0.578604  0.578743  0.261199  1
  Zn  Zn18  1  0.578577  0.261207  0.578758  1
  Zn  Zn19  1  0.261203  0.578647  0.578687  1
  Co  Co20  1  0.141419  0.141293  0.141281  1
  Co  Co21  1  0.143522  0.143485  0.575231  1
  Co  Co22  1  0.143502  0.575241  0.143479  1
  Co  Co23  1  0.575296  0.143484  0.143496  1
