# generated using pymatgen
data_NaAc5S8
_symmetry_space_group_name_H-M   'P 1'
_cell_length_a   7.81668743
_cell_length_b   7.81668795
_cell_length_c   7.81668697
_cell_angle_alpha   109.52260655
_cell_angle_beta   109.52260479
_cell_angle_gamma   109.36850138
_symmetry_Int_Tables_number   1
_chemical_formula_structural   NaAc5S8
_chemical_formula_sum   'Na1 Ac5 S8'
_cell_volume   367.65907765
_cell_formula_units_Z   1
loop_
 _symmetry_equiv_pos_site_id
 _symmetry_equiv_pos_as_xyz
  1  'x, y, z'
loop_
 _atom_site_type_symbol
 _atom_site_label
 _atom_site_symmetry_multiplicity
 _atom_site_fract_x
 _atom_site_fract_y
 _atom_site_fract_z
 _atom_site_occupancy
  Na  Na0  1  0.750000  0.250000  0.500000  1
  Ac  Ac1  1  0.128798  0.009865  0.378573  1
  Ac  Ac2  1  0.500000  0.500000  0.000000  1
  Ac  Ac3  1  0.990135  0.368708  0.118933  1
  Ac  Ac4  1  0.631292  0.750226  0.621427  1
  Ac  Ac5  1  0.249774  0.871202  0.881067  1
  S  S6  1  0.871779  0.625048  0.901301  1
  S  S7  1  0.362851  0.760068  0.243268  1
  S  S8  1  0.880417  0.637149  0.397218  1
  S  S9  1  0.029522  0.128221  0.753269  1
  S  S10  1  0.516800  0.119583  0.756732  1
  S  S11  1  0.239932  0.483200  0.602782  1
  S  S12  1  0.374952  0.276253  0.246731  1
  S  S13  1  0.723747  0.970478  0.098699  1
