# generated using pymatgen
data_Zr6Ti3NbGe6
_symmetry_space_group_name_H-M   'P 1'
_cell_length_a   7.92826200
_cell_length_b   7.92826261
_cell_length_c   5.41478000
_cell_angle_alpha   90.00000000
_cell_angle_beta   90.00000000
_cell_angle_gamma   119.99999747
_symmetry_Int_Tables_number   1
_chemical_formula_structural   Zr6Ti3NbGe6
_chemical_formula_sum   'Zr6 Ti3 Nb1 Ge6'
_cell_volume   294.75927472
_cell_formula_units_Z   1
loop_
 _symmetry_equiv_pos_site_id
 _symmetry_equiv_pos_as_xyz
  1  'x, y, z'
loop_
 _atom_site_type_symbol
 _atom_site_label
 _atom_site_symmetry_multiplicity
 _atom_site_fract_x
 _atom_site_fract_y
 _atom_site_fract_z
 _atom_site_occupancy
  Zr  Zr0  1  0.748921  0.748797  0.751462  1
  Zr  Zr1  1  0.251203  0.000125  0.751462  1
  Zr  Zr2  1  0.999875  0.251079  0.751462  1
  Zr  Zr3  1  0.251203  0.251079  0.248538  1
  Zr  Zr4  1  0.748921  0.000125  0.248538  1
  Zr  Zr5  1  0.999875  0.748797  0.248538  1
  Ti  Ti6  1  0.333333  0.666667  0.000000  1
  Ti  Ti7  1  0.333333  0.666667  0.500000  1
  Ti  Ti8  1  0.666667  0.333333  0.500000  1
  Nb  Nb9  1  0.666667  0.333333  0.000000  1
  Ge  Ge10  1  0.395252  0.396786  0.748031  1
  Ge  Ge11  1  0.603214  0.998466  0.748031  1
  Ge  Ge12  1  0.001534  0.604748  0.748031  1
  Ge  Ge13  1  0.603214  0.604748  0.251969  1
  Ge  Ge14  1  0.395252  0.998466  0.251969  1
  Ge  Ge15  1  0.001534  0.396786  0.251969  1
