# generated using pymatgen
data_Er3Pa(MnC4)2
_symmetry_space_group_name_H-M   'P 1'
_cell_length_a   6.52771148
_cell_length_b   6.57332149
_cell_length_c   6.57332115
_cell_angle_alpha   135.17004610
_cell_angle_beta   110.00077659
_cell_angle_gamma   87.17972006
_symmetry_Int_Tables_number   1
_chemical_formula_structural   Er3Pa(MnC4)2
_chemical_formula_sum   'Er3 Pa1 Mn2 C8'
_cell_volume   178.71905999
_cell_formula_units_Z   1
loop_
 _symmetry_equiv_pos_site_id
 _symmetry_equiv_pos_as_xyz
  1  'x, y, z'
loop_
 _atom_site_type_symbol
 _atom_site_label
 _atom_site_symmetry_multiplicity
 _atom_site_fract_x
 _atom_site_fract_y
 _atom_site_fract_z
 _atom_site_occupancy
  Er  Er0  1  0.493903  0.143570  0.350334  1
  Er  Er1  1  0.803183  0.648351  0.154832  1
  Er  Er2  1  0.194274  0.356748  0.837525  1
  Pa  Pa3  1  0.513626  0.855078  0.658546  1
  Mn  Mn4  1  0.998317  0.247503  0.248988  1
  Mn  Mn5  1  0.998317  0.749329  0.750814  1
  C  C6  1  0.242657  0.576134  0.666524  1
  C  C7  1  0.749643  0.420695  0.328947  1
  C  C8  1  0.089973  0.920763  0.169210  1
  C  C9  1  0.918816  0.081310  0.837506  1
  C  C10  1  0.472496  0.634816  0.837679  1
  C  C11  1  0.521375  0.368980  0.152396  1
  C  C12  1  0.783276  0.123707  0.659569  1
  C  C13  1  0.220145  0.873016  0.347129  1
