# generated using pymatgen
data_Al3B28
_symmetry_space_group_name_H-M   'P 1'
_cell_length_a   7.14231472
_cell_length_b   7.14231405
_cell_length_c   5.88765565
_cell_angle_alpha   65.95382495
_cell_angle_beta   65.95382974
_cell_angle_gamma   91.95846475
_symmetry_Int_Tables_number   1
_chemical_formula_structural   Al3B28
_chemical_formula_sum   'Al3 B28'
_cell_volume   243.15249235
_cell_formula_units_Z   1
loop_
 _symmetry_equiv_pos_site_id
 _symmetry_equiv_pos_as_xyz
  1  'x, y, z'
loop_
 _atom_site_type_symbol
 _atom_site_label
 _atom_site_symmetry_multiplicity
 _atom_site_fract_x
 _atom_site_fract_y
 _atom_site_fract_z
 _atom_site_occupancy
  Al  Al0  1  0.855703  0.855703  0.286174  1
  Al  Al1  1  0.485587  0.485587  0.533112  1
  Al  Al2  1  0.148560  0.148560  0.475249  1
  B  B3  1  0.410939  0.734456  0.179757  1
  B  B4  1  0.593217  0.263909  0.831821  1
  B  B5  1  0.263909  0.593217  0.831821  1
  B  B6  1  0.734456  0.410939  0.179757  1
  B  B7  1  0.691514  0.858250  0.979321  1
  B  B8  1  0.310893  0.141822  0.033657  1
  B  B9  1  0.141822  0.310893  0.033657  1
  B  B10  1  0.858250  0.691514  0.979321  1
  B  B11  1  0.531465  0.874956  0.300032  1
  B  B12  1  0.474338  0.128770  0.204328  1
  B  B13  1  0.128770  0.474338  0.204328  1
  B  B14  1  0.874956  0.531465  0.300032  1
  B  B15  1  0.465064  0.121974  0.715764  1
  B  B16  1  0.534220  0.871302  0.805268  1
  B  B17  1  0.871302  0.534220  0.805268  1
  B  B18  1  0.121974  0.465064  0.715764  1
  B  B19  1  0.730284  0.101107  0.997781  1
  B  B20  1  0.273852  0.897686  0.328050  1
  B  B21  1  0.897686  0.273852  0.328050  1
  B  B22  1  0.101107  0.730284  0.997781  1
  B  B23  1  0.271249  0.900068  0.018958  1
  B  B24  1  0.729278  0.099913  0.688916  1
  B  B25  1  0.099913  0.729278  0.688916  1
  B  B26  1  0.900068  0.271249  0.018958  1
  B  B27  1  0.268926  0.466361  0.389606  1
  B  B28  1  0.729013  0.535325  0.629471  1
  B  B29  1  0.535325  0.729013  0.629471  1
  B  B30  1  0.466361  0.268926  0.389606  1
