# generated using pymatgen
data_Pr3GaNi3
_symmetry_space_group_name_H-M   'P 1'
_cell_length_a   4.14977900
_cell_length_b   5.58367754
_cell_length_c   13.61270200
_cell_angle_alpha   90.00000000
_cell_angle_beta   90.00000000
_cell_angle_gamma   111.81426573
_symmetry_Int_Tables_number   1
_chemical_formula_structural   Pr3GaNi3
_chemical_formula_sum   'Pr6 Ga2 Ni6'
_cell_volume   292.83410022
_cell_formula_units_Z   2
loop_
 _symmetry_equiv_pos_site_id
 _symmetry_equiv_pos_as_xyz
  1  'x, y, z'
loop_
 _atom_site_type_symbol
 _atom_site_label
 _atom_site_symmetry_multiplicity
 _atom_site_fract_x
 _atom_site_fract_y
 _atom_site_fract_z
 _atom_site_occupancy
  Pr  Pr0  1  0.213020  0.426040  0.397645  1
  Pr  Pr1  1  0.786980  0.573960  0.602355  1
  Pr  Pr2  1  0.213020  0.426040  0.102355  1
  Pr  Pr3  1  0.786980  0.573960  0.897645  1
  Pr  Pr4  1  0.497837  0.995674  0.250000  1
  Pr  Pr5  1  0.502163  0.004326  0.750000  1
  Ga  Ga6  1  0.500000  0.000000  0.500000  1
  Ga  Ga7  1  0.500000  0.000000  0.000000  1
  Ni  Ni8  1  0.922700  0.845401  0.409414  1
  Ni  Ni9  1  0.077300  0.154599  0.590586  1
  Ni  Ni10  1  0.922700  0.845401  0.090586  1
  Ni  Ni11  1  0.077300  0.154599  0.909414  1
  Ni  Ni12  1  0.798479  0.596956  0.250000  1
  Ni  Ni13  1  0.201521  0.403044  0.750000  1
