# generated using pymatgen
data_Tb5Lu5CuPPb6
_symmetry_space_group_name_H-M   'P 1'
_cell_length_a   9.12346069
_cell_length_b   9.12346049
_cell_length_c   6.63996314
_cell_angle_alpha   90.03362799
_cell_angle_beta   90.03362679
_cell_angle_gamma   120.09731162
_symmetry_Int_Tables_number   1
_chemical_formula_structural   Tb5Lu5CuPPb6
_chemical_formula_sum   'Tb5 Lu5 Cu1 P1 Pb6'
_cell_volume   478.17680527
_cell_formula_units_Z   1
loop_
 _symmetry_equiv_pos_site_id
 _symmetry_equiv_pos_as_xyz
  1  'x, y, z'
loop_
 _atom_site_type_symbol
 _atom_site_label
 _atom_site_symmetry_multiplicity
 _atom_site_fract_x
 _atom_site_fract_y
 _atom_site_fract_z
 _atom_site_occupancy
  Tb  Tb0  1  0.247397  0.000687  0.738044  1
  Tb  Tb1  1  0.748985  0.997449  0.258728  1
  Tb  Tb2  1  0.000687  0.247397  0.738044  1
  Tb  Tb3  1  0.997449  0.748985  0.258728  1
  Tb  Tb4  1  0.754068  0.754068  0.740099  1
  Lu  Lu5  1  0.247343  0.247343  0.267409  1
  Lu  Lu6  1  0.332615  0.664922  0.499819  1
  Lu  Lu7  1  0.664922  0.332615  0.499819  1
  Lu  Lu8  1  0.668424  0.333995  0.000200  1
  Lu  Lu9  1  0.333995  0.668424  0.000200  1
  Cu  Cu10  1  0.006238  0.006238  0.005586  1
  P  P11  1  0.000878  0.000878  0.494649  1
  Pb  Pb12  1  0.603735  0.999613  0.749481  1
  Pb  Pb13  1  0.394079  0.002114  0.249620  1
  Pb  Pb14  1  0.999613  0.603735  0.749481  1
  Pb  Pb15  1  0.002114  0.394079  0.249620  1
  Pb  Pb16  1  0.397184  0.397184  0.752775  1
  Pb  Pb17  1  0.600271  0.600271  0.247698  1
