# generated using pymatgen
data_Ho10TlIn5S2
_symmetry_space_group_name_H-M   'P 1'
_cell_length_a   8.90642700
_cell_length_b   8.93333575
_cell_length_c   6.57097000
_cell_angle_alpha   90.00000000
_cell_angle_beta   90.00000000
_cell_angle_gamma   120.10000149
_symmetry_Int_Tables_number   1
_chemical_formula_structural   Ho10TlIn5S2
_chemical_formula_sum   'Ho10 Tl1 In5 S2'
_cell_volume   452.31269023
_cell_formula_units_Z   1
loop_
 _symmetry_equiv_pos_site_id
 _symmetry_equiv_pos_as_xyz
  1  'x, y, z'
loop_
 _atom_site_type_symbol
 _atom_site_label
 _atom_site_symmetry_multiplicity
 _atom_site_fract_x
 _atom_site_fract_y
 _atom_site_fract_z
 _atom_site_occupancy
  Ho  Ho0  1  0.667140  0.333771  0.999908  1
  Ho  Ho1  1  0.332860  0.666632  0.999908  1
  Ho  Ho2  1  0.332860  0.666632  0.500092  1
  Ho  Ho3  1  0.667140  0.333771  0.500092  1
  Ho  Ho4  1  0.756386  0.756402  0.750000  1
  Ho  Ho5  1  0.243614  0.000015  0.750000  1
  Ho  Ho6  1  0.000000  0.243879  0.750000  1
  Ho  Ho7  1  0.243684  0.243121  0.250000  1
  Ho  Ho8  1  0.756316  0.999437  0.250000  1
  Ho  Ho9  1  0.000000  0.756121  0.250000  1
  Tl  Tl10  1  0.000000  0.399489  0.250000  1
  In  In11  1  0.401233  0.400182  0.750000  1
  In  In12  1  0.598767  0.998949  0.750000  1
  In  In13  1  0.000000  0.600950  0.750000  1
  In  In14  1  0.598428  0.599490  0.250000  1
  In  In15  1  0.401572  0.001062  0.250000  1
  S  S16  1  0.000000  0.000048  0.000033  1
  S  S17  1  0.000000  0.000048  0.499967  1
