# generated using pymatgen
data_Gd8Si13Ge
_symmetry_space_group_name_H-M   'P 1'
_cell_length_a   7.79968600
_cell_length_b   7.77989931
_cell_length_c   8.25892100
_cell_angle_alpha   90.00000000
_cell_angle_beta   90.00000000
_cell_angle_gamma   120.11369722
_symmetry_Int_Tables_number   1
_chemical_formula_structural   Gd8Si13Ge
_chemical_formula_sum   'Gd8 Si13 Ge1'
_cell_volume   433.51719884
_cell_formula_units_Z   1
loop_
 _symmetry_equiv_pos_site_id
 _symmetry_equiv_pos_as_xyz
  1  'x, y, z'
loop_
 _atom_site_type_symbol
 _atom_site_label
 _atom_site_symmetry_multiplicity
 _atom_site_fract_x
 _atom_site_fract_y
 _atom_site_fract_z
 _atom_site_occupancy
  Gd  Gd0  1  0.258295  0.256475  0.998232  1
  Gd  Gd1  1  0.744880  0.745540  0.000123  1
  Gd  Gd2  1  0.744880  0.745540  0.499877  1
  Gd  Gd3  1  0.258295  0.256475  0.501768  1
  Gd  Gd4  1  0.252292  0.748028  0.494939  1
  Gd  Gd5  1  0.745474  0.252081  0.507191  1
  Gd  Gd6  1  0.745474  0.252081  0.992809  1
  Gd  Gd7  1  0.252292  0.748028  0.005061  1
  Si  Si8  1  0.948871  0.642584  0.750000  1
  Si  Si9  1  0.585616  0.416159  0.250000  1
  Si  Si10  1  0.414594  0.585070  0.750000  1
  Si  Si11  1  0.413042  0.592089  0.250000  1
  Si  Si12  1  0.590912  0.411781  0.750000  1
  Si  Si13  1  0.057817  0.945209  0.250000  1
  Si  Si14  1  0.943958  0.056994  0.750000  1
  Si  Si15  1  0.640261  0.948756  0.250000  1
  Si  Si16  1  0.360244  0.051938  0.750000  1
  Si  Si17  1  0.931173  0.592689  0.250000  1
  Si  Si18  1  0.067872  0.409799  0.750000  1
  Si  Si19  1  0.409871  0.068995  0.250000  1
  Si  Si20  1  0.590650  0.931180  0.750000  1
  Ge  Ge21  1  0.043236  0.342509  0.250000  1
