# generated using pymatgen
data_Tb7TmLu8(Ga3Co)2
_symmetry_space_group_name_H-M   'P 1'
_cell_length_a   9.87658900
_cell_length_b   9.87218796
_cell_length_c   6.95806100
_cell_angle_alpha   90.00376146
_cell_angle_beta   90.00000000
_cell_angle_gamma   120.01474475
_symmetry_Int_Tables_number   1
_chemical_formula_structural   Tb7TmLu8(Ga3Co)2
_chemical_formula_sum   'Tb7 Tm1 Lu8 Ga6 Co2'
_cell_volume   587.45514798
_cell_formula_units_Z   1
loop_
 _symmetry_equiv_pos_site_id
 _symmetry_equiv_pos_as_xyz
  1  'x, y, z'
loop_
 _atom_site_type_symbol
 _atom_site_label
 _atom_site_symmetry_multiplicity
 _atom_site_fract_x
 _atom_site_fract_y
 _atom_site_fract_z
 _atom_site_occupancy
  Tb  Tb0  1  0.928038  0.463814  0.791377  1
  Tb  Tb1  1  0.535777  0.463814  0.791377  1
  Tb  Tb2  1  0.464427  0.928855  0.291605  1
  Tb  Tb3  1  0.071526  0.535750  0.291466  1
  Tb  Tb4  1  0.464223  0.535750  0.291466  1
  Tb  Tb5  1  0.000012  0.000023  0.769251  1
  Tb  Tb6  1  0.999941  0.999882  0.269263  1
  Tm  Tm7  1  0.536309  0.072618  0.791817  1
  Lu  Lu8  1  0.826185  0.652372  0.487202  1
  Lu  Lu9  1  0.348166  0.173736  0.487761  1
  Lu  Lu10  1  0.825569  0.173736  0.487761  1
  Lu  Lu11  1  0.173845  0.347689  0.987228  1
  Lu  Lu12  1  0.652085  0.826568  0.986703  1
  Lu  Lu13  1  0.174484  0.826568  0.986703  1
  Lu  Lu14  1  0.666336  0.332670  0.175021  1
  Lu  Lu15  1  0.333619  0.667238  0.675577  1
  Ga  Ga16  1  0.836296  0.672594  0.043477  1
  Ga  Ga17  1  0.327882  0.163613  0.042935  1
  Ga  Ga18  1  0.835729  0.163613  0.042935  1
  Ga  Ga19  1  0.163724  0.327445  0.543235  1
  Ga  Ga20  1  0.672479  0.836301  0.543638  1
  Ga  Ga21  1  0.163824  0.836301  0.543638  1
  Co  Co22  1  0.666179  0.332357  0.552643  1
  Co  Co23  1  0.333345  0.666691  0.051991  1
