# generated using pymatgen
data_Tb17Ho3(Ga2Pb)4
_symmetry_space_group_name_H-M   'P 1'
_cell_length_a   7.88707600
_cell_length_b   7.88707600
_cell_length_c   13.95944700
_cell_angle_alpha   90.00000000
_cell_angle_beta   90.00000000
_cell_angle_gamma   90.00000000
_symmetry_Int_Tables_number   1
_chemical_formula_structural   Tb17Ho3(Ga2Pb)4
_chemical_formula_sum   'Tb17 Ho3 Ga8 Pb4'
_cell_volume   868.36091100
_cell_formula_units_Z   1
loop_
 _symmetry_equiv_pos_site_id
 _symmetry_equiv_pos_as_xyz
  1  'x, y, z'
loop_
 _atom_site_type_symbol
 _atom_site_label
 _atom_site_symmetry_multiplicity
 _atom_site_fract_x
 _atom_site_fract_y
 _atom_site_fract_z
 _atom_site_occupancy
  Tb  Tb0  1  0.838519  0.837032  0.892124  1
  Tb  Tb1  1  0.162982  0.161485  0.607869  1
  Tb  Tb2  1  0.838730  0.163104  0.392183  1
  Tb  Tb3  1  0.161270  0.836896  0.392183  1
  Tb  Tb4  1  0.336896  0.338730  0.392183  1
  Tb  Tb5  1  0.837215  0.161619  0.107818  1
  Tb  Tb6  1  0.337032  0.661481  0.892124  1
  Tb  Tb7  1  0.162785  0.838381  0.107818  1
  Tb  Tb8  1  0.338515  0.662982  0.607869  1
  Tb  Tb9  1  0.661619  0.662785  0.107818  1
  Tb  Tb10  1  0.661485  0.337018  0.607869  1
  Tb  Tb11  1  0.837018  0.838515  0.607869  1
  Tb  Tb12  1  0.662968  0.338519  0.892124  1
  Tb  Tb13  1  0.161481  0.162968  0.892124  1
  Tb  Tb14  1  0.500000  0.000000  0.251992  1
  Tb  Tb15  1  0.663104  0.661270  0.392183  1
  Tb  Tb16  1  0.338381  0.337215  0.107818  1
  Ho  Ho17  1  0.500000  0.000000  0.751922  1
  Ho  Ho18  1  0.000000  0.500000  0.248048  1
  Ho  Ho19  1  0.000000  0.500000  0.748087  1
  Ga  Ga20  1  0.632431  0.368205  0.249990  1
  Ga  Ga21  1  0.367569  0.631795  0.249990  1
  Ga  Ga22  1  0.131795  0.132431  0.249990  1
  Ga  Ga23  1  0.367783  0.367756  0.749997  1
  Ga  Ga24  1  0.132244  0.867783  0.749997  1
  Ga  Ga25  1  0.868205  0.867569  0.249990  1
  Ga  Ga26  1  0.632217  0.632244  0.749997  1
  Ga  Ga27  1  0.867756  0.132217  0.749997  1
  Pb  Pb28  1  0.000000  0.500000  0.999877  1
  Pb  Pb29  1  0.500000  0.000000  0.999946  1
  Pb  Pb30  1  0.500000  0.000000  0.500292  1
  Pb  Pb31  1  0.000000  0.500000  0.499909  1
