# generated using pymatgen
data_La4AlCd4In3
_symmetry_space_group_name_H-M   'P 1'
_cell_length_a   4.97525900
_cell_length_b   4.97525816
_cell_length_c   15.71089000
_cell_angle_alpha   90.00000000
_cell_angle_beta   90.00000000
_cell_angle_gamma   119.99999895
_symmetry_Int_Tables_number   1
_chemical_formula_structural   La4AlCd4In3
_chemical_formula_sum   'La4 Al1 Cd4 In3'
_cell_volume   336.79275354
_cell_formula_units_Z   1
loop_
 _symmetry_equiv_pos_site_id
 _symmetry_equiv_pos_as_xyz
  1  'x, y, z'
loop_
 _atom_site_type_symbol
 _atom_site_label
 _atom_site_symmetry_multiplicity
 _atom_site_fract_x
 _atom_site_fract_y
 _atom_site_fract_z
 _atom_site_occupancy
  La  La0  1  0.000000  0.000000  0.504149  1
  La  La1  1  0.000000  0.000000  0.998290  1
  La  La2  1  0.000000  0.000000  0.251861  1
  La  La3  1  0.000000  0.000000  0.746803  1
  Al  Al4  1  0.333333  0.666667  0.607271  1
  Cd  Cd5  1  0.333333  0.666667  0.403483  1
  Cd  Cd6  1  0.666667  0.333333  0.643029  1
  Cd  Cd7  1  0.666667  0.333333  0.849630  1
  Cd  Cd8  1  0.333333  0.666667  0.102049  1
  In  In9  1  0.333333  0.666667  0.890056  1
  In  In10  1  0.666667  0.333333  0.143125  1
  In  In11  1  0.666667  0.333333  0.360255  1
