# generated using pymatgen
data_Pr3MnAlSe7
_symmetry_space_group_name_H-M   'P 1'
_cell_length_a   10.51319200
_cell_length_b   10.51319120
_cell_length_c   6.52072400
_cell_angle_alpha   90.00000000
_cell_angle_beta   90.00000000
_cell_angle_gamma   119.99999623
_symmetry_Int_Tables_number   1
_chemical_formula_structural   Pr3MnAlSe7
_chemical_formula_sum   'Pr6 Mn2 Al2 Se14'
_cell_volume   624.15955791
_cell_formula_units_Z   2
loop_
 _symmetry_equiv_pos_site_id
 _symmetry_equiv_pos_as_xyz
  1  'x, y, z'
loop_
 _atom_site_type_symbol
 _atom_site_label
 _atom_site_symmetry_multiplicity
 _atom_site_fract_x
 _atom_site_fract_y
 _atom_site_fract_z
 _atom_site_occupancy
  Pr  Pr0  1  0.771602  0.147843  0.737439  1
  Pr  Pr1  1  0.376241  0.228398  0.737439  1
  Pr  Pr2  1  0.852157  0.623759  0.737439  1
  Pr  Pr3  1  0.228398  0.852157  0.237439  1
  Pr  Pr4  1  0.623759  0.771602  0.237439  1
  Pr  Pr5  1  0.147843  0.376241  0.237439  1
  Mn  Mn6  1  0.000000  0.000000  0.530716  1
  Mn  Mn7  1  0.000000  0.000000  0.030716  1
  Al  Al8  1  0.666667  0.333333  0.155096  1
  Al  Al9  1  0.333333  0.666667  0.655096  1
  Se  Se10  1  0.856776  0.097479  0.307952  1
  Se  Se11  1  0.240703  0.143224  0.307952  1
  Se  Se12  1  0.902521  0.759297  0.307952  1
  Se  Se13  1  0.143224  0.902521  0.807952  1
  Se  Se14  1  0.759297  0.856776  0.807952  1
  Se  Se15  1  0.097479  0.240703  0.807952  1
  Se  Se16  1  0.906492  0.424537  0.006815  1
  Se  Se17  1  0.518045  0.093508  0.006815  1
  Se  Se18  1  0.575463  0.481955  0.006815  1
  Se  Se19  1  0.093508  0.575463  0.506815  1
  Se  Se20  1  0.481955  0.906492  0.506815  1
  Se  Se21  1  0.424537  0.518045  0.506815  1
  Se  Se22  1  0.666667  0.333333  0.521623  1
  Se  Se23  1  0.333333  0.666667  0.021623  1
