# generated using pymatgen
data_Ta9SbO25
_symmetry_space_group_name_H-M   'P 1'
_cell_length_a   3.85522982
_cell_length_b   11.48223626
_cell_length_c   11.48223657
_cell_angle_alpha   88.38501607
_cell_angle_beta   80.33553958
_cell_angle_gamma   80.33554080
_symmetry_Int_Tables_number   1
_chemical_formula_structural   Ta9SbO25
_chemical_formula_sum   'Ta9 Sb1 O25'
_cell_volume   493.95539793
_cell_formula_units_Z   1
loop_
 _symmetry_equiv_pos_site_id
 _symmetry_equiv_pos_as_xyz
  1  'x, y, z'
loop_
 _atom_site_type_symbol
 _atom_site_label
 _atom_site_symmetry_multiplicity
 _atom_site_fract_x
 _atom_site_fract_y
 _atom_site_fract_z
 _atom_site_occupancy
  Ta  Ta0  1  0.781061  0.118596  0.320794  1
  Ta  Ta1  1  0.874272  0.800389  0.440504  1
  Ta  Ta2  1  0.115168  0.199611  0.559495  1
  Ta  Ta3  1  0.685224  0.440505  0.199611  1
  Ta  Ta4  1  0.325340  0.559495  0.800389  1
  Ta  Ta5  1  0.898146  0.320793  0.881403  1
  Ta  Ta6  1  0.100341  0.679207  0.118597  1
  Ta  Ta7  1  0.220453  0.881404  0.679206  1
  Ta  Ta8  1  0.000000  0.000000  0.000000  1
  Sb  Sb9  1  0.250000  0.500000  0.500000  1
  O  O10  1  0.906504  0.639403  0.519015  1
  O  O11  1  0.574481  0.519015  0.360597  1
  O  O12  1  0.454094  0.480985  0.639403  1
  O  O13  1  0.064923  0.360597  0.480985  1
  O  O14  1  0.500000  0.000000  0.000000  1
  O  O15  1  0.249530  0.138600  0.364170  1
  O  O16  1  0.386301  0.364171  0.861400  1
  O  O17  1  0.611871  0.635829  0.138600  1
  O  O18  1  0.752299  0.861400  0.635829  1
  O  O19  1  0.827947  0.962581  0.390122  1
  O  O20  1  0.985404  0.736612  0.289914  1
  O  O21  1  0.724681  0.289915  0.263388  1
  O  O22  1  0.277983  0.710085  0.736612  1
  O  O23  1  0.011933  0.263388  0.710085  1
  O  O24  1  0.948074  0.166841  0.936556  1
  O  O25  1  0.115371  0.936556  0.833159  1
  O  O26  1  0.885085  0.063444  0.166841  1
  O  O27  1  0.781930  0.390122  0.037419  1
  O  O28  1  0.349646  0.810784  0.488346  1
  O  O29  1  0.162008  0.488346  0.189216  1
  O  O30  1  0.839569  0.511654  0.810783  1
  O  O31  1  0.648777  0.189216  0.511654  1
  O  O32  1  0.180650  0.037419  0.609878  1
  O  O33  1  0.209471  0.609878  0.962581  1
  O  O34  1  0.051470  0.833159  0.063444  1
