# generated using pymatgen
data_Pr2Ga12Rh
_symmetry_space_group_name_H-M   'P 1'
_cell_length_a   6.13498700
_cell_length_b   6.13498700
_cell_length_c   15.71160700
_cell_angle_alpha   90.00000000
_cell_angle_beta   90.00000000
_cell_angle_gamma   90.00000000
_symmetry_Int_Tables_number   1
_chemical_formula_structural   Pr2Ga12Rh
_chemical_formula_sum   'Pr4 Ga24 Rh2'
_cell_volume   591.35449322
_cell_formula_units_Z   2
loop_
 _symmetry_equiv_pos_site_id
 _symmetry_equiv_pos_as_xyz
  1  'x, y, z'
loop_
 _atom_site_type_symbol
 _atom_site_label
 _atom_site_symmetry_multiplicity
 _atom_site_fract_x
 _atom_site_fract_y
 _atom_site_fract_z
 _atom_site_occupancy
  Pr  Pr0  1  0.750000  0.250000  0.243005  1
  Pr  Pr1  1  0.250000  0.750000  0.243005  1
  Pr  Pr2  1  0.250000  0.750000  0.756995  1
  Pr  Pr3  1  0.750000  0.250000  0.756995  1
  Ga  Ga4  1  0.250000  0.250000  0.187726  1
  Ga  Ga5  1  0.750000  0.750000  0.187726  1
  Ga  Ga6  1  0.750000  0.750000  0.812274  1
  Ga  Ga7  1  0.250000  0.250000  0.812274  1
  Ga  Ga8  1  0.250000  0.250000  0.345366  1
  Ga  Ga9  1  0.750000  0.750000  0.345366  1
  Ga  Ga10  1  0.750000  0.750000  0.654634  1
  Ga  Ga11  1  0.250000  0.250000  0.654634  1
  Ga  Ga12  1  0.499961  0.999961  0.913706  1
  Ga  Ga13  1  0.999961  0.000039  0.913706  1
  Ga  Ga14  1  0.500039  0.499961  0.913706  1
  Ga  Ga15  1  0.000039  0.500039  0.913706  1
  Ga  Ga16  1  0.500039  0.000039  0.086294  1
  Ga  Ga17  1  0.000039  0.999961  0.086294  1
  Ga  Ga18  1  0.499961  0.500039  0.086294  1
  Ga  Ga19  1  0.999961  0.499961  0.086294  1
  Ga  Ga20  1  0.582217  0.082217  0.431496  1
  Ga  Ga21  1  0.082217  0.917783  0.431496  1
  Ga  Ga22  1  0.417783  0.582217  0.431496  1
  Ga  Ga23  1  0.917783  0.417783  0.431496  1
  Ga  Ga24  1  0.417783  0.917783  0.568504  1
  Ga  Ga25  1  0.917783  0.082217  0.568504  1
  Ga  Ga26  1  0.582217  0.417783  0.568504  1
  Ga  Ga27  1  0.082217  0.582217  0.568504  1
  Rh  Rh28  1  0.750000  0.250000  0.000000  1
  Rh  Rh29  1  0.250000  0.750000  0.000000  1
