# generated using pymatgen
data_Hf3Zr2Sc(SiRu)6
_symmetry_space_group_name_H-M   'P 1'
_cell_length_a   7.63215611
_cell_length_b   7.63552439
_cell_length_c   7.63215704
_cell_angle_alpha   127.69444018
_cell_angle_beta   122.67166260
_cell_angle_gamma   81.28745355
_symmetry_Int_Tables_number   1
_chemical_formula_structural   Hf3Zr2Sc(SiRu)6
_chemical_formula_sum   'Hf3 Zr2 Sc1 Si6 Ru6'
_cell_volume   285.40484382
_cell_formula_units_Z   1
loop_
 _symmetry_equiv_pos_site_id
 _symmetry_equiv_pos_as_xyz
  1  'x, y, z'
loop_
 _atom_site_type_symbol
 _atom_site_label
 _atom_site_symmetry_multiplicity
 _atom_site_fract_x
 _atom_site_fract_y
 _atom_site_fract_z
 _atom_site_occupancy
  Hf  Hf0  1  0.252865  0.838638  0.085774  1
  Hf  Hf1  1  0.051680  0.254933  0.703252  1
  Hf  Hf2  1  0.946407  0.650516  0.204110  1
  Zr  Zr3  1  0.533618  0.257378  0.223762  1
  Zr  Zr4  1  0.746851  0.833896  0.587045  1
  Sc  Sc5  1  0.467063  0.691030  0.723967  1
  Si  Si6  1  0.272648  0.267612  0.494965  1
  Si  Si7  1  0.728786  0.228688  0.999903  1
  Si  Si8  1  0.326187  0.588130  0.250872  1
  Si  Si9  1  0.672571  0.921344  0.257676  1
  Si  Si10  1  0.163667  0.921344  0.748773  1
  Si  Si11  1  0.837259  0.588130  0.761944  1
  Ru  Ru12  1  0.493225  0.499590  0.993616  1
  Ru  Ru13  1  0.005974  0.499590  0.506364  1
  Ru  Ru14  1  0.098376  0.252512  0.103587  1
  Ru  Ru15  1  0.904068  0.006878  0.157048  1
  Ru  Ru16  1  0.349830  0.006878  0.602811  1
  Ru  Ru17  1  0.648926  0.252512  0.654137  1
