# generated using pymatgen
data_Pr5NdCoCl10
_symmetry_space_group_name_H-M   'P 1'
_cell_length_a   7.42448345
_cell_length_b   9.12251670
_cell_length_c   9.32184113
_cell_angle_alpha   109.33216543
_cell_angle_beta   96.71566677
_cell_angle_gamma   106.39292721
_symmetry_Int_Tables_number   1
_chemical_formula_structural   Pr5NdCoCl10
_chemical_formula_sum   'Pr5 Nd1 Co1 Cl10'
_cell_volume   555.90262395
_cell_formula_units_Z   1
loop_
 _symmetry_equiv_pos_site_id
 _symmetry_equiv_pos_as_xyz
  1  'x, y, z'
loop_
 _atom_site_type_symbol
 _atom_site_label
 _atom_site_symmetry_multiplicity
 _atom_site_fract_x
 _atom_site_fract_y
 _atom_site_fract_z
 _atom_site_occupancy
  Pr  Pr0  1  0.033131  0.703163  0.404275  1
  Pr  Pr1  1  0.966270  0.296660  0.595340  1
  Pr  Pr2  1  0.859902  0.942642  0.746737  1
  Pr  Pr3  1  0.139268  0.056562  0.253177  1
  Pr  Pr4  1  0.369898  0.146036  0.693767  1
  Nd  Nd5  1  0.631799  0.855443  0.307982  1
  Co  Co6  1  0.999739  0.999893  0.500144  1
  Cl  Cl7  1  0.451526  0.828423  0.573145  1
  Cl  Cl8  1  0.549080  0.170739  0.425500  1
  Cl  Cl9  1  0.913598  0.630892  0.662667  1
  Cl  Cl10  1  0.083901  0.367781  0.335973  1
  Cl  Cl11  1  0.238210  0.078671  0.947036  1
  Cl  Cl12  1  0.760318  0.919520  0.054332  1
  Cl  Cl13  1  0.348553  0.457061  0.769247  1
  Cl  Cl14  1  0.651092  0.545842  0.229072  1
  Cl  Cl15  1  0.792893  0.250546  0.844382  1
  Cl  Cl16  1  0.210821  0.750127  0.157225  1
