# generated using pymatgen
data_Cs3Rb5Sn12(HgSe8)4
_symmetry_space_group_name_H-M   'P 1'
_cell_length_a   8.13745748
_cell_length_b   13.26923643
_cell_length_c   18.88994818
_cell_angle_alpha   89.82089929
_cell_angle_beta   89.93246424
_cell_angle_gamma   89.98530005
_symmetry_Int_Tables_number   1
_chemical_formula_structural   Cs3Rb5Sn12(HgSe8)4
_chemical_formula_sum   'Cs3 Rb5 Sn12 Hg4 Se32'
_cell_volume   2039.68449223
_cell_formula_units_Z   1
loop_
 _symmetry_equiv_pos_site_id
 _symmetry_equiv_pos_as_xyz
  1  'x, y, z'
loop_
 _atom_site_type_symbol
 _atom_site_label
 _atom_site_symmetry_multiplicity
 _atom_site_fract_x
 _atom_site_fract_y
 _atom_site_fract_z
 _atom_site_occupancy
  Cs  Cs0  1  0.262513  0.195886  0.838839  1
  Cs  Cs1  1  0.737449  0.696004  0.661109  1
  Cs  Cs2  1  0.762501  0.303734  0.161306  1
  Rb  Rb3  1  0.746382  0.632749  0.047580  1
  Rb  Rb4  1  0.753670  0.367057  0.547462  1
  Rb  Rb5  1  0.246322  0.867142  0.953189  1
  Rb  Rb6  1  0.253639  0.131939  0.452399  1
  Rb  Rb7  1  0.232226  0.795381  0.334207  1
  Sn  Sn8  1  0.764091  0.053069  0.323711  1
  Sn  Sn9  1  0.736257  0.947122  0.823618  1
  Sn  Sn10  1  0.263696  0.447126  0.676284  1
  Sn  Sn11  1  0.236547  0.553306  0.176455  1
  Sn  Sn12  1  0.731135  0.930457  0.484586  1
  Sn  Sn13  1  0.769301  0.069069  0.984926  1
  Sn  Sn14  1  0.230754  0.569859  0.514940  1
  Sn  Sn15  1  0.269378  0.430883  0.015246  1
  Sn  Sn16  1  0.512763  0.977847  0.153245  1
  Sn  Sn17  1  0.986897  0.021690  0.652273  1
  Sn  Sn18  1  0.013093  0.521820  0.847536  1
  Sn  Sn19  1  0.486663  0.478874  0.347659  1
  Hg  Hg20  1  0.983137  0.500955  0.346733  1
  Hg  Hg21  1  0.517141  0.499040  0.846453  1
  Hg  Hg22  1  0.482809  0.998722  0.652951  1
  Hg  Hg23  1  0.017057  0.000931  0.153835  1
  Se  Se24  1  0.973794  0.620077  0.227972  1
  Se  Se25  1  0.528633  0.382628  0.727169  1
  Se  Se26  1  0.471441  0.882564  0.772975  1
  Se  Se27  1  0.028824  0.117858  0.272831  1
  Se  Se28  1  0.968482  0.629422  0.458334  1
  Se  Se29  1  0.533812  0.372806  0.959808  1
  Se  Se30  1  0.465685  0.873204  0.539903  1
  Se  Se31  1  0.033973  0.126646  0.040394  1
  Se  Se32  1  0.765341  0.868322  0.157840  1
  Se  Se33  1  0.734519  0.131355  0.658136  1
  Se  Se34  1  0.265345  0.631567  0.841948  1
  Se  Se35  1  0.235049  0.368543  0.342028  1
  Se  Se36  1  0.764563  0.635478  0.856653  1
  Se  Se37  1  0.735241  0.365052  0.356771  1
  Se  Se38  1  0.264103  0.863659  0.147506  1
  Se  Se39  1  0.235386  0.135492  0.643340  1
  Se  Se40  1  0.764818  0.862672  0.356659  1
  Se  Se41  1  0.739076  0.137374  0.856714  1
  Se  Se42  1  0.260902  0.637455  0.643048  1
  Se  Se43  1  0.238737  0.363095  0.143699  1
  Se  Se44  1  0.727586  0.121830  0.452293  1
  Se  Se45  1  0.772294  0.877949  0.952482  1
  Se  Se46  1  0.227788  0.378501  0.547586  1
  Se  Se47  1  0.272262  0.622109  0.047545  1
  Se  Se48  1  0.507795  0.601057  0.238551  1
  Se  Se49  1  0.991105  0.400728  0.738328  1
  Se  Se50  1  0.008926  0.900593  0.761970  1
  Se  Se51  1  0.491561  0.099490  0.262047  1
  Se  Se52  1  0.499724  0.613112  0.448902  1
  Se  Se53  1  0.998293  0.389459  0.950571  1
  Se  Se54  1  0.002173  0.889681  0.549691  1
  Se  Se55  1  0.497351  0.109560  0.049766  1
