# generated using pymatgen
data_CsY2HoS5
_symmetry_space_group_name_H-M   'P 1'
_cell_length_a   4.00073300
_cell_length_b   12.19045800
_cell_length_c   21.28675500
_cell_angle_alpha   90.00000000
_cell_angle_beta   90.00000000
_cell_angle_gamma   90.00000000
_symmetry_Int_Tables_number   1
_chemical_formula_structural   CsY2HoS5
_chemical_formula_sum   'Cs4 Y8 Ho4 S20'
_cell_volume   1038.17138118
_cell_formula_units_Z   4
loop_
 _symmetry_equiv_pos_site_id
 _symmetry_equiv_pos_as_xyz
  1  'x, y, z'
loop_
 _atom_site_type_symbol
 _atom_site_label
 _atom_site_symmetry_multiplicity
 _atom_site_fract_x
 _atom_site_fract_y
 _atom_site_fract_z
 _atom_site_occupancy
  Cs  Cs0  1  0.250000  0.848322  0.094669  1
  Cs  Cs1  1  0.750000  0.151678  0.905331  1
  Cs  Cs2  1  0.750000  0.348322  0.405331  1
  Cs  Cs3  1  0.250000  0.651678  0.594669  1
  Y  Y4  1  0.750000  0.798451  0.828121  1
  Y  Y5  1  0.250000  0.201549  0.171879  1
  Y  Y6  1  0.250000  0.298451  0.671879  1
  Y  Y7  1  0.750000  0.701549  0.328121  1
  Y  Y8  1  0.250000  0.959917  0.698886  1
  Y  Y9  1  0.750000  0.040083  0.301114  1
  Y  Y10  1  0.750000  0.459917  0.801114  1
  Y  Y11  1  0.250000  0.540083  0.198886  1
  Ho  Ho12  1  0.750000  0.393014  0.052533  1
  Ho  Ho13  1  0.250000  0.606986  0.947467  1
  Ho  Ho14  1  0.250000  0.893014  0.447467  1
  Ho  Ho15  1  0.750000  0.106986  0.552533  1
  S  S16  1  0.250000  0.952740  0.569251  1
  S  S17  1  0.750000  0.047260  0.430749  1
  S  S18  1  0.750000  0.452740  0.930749  1
  S  S19  1  0.250000  0.547260  0.069251  1
  S  S20  1  0.750000  0.756505  0.954305  1
  S  S21  1  0.250000  0.243495  0.045695  1
  S  S22  1  0.250000  0.256505  0.545695  1
  S  S23  1  0.750000  0.743495  0.454305  1
  S  S24  1  0.250000  0.946888  0.827019  1
  S  S25  1  0.750000  0.053112  0.172981  1
  S  S26  1  0.750000  0.446888  0.672981  1
  S  S27  1  0.250000  0.553112  0.327019  1
  S  S28  1  0.750000  0.127462  0.682269  1
  S  S29  1  0.250000  0.872538  0.317731  1
  S  S30  1  0.250000  0.627462  0.817731  1
  S  S31  1  0.750000  0.372538  0.182269  1
  S  S32  1  0.750000  0.686866  0.200481  1
  S  S33  1  0.250000  0.313134  0.799519  1
  S  S34  1  0.250000  0.186866  0.299519  1
  S  S35  1  0.750000  0.813134  0.700481  1
