# generated using pymatgen
data_Li6Si5PRh12
_symmetry_space_group_name_H-M   'P 1'
_cell_length_a   4.10257400
_cell_length_b   5.78836500
_cell_length_c   12.29432300
_cell_angle_alpha   90.00000000
_cell_angle_beta   89.99907777
_cell_angle_gamma   90.00000000
_symmetry_Int_Tables_number   1
_chemical_formula_structural   Li6Si5PRh12
_chemical_formula_sum   'Li6 Si5 P1 Rh12'
_cell_volume   291.95569489
_cell_formula_units_Z   1
loop_
 _symmetry_equiv_pos_site_id
 _symmetry_equiv_pos_as_xyz
  1  'x, y, z'
loop_
 _atom_site_type_symbol
 _atom_site_label
 _atom_site_symmetry_multiplicity
 _atom_site_fract_x
 _atom_site_fract_y
 _atom_site_fract_z
 _atom_site_occupancy
  Li  Li0  1  0.000000  0.500001  0.000000  1
  Li  Li1  1  0.499774  0.000000  0.167903  1
  Li  Li2  1  0.999763  0.500001  0.332531  1
  Li  Li3  1  0.500001  0.000000  0.500000  1
  Li  Li4  1  0.000237  0.500001  0.667469  1
  Li  Li5  1  0.500225  0.000000  0.832097  1
  Si  Si6  1  0.499844  0.500001  0.167266  1
  Si  Si7  1  0.999833  0.000000  0.333582  1
  Si  Si8  1  0.500001  0.500001  0.500000  1
  Si  Si9  1  0.000167  0.000000  0.666418  1
  Si  Si10  1  0.500156  0.500001  0.832735  1
  P  P11  1  0.000000  0.000000  0.000000  1
  Rh  Rh12  1  0.499999  0.246880  0.000000  1
  Rh  Rh13  1  0.499999  0.753120  0.000000  1
  Rh  Rh14  1  0.999861  0.247940  0.164115  1
  Rh  Rh15  1  0.999861  0.752060  0.164115  1
  Rh  Rh16  1  0.499849  0.250001  0.332698  1
  Rh  Rh17  1  0.499849  0.749999  0.332698  1
  Rh  Rh18  1  0.000000  0.250297  0.500000  1
  Rh  Rh19  1  0.000000  0.749703  0.500000  1
  Rh  Rh20  1  0.500150  0.250001  0.667302  1
  Rh  Rh21  1  0.500150  0.749999  0.667302  1
  Rh  Rh22  1  0.000139  0.247940  0.835885  1
  Rh  Rh23  1  0.000139  0.752060  0.835885  1
