# generated using pymatgen
data_Cs6LuScBr12
_symmetry_space_group_name_H-M   'P 1'
_cell_length_a   9.74128700
_cell_length_b   9.74370673
_cell_length_c   8.08135800
_cell_angle_alpha   90.00000000
_cell_angle_beta   90.00000000
_cell_angle_gamma   90.06211935
_symmetry_Int_Tables_number   1
_chemical_formula_structural   Cs6LuScBr12
_chemical_formula_sum   'Cs6 Lu1 Sc1 Br12'
_cell_volume   767.05169428
_cell_formula_units_Z   1
loop_
 _symmetry_equiv_pos_site_id
 _symmetry_equiv_pos_as_xyz
  1  'x, y, z'
loop_
 _atom_site_type_symbol
 _atom_site_label
 _atom_site_symmetry_multiplicity
 _atom_site_fract_x
 _atom_site_fract_y
 _atom_site_fract_z
 _atom_site_occupancy
  Cs  Cs0  1  0.000000  0.000000  0.500000  1
  Cs  Cs1  1  0.000000  0.000000  0.000000  1
  Cs  Cs2  1  0.235070  0.581296  0.500000  1
  Cs  Cs3  1  0.764930  0.418704  0.500000  1
  Cs  Cs4  1  0.419036  0.235955  0.000000  1
  Cs  Cs5  1  0.580964  0.764045  0.000000  1
  Lu  Lu6  1  0.500000  0.000000  0.500000  1
  Sc  Sc7  1  0.000000  0.500000  0.000000  1
  Br  Br8  1  0.691734  0.057014  0.740743  1
  Br  Br9  1  0.308266  0.942986  0.740743  1
  Br  Br10  1  0.944457  0.687263  0.235355  1
  Br  Br11  1  0.055543  0.312737  0.235355  1
  Br  Br12  1  0.308266  0.942986  0.259257  1
  Br  Br13  1  0.691734  0.057014  0.259257  1
  Br  Br14  1  0.055543  0.312737  0.764645  1
  Br  Br15  1  0.944457  0.687263  0.764645  1
  Br  Br16  1  0.572097  0.729417  0.500000  1
  Br  Br17  1  0.427903  0.270583  0.500000  1
  Br  Br18  1  0.263879  0.570317  0.000000  1
  Br  Br19  1  0.736121  0.429683  0.000000  1
