# generated using pymatgen
data_Pr2BeB3Ir4
_symmetry_space_group_name_H-M   'P 1'
_cell_length_a   7.22289696
_cell_length_b   6.29781777
_cell_length_c   5.62477894
_cell_angle_alpha   74.33443756
_cell_angle_beta   56.16004517
_cell_angle_gamma   48.57442782
_symmetry_Int_Tables_number   1
_chemical_formula_structural   Pr2BeB3Ir4
_chemical_formula_sum   'Pr2 Be1 B3 Ir4'
_cell_volume   157.34697429
_cell_formula_units_Z   1
loop_
 _symmetry_equiv_pos_site_id
 _symmetry_equiv_pos_as_xyz
  1  'x, y, z'
loop_
 _atom_site_type_symbol
 _atom_site_label
 _atom_site_symmetry_multiplicity
 _atom_site_fract_x
 _atom_site_fract_y
 _atom_site_fract_z
 _atom_site_occupancy
  Pr  Pr0  1  0.501233  0.498767  0.501233  1
  Pr  Pr1  1  0.749637  0.750363  0.749637  1
  Be  Be2  1  0.179904  0.820096  0.179904  1
  B  B3  1  0.073347  0.426653  0.073347  1
  B  B4  1  0.822880  0.177120  0.822880  1
  B  B5  1  0.427784  0.072216  0.427784  1
  Ir  Ir6  1  0.868738  0.864974  0.124394  1
  Ir  Ir7  1  0.124394  0.141895  0.868738  1
  Ir  Ir8  1  0.387121  0.364703  0.114963  1
  Ir  Ir9  1  0.114963  0.133213  0.387121  1
