# generated using pymatgen
data_Ta2TiZn3(Co5B2)2
_symmetry_space_group_name_H-M   'P 1'
_cell_length_a   8.54460696
_cell_length_b   8.54460821
_cell_length_c   2.96608900
_cell_angle_alpha   90.00000000
_cell_angle_beta   90.00000000
_cell_angle_gamma   91.03485053
_symmetry_Int_Tables_number   1
_chemical_formula_structural   Ta2TiZn3(Co5B2)2
_chemical_formula_sum   'Ta2 Ti1 Zn3 Co10 B4'
_cell_volume   216.51978214
_cell_formula_units_Z   1
loop_
 _symmetry_equiv_pos_site_id
 _symmetry_equiv_pos_as_xyz
  1  'x, y, z'
loop_
 _atom_site_type_symbol
 _atom_site_label
 _atom_site_symmetry_multiplicity
 _atom_site_fract_x
 _atom_site_fract_y
 _atom_site_fract_z
 _atom_site_occupancy
  Ta  Ta0  1  0.323662  0.178392  0.000000  1
  Ta  Ta1  1  0.678392  0.823662  0.000000  1
  Ti  Ti2  1  0.172082  0.672082  0.000000  1
  Zn  Zn3  1  0.497960  0.502172  0.000000  1
  Zn  Zn4  1  0.002172  0.997960  0.000000  1
  Zn  Zn5  1  0.822186  0.322186  0.000000  1
  Co  Co6  1  0.500337  0.000337  0.500000  1
  Co  Co7  1  0.999409  0.499409  0.500000  1
  Co  Co8  1  0.720445  0.572257  0.500000  1
  Co  Co9  1  0.277863  0.433729  0.500000  1
  Co  Co10  1  0.221256  0.927690  0.500000  1
  Co  Co11  1  0.779609  0.067208  0.500000  1
  Co  Co12  1  0.427690  0.721256  0.500000  1
  Co  Co13  1  0.567208  0.279609  0.500000  1
  Co  Co14  1  0.072257  0.220445  0.500000  1
  Co  Co15  1  0.933729  0.777863  0.500000  1
  B  B16  1  0.624132  0.124132  0.000000  1
  B  B17  1  0.377093  0.877093  0.000000  1
  B  B18  1  0.122117  0.380402  0.000000  1
  B  B19  1  0.880402  0.622117  0.000000  1
