# generated using pymatgen
data_NbI2ClF
_symmetry_space_group_name_H-M   'P 1'
_cell_length_a   7.72976917
_cell_length_b   7.72977072
_cell_length_c   7.72976960
_cell_angle_alpha   120.99388005
_cell_angle_beta   112.66382273
_cell_angle_gamma   95.72363500
_symmetry_Int_Tables_number   1
_chemical_formula_structural   NbI2ClF
_chemical_formula_sum   'Nb2 I4 Cl2 F2'
_cell_volume   338.39127322
_cell_formula_units_Z   2
loop_
 _symmetry_equiv_pos_site_id
 _symmetry_equiv_pos_as_xyz
  1  'x, y, z'
loop_
 _atom_site_type_symbol
 _atom_site_label
 _atom_site_symmetry_multiplicity
 _atom_site_fract_x
 _atom_site_fract_y
 _atom_site_fract_z
 _atom_site_occupancy
  Nb  Nb0  1  0.000000  0.293463  0.293463  1
  Nb  Nb1  1  0.000000  0.711640  0.711640  1
  I  I2  1  0.817369  0.819080  0.001710  1
  I  I3  1  0.182631  0.184341  0.001710  1
  I  I4  1  0.779434  0.281201  0.501768  1
  I  I5  1  0.220566  0.722334  0.501768  1
  Cl  Cl6  1  0.726640  0.718078  0.444718  1
  Cl  Cl7  1  0.273360  0.718078  0.991436  1
  F  F8  1  0.777349  0.275893  0.053243  1
  F  F9  1  0.222651  0.275893  0.498545  1
