# generated using pymatgen
data_Tb4Ho11Er(Ga3Co)2
_symmetry_space_group_name_H-M   'P 1'
_cell_length_a   9.98092601
_cell_length_b   9.97981827
_cell_length_c   6.89509000
_cell_angle_alpha   89.99602385
_cell_angle_beta   90.00104997
_cell_angle_gamma   120.01497030
_symmetry_Int_Tables_number   1
_chemical_formula_structural   Tb4Ho11Er(Ga3Co)2
_chemical_formula_sum   'Tb4 Ho11 Er1 Ga6 Co2'
_cell_volume   594.70077667
_cell_formula_units_Z   1
loop_
 _symmetry_equiv_pos_site_id
 _symmetry_equiv_pos_as_xyz
  1  'x, y, z'
loop_
 _atom_site_type_symbol
 _atom_site_label
 _atom_site_symmetry_multiplicity
 _atom_site_fract_x
 _atom_site_fract_y
 _atom_site_fract_z
 _atom_site_occupancy
  Tb  Tb0  1  0.999658  0.000227  0.270317  1
  Tb  Tb1  1  0.000322  0.999729  0.770356  1
  Tb  Tb2  1  0.173082  0.827325  0.990593  1
  Tb  Tb3  1  0.826971  0.172781  0.490997  1
  Ho  Ho4  1  0.173090  0.346399  0.990674  1
  Ho  Ho5  1  0.653478  0.827061  0.990468  1
  Ho  Ho6  1  0.346586  0.173048  0.490883  1
  Ho  Ho7  1  0.826906  0.653589  0.490691  1
  Ho  Ho8  1  0.333606  0.666711  0.672588  1
  Ho  Ho9  1  0.666371  0.333245  0.172340  1
  Ho  Ho10  1  0.463669  0.536367  0.292785  1
  Ho  Ho11  1  0.536353  0.463535  0.792779  1
  Ho  Ho12  1  0.463516  0.926721  0.293308  1
  Ho  Ho13  1  0.073449  0.536591  0.293218  1
  Ho  Ho14  1  0.926393  0.463291  0.793206  1
  Er  Er15  1  0.536800  0.073829  0.793507  1
  Ga  Ga16  1  0.163708  0.836308  0.539298  1
  Ga  Ga17  1  0.836077  0.163655  0.039021  1
  Ga  Ga18  1  0.164985  0.327907  0.540933  1
  Ga  Ga19  1  0.672072  0.835013  0.541087  1
  Ga  Ga20  1  0.328087  0.164946  0.040811  1
  Ga  Ga21  1  0.835024  0.672116  0.041025  1
  Co  Co22  1  0.333778  0.666259  0.057500  1
  Co  Co23  1  0.666022  0.333344  0.557736  1
