# generated using pymatgen
data_HfNb8GeSe16
_symmetry_space_group_name_H-M   'P 1'
_cell_length_a   7.02467400
_cell_length_b   7.02467525
_cell_length_c   13.80386900
_cell_angle_alpha   90.00000000
_cell_angle_beta   90.00000000
_cell_angle_gamma   120.00000355
_symmetry_Int_Tables_number   1
_chemical_formula_structural   HfNb8GeSe16
_chemical_formula_sum   'Hf1 Nb8 Ge1 Se16'
_cell_volume   589.90743672
_cell_formula_units_Z   1
loop_
 _symmetry_equiv_pos_site_id
 _symmetry_equiv_pos_as_xyz
  1  'x, y, z'
loop_
 _atom_site_type_symbol
 _atom_site_label
 _atom_site_symmetry_multiplicity
 _atom_site_fract_x
 _atom_site_fract_y
 _atom_site_fract_z
 _atom_site_occupancy
  Hf  Hf0  1  0.000000  0.000000  0.500000  1
  Nb  Nb1  1  0.000000  0.000000  0.260461  1
  Nb  Nb2  1  0.000000  0.000000  0.739539  1
  Nb  Nb3  1  0.506865  0.013729  0.258806  1
  Nb  Nb4  1  0.493135  0.986271  0.741194  1
  Nb  Nb5  1  0.986271  0.493135  0.258806  1
  Nb  Nb6  1  0.013729  0.506865  0.741194  1
  Nb  Nb7  1  0.506865  0.493135  0.258806  1
  Nb  Nb8  1  0.493135  0.506865  0.741194  1
  Ge  Ge9  1  0.000000  0.000000  0.000000  1
  Se  Se10  1  0.333333  0.666667  0.617189  1
  Se  Se11  1  0.666667  0.333333  0.382811  1
  Se  Se12  1  0.666667  0.333333  0.133956  1
  Se  Se13  1  0.333333  0.666667  0.866044  1
  Se  Se14  1  0.167660  0.335320  0.139368  1
  Se  Se15  1  0.832340  0.664680  0.860632  1
  Se  Se16  1  0.664680  0.832340  0.139368  1
  Se  Se17  1  0.830128  0.660256  0.619865  1
  Se  Se18  1  0.335320  0.167660  0.860632  1
  Se  Se19  1  0.169872  0.339744  0.380135  1
  Se  Se20  1  0.167660  0.832340  0.139368  1
  Se  Se21  1  0.339744  0.169872  0.619865  1
  Se  Se22  1  0.832340  0.167660  0.860632  1
  Se  Se23  1  0.660256  0.830128  0.380135  1
  Se  Se24  1  0.830128  0.169872  0.619865  1
  Se  Se25  1  0.169872  0.830128  0.380135  1
