# generated using pymatgen
data_PrNdPd2F14
_symmetry_space_group_name_H-M   'P 1'
_cell_length_a   5.65588700
_cell_length_b   9.16806981
_cell_length_c   12.27472594
_cell_angle_alpha   61.96258661
_cell_angle_beta   90.00000000
_cell_angle_gamma   90.00000000
_symmetry_Int_Tables_number   1
_chemical_formula_structural   PrNdPd2F14
_chemical_formula_sum   'Pr2 Nd2 Pd4 F28'
_cell_volume   561.79059129
_cell_formula_units_Z   2
loop_
 _symmetry_equiv_pos_site_id
 _symmetry_equiv_pos_as_xyz
  1  'x, y, z'
loop_
 _atom_site_type_symbol
 _atom_site_label
 _atom_site_symmetry_multiplicity
 _atom_site_fract_x
 _atom_site_fract_y
 _atom_site_fract_z
 _atom_site_occupancy
  Pr  Pr0  1  0.238570  0.190031  0.235538  1
  Pr  Pr1  1  0.738570  0.809969  0.264462  1
  Nd  Nd2  1  0.761674  0.811115  0.764134  1
  Nd  Nd3  1  0.261674  0.188885  0.735866  1
  Pd  Pd4  1  0.756911  0.274130  0.956337  1
  Pd  Pd5  1  0.256911  0.725870  0.543663  1
  Pd  Pd6  1  0.243327  0.727388  0.041402  1
  Pd  Pd7  1  0.743327  0.272612  0.458598  1
  F  F8  1  0.430462  0.707264  0.915999  1
  F  F9  1  0.930462  0.292736  0.584001  1
  F  F10  1  0.571299  0.293783  0.082247  1
  F  F11  1  0.071299  0.706217  0.417753  1
  F  F12  1  0.449917  0.281471  0.539121  1
  F  F13  1  0.949917  0.718529  0.960879  1
  F  F14  1  0.549442  0.717083  0.462924  1
  F  F15  1  0.049442  0.282917  0.037076  1
  F  F16  1  0.766475  0.514574  0.861190  1
  F  F17  1  0.266475  0.485426  0.638810  1
  F  F18  1  0.233313  0.487481  0.137569  1
  F  F19  1  0.733313  0.512519  0.362431  1
  F  F20  1  0.757536  0.034113  0.046939  1
  F  F21  1  0.257536  0.965887  0.453061  1
  F  F22  1  0.242703  0.967616  0.951239  1
  F  F23  1  0.742703  0.032384  0.548761  1
  F  F24  1  0.968332  0.727845  0.629535  1
  F  F25  1  0.468332  0.272155  0.870465  1
  F  F26  1  0.031400  0.272367  0.372123  1
  F  F27  1  0.531400  0.727633  0.127877  1
  F  F28  1  0.061754  0.741119  0.171244  1
  F  F29  1  0.561754  0.258881  0.328756  1
  F  F30  1  0.940190  0.258777  0.827496  1
  F  F31  1  0.440190  0.741223  0.672504  1
  F  F32  1  0.401585  0.965597  0.230066  1
  F  F33  1  0.901585  0.034403  0.269934  1
  F  F34  1  0.595112  0.033114  0.769166  1
  F  F35  1  0.095112  0.966886  0.730834  1
