# generated using pymatgen
data_TbDyHo2(WO6)2
_symmetry_space_group_name_H-M   'P 1'
_cell_length_a   5.39742800
_cell_length_b   7.70084462
_cell_length_c   11.46761999
_cell_angle_alpha   75.49800978
_cell_angle_beta   90.00000000
_cell_angle_gamma   90.00000000
_symmetry_Int_Tables_number   1
_chemical_formula_structural   TbDyHo2(WO6)2
_chemical_formula_sum   'Tb2 Dy2 Ho4 W4 O24'
_cell_volume   461.46227304
_cell_formula_units_Z   2
loop_
 _symmetry_equiv_pos_site_id
 _symmetry_equiv_pos_as_xyz
  1  'x, y, z'
loop_
 _atom_site_type_symbol
 _atom_site_label
 _atom_site_symmetry_multiplicity
 _atom_site_fract_x
 _atom_site_fract_y
 _atom_site_fract_z
 _atom_site_occupancy
  Tb  Tb0  1  0.683856  0.500000  0.750000  1
  Tb  Tb1  1  0.316144  0.500000  0.250000  1
  Dy  Dy2  1  0.738979  0.000000  0.750000  1
  Dy  Dy3  1  0.261021  0.000000  0.250000  1
  Ho  Ho4  1  0.186518  0.796158  0.577776  1
  Ho  Ho5  1  0.813482  0.796158  0.077776  1
  Ho  Ho6  1  0.186518  0.203842  0.922224  1
  Ho  Ho7  1  0.813482  0.203842  0.422224  1
  W  W8  1  0.254044  0.723488  0.885701  1
  W  W9  1  0.745956  0.723488  0.385701  1
  W  W10  1  0.254044  0.276512  0.614299  1
  W  W11  1  0.745956  0.276512  0.114299  1
  O  O12  1  0.041300  0.939813  0.895852  1
  O  O13  1  0.530069  0.848995  0.931156  1
  O  O14  1  0.958700  0.939813  0.395852  1
  O  O15  1  0.458409  0.789665  0.727686  1
  O  O16  1  0.469931  0.848995  0.431156  1
  O  O17  1  0.982650  0.711220  0.771111  1
  O  O18  1  0.541591  0.789665  0.227686  1
  O  O19  1  0.852248  0.635864  0.548309  1
  O  O20  1  0.360141  0.489563  0.887149  1
  O  O21  1  0.017350  0.711220  0.271111  1
  O  O22  1  0.360141  0.510437  0.612851  1
  O  O23  1  0.852248  0.364136  0.951691  1
  O  O24  1  0.147752  0.635864  0.048309  1
  O  O25  1  0.639859  0.489563  0.387149  1
  O  O26  1  0.982650  0.288780  0.728889  1
  O  O27  1  0.639859  0.510437  0.112851  1
  O  O28  1  0.147752  0.364136  0.451691  1
  O  O29  1  0.458409  0.210335  0.772314  1
  O  O30  1  0.017350  0.288780  0.228889  1
  O  O31  1  0.530069  0.151005  0.568844  1
  O  O32  1  0.541591  0.210335  0.272314  1
  O  O33  1  0.041300  0.060187  0.604148  1
  O  O34  1  0.469931  0.151005  0.068844  1
  O  O35  1  0.958700  0.060187  0.104148  1
