# generated using pymatgen
data_Lu2UMn3
_symmetry_space_group_name_H-M   'P 1'
_cell_length_a   5.52344106
_cell_length_b   5.06094835
_cell_length_c   5.52343900
_cell_angle_alpha   56.92800819
_cell_angle_beta   59.99999436
_cell_angle_gamma   56.92801031
_symmetry_Int_Tables_number   1
_chemical_formula_structural   Lu2UMn3
_chemical_formula_sum   'Lu2 U1 Mn3'
_cell_volume   103.83074673
_cell_formula_units_Z   1
loop_
 _symmetry_equiv_pos_site_id
 _symmetry_equiv_pos_as_xyz
  1  'x, y, z'
loop_
 _atom_site_type_symbol
 _atom_site_label
 _atom_site_symmetry_multiplicity
 _atom_site_fract_x
 _atom_site_fract_y
 _atom_site_fract_z
 _atom_site_occupancy
  Lu  Lu0  1  0.751017  0.746949  0.751017  1
  Lu  Lu1  1  0.498983  0.503051  0.498983  1
  U  U2  1  0.125000  0.625000  0.125000  1
  Mn  Mn3  1  0.125000  0.125000  0.125000  1
  Mn  Mn4  1  0.625000  0.125000  0.125000  1
  Mn  Mn5  1  0.125000  0.125000  0.625000  1
