# generated using pymatgen
data_La6Mg7Cd16P
_symmetry_space_group_name_H-M   'P 1'
_cell_length_a   10.16483223
_cell_length_b   10.16483228
_cell_length_c   10.16483300
_cell_angle_alpha   60.00000090
_cell_angle_beta   60.00000074
_cell_angle_gamma   60.00000253
_symmetry_Int_Tables_number   1
_chemical_formula_structural   La6Mg7Cd16P
_chemical_formula_sum   'La6 Mg7 Cd16 P1'
_cell_volume   742.65258277
_cell_formula_units_Z   1
loop_
 _symmetry_equiv_pos_site_id
 _symmetry_equiv_pos_as_xyz
  1  'x, y, z'
loop_
 _atom_site_type_symbol
 _atom_site_label
 _atom_site_symmetry_multiplicity
 _atom_site_fract_x
 _atom_site_fract_y
 _atom_site_fract_z
 _atom_site_occupancy
  La  La0  1  0.793313  0.793313  0.206687  1
  La  La1  1  0.206687  0.793313  0.206687  1
  La  La2  1  0.793313  0.206687  0.206687  1
  La  La3  1  0.206687  0.206687  0.793313  1
  La  La4  1  0.793313  0.206687  0.793313  1
  La  La5  1  0.206687  0.793313  0.793313  1
  Mg  Mg6  1  0.000000  0.000000  0.500000  1
  Mg  Mg7  1  0.500000  0.000000  0.500000  1
  Mg  Mg8  1  0.000000  0.500000  0.500000  1
  Mg  Mg9  1  0.500000  0.500000  0.000000  1
  Mg  Mg10  1  0.000000  0.500000  0.000000  1
  Mg  Mg11  1  0.500000  0.000000  0.000000  1
  Mg  Mg12  1  0.500000  0.500000  0.500000  1
  Cd  Cd13  1  0.829937  0.829937  0.510190  1
  Cd  Cd14  1  0.829937  0.510190  0.829937  1
  Cd  Cd15  1  0.510190  0.829937  0.829937  1
  Cd  Cd16  1  0.829937  0.829937  0.829937  1
  Cd  Cd17  1  0.170063  0.170063  0.489810  1
  Cd  Cd18  1  0.170063  0.489810  0.170063  1
  Cd  Cd19  1  0.489810  0.170063  0.170063  1
  Cd  Cd20  1  0.170063  0.170063  0.170063  1
  Cd  Cd21  1  0.620686  0.620686  0.137942  1
  Cd  Cd22  1  0.620686  0.137942  0.620686  1
  Cd  Cd23  1  0.137942  0.620686  0.620686  1
  Cd  Cd24  1  0.620686  0.620686  0.620686  1
  Cd  Cd25  1  0.379314  0.379314  0.862058  1
  Cd  Cd26  1  0.379314  0.862058  0.379314  1
  Cd  Cd27  1  0.862058  0.379314  0.379314  1
  Cd  Cd28  1  0.379314  0.379314  0.379314  1
  P  P29  1  0.000000  0.000000  0.000000  1
