# generated using pymatgen
data_Nd4AuBr6
_symmetry_space_group_name_H-M   'P 1'
_cell_length_a   4.23871800
_cell_length_b   13.91075100
_cell_length_c   14.75255500
_cell_angle_alpha   90.00000000
_cell_angle_beta   90.00000000
_cell_angle_gamma   90.00000000
_symmetry_Int_Tables_number   1
_chemical_formula_structural   Nd4AuBr6
_chemical_formula_sum   'Nd8 Au2 Br12'
_cell_volume   869.86597458
_cell_formula_units_Z   2
loop_
 _symmetry_equiv_pos_site_id
 _symmetry_equiv_pos_as_xyz
  1  'x, y, z'
loop_
 _atom_site_type_symbol
 _atom_site_label
 _atom_site_symmetry_multiplicity
 _atom_site_fract_x
 _atom_site_fract_y
 _atom_site_fract_z
 _atom_site_occupancy
  Nd  Nd0  1  0.500000  0.121033  0.337678  1
  Nd  Nd1  1  0.500000  0.878967  0.662322  1
  Nd  Nd2  1  0.500000  0.621033  0.162322  1
  Nd  Nd3  1  0.500000  0.378967  0.837678  1
  Nd  Nd4  1  0.000000  0.120690  0.580162  1
  Nd  Nd5  1  0.000000  0.879310  0.419838  1
  Nd  Nd6  1  0.000000  0.620690  0.919838  1
  Nd  Nd7  1  0.000000  0.379310  0.080162  1
  Au  Au8  1  0.500000  0.000000  0.500000  1
  Au  Au9  1  0.500000  0.500000  0.000000  1
  Br  Br10  1  0.500000  0.243332  0.162887  1
  Br  Br11  1  0.500000  0.756668  0.837113  1
  Br  Br12  1  0.500000  0.743332  0.337113  1
  Br  Br13  1  0.500000  0.256668  0.662887  1
  Br  Br14  1  0.000000  0.253063  0.410110  1
  Br  Br15  1  0.000000  0.746937  0.589890  1
  Br  Br16  1  0.000000  0.753063  0.089890  1
  Br  Br17  1  0.000000  0.246937  0.910110  1
  Br  Br18  1  0.000000  0.002938  0.245369  1
  Br  Br19  1  0.000000  0.997062  0.754631  1
  Br  Br20  1  0.000000  0.502938  0.254631  1
  Br  Br21  1  0.000000  0.497062  0.745369  1
