# generated using pymatgen
data_Tm4MgIrAu2
_symmetry_space_group_name_H-M   'P 1'
_cell_length_a   10.99408800
_cell_length_b   10.99408800
_cell_length_c   6.17769800
_cell_angle_alpha   90.00000000
_cell_angle_beta   90.00000000
_cell_angle_gamma   90.00000000
_symmetry_Int_Tables_number   1
_chemical_formula_structural   Tm4MgIrAu2
_chemical_formula_sum   'Tm16 Mg4 Ir4 Au8'
_cell_volume   746.69817781
_cell_formula_units_Z   4
loop_
 _symmetry_equiv_pos_site_id
 _symmetry_equiv_pos_as_xyz
  1  'x, y, z'
loop_
 _atom_site_type_symbol
 _atom_site_label
 _atom_site_symmetry_multiplicity
 _atom_site_fract_x
 _atom_site_fract_y
 _atom_site_fract_z
 _atom_site_occupancy
  Tm  Tm0  1  0.294333  0.082662  0.358382  1
  Tm  Tm1  1  0.294333  0.917338  0.858382  1
  Tm  Tm2  1  0.705667  0.082662  0.858382  1
  Tm  Tm3  1  0.705667  0.917338  0.358382  1
  Tm  Tm4  1  0.582662  0.794333  0.858382  1
  Tm  Tm5  1  0.582662  0.205667  0.358382  1
  Tm  Tm6  1  0.417338  0.794333  0.358382  1
  Tm  Tm7  1  0.417338  0.205667  0.858382  1
  Tm  Tm8  1  0.205667  0.417338  0.641618  1
  Tm  Tm9  1  0.205667  0.582662  0.141618  1
  Tm  Tm10  1  0.794333  0.417338  0.141618  1
  Tm  Tm11  1  0.794333  0.582662  0.641618  1
  Tm  Tm12  1  0.917338  0.705667  0.141618  1
  Tm  Tm13  1  0.917338  0.294333  0.641618  1
  Tm  Tm14  1  0.082662  0.705667  0.641618  1
  Tm  Tm15  1  0.082662  0.294333  0.141618  1
  Mg  Mg16  1  0.000000  0.000000  0.500000  1
  Mg  Mg17  1  0.000000  0.000000  0.000000  1
  Mg  Mg18  1  0.500000  0.500000  0.000000  1
  Mg  Mg19  1  0.500000  0.500000  0.500000  1
  Ir  Ir20  1  0.500000  0.000000  0.107451  1
  Ir  Ir21  1  0.500000  0.000000  0.607451  1
  Ir  Ir22  1  0.000000  0.500000  0.892549  1
  Ir  Ir23  1  0.000000  0.500000  0.392549  1
  Au  Au24  1  0.846730  0.153270  0.250000  1
  Au  Au25  1  0.846730  0.846730  0.750000  1
  Au  Au26  1  0.153270  0.153270  0.750000  1
  Au  Au27  1  0.153270  0.846730  0.250000  1
  Au  Au28  1  0.653270  0.346730  0.750000  1
  Au  Au29  1  0.653270  0.653270  0.250000  1
  Au  Au30  1  0.346730  0.346730  0.250000  1
  Au  Au31  1  0.346730  0.653270  0.750000  1
