# generated using pymatgen
data_Tb16Cd4PdRu2Pt
_symmetry_space_group_name_H-M   'P 1'
_cell_length_a   9.70061957
_cell_length_b   9.69465195
_cell_length_c   9.72796000
_cell_angle_alpha   59.88628227
_cell_angle_beta   59.90672350
_cell_angle_gamma   59.84733821
_symmetry_Int_Tables_number   1
_chemical_formula_structural   Tb16Cd4PdRu2Pt
_chemical_formula_sum   'Tb16 Cd4 Pd1 Ru2 Pt1'
_cell_volume   645.14194436
_cell_formula_units_Z   1
loop_
 _symmetry_equiv_pos_site_id
 _symmetry_equiv_pos_as_xyz
  1  'x, y, z'
loop_
 _atom_site_type_symbol
 _atom_site_label
 _atom_site_symmetry_multiplicity
 _atom_site_fract_x
 _atom_site_fract_y
 _atom_site_fract_z
 _atom_site_occupancy
  Tb  Tb0  1  0.349818  0.347868  0.353653  1
  Tb  Tb1  1  0.349818  0.347868  0.948660  1
  Tb  Tb2  1  0.345928  0.954280  0.349896  1
  Tb  Tb3  1  0.952753  0.344981  0.351133  1
  Tb  Tb4  1  0.814881  0.187964  0.189978  1
  Tb  Tb5  1  0.188336  0.816233  0.805724  1
  Tb  Tb6  1  0.188336  0.816233  0.189707  1
  Tb  Tb7  1  0.814881  0.187964  0.807177  1
  Tb  Tb8  1  0.188348  0.187848  0.811902  1
  Tb  Tb9  1  0.807793  0.809852  0.191178  1
  Tb  Tb10  1  0.936535  0.559841  0.566977  1
  Tb  Tb11  1  0.559685  0.936929  0.937098  1
  Tb  Tb12  1  0.559685  0.936929  0.566287  1
  Tb  Tb13  1  0.936535  0.559841  0.936647  1
  Tb  Tb14  1  0.564661  0.563619  0.935860  1
  Tb  Tb15  1  0.937816  0.937714  0.562235  1
  Cd  Cd16  1  0.580489  0.580346  0.581245  1
  Cd  Cd17  1  0.580489  0.580346  0.257919  1
  Cd  Cd18  1  0.581556  0.255350  0.581547  1
  Cd  Cd19  1  0.255476  0.581383  0.581570  1
  Pd  Pd20  1  0.144767  0.572437  0.141398  1
  Ru  Ru21  1  0.144111  0.144313  0.138037  1
  Ru  Ru22  1  0.144111  0.144313  0.573539  1
  Pt  Pt23  1  0.573190  0.145547  0.140632  1
