# generated using pymatgen
data_Er4TlPd
_symmetry_space_group_name_H-M   'P 1'
_cell_length_a   9.66919791
_cell_length_b   9.66919872
_cell_length_c   9.66919900
_cell_angle_alpha   60.00000246
_cell_angle_beta   59.99999970
_cell_angle_gamma   60.00000256
_symmetry_Int_Tables_number   1
_chemical_formula_structural   Er4TlPd
_chemical_formula_sum   'Er16 Tl4 Pd4'
_cell_volume   639.22897360
_cell_formula_units_Z   4
loop_
 _symmetry_equiv_pos_site_id
 _symmetry_equiv_pos_as_xyz
  1  'x, y, z'
loop_
 _atom_site_type_symbol
 _atom_site_label
 _atom_site_symmetry_multiplicity
 _atom_site_fract_x
 _atom_site_fract_y
 _atom_site_fract_z
 _atom_site_occupancy
  Er  Er0  1  0.352289  0.352289  0.352289  1
  Er  Er1  1  0.352289  0.352289  0.943133  1
  Er  Er2  1  0.352289  0.943133  0.352289  1
  Er  Er3  1  0.943133  0.352289  0.352289  1
  Er  Er4  1  0.811402  0.188598  0.188598  1
  Er  Er5  1  0.188598  0.811402  0.811402  1
  Er  Er6  1  0.188598  0.811402  0.188598  1
  Er  Er7  1  0.811402  0.188598  0.811402  1
  Er  Er8  1  0.188598  0.188598  0.811402  1
  Er  Er9  1  0.811402  0.811402  0.188598  1
  Er  Er10  1  0.936959  0.563041  0.563041  1
  Er  Er11  1  0.563041  0.936959  0.936959  1
  Er  Er12  1  0.563041  0.936959  0.563041  1
  Er  Er13  1  0.936959  0.563041  0.936959  1
  Er  Er14  1  0.563041  0.563041  0.936959  1
  Er  Er15  1  0.936959  0.936959  0.563041  1
  Tl  Tl16  1  0.585944  0.585944  0.585944  1
  Tl  Tl17  1  0.585944  0.585944  0.242167  1
  Tl  Tl18  1  0.585944  0.242167  0.585944  1
  Tl  Tl19  1  0.242167  0.585944  0.585944  1
  Pd  Pd20  1  0.143771  0.143771  0.143771  1
  Pd  Pd21  1  0.143771  0.143771  0.568686  1
  Pd  Pd22  1  0.143771  0.568686  0.143771  1
  Pd  Pd23  1  0.568686  0.143771  0.143771  1
