# generated using pymatgen
data_NdDy5(WO7)2
_symmetry_space_group_name_H-M   'P 1'
_cell_length_a   6.49762227
_cell_length_b   6.49762256
_cell_length_c   7.54321023
_cell_angle_alpha   89.92808415
_cell_angle_beta   90.07191230
_cell_angle_gamma   109.03389650
_symmetry_Int_Tables_number   1
_chemical_formula_structural   NdDy5(WO7)2
_chemical_formula_sum   'Nd1 Dy5 W2 O14'
_cell_volume   301.05521056
_cell_formula_units_Z   1
loop_
 _symmetry_equiv_pos_site_id
 _symmetry_equiv_pos_as_xyz
  1  'x, y, z'
loop_
 _atom_site_type_symbol
 _atom_site_label
 _atom_site_symmetry_multiplicity
 _atom_site_fract_x
 _atom_site_fract_y
 _atom_site_fract_z
 _atom_site_occupancy
  Nd  Nd0  1  0.504362  0.504362  0.250000  1
  Dy  Dy1  1  0.478383  0.478383  0.750000  1
  Dy  Dy2  1  0.997654  0.467658  0.500207  1
  Dy  Dy3  1  0.533875  0.000729  0.505069  1
  Dy  Dy4  1  0.000729  0.533875  0.994931  1
  Dy  Dy5  1  0.467658  0.997654  0.999793  1
  W  W6  1  0.000510  0.000510  0.250000  1
  W  W7  1  0.999435  0.999435  0.750000  1
  O  O8  1  0.070956  0.320722  0.217900  1
  O  O9  1  0.683438  0.935070  0.782180  1
  O  O10  1  0.935070  0.683438  0.717820  1
  O  O11  1  0.320722  0.070956  0.282100  1
  O  O12  1  0.677052  0.925143  0.221678  1
  O  O13  1  0.080829  0.324554  0.777778  1
  O  O14  1  0.324554  0.080829  0.722222  1
  O  O15  1  0.925143  0.677052  0.278322  1
  O  O16  1  0.365361  0.633477  0.508384  1
  O  O17  1  0.633477  0.365361  0.991616  1
  O  O18  1  0.361305  0.638361  0.991805  1
  O  O19  1  0.638361  0.361305  0.508195  1
  O  O20  1  0.926866  0.074261  0.499737  1
  O  O21  1  0.074261  0.926866  0.000263  1
