# generated using pymatgen
data_Hf4ZrSc3Os8
_symmetry_space_group_name_H-M   'P 1'
_cell_length_a   6.44547600
_cell_length_b   4.60621100
_cell_length_c   9.21510300
_cell_angle_alpha   90.00000000
_cell_angle_beta   89.99996711
_cell_angle_gamma   90.00000000
_symmetry_Int_Tables_number   1
_chemical_formula_structural   Hf4ZrSc3Os8
_chemical_formula_sum   'Hf4 Zr1 Sc3 Os8'
_cell_volume   273.58924288
_cell_formula_units_Z   1
loop_
 _symmetry_equiv_pos_site_id
 _symmetry_equiv_pos_as_xyz
  1  'x, y, z'
loop_
 _atom_site_type_symbol
 _atom_site_label
 _atom_site_symmetry_multiplicity
 _atom_site_fract_x
 _atom_site_fract_y
 _atom_site_fract_z
 _atom_site_occupancy
  Hf  Hf0  1  0.750002  0.249999  0.125002  1
  Hf  Hf1  1  0.250002  0.749999  0.378137  1
  Hf  Hf2  1  0.750000  0.249999  0.625002  1
  Hf  Hf3  1  0.249997  0.749999  0.871869  1
  Zr  Zr4  1  0.250004  0.249999  0.125008  1
  Sc  Sc5  1  0.750004  0.749999  0.375883  1
  Sc  Sc6  1  0.250006  0.249999  0.625009  1
  Sc  Sc7  1  0.749993  0.749999  0.874098  1
  Os  Os8  1  0.000127  0.749999  0.125002  1
  Os  Os9  1  0.499889  0.749999  0.125002  1
  Os  Os10  1  0.000342  0.249999  0.374484  1
  Os  Os11  1  0.499648  0.249999  0.374484  1
  Os  Os12  1  0.500400  0.749999  0.625004  1
  Os  Os13  1  0.999609  0.749999  0.625005  1
  Os  Os14  1  0.499642  0.249999  0.875508  1
  Os  Os15  1  0.000337  0.249999  0.875508  1
