# generated using pymatgen
data_Tm3Co8P6W
_symmetry_space_group_name_H-M   'P 1'
_cell_length_a   3.68896900
_cell_length_b   10.48163700
_cell_length_c   12.16037400
_cell_angle_alpha   90.00000000
_cell_angle_beta   90.00000000
_cell_angle_gamma   90.00000000
_symmetry_Int_Tables_number   1
_chemical_formula_structural   Tm3Co8P6W
_chemical_formula_sum   'Tm6 Co16 P12 W2'
_cell_volume   470.19829823
_cell_formula_units_Z   2
loop_
 _symmetry_equiv_pos_site_id
 _symmetry_equiv_pos_as_xyz
  1  'x, y, z'
loop_
 _atom_site_type_symbol
 _atom_site_label
 _atom_site_symmetry_multiplicity
 _atom_site_fract_x
 _atom_site_fract_y
 _atom_site_fract_z
 _atom_site_occupancy
  Tm  Tm0  1  0.000000  0.500000  0.524928  1
  Tm  Tm1  1  0.500000  0.000000  0.475072  1
  Tm  Tm2  1  0.500000  0.820139  0.205275  1
  Tm  Tm3  1  0.500000  0.179861  0.205275  1
  Tm  Tm4  1  0.000000  0.679861  0.794725  1
  Tm  Tm5  1  0.000000  0.320139  0.794725  1
  Co  Co6  1  0.500000  0.500000  0.700953  1
  Co  Co7  1  0.000000  0.000000  0.299047  1
  Co  Co8  1  0.000000  0.500000  0.986880  1
  Co  Co9  1  0.500000  0.000000  0.013120  1
  Co  Co10  1  0.500000  0.332710  0.990118  1
  Co  Co11  1  0.500000  0.667290  0.990118  1
  Co  Co12  1  0.000000  0.167290  0.009882  1
  Co  Co13  1  0.000000  0.832710  0.009882  1
  Co  Co14  1  0.500000  0.296149  0.431777  1
  Co  Co15  1  0.500000  0.703851  0.431777  1
  Co  Co16  1  0.000000  0.203851  0.568223  1
  Co  Co17  1  0.000000  0.796149  0.568223  1
  Co  Co18  1  0.500000  0.877395  0.706649  1
  Co  Co19  1  0.500000  0.122605  0.706649  1
  Co  Co20  1  0.000000  0.622605  0.293351  1
  Co  Co21  1  0.000000  0.377395  0.293351  1
  P  P22  1  0.500000  0.500000  0.879398  1
  P  P23  1  0.000000  0.000000  0.120602  1
  P  P24  1  0.500000  0.500000  0.352013  1
  P  P25  1  0.000000  0.000000  0.647987  1
  P  P26  1  0.500000  0.312721  0.616279  1
  P  P27  1  0.500000  0.687279  0.616279  1
  P  P28  1  0.000000  0.187279  0.383721  1
  P  P29  1  0.000000  0.812721  0.383721  1
  P  P30  1  0.500000  0.843280  0.891513  1
  P  P31  1  0.500000  0.156720  0.891513  1
  P  P32  1  0.000000  0.656720  0.108487  1
  P  P33  1  0.000000  0.343280  0.108487  1
  W  W34  1  0.500000  0.500000  0.157219  1
  W  W35  1  0.000000  0.000000  0.842781  1
