# generated using pymatgen
data_Dy6C2Cl7
_symmetry_space_group_name_H-M   'P 1'
_cell_length_a   10.11809679
_cell_length_b   10.11809638
_cell_length_c   11.57491952
_cell_angle_alpha   56.74349415
_cell_angle_beta   56.74349668
_cell_angle_gamma   21.21300665
_symmetry_Int_Tables_number   1
_chemical_formula_structural   Dy6C2Cl7
_chemical_formula_sum   'Dy6 C2 Cl7'
_cell_volume   355.83647547
_cell_formula_units_Z   1
loop_
 _symmetry_equiv_pos_site_id
 _symmetry_equiv_pos_as_xyz
  1  'x, y, z'
loop_
 _atom_site_type_symbol
 _atom_site_label
 _atom_site_symmetry_multiplicity
 _atom_site_fract_x
 _atom_site_fract_y
 _atom_site_fract_z
 _atom_site_occupancy
  Dy  Dy0  1  0.226167  0.226167  0.847026  1
  Dy  Dy1  1  0.317674  0.317674  0.359892  1
  Dy  Dy2  1  0.127726  0.127726  0.442400  1
  Dy  Dy3  1  0.872274  0.872274  0.557600  1
  Dy  Dy4  1  0.682326  0.682326  0.640108  1
  Dy  Dy5  1  0.773833  0.773833  0.152974  1
  C  C6  1  0.279482  0.279482  0.609402  1
  C  C7  1  0.720518  0.720518  0.390598  1
  Cl  Cl8  1  0.168227  0.168227  0.162088  1
  Cl  Cl9  1  0.831773  0.831773  0.837912  1
  Cl  Cl10  1  0.058391  0.058391  0.716273  1
  Cl  Cl11  1  0.941609  0.941609  0.283727  1
  Cl  Cl12  1  0.500000  0.500000  0.500000  1
  Cl  Cl13  1  0.389242  0.389242  0.068885  1
  Cl  Cl14  1  0.610758  0.610758  0.931115  1
