# generated using pymatgen
data_Hf4Al4PdW3
_symmetry_space_group_name_H-M   'P 1'
_cell_length_a   5.30194185
_cell_length_b   5.30194156
_cell_length_c   8.68067800
_cell_angle_alpha   90.00000000
_cell_angle_beta   90.00000000
_cell_angle_gamma   119.39726900
_symmetry_Int_Tables_number   1
_chemical_formula_structural   Hf4Al4PdW3
_chemical_formula_sum   'Hf4 Al4 Pd1 W3'
_cell_volume   212.59838386
_cell_formula_units_Z   1
loop_
 _symmetry_equiv_pos_site_id
 _symmetry_equiv_pos_as_xyz
  1  'x, y, z'
loop_
 _atom_site_type_symbol
 _atom_site_label
 _atom_site_symmetry_multiplicity
 _atom_site_fract_x
 _atom_site_fract_y
 _atom_site_fract_z
 _atom_site_occupancy
  Hf  Hf0  1  0.666699  0.333301  0.307755  1
  Hf  Hf1  1  0.333584  0.666416  0.181783  1
  Hf  Hf2  1  0.333584  0.666416  0.818217  1
  Hf  Hf3  1  0.666699  0.333301  0.692245  1
  Al  Al4  1  0.003368  0.996632  0.255032  1
  Al  Al5  1  0.003368  0.996632  0.744968  1
  Al  Al6  1  0.650373  0.829772  0.500000  1
  Al  Al7  1  0.170228  0.349627  0.500000  1
  Pd  Pd8  1  0.165862  0.834138  0.500000  1
  W  W9  1  0.342245  0.167678  0.000000  1
  W  W10  1  0.832322  0.657755  0.000000  1
  W  W11  1  0.831828  0.168172  0.000000  1
