# generated using pymatgen
data_Li12Tb3Sm9(TeO6)8
_symmetry_space_group_name_H-M   'P 1'
_cell_length_a   10.87459879
_cell_length_b   10.87459940
_cell_length_c   10.86716335
_cell_angle_alpha   109.51783317
_cell_angle_beta   109.42522148
_cell_angle_gamma   109.49832733
_symmetry_Int_Tables_number   1
_chemical_formula_structural   Li12Tb3Sm9(TeO6)8
_chemical_formula_sum   'Li12 Tb3 Sm9 Te8 O48'
_cell_volume   988.94449180
_cell_formula_units_Z   1
loop_
 _symmetry_equiv_pos_site_id
 _symmetry_equiv_pos_as_xyz
  1  'x, y, z'
loop_
 _atom_site_type_symbol
 _atom_site_label
 _atom_site_symmetry_multiplicity
 _atom_site_fract_x
 _atom_site_fract_y
 _atom_site_fract_z
 _atom_site_occupancy
  Li  Li0  1  0.750140  0.874997  0.125394  1
  Li  Li1  1  0.875533  0.250375  0.125660  1
  Li  Li2  1  0.625558  0.375558  0.250000  1
  Li  Li3  1  0.124695  0.874695  0.250000  1
  Li  Li4  1  0.624715  0.749874  0.374340  1
  Li  Li5  1  0.249604  0.624747  0.374606  1
  Li  Li6  1  0.749980  0.375033  0.624994  1
  Li  Li7  1  0.374445  0.249952  0.624406  1
  Li  Li8  1  0.874990  0.124990  0.750000  1
  Li  Li9  1  0.374727  0.624727  0.750000  1
  Li  Li10  1  0.125546  0.750039  0.875594  1
  Li  Li11  1  0.250040  0.124986  0.875006  1
  Tb  Tb12  1  0.375017  0.749968  0.124946  1
  Tb  Tb13  1  0.125021  0.250070  0.375054  1
  Tb  Tb14  1  0.874993  0.624993  0.250000  1
  Sm  Sm15  1  0.125527  0.375527  0.750000  1
  Sm  Sm16  1  0.874869  0.749774  0.624380  1
  Sm  Sm17  1  0.625394  0.250490  0.875620  1
  Sm  Sm18  1  0.249904  0.375500  0.125441  1
  Sm  Sm19  1  0.625007  0.875007  0.750000  1
  Sm  Sm20  1  0.249514  0.874612  0.624395  1
  Sm  Sm21  1  0.750058  0.124463  0.374559  1
  Sm  Sm22  1  0.374472  0.124472  0.250000  1
  Sm  Sm23  1  0.750218  0.625119  0.875605  1
  Te  Te24  1  0.500903  0.501427  0.001225  1
  Te  Te25  1  0.499673  0.999122  0.000181  1
  Te  Te26  1  0.000891  0.501262  0.001445  1
  Te  Te27  1  0.000165  0.000524  0.001084  1
  Te  Te28  1  0.498940  0.499492  0.499819  1
  Te  Te29  1  0.000202  0.499678  0.498775  1
  Te  Te30  1  0.499440  0.999082  0.498916  1
  Te  Te31  1  0.999817  0.999445  0.498555  1
  O  O32  1  0.075390  0.878351  0.404312  1
  O  O33  1  0.092232  0.618394  0.420249  1
  O  O34  1  0.828320  0.802516  0.420346  1
  O  O35  1  0.382139  0.579551  0.907980  1
  O  O36  1  0.829400  0.525385  0.404214  1
  O  O37  1  0.093774  0.976031  0.671073  1
  O  O38  1  0.121168  0.595756  0.925046  1
  O  O39  1  0.304835  0.328806  0.922504  1
  O  O40  1  0.077841  0.695473  0.671265  1
  O  O41  1  0.617720  0.695719  0.524244  1
  O  O42  1  0.671363  0.077610  0.695368  1
  O  O43  1  0.421791  0.093366  0.617576  1
  O  O44  1  0.406305  0.828230  0.524599  1
  O  O45  1  0.024205  0.328751  0.906686  1
  O  O46  1  0.473971  0.595635  0.171105  1
  O  O47  1  0.882242  0.975994  0.804632  1
  O  O48  1  0.695351  0.523981  0.617684  1
  O  O49  1  0.198158  0.579679  0.171920  1
  O  O50  1  0.195922  0.118084  0.024521  1
  O  O51  1  0.577948  0.171551  0.196072  1
  O  O52  1  0.592281  0.920467  0.118398  1
  O  O53  1  0.329109  0.904372  0.025962  1
  O  O54  1  0.975790  0.804215  0.882424  1
  O  O55  1  0.524590  0.618228  0.696447  1
  O  O56  1  0.475479  0.381875  0.303928  1
  O  O57  1  0.025919  0.196902  0.121579  1
  O  O58  1  0.671474  0.093476  0.975756  1
  O  O59  1  0.406297  0.077667  0.882316  1
  O  O60  1  0.421782  0.828143  0.803553  1
  O  O61  1  0.803631  0.881706  0.975401  1
  O  O62  1  0.804958  0.422701  0.828927  1
  O  O63  1  0.302069  0.473882  0.381602  1
  O  O64  1  0.118445  0.026151  0.198019  1
  O  O65  1  0.524209  0.406577  0.828735  1
  O  O66  1  0.974038  0.671077  0.095688  1
  O  O67  1  0.593563  0.171401  0.475479  1
  O  O68  1  0.575324  0.904340  0.378421  1
  O  O69  1  0.328132  0.920426  0.301981  1
  O  O70  1  0.378410  0.303147  0.474038  1
  O  O71  1  0.924530  0.302866  0.328895  1
  O  O72  1  0.698145  0.671983  0.079751  1
  O  O73  1  0.882169  0.407974  0.079654  1
  O  O74  1  0.907759  0.026237  0.328080  1
  O  O75  1  0.171571  0.474160  0.592020  1
  O  O76  1  0.621171  0.425186  0.095786  1
  O  O77  1  0.170710  0.196122  0.574954  1
  O  O78  1  0.906302  0.382331  0.577496  1
  O  O79  1  0.922065  0.117519  0.593314  1
