# generated using pymatgen
data_NaSr(PtPb2)2
_symmetry_space_group_name_H-M   'P 1'
_cell_length_a   6.09521388
_cell_length_b   6.09521343
_cell_length_c   8.41064800
_cell_angle_alpha   90.00000000
_cell_angle_beta   90.00000000
_cell_angle_gamma   136.17835746
_symmetry_Int_Tables_number   1
_chemical_formula_structural   NaSr(PtPb2)2
_chemical_formula_sum   'Na1 Sr1 Pt2 Pb4'
_cell_volume   216.35865211
_cell_formula_units_Z   1
loop_
 _symmetry_equiv_pos_site_id
 _symmetry_equiv_pos_as_xyz
  1  'x, y, z'
loop_
 _atom_site_type_symbol
 _atom_site_label
 _atom_site_symmetry_multiplicity
 _atom_site_fract_x
 _atom_site_fract_y
 _atom_site_fract_z
 _atom_site_occupancy
  Na  Na0  1  0.936782  0.063218  0.750000  1
  Sr  Sr1  1  0.062191  0.937809  0.250000  1
  Pt  Pt2  1  0.216868  0.783132  0.750000  1
  Pt  Pt3  1  0.779516  0.220484  0.250000  1
  Pb  Pb4  1  0.648934  0.351066  0.944197  1
  Pb  Pb5  1  0.648934  0.351066  0.555803  1
  Pb  Pb6  1  0.353388  0.646612  0.045904  1
  Pb  Pb7  1  0.353388  0.646612  0.454096  1
