# generated using pymatgen
data_Tm3Sc2(Hg2Pt)2
_symmetry_space_group_name_H-M   'P 1'
_cell_length_a   3.49340800
_cell_length_b   7.88793500
_cell_length_c   17.75306400
_cell_angle_alpha   90.00000000
_cell_angle_beta   90.00000000
_cell_angle_gamma   90.00000000
_symmetry_Int_Tables_number   1
_chemical_formula_structural   Tm3Sc2(Hg2Pt)2
_chemical_formula_sum   'Tm6 Sc4 Hg8 Pt4'
_cell_volume   489.19944127
_cell_formula_units_Z   2
loop_
 _symmetry_equiv_pos_site_id
 _symmetry_equiv_pos_as_xyz
  1  'x, y, z'
loop_
 _atom_site_type_symbol
 _atom_site_label
 _atom_site_symmetry_multiplicity
 _atom_site_fract_x
 _atom_site_fract_y
 _atom_site_fract_z
 _atom_site_occupancy
  Tm  Tm0  1  0.000000  0.240847  0.215075  1
  Tm  Tm1  1  0.000000  0.759153  0.784925  1
  Tm  Tm2  1  0.000000  0.259153  0.715075  1
  Tm  Tm3  1  0.000000  0.740847  0.284925  1
  Tm  Tm4  1  0.000000  0.000000  0.000000  1
  Tm  Tm5  1  0.000000  0.500000  0.500000  1
  Sc  Sc6  1  0.000000  0.114447  0.416022  1
  Sc  Sc7  1  0.000000  0.885553  0.583978  1
  Sc  Sc8  1  0.000000  0.385553  0.916022  1
  Sc  Sc9  1  0.000000  0.614447  0.083978  1
  Hg  Hg10  1  0.500000  0.418804  0.354267  1
  Hg  Hg11  1  0.500000  0.581196  0.645733  1
  Hg  Hg12  1  0.500000  0.081196  0.854267  1
  Hg  Hg13  1  0.500000  0.918804  0.145733  1
  Hg  Hg14  1  0.500000  0.296571  0.058770  1
  Hg  Hg15  1  0.500000  0.703429  0.941230  1
  Hg  Hg16  1  0.500000  0.203429  0.558770  1
  Hg  Hg17  1  0.500000  0.796571  0.441230  1
  Pt  Pt18  1  0.500000  0.031954  0.307266  1
  Pt  Pt19  1  0.500000  0.968046  0.692734  1
  Pt  Pt20  1  0.500000  0.468046  0.807266  1
  Pt  Pt21  1  0.500000  0.531954  0.192734  1
