# generated using pymatgen
data_Tm7Th(ZnNi)2
_symmetry_space_group_name_H-M   'P 1'
_cell_length_a   9.27917533
_cell_length_b   9.27917513
_cell_length_c   9.34728100
_cell_angle_alpha   59.75691155
_cell_angle_beta   59.75691225
_cell_angle_gamma   60.03549699
_symmetry_Int_Tables_number   1
_chemical_formula_structural   Tm7Th(ZnNi)2
_chemical_formula_sum   'Tm14 Th2 Zn4 Ni4'
_cell_volume   567.15143070
_cell_formula_units_Z   2
loop_
 _symmetry_equiv_pos_site_id
 _symmetry_equiv_pos_as_xyz
  1  'x, y, z'
loop_
 _atom_site_type_symbol
 _atom_site_label
 _atom_site_symmetry_multiplicity
 _atom_site_fract_x
 _atom_site_fract_y
 _atom_site_fract_z
 _atom_site_occupancy
  Tm  Tm0  1  0.354446  0.936143  0.354706  1
  Tm  Tm1  1  0.936143  0.354446  0.354706  1
  Tm  Tm2  1  0.810854  0.190747  0.188760  1
  Tm  Tm3  1  0.190747  0.810854  0.809639  1
  Tm  Tm4  1  0.190747  0.810854  0.188760  1
  Tm  Tm5  1  0.810854  0.190747  0.809639  1
  Tm  Tm6  1  0.187243  0.187243  0.812757  1
  Tm  Tm7  1  0.808507  0.808507  0.191493  1
  Tm  Tm8  1  0.934676  0.565615  0.566499  1
  Tm  Tm9  1  0.565615  0.934676  0.933210  1
  Tm  Tm10  1  0.565615  0.934676  0.566499  1
  Tm  Tm11  1  0.934676  0.565615  0.933210  1
  Tm  Tm12  1  0.564934  0.564934  0.935066  1
  Tm  Tm13  1  0.936007  0.936007  0.563993  1
  Th  Th14  1  0.350042  0.350042  0.355590  1
  Th  Th15  1  0.350042  0.350042  0.944324  1
  Zn  Zn16  1  0.582618  0.582618  0.578325  1
  Zn  Zn17  1  0.582618  0.582618  0.256437  1
  Zn  Zn18  1  0.584263  0.256929  0.579404  1
  Zn  Zn19  1  0.256929  0.584263  0.579404  1
  Ni  Ni20  1  0.143165  0.143165  0.143958  1
  Ni  Ni21  1  0.143165  0.143165  0.569712  1
  Ni  Ni22  1  0.146283  0.569808  0.141955  1
  Ni  Ni23  1  0.569808  0.146283  0.141955  1
