# generated using pymatgen
data_Ca6Ta4Al12Os7
_symmetry_space_group_name_H-M   'P 1'
_cell_length_a   9.06326052
_cell_length_b   9.06326022
_cell_length_c   9.06326100
_cell_angle_alpha   60.00000080
_cell_angle_beta   60.00000189
_cell_angle_gamma   60.00000017
_symmetry_Int_Tables_number   1
_chemical_formula_structural   Ca6Ta4Al12Os7
_chemical_formula_sum   'Ca6 Ta4 Al12 Os7'
_cell_volume   526.42730997
_cell_formula_units_Z   1
loop_
 _symmetry_equiv_pos_site_id
 _symmetry_equiv_pos_as_xyz
  1  'x, y, z'
loop_
 _atom_site_type_symbol
 _atom_site_label
 _atom_site_symmetry_multiplicity
 _atom_site_fract_x
 _atom_site_fract_y
 _atom_site_fract_z
 _atom_site_occupancy
  Ca  Ca0  1  0.705913  0.705913  0.294087  1
  Ca  Ca1  1  0.294087  0.705913  0.294087  1
  Ca  Ca2  1  0.705913  0.294087  0.294087  1
  Ca  Ca3  1  0.294087  0.294087  0.705913  1
  Ca  Ca4  1  0.705913  0.294087  0.705913  1
  Ca  Ca5  1  0.294087  0.705913  0.705913  1
  Ta  Ta6  1  0.879932  0.879932  0.360202  1
  Ta  Ta7  1  0.879932  0.360202  0.879932  1
  Ta  Ta8  1  0.360202  0.879932  0.879932  1
  Ta  Ta9  1  0.879932  0.879932  0.879932  1
  Al  Al10  1  0.119554  0.119554  0.641338  1
  Al  Al11  1  0.119554  0.641338  0.119554  1
  Al  Al12  1  0.641338  0.119554  0.119554  1
  Al  Al13  1  0.119554  0.119554  0.119554  1
  Al  Al14  1  0.668946  0.668946  0.993165  1
  Al  Al15  1  0.668946  0.993165  0.668946  1
  Al  Al16  1  0.993165  0.668946  0.668946  1
  Al  Al17  1  0.668946  0.668946  0.668946  1
  Al  Al18  1  0.327983  0.327983  0.016050  1
  Al  Al19  1  0.327983  0.016050  0.327983  1
  Al  Al20  1  0.016050  0.327983  0.327983  1
  Al  Al21  1  0.327983  0.327983  0.327983  1
  Os  Os22  1  0.000000  0.000000  0.000000  1
  Os  Os23  1  0.995354  0.995354  0.504646  1
  Os  Os24  1  0.504646  0.995354  0.504646  1
  Os  Os25  1  0.995354  0.504646  0.504646  1
  Os  Os26  1  0.504646  0.504646  0.995354  1
  Os  Os27  1  0.995354  0.504646  0.995354  1
  Os  Os28  1  0.504646  0.995354  0.995354  1
