# generated using pymatgen
data_Li2CaLaPt2
_symmetry_space_group_name_H-M   'P 1'
_cell_length_a   4.18090800
_cell_length_b   7.20893800
_cell_length_c   8.66181200
_cell_angle_alpha   90.00000000
_cell_angle_beta   90.00000000
_cell_angle_gamma   90.00000000
_symmetry_Int_Tables_number   1
_chemical_formula_structural   Li2CaLaPt2
_chemical_formula_sum   'Li4 Ca2 La2 Pt4'
_cell_volume   261.06620428
_cell_formula_units_Z   2
loop_
 _symmetry_equiv_pos_site_id
 _symmetry_equiv_pos_as_xyz
  1  'x, y, z'
loop_
 _atom_site_type_symbol
 _atom_site_label
 _atom_site_symmetry_multiplicity
 _atom_site_fract_x
 _atom_site_fract_y
 _atom_site_fract_z
 _atom_site_occupancy
  Li  Li0  1  0.250000  0.129902  0.937387  1
  Li  Li1  1  0.250000  0.629902  0.562613  1
  Li  Li2  1  0.750000  0.873556  0.048288  1
  Li  Li3  1  0.750000  0.373556  0.451712  1
  Ca  Ca4  1  0.750000  0.958184  0.687736  1
  Ca  Ca5  1  0.750000  0.458184  0.812264  1
  La  La6  1  0.250000  0.041008  0.326086  1
  La  La7  1  0.250000  0.541008  0.173914  1
  Pt  Pt8  1  0.250000  0.252698  0.615817  1
  Pt  Pt9  1  0.250000  0.752698  0.884183  1
  Pt  Pt10  1  0.750000  0.744652  0.368893  1
  Pt  Pt11  1  0.750000  0.244652  0.131107  1
