# generated using pymatgen
data_Y4ErIr2Rh
_symmetry_space_group_name_H-M   'P 1'
_cell_length_a   10.90198600
_cell_length_b   10.90198600
_cell_length_c   6.38494300
_cell_angle_alpha   90.00000000
_cell_angle_beta   90.00000000
_cell_angle_gamma   90.00000000
_symmetry_Int_Tables_number   1
_chemical_formula_structural   Y4ErIr2Rh
_chemical_formula_sum   'Y16 Er4 Ir8 Rh4'
_cell_volume   758.87153784
_cell_formula_units_Z   4
loop_
 _symmetry_equiv_pos_site_id
 _symmetry_equiv_pos_as_xyz
  1  'x, y, z'
loop_
 _atom_site_type_symbol
 _atom_site_label
 _atom_site_symmetry_multiplicity
 _atom_site_fract_x
 _atom_site_fract_y
 _atom_site_fract_z
 _atom_site_occupancy
  Y  Y0  1  0.290039  0.088267  0.378216  1
  Y  Y1  1  0.290039  0.911733  0.878216  1
  Y  Y2  1  0.709961  0.088267  0.878216  1
  Y  Y3  1  0.709961  0.911733  0.378216  1
  Y  Y4  1  0.588267  0.790039  0.878216  1
  Y  Y5  1  0.588267  0.209961  0.378216  1
  Y  Y6  1  0.411733  0.790039  0.378216  1
  Y  Y7  1  0.411733  0.209961  0.878216  1
  Y  Y8  1  0.209961  0.411733  0.621784  1
  Y  Y9  1  0.209961  0.588267  0.121784  1
  Y  Y10  1  0.790039  0.411733  0.121784  1
  Y  Y11  1  0.790039  0.588267  0.621784  1
  Y  Y12  1  0.911733  0.709961  0.121784  1
  Y  Y13  1  0.911733  0.290039  0.621784  1
  Y  Y14  1  0.088267  0.709961  0.621784  1
  Y  Y15  1  0.088267  0.290039  0.121784  1
  Er  Er16  1  0.000000  0.000000  0.500000  1
  Er  Er17  1  0.000000  0.000000  0.000000  1
  Er  Er18  1  0.500000  0.500000  0.000000  1
  Er  Er19  1  0.500000  0.500000  0.500000  1
  Ir  Ir20  1  0.847532  0.152468  0.250000  1
  Ir  Ir21  1  0.847532  0.847532  0.750000  1
  Ir  Ir22  1  0.152468  0.152468  0.750000  1
  Ir  Ir23  1  0.152468  0.847532  0.250000  1
  Ir  Ir24  1  0.652468  0.347532  0.750000  1
  Ir  Ir25  1  0.652468  0.652468  0.250000  1
  Ir  Ir26  1  0.347532  0.347532  0.250000  1
  Ir  Ir27  1  0.347532  0.652468  0.750000  1
  Rh  Rh28  1  0.500000  0.000000  0.121571  1
  Rh  Rh29  1  0.500000  0.000000  0.621571  1
  Rh  Rh30  1  0.000000  0.500000  0.878429  1
  Rh  Rh31  1  0.000000  0.500000  0.378429  1
