# generated using pymatgen
data_Nd5Sn3Pb
_symmetry_space_group_name_H-M   'P 1'
_cell_length_a   8.34320198
_cell_length_b   8.49210631
_cell_length_c   16.08149779
_cell_angle_alpha   89.94020019
_cell_angle_beta   89.94888246
_cell_angle_gamma   90.02152291
_symmetry_Int_Tables_number   1
_chemical_formula_structural   Nd5Sn3Pb
_chemical_formula_sum   'Nd20 Sn12 Pb4'
_cell_volume   1139.39480440
_cell_formula_units_Z   4
loop_
 _symmetry_equiv_pos_site_id
 _symmetry_equiv_pos_as_xyz
  1  'x, y, z'
loop_
 _atom_site_type_symbol
 _atom_site_label
 _atom_site_symmetry_multiplicity
 _atom_site_fract_x
 _atom_site_fract_y
 _atom_site_fract_z
 _atom_site_occupancy
  Nd  Nd0  1  0.020343  0.179610  0.399390  1
  Nd  Nd1  1  0.369120  0.835205  0.121444  1
  Nd  Nd2  1  0.132695  0.334812  0.622106  1
  Nd  Nd3  1  0.482892  0.679208  0.900438  1
  Nd  Nd4  1  0.868797  0.663003  0.120124  1
  Nd  Nd5  1  0.130338  0.339275  0.879133  1
  Nd  Nd6  1  0.198217  0.501948  0.248026  1
  Nd  Nd7  1  0.698121  0.997936  0.248378  1
  Nd  Nd8  1  0.480007  0.682632  0.601157  1
  Nd  Nd9  1  0.301836  0.001687  0.748870  1
  Nd  Nd10  1  0.629831  0.162550  0.622223  1
  Nd  Nd11  1  0.801823  0.498152  0.751827  1
  Nd  Nd12  1  0.868155  0.662960  0.377391  1
  Nd  Nd13  1  0.016397  0.181992  0.100001  1
  Nd  Nd14  1  0.979436  0.816966  0.900256  1
  Nd  Nd15  1  0.633436  0.163422  0.879282  1
  Nd  Nd16  1  0.518906  0.320147  0.099662  1
  Nd  Nd17  1  0.367828  0.838633  0.378743  1
  Nd  Nd18  1  0.983422  0.821135  0.601010  1
  Nd  Nd19  1  0.517938  0.318197  0.398955  1
  Sn  Sn20  1  0.676598  0.856372  0.749999  1
  Sn  Sn21  1  0.823376  0.356490  0.250139  1
  Sn  Sn22  1  0.791384  0.463779  0.957830  1
  Sn  Sn23  1  0.567617  0.616610  0.250189  1
  Sn  Sn24  1  0.209088  0.536212  0.041968  1
  Sn  Sn25  1  0.432498  0.383193  0.750058  1
  Sn  Sn26  1  0.176592  0.643743  0.750037  1
  Sn  Sn27  1  0.932397  0.116818  0.750177  1
  Sn  Sn28  1  0.290950  0.036210  0.542025  1
  Sn  Sn29  1  0.709101  0.963764  0.042034  1
  Sn  Sn30  1  0.323390  0.143519  0.249874  1
  Sn  Sn31  1  0.067626  0.883445  0.250078  1
  Pb  Pb32  1  0.790509  0.463703  0.541306  1
  Pb  Pb33  1  0.709306  0.964010  0.458617  1
  Pb  Pb34  1  0.209319  0.536514  0.458652  1
  Pb  Pb35  1  0.290712  0.036148  0.958603  1
