# generated using pymatgen
data_Gd12CrIrI17
_symmetry_space_group_name_H-M   'P 1'
_cell_length_a   9.81473805
_cell_length_b   11.75007648
_cell_length_c   11.77459100
_cell_angle_alpha   93.39190872
_cell_angle_beta   104.82697244
_cell_angle_gamma   114.39355184
_symmetry_Int_Tables_number   1
_chemical_formula_structural   Gd12CrIrI17
_chemical_formula_sum   'Gd12 Cr1 Ir1 I17'
_cell_volume   1174.35092268
_cell_formula_units_Z   1
loop_
 _symmetry_equiv_pos_site_id
 _symmetry_equiv_pos_as_xyz
  1  'x, y, z'
loop_
 _atom_site_type_symbol
 _atom_site_label
 _atom_site_symmetry_multiplicity
 _atom_site_fract_x
 _atom_site_fract_y
 _atom_site_fract_z
 _atom_site_occupancy
  Gd  Gd0  1  0.058853  0.510525  0.323018  1
  Gd  Gd1  1  0.989011  0.812185  0.580130  1
  Gd  Gd2  1  0.645444  0.240161  0.283921  1
  Gd  Gd3  1  0.011596  0.188870  0.417587  1
  Gd  Gd4  1  0.223384  0.668769  0.991631  1
  Gd  Gd5  1  0.262418  0.988701  0.893879  1
  Gd  Gd6  1  0.357252  0.760010  0.714941  1
  Gd  Gd7  1  0.940779  0.487224  0.675493  1
  Gd  Gd8  1  0.741497  0.013968  0.107508  1
  Gd  Gd9  1  0.149551  0.286323  0.151319  1
  Gd  Gd10  1  0.777642  0.331167  0.009419  1
  Gd  Gd11  1  0.846655  0.712750  0.849804  1
  Cr  Cr12  1  0.887465  0.261543  0.215100  1
  Ir  Ir13  1  0.104330  0.738386  0.785470  1
  I  I14  1  0.782787  0.528728  0.417145  1
  I  I15  1  0.638218  0.417372  0.759423  1
  I  I16  1  0.843112  0.891732  0.327727  1
  I  I17  1  0.330714  0.211257  0.369237  1
  I  I18  1  0.157188  0.108255  0.673999  1
  I  I19  1  0.587790  0.054363  0.841031  1
  I  I20  1  0.756008  0.183883  0.540893  1
  I  I21  1  0.553435  0.708304  0.956075  1
  I  I22  1  0.362632  0.582195  0.240560  1
  I  I23  1  0.218302  0.471198  0.583541  1
  I  I24  1  0.056477  0.366349  0.895384  1
  I  I25  1  0.447261  0.292358  0.045363  1
  I  I26  1  0.999905  0.000299  0.998862  1
  I  I27  1  0.243865  0.814710  0.457915  1
  I  I28  1  0.412640  0.945816  0.158834  1
  I  I29  1  0.669873  0.788762  0.630146  1
  I  I30  1  0.943917  0.633838  0.104649  1
