# generated using pymatgen
data_Dy7Ho9Cd3AgIr4
_symmetry_space_group_name_H-M   'P 1'
_cell_length_a   9.60726869
_cell_length_b   9.60726930
_cell_length_c   9.60737008
_cell_angle_alpha   59.88104569
_cell_angle_beta   59.88104234
_cell_angle_gamma   59.89099836
_symmetry_Int_Tables_number   1
_chemical_formula_structural   Dy7Ho9Cd3AgIr4
_chemical_formula_sum   'Dy7 Ho9 Cd3 Ag1 Ir4'
_cell_volume   625.38643818
_cell_formula_units_Z   1
loop_
 _symmetry_equiv_pos_site_id
 _symmetry_equiv_pos_as_xyz
  1  'x, y, z'
loop_
 _atom_site_type_symbol
 _atom_site_label
 _atom_site_symmetry_multiplicity
 _atom_site_fract_x
 _atom_site_fract_y
 _atom_site_fract_z
 _atom_site_occupancy
  Dy  Dy0  1  0.060371  0.060371  0.437969  1
  Dy  Dy1  1  0.186116  0.811811  0.812009  1
  Dy  Dy2  1  0.811756  0.187199  0.187010  1
  Dy  Dy3  1  0.811811  0.186116  0.812009  1
  Dy  Dy4  1  0.187199  0.811756  0.187010  1
  Dy  Dy5  1  0.811874  0.811874  0.186120  1
  Dy  Dy6  1  0.187125  0.187125  0.811863  1
  Ho  Ho7  1  0.598722  0.598722  0.598666  1
  Ho  Ho8  1  0.599897  0.599897  0.202198  1
  Ho  Ho9  1  0.599624  0.202333  0.599889  1
  Ho  Ho10  1  0.202333  0.599624  0.599889  1
  Ho  Ho11  1  0.060351  0.439268  0.439152  1
  Ho  Ho12  1  0.438017  0.060461  0.060346  1
  Ho  Ho13  1  0.439268  0.060351  0.439152  1
  Ho  Ho14  1  0.060461  0.438017  0.060346  1
  Ho  Ho15  1  0.439158  0.439158  0.060360  1
  Cd  Cd16  1  0.831178  0.831178  0.508256  1
  Cd  Cd17  1  0.831207  0.508257  0.831224  1
  Cd  Cd18  1  0.508257  0.831207  0.831224  1
  Ag  Ag19  1  0.832772  0.832772  0.832905  1
  Ir  Ir20  1  0.391787  0.391787  0.391804  1
  Ir  Ir21  1  0.392561  0.392561  0.825494  1
  Ir  Ir22  1  0.392969  0.825185  0.392553  1
  Ir  Ir23  1  0.825185  0.392969  0.392553  1
