# generated using pymatgen
data_LiHf8Mo3Ir4
_symmetry_space_group_name_H-M   'P 1'
_cell_length_a   6.55883900
_cell_length_b   4.63841500
_cell_length_c   9.29736500
_cell_angle_alpha   90.00000000
_cell_angle_beta   89.99966506
_cell_angle_gamma   90.00000000
_symmetry_Int_Tables_number   1
_chemical_formula_structural   LiHf8Mo3Ir4
_chemical_formula_sum   'Li1 Hf8 Mo3 Ir4'
_cell_volume   282.85017636
_cell_formula_units_Z   1
loop_
 _symmetry_equiv_pos_site_id
 _symmetry_equiv_pos_as_xyz
  1  'x, y, z'
loop_
 _atom_site_type_symbol
 _atom_site_label
 _atom_site_symmetry_multiplicity
 _atom_site_fract_x
 _atom_site_fract_y
 _atom_site_fract_z
 _atom_site_occupancy
  Li  Li0  1  0.749988  0.250001  0.124963  1
  Hf  Hf1  1  0.005205  0.750000  0.125012  1
  Hf  Hf2  1  0.494778  0.750000  0.125013  1
  Hf  Hf3  1  0.002279  0.250001  0.377897  1
  Hf  Hf4  1  0.497716  0.250001  0.377897  1
  Hf  Hf5  1  0.500308  0.750000  0.625020  1
  Hf  Hf6  1  0.999701  0.750000  0.625020  1
  Hf  Hf7  1  0.497723  0.250001  0.872094  1
  Hf  Hf8  1  0.002291  0.250001  0.872096  1
  Mo  Mo9  1  0.249995  0.750000  0.373149  1
  Mo  Mo10  1  0.750007  0.250001  0.624997  1
  Mo  Mo11  1  0.250005  0.750000  0.876850  1
  Ir  Ir12  1  0.249995  0.250001  0.124994  1
  Ir  Ir13  1  0.749995  0.750000  0.369330  1
  Ir  Ir14  1  0.250008  0.250001  0.624995  1
  Ir  Ir15  1  0.750006  0.750000  0.880674  1
