# generated using pymatgen
data_Hf16Co4RuPt3
_symmetry_space_group_name_H-M   'P 1'
_cell_length_a   8.63341910
_cell_length_b   8.57946396
_cell_length_c   8.57946300
_cell_angle_alpha   59.99999985
_cell_angle_beta   60.20651946
_cell_angle_gamma   60.20652274
_symmetry_Int_Tables_number   1
_chemical_formula_structural   Hf16Co4RuPt3
_chemical_formula_sum   'Hf16 Co4 Ru1 Pt3'
_cell_volume   450.75103668
_cell_formula_units_Z   1
loop_
 _symmetry_equiv_pos_site_id
 _symmetry_equiv_pos_as_xyz
  1  'x, y, z'
loop_
 _atom_site_type_symbol
 _atom_site_label
 _atom_site_symmetry_multiplicity
 _atom_site_fract_x
 _atom_site_fract_y
 _atom_site_fract_z
 _atom_site_occupancy
  Hf  Hf0  1  0.076159  0.641266  0.641303  1
  Hf  Hf1  1  0.645402  0.062665  0.645984  1
  Hf  Hf2  1  0.645426  0.645964  0.062643  1
  Hf  Hf3  1  0.645408  0.645946  0.645985  1
  Hf  Hf4  1  0.806243  0.804718  0.194500  1
  Hf  Hf5  1  0.191646  0.191078  0.808639  1
  Hf  Hf6  1  0.806246  0.194520  0.804723  1
  Hf  Hf7  1  0.191681  0.808632  0.191054  1
  Hf  Hf8  1  0.191653  0.808635  0.808638  1
  Hf  Hf9  1  0.806244  0.194542  0.194494  1
  Hf  Hf10  1  0.435116  0.437288  0.063797  1
  Hf  Hf11  1  0.054554  0.068531  0.438460  1
  Hf  Hf12  1  0.435109  0.063802  0.437287  1
  Hf  Hf13  1  0.054548  0.438462  0.068527  1
  Hf  Hf14  1  0.054552  0.438456  0.438463  1
  Hf  Hf15  1  0.435114  0.063799  0.063799  1
  Co  Co16  1  0.428401  0.857199  0.857201  1
  Co  Co17  1  0.863208  0.430523  0.853135  1
  Co  Co18  1  0.863206  0.853133  0.430527  1
  Co  Co19  1  0.863201  0.853134  0.853134  1
  Ru  Ru20  1  0.751217  0.416260  0.416262  1
  Pt  Pt21  1  0.418556  0.763630  0.408907  1
  Pt  Pt22  1  0.418554  0.408908  0.763631  1
  Pt  Pt23  1  0.418556  0.408908  0.408907  1
