# generated using pymatgen
data_Hf7Zr3GaSn6Sb
_symmetry_space_group_name_H-M   'P 1'
_cell_length_a   8.74289600
_cell_length_b   8.74289733
_cell_length_c   5.90649100
_cell_angle_alpha   90.00000000
_cell_angle_beta   90.00000000
_cell_angle_gamma   120.00000253
_symmetry_Int_Tables_number   1
_chemical_formula_structural   Hf7Zr3GaSn6Sb
_chemical_formula_sum   'Hf7 Zr3 Ga1 Sn6 Sb1'
_cell_volume   390.99468878
_cell_formula_units_Z   1
loop_
 _symmetry_equiv_pos_site_id
 _symmetry_equiv_pos_as_xyz
  1  'x, y, z'
loop_
 _atom_site_type_symbol
 _atom_site_label
 _atom_site_symmetry_multiplicity
 _atom_site_fract_x
 _atom_site_fract_y
 _atom_site_fract_z
 _atom_site_occupancy
  Hf  Hf0  1  0.276155  0.276155  0.264575  1
  Hf  Hf1  1  0.723845  0.000000  0.264575  1
  Hf  Hf2  1  0.000000  0.723845  0.264575  1
  Hf  Hf3  1  0.666667  0.333333  0.000443  1
  Hf  Hf4  1  0.333333  0.666667  0.000443  1
  Hf  Hf5  1  0.333333  0.666667  0.499539  1
  Hf  Hf6  1  0.666667  0.333333  0.499539  1
  Zr  Zr7  1  0.727033  0.727033  0.735391  1
  Zr  Zr8  1  0.272967  0.000000  0.735391  1
  Zr  Zr9  1  0.000000  0.272967  0.735391  1
  Ga  Ga10  1  0.000000  0.000000  0.496155  1
  Sn  Sn11  1  0.389528  0.389528  0.754318  1
  Sn  Sn12  1  0.610472  0.000000  0.754318  1
  Sn  Sn13  1  0.000000  0.610472  0.754318  1
  Sn  Sn14  1  0.610954  0.610954  0.245535  1
  Sn  Sn15  1  0.389046  0.000000  0.245535  1
  Sn  Sn16  1  0.000000  0.389046  0.245535  1
  Sb  Sb17  1  0.000000  0.000000  0.004424  1
