# generated using pymatgen
data_NpPaB6Mo
_symmetry_space_group_name_H-M   'P 1'
_cell_length_a   3.72939500
_cell_length_b   9.27318400
_cell_length_c   11.33750200
_cell_angle_alpha   90.00000000
_cell_angle_beta   90.00000000
_cell_angle_gamma   90.00000000
_symmetry_Int_Tables_number   1
_chemical_formula_structural   NpPaB6Mo
_chemical_formula_sum   'Np4 Pa4 B24 Mo4'
_cell_volume   392.08898169
_cell_formula_units_Z   4
loop_
 _symmetry_equiv_pos_site_id
 _symmetry_equiv_pos_as_xyz
  1  'x, y, z'
loop_
 _atom_site_type_symbol
 _atom_site_label
 _atom_site_symmetry_multiplicity
 _atom_site_fract_x
 _atom_site_fract_y
 _atom_site_fract_z
 _atom_site_occupancy
  Np  Np0  1  0.000000  0.958253  0.399410  1
  Np  Np1  1  0.000000  0.041747  0.600590  1
  Np  Np2  1  0.000000  0.458253  0.100590  1
  Np  Np3  1  0.000000  0.541747  0.899410  1
  Pa  Pa4  1  0.000000  0.334358  0.407426  1
  Pa  Pa5  1  0.000000  0.665642  0.592574  1
  Pa  Pa6  1  0.000000  0.834358  0.092574  1
  Pa  Pa7  1  0.000000  0.165642  0.907426  1
  B  B8  1  0.500000  0.551086  0.432078  1
  B  B9  1  0.500000  0.448914  0.567922  1
  B  B10  1  0.500000  0.051086  0.067922  1
  B  B11  1  0.500000  0.948914  0.932078  1
  B  B12  1  0.500000  0.744529  0.423536  1
  B  B13  1  0.500000  0.255471  0.576464  1
  B  B14  1  0.500000  0.244529  0.076464  1
  B  B15  1  0.500000  0.755471  0.923536  1
  B  B16  1  0.500000  0.804013  0.273704  1
  B  B17  1  0.500000  0.195987  0.726296  1
  B  B18  1  0.500000  0.304013  0.226296  1
  B  B19  1  0.500000  0.695987  0.773704  1
  B  B20  1  0.500000  0.643404  0.187599  1
  B  B21  1  0.500000  0.356596  0.812401  1
  B  B22  1  0.500000  0.143404  0.312401  1
  B  B23  1  0.500000  0.856596  0.687599  1
  B  B24  1  0.500000  0.986328  0.219994  1
  B  B25  1  0.500000  0.013672  0.780006  1
  B  B26  1  0.500000  0.486328  0.280006  1
  B  B27  1  0.500000  0.513672  0.719994  1
  B  B28  1  0.500000  0.639063  0.038445  1
  B  B29  1  0.500000  0.360937  0.961555  1
  B  B30  1  0.500000  0.139063  0.461555  1
  B  B31  1  0.500000  0.860937  0.538445  1
  Mo  Mo32  1  0.000000  0.645746  0.319423  1
  Mo  Mo33  1  0.000000  0.354254  0.680577  1
  Mo  Mo34  1  0.000000  0.145746  0.180577  1
  Mo  Mo35  1  0.000000  0.854254  0.819423  1
