# generated using pymatgen
data_Na3Zn7Ag3
_symmetry_space_group_name_H-M   'P 1'
_cell_length_a   10.26322401
_cell_length_b   10.26322381
_cell_length_c   10.26322403
_cell_angle_alpha   29.47024742
_cell_angle_beta   29.47024854
_cell_angle_gamma   29.47024790
_symmetry_Int_Tables_number   1
_chemical_formula_structural   Na3Zn7Ag3
_chemical_formula_sum   'Na3 Zn7 Ag3'
_cell_volume   231.59009558
_cell_formula_units_Z   1
loop_
 _symmetry_equiv_pos_site_id
 _symmetry_equiv_pos_as_xyz
  1  'x, y, z'
loop_
 _atom_site_type_symbol
 _atom_site_label
 _atom_site_symmetry_multiplicity
 _atom_site_fract_x
 _atom_site_fract_y
 _atom_site_fract_z
 _atom_site_occupancy
  Na  Na0  1  0.833991  0.833991  0.833991  1
  Na  Na1  1  0.167300  0.167300  0.167300  1
  Na  Na2  1  0.650621  0.650621  0.650621  1
  Zn  Zn3  1  0.000586  0.000586  0.000586  1
  Zn  Zn4  1  0.906903  0.411173  0.906903  1
  Zn  Zn5  1  0.906903  0.906903  0.411173  1
  Zn  Zn6  1  0.411173  0.906903  0.906903  1
  Zn  Zn7  1  0.093693  0.589031  0.093693  1
  Zn  Zn8  1  0.093693  0.093693  0.589031  1
  Zn  Zn9  1  0.589031  0.093693  0.093693  1
  Ag  Ag10  1  0.347510  0.347510  0.347510  1
  Ag  Ag11  1  0.551330  0.551330  0.551330  1
  Ag  Ag12  1  0.447264  0.447264  0.447264  1
