# generated using pymatgen
data_Zr3In3IrPt
_symmetry_space_group_name_H-M   'P 1'
_cell_length_a   7.51133900
_cell_length_b   7.51133978
_cell_length_c   3.41354500
_cell_angle_alpha   90.00000000
_cell_angle_beta   90.00000000
_cell_angle_gamma   120.00000861
_symmetry_Int_Tables_number   1
_chemical_formula_structural   Zr3In3IrPt
_chemical_formula_sum   'Zr3 In3 Ir1 Pt1'
_cell_volume   166.79037966
_cell_formula_units_Z   1
loop_
 _symmetry_equiv_pos_site_id
 _symmetry_equiv_pos_as_xyz
  1  'x, y, z'
loop_
 _atom_site_type_symbol
 _atom_site_label
 _atom_site_symmetry_multiplicity
 _atom_site_fract_x
 _atom_site_fract_y
 _atom_site_fract_z
 _atom_site_occupancy
  Zr  Zr0  1  0.576782  0.991598  0.499999  1
  Zr  Zr1  1  0.414816  0.423217  0.499999  1
  Zr  Zr2  1  0.008402  0.585185  0.499999  1
  In  In3  1  0.233632  0.001152  0.000000  1
  In  In4  1  0.998848  0.232481  0.000000  1
  In  In5  1  0.767520  0.766368  0.000000  1
  Ir  Ir6  1  0.333333  0.666667  0.000000  1
  Pt  Pt7  1  0.666666  0.333333  0.000000  1
