# generated using pymatgen
data_HoMgZnCu3
_symmetry_space_group_name_H-M   'P 1'
_cell_length_a   5.12497576
_cell_length_b   5.17693414
_cell_length_c   5.17693379
_cell_angle_alpha   59.98863330
_cell_angle_beta   59.71686523
_cell_angle_gamma   59.71685932
_symmetry_Int_Tables_number   1
_chemical_formula_structural   HoMgZnCu3
_chemical_formula_sum   'Ho1 Mg1 Zn1 Cu3'
_cell_volume   96.69702991
_cell_formula_units_Z   1
loop_
 _symmetry_equiv_pos_site_id
 _symmetry_equiv_pos_as_xyz
  1  'x, y, z'
loop_
 _atom_site_type_symbol
 _atom_site_label
 _atom_site_symmetry_multiplicity
 _atom_site_fract_x
 _atom_site_fract_y
 _atom_site_fract_z
 _atom_site_occupancy
  Ho  Ho0  1  0.746111  0.751278  0.751278  1
  Mg  Mg1  1  0.997853  0.001069  0.001069  1
  Zn  Zn2  1  0.879610  0.373428  0.373426  1
  Cu  Cu3  1  0.375477  0.877588  0.373155  1
  Cu  Cu4  1  0.375284  0.373291  0.373291  1
  Cu  Cu5  1  0.375476  0.373156  0.877587  1
