# generated using pymatgen
data_Tm2PaSn3Ir2Rh
_symmetry_space_group_name_H-M   'P 1'
_cell_length_a   7.54874690
_cell_length_b   7.62760822
_cell_length_c   3.82622800
_cell_angle_alpha   90.00000000
_cell_angle_beta   90.00000000
_cell_angle_gamma   120.34618838
_symmetry_Int_Tables_number   1
_chemical_formula_structural   Tm2PaSn3Ir2Rh
_chemical_formula_sum   'Tm2 Pa1 Sn3 Ir2 Rh1'
_cell_volume   190.12495392
_cell_formula_units_Z   1
loop_
 _symmetry_equiv_pos_site_id
 _symmetry_equiv_pos_as_xyz
  1  'x, y, z'
loop_
 _atom_site_type_symbol
 _atom_site_label
 _atom_site_symmetry_multiplicity
 _atom_site_fract_x
 _atom_site_fract_y
 _atom_site_fract_z
 _atom_site_occupancy
  Tm  Tm0  1  0.596195  0.595985  0.000000  1
  Tm  Tm1  1  0.403805  0.999791  0.000000  1
  Pa  Pa2  1  0.000000  0.413089  0.000000  1
  Sn  Sn3  1  0.274441  0.259805  0.500000  1
  Sn  Sn4  1  0.000000  0.755066  0.500000  1
  Sn  Sn5  1  0.725559  0.985364  0.500000  1
  Ir  Ir6  1  0.693569  0.335702  0.500000  1
  Ir  Ir7  1  0.306431  0.642134  0.500000  1
  Rh  Rh8  1  0.000000  0.013064  0.000000  1
