# generated using pymatgen
data_Zr6Ti4AlGa11Rh7
_symmetry_space_group_name_H-M   'P 1'
_cell_length_a   8.80231277
_cell_length_b   8.80224975
_cell_length_c   8.78603449
_cell_angle_alpha   59.93935812
_cell_angle_beta   59.93874924
_cell_angle_gamma   59.99999359
_symmetry_Int_Tables_number   1
_chemical_formula_structural   Zr6Ti4AlGa11Rh7
_chemical_formula_sum   'Zr6 Ti4 Al1 Ga11 Rh7'
_cell_volume   480.91428700
_cell_formula_units_Z   1
loop_
 _symmetry_equiv_pos_site_id
 _symmetry_equiv_pos_as_xyz
  1  'x, y, z'
loop_
 _atom_site_type_symbol
 _atom_site_label
 _atom_site_symmetry_multiplicity
 _atom_site_fract_x
 _atom_site_fract_y
 _atom_site_fract_z
 _atom_site_occupancy
  Zr  Zr0  1  0.695078  0.695075  0.305176  1
  Zr  Zr1  1  0.304671  0.695073  0.305178  1
  Zr  Zr2  1  0.695061  0.304685  0.305192  1
  Zr  Zr3  1  0.305302  0.305304  0.695515  1
  Zr  Zr4  1  0.693885  0.305295  0.695522  1
  Zr  Zr5  1  0.305300  0.693876  0.695519  1
  Ti  Ti6  1  0.878865  0.878863  0.363401  1
  Ti  Ti7  1  0.878282  0.364777  0.878655  1
  Ti  Ti8  1  0.364776  0.878282  0.878659  1
  Ti  Ti9  1  0.878283  0.878284  0.878660  1
  Al  Al10  1  0.120930  0.120925  0.637204  1
  Ga  Ga11  1  0.119088  0.642431  0.119385  1
  Ga  Ga12  1  0.642435  0.119078  0.119388  1
  Ga  Ga13  1  0.119094  0.119083  0.119390  1
  Ga  Ga14  1  0.659828  0.659836  0.020519  1
  Ga  Ga15  1  0.659903  0.020787  0.659417  1
  Ga  Ga16  1  0.020796  0.659905  0.659409  1
  Ga  Ga17  1  0.659890  0.659895  0.659405  1
  Ga  Ga18  1  0.339907  0.339907  0.980280  1
  Ga  Ga19  1  0.339895  0.978968  0.341244  1
  Ga  Ga20  1  0.978968  0.339895  0.341244  1
  Ga  Ga21  1  0.339893  0.339892  0.341242  1
  Rh  Rh22  1  0.001955  0.001945  0.994136  1
  Rh  Rh23  1  0.997773  0.997776  0.503832  1
  Rh  Rh24  1  0.500624  0.997774  0.503839  1
  Rh  Rh25  1  0.997771  0.500628  0.503839  1
  Rh  Rh26  1  0.502111  0.502111  0.998250  1
  Rh  Rh27  1  0.997534  0.502107  0.998249  1
  Rh  Rh28  1  0.502102  0.997544  0.998252  1
