# generated using pymatgen
data_Nb12IrPt3
_symmetry_space_group_name_H-M   'P 1'
_cell_length_a   5.20451100
_cell_length_b   5.20373500
_cell_length_c   10.40679100
_cell_angle_alpha   90.00000000
_cell_angle_beta   90.00000000
_cell_angle_gamma   90.00000000
_symmetry_Int_Tables_number   1
_chemical_formula_structural   Nb12IrPt3
_chemical_formula_sum   'Nb12 Ir1 Pt3'
_cell_volume   281.84603885
_cell_formula_units_Z   1
loop_
 _symmetry_equiv_pos_site_id
 _symmetry_equiv_pos_as_xyz
  1  'x, y, z'
loop_
 _atom_site_type_symbol
 _atom_site_label
 _atom_site_symmetry_multiplicity
 _atom_site_fract_x
 _atom_site_fract_y
 _atom_site_fract_z
 _atom_site_occupancy
  Nb  Nb0  1  0.500000  0.000000  0.375338  1
  Nb  Nb1  1  0.500000  0.000000  0.874839  1
  Nb  Nb2  1  0.749029  0.500000  0.000000  1
  Nb  Nb3  1  0.750898  0.500000  0.500000  1
  Nb  Nb4  1  0.000000  0.750190  0.252129  1
  Nb  Nb5  1  0.000000  0.750190  0.747871  1
  Nb  Nb6  1  0.500000  0.000000  0.125161  1
  Nb  Nb7  1  0.500000  0.000000  0.624662  1
  Nb  Nb8  1  0.250971  0.500000  0.000000  1
  Nb  Nb9  1  0.249102  0.500000  0.500000  1
  Nb  Nb10  1  0.000000  0.249810  0.252129  1
  Nb  Nb11  1  0.000000  0.249810  0.747871  1
  Ir  Ir12  1  0.000000  0.000000  0.500000  1
  Pt  Pt13  1  0.500000  0.500000  0.249195  1
  Pt  Pt14  1  0.500000  0.500000  0.750805  1
  Pt  Pt15  1  0.000000  0.000000  0.000000  1
