# generated using pymatgen
data_Yb3CrNiO6
_symmetry_space_group_name_H-M   'P 1'
_cell_length_a   6.26129431
_cell_length_b   6.25281831
_cell_length_c   6.34306414
_cell_angle_alpha   91.69375674
_cell_angle_beta   91.70271352
_cell_angle_gamma   91.78155948
_symmetry_Int_Tables_number   1
_chemical_formula_structural   Yb3CrNiO6
_chemical_formula_sum   'Yb6 Cr2 Ni2 O12'
_cell_volume   247.99049068
_cell_formula_units_Z   2
loop_
 _symmetry_equiv_pos_site_id
 _symmetry_equiv_pos_as_xyz
  1  'x, y, z'
loop_
 _atom_site_type_symbol
 _atom_site_label
 _atom_site_symmetry_multiplicity
 _atom_site_fract_x
 _atom_site_fract_y
 _atom_site_fract_z
 _atom_site_occupancy
  Yb  Yb0  1  0.252180  0.613366  0.886419  1
  Yb  Yb1  1  0.386751  0.113469  0.750199  1
  Yb  Yb2  1  0.113484  0.751924  0.386143  1
  Yb  Yb3  1  0.747774  0.386432  0.113622  1
  Yb  Yb4  1  0.613456  0.886608  0.249676  1
  Yb  Yb5  1  0.886271  0.248057  0.613838  1
  Cr  Cr6  1  0.499874  0.500251  0.499965  1
  Cr  Cr7  1  0.000291  0.999996  0.999914  1
  Ni  Ni8  1  0.752843  0.747462  0.749772  1
  Ni  Ni9  1  0.247105  0.252566  0.250657  1
  O  O10  1  0.544472  0.207064  0.422100  1
  O  O11  1  0.455343  0.793041  0.577833  1
  O  O12  1  0.792124  0.579381  0.451895  1
  O  O13  1  0.583269  0.454048  0.795062  1
  O  O14  1  0.706941  0.044031  0.921441  1
  O  O15  1  0.046811  0.916488  0.705154  1
  O  O16  1  0.078569  0.292240  0.952271  1
  O  O17  1  0.953398  0.083419  0.294798  1
  O  O18  1  0.293277  0.955803  0.078472  1
  O  O19  1  0.416546  0.546037  0.204964  1
  O  O20  1  0.207731  0.420601  0.548133  1
  O  O21  1  0.921486  0.707722  0.047674  1
