# generated using pymatgen
data_TmPa(Al4Fe)2
_symmetry_space_group_name_H-M   'P 1'
_cell_length_a   7.54909900
_cell_length_b   4.07428600
_cell_length_c   6.62784700
_cell_angle_alpha   90.00000000
_cell_angle_beta   90.00000000
_cell_angle_gamma   90.00000000
_symmetry_Int_Tables_number   1
_chemical_formula_structural   TmPa(Al4Fe)2
_chemical_formula_sum   'Tm1 Pa1 Al8 Fe2'
_cell_volume   203.85393866
_cell_formula_units_Z   1
loop_
 _symmetry_equiv_pos_site_id
 _symmetry_equiv_pos_as_xyz
  1  'x, y, z'
loop_
 _atom_site_type_symbol
 _atom_site_label
 _atom_site_symmetry_multiplicity
 _atom_site_fract_x
 _atom_site_fract_y
 _atom_site_fract_z
 _atom_site_occupancy
  Tm  Tm0  1  0.750000  0.000000  0.882134  1
  Pa  Pa1  1  0.250000  0.000000  0.103664  1
  Al  Al2  1  0.567555  0.499999  0.193749  1
  Al  Al3  1  0.932446  0.499999  0.193749  1
  Al  Al4  1  0.250000  0.499999  0.454175  1
  Al  Al5  1  0.004725  0.000000  0.499213  1
  Al  Al6  1  0.495275  0.000000  0.499213  1
  Al  Al7  1  0.750000  0.499999  0.543791  1
  Al  Al8  1  0.064793  0.499999  0.803736  1
  Al  Al9  1  0.435208  0.499999  0.803736  1
  Fe  Fe10  1  0.750000  0.000000  0.300964  1
  Fe  Fe11  1  0.250000  0.000000  0.721876  1
