# generated using pymatgen
data_La3Sc2P12Ir10Ru9
_symmetry_space_group_name_H-M   'P 1'
_cell_length_a   12.70755400
_cell_length_b   12.70755486
_cell_length_c   3.95934200
_cell_angle_alpha   90.00000000
_cell_angle_beta   90.00000000
_cell_angle_gamma   120.00000297
_symmetry_Int_Tables_number   1
_chemical_formula_structural   La3Sc2P12Ir10Ru9
_chemical_formula_sum   'La3 Sc2 P12 Ir10 Ru9'
_cell_volume   553.70391311
_cell_formula_units_Z   1
loop_
 _symmetry_equiv_pos_site_id
 _symmetry_equiv_pos_as_xyz
  1  'x, y, z'
loop_
 _atom_site_type_symbol
 _atom_site_label
 _atom_site_symmetry_multiplicity
 _atom_site_fract_x
 _atom_site_fract_y
 _atom_site_fract_z
 _atom_site_occupancy
  La  La0  1  0.811690  0.000000  0.500000  1
  La  La1  1  0.000000  0.811690  0.500000  1
  La  La2  1  0.188310  0.188310  0.500000  1
  Sc  Sc3  1  0.333333  0.666667  0.000000  1
  Sc  Sc4  1  0.666667  0.333333  0.000000  1
  P  P5  1  0.186901  0.000000  0.000000  1
  P  P6  1  0.000000  0.186901  0.000000  1
  P  P7  1  0.813099  0.813099  0.000000  1
  P  P8  1  0.177081  0.483941  0.500000  1
  P  P9  1  0.516059  0.693139  0.500000  1
  P  P10  1  0.306861  0.822919  0.500000  1
  P  P11  1  0.693139  0.516059  0.500000  1
  P  P12  1  0.822919  0.306861  0.500000  1
  P  P13  1  0.483941  0.177081  0.500000  1
  P  P14  1  0.631686  0.000000  0.000000  1
  P  P15  1  0.000000  0.631686  0.000000  1
  P  P16  1  0.368314  0.368314  0.000000  1
  Ir  Ir17  1  0.365924  0.497108  0.500000  1
  Ir  Ir18  1  0.502892  0.868815  0.500000  1
  Ir  Ir19  1  0.131185  0.634076  0.500000  1
  Ir  Ir20  1  0.868815  0.502892  0.500000  1
  Ir  Ir21  1  0.634076  0.131185  0.500000  1
  Ir  Ir22  1  0.497108  0.365924  0.500000  1
  Ir  Ir23  1  0.291313  0.000000  0.500000  1
  Ir  Ir24  1  0.000000  0.291313  0.500000  1
  Ir  Ir25  1  0.708687  0.708687  0.500000  1
  Ir  Ir26  1  0.000000  0.000000  0.000000  1
  Ru  Ru27  1  0.451886  0.000000  0.000000  1
  Ru  Ru28  1  0.000000  0.451886  0.000000  1
  Ru  Ru29  1  0.548114  0.548114  0.000000  1
  Ru  Ru30  1  0.183573  0.385164  0.000000  1
  Ru  Ru31  1  0.614836  0.798410  0.000000  1
  Ru  Ru32  1  0.201590  0.816427  0.000000  1
  Ru  Ru33  1  0.798410  0.614836  0.000000  1
  Ru  Ru34  1  0.816427  0.201590  0.000000  1
  Ru  Ru35  1  0.385164  0.183573  0.000000  1
