# generated using pymatgen
data_YErLu3Sn4
_symmetry_space_group_name_H-M   'P 1'
_cell_length_a   7.92511400
_cell_length_b   8.05508200
_cell_length_c   15.21745100
_cell_angle_alpha   90.00000000
_cell_angle_beta   90.00000000
_cell_angle_gamma   90.00000000
_symmetry_Int_Tables_number   1
_chemical_formula_structural   YErLu3Sn4
_chemical_formula_sum   'Y4 Er4 Lu12 Sn16'
_cell_volume   971.44316279
_cell_formula_units_Z   4
loop_
 _symmetry_equiv_pos_site_id
 _symmetry_equiv_pos_as_xyz
  1  'x, y, z'
loop_
 _atom_site_type_symbol
 _atom_site_label
 _atom_site_symmetry_multiplicity
 _atom_site_fract_x
 _atom_site_fract_y
 _atom_site_fract_z
 _atom_site_occupancy
  Y  Y0  1  0.478836  0.679486  0.096670  1
  Y  Y1  1  0.978836  0.820514  0.403330  1
  Y  Y2  1  0.521164  0.320514  0.596670  1
  Y  Y3  1  0.021164  0.179486  0.903330  1
  Er  Er4  1  0.521686  0.321091  0.903036  1
  Er  Er5  1  0.021686  0.178909  0.596964  1
  Er  Er6  1  0.478314  0.678909  0.403036  1
  Er  Er7  1  0.978314  0.821091  0.096964  1
  Lu  Lu8  1  0.366759  0.837061  0.876988  1
  Lu  Lu9  1  0.866759  0.662939  0.623012  1
  Lu  Lu10  1  0.633241  0.162939  0.376988  1
  Lu  Lu11  1  0.133241  0.337061  0.123012  1
  Lu  Lu12  1  0.633043  0.163192  0.122941  1
  Lu  Lu13  1  0.133043  0.336808  0.377059  1
  Lu  Lu14  1  0.366957  0.836808  0.622941  1
  Lu  Lu15  1  0.866957  0.663192  0.877059  1
  Lu  Lu16  1  0.197428  0.504421  0.749999  1
  Lu  Lu17  1  0.697428  0.995579  0.750001  1
  Lu  Lu18  1  0.802572  0.495579  0.249999  1
  Lu  Lu19  1  0.302572  0.004421  0.250001  1
  Sn  Sn20  1  0.294637  0.037489  0.042038  1
  Sn  Sn21  1  0.794637  0.462511  0.457962  1
  Sn  Sn22  1  0.705363  0.962511  0.542038  1
  Sn  Sn23  1  0.205363  0.537489  0.957962  1
  Sn  Sn24  1  0.704774  0.961981  0.958612  1
  Sn  Sn25  1  0.204774  0.538019  0.541388  1
  Sn  Sn26  1  0.295226  0.038019  0.458612  1
  Sn  Sn27  1  0.795226  0.461981  0.041388  1
  Sn  Sn28  1  0.563626  0.620966  0.750273  1
  Sn  Sn29  1  0.063626  0.879034  0.749727  1
  Sn  Sn30  1  0.436374  0.379034  0.250273  1
  Sn  Sn31  1  0.936374  0.120966  0.249727  1
  Sn  Sn32  1  0.330643  0.147922  0.750352  1
  Sn  Sn33  1  0.830643  0.352078  0.749648  1
  Sn  Sn34  1  0.669357  0.852078  0.250352  1
  Sn  Sn35  1  0.169357  0.647922  0.249648  1
