# generated using pymatgen
data_Hf5Zr3Pt3RhN2
_symmetry_space_group_name_H-M   'P 1'
_cell_length_a   8.80463753
_cell_length_b   8.80463810
_cell_length_c   8.80207700
_cell_angle_alpha   60.00962556
_cell_angle_beta   60.00962339
_cell_angle_gamma   60.01936695
_symmetry_Int_Tables_number   1
_chemical_formula_structural   Hf5Zr3Pt3RhN2
_chemical_formula_sum   'Hf10 Zr6 Pt6 Rh2 N4'
_cell_volume   482.63616776
_cell_formula_units_Z   2
loop_
 _symmetry_equiv_pos_site_id
 _symmetry_equiv_pos_as_xyz
  1  'x, y, z'
loop_
 _atom_site_type_symbol
 _atom_site_label
 _atom_site_symmetry_multiplicity
 _atom_site_fract_x
 _atom_site_fract_y
 _atom_site_fract_z
 _atom_site_occupancy
  Hf  Hf0  1  0.125913  0.626542  0.623773  1
  Hf  Hf1  1  0.626542  0.125913  0.623773  1
  Hf  Hf2  1  0.624824  0.624824  0.128707  1
  Hf  Hf3  1  0.624824  0.624824  0.621646  1
  Hf  Hf4  1  0.818405  0.818405  0.181595  1
  Hf  Hf5  1  0.181703  0.181703  0.818297  1
  Hf  Hf6  1  0.818426  0.181972  0.818073  1
  Hf  Hf7  1  0.181972  0.818426  0.181529  1
  Hf  Hf8  1  0.181972  0.818426  0.818073  1
  Hf  Hf9  1  0.818426  0.181972  0.181529  1
  Zr  Zr10  1  0.432797  0.432797  0.067203  1
  Zr  Zr11  1  0.067216  0.067216  0.432784  1
  Zr  Zr12  1  0.432830  0.064591  0.432910  1
  Zr  Zr13  1  0.064591  0.432830  0.069670  1
  Zr  Zr14  1  0.064591  0.432830  0.432910  1
  Zr  Zr15  1  0.432830  0.064591  0.069670  1
  Pt  Pt16  1  0.409262  0.409262  0.773162  1
  Pt  Pt17  1  0.409262  0.409262  0.408315  1
  Pt  Pt18  1  0.468824  0.843767  0.843705  1
  Pt  Pt19  1  0.843767  0.468824  0.843705  1
  Pt  Pt20  1  0.843832  0.843832  0.468518  1
  Pt  Pt21  1  0.843832  0.843832  0.843818  1
  Rh  Rh22  1  0.774196  0.409199  0.408303  1
  Rh  Rh23  1  0.409199  0.774196  0.408303  1
  N  N24  1  0.632582  0.122558  0.122430  1
  N  N25  1  0.122558  0.632582  0.122430  1
  N  N26  1  0.122414  0.122414  0.632836  1
  N  N27  1  0.122414  0.122414  0.122337  1
