# generated using pymatgen
data_YbYBe25Ni
_symmetry_space_group_name_H-M   'P 1'
_cell_length_a   7.23736889
_cell_length_b   7.26528295
_cell_length_c   7.22462244
_cell_angle_alpha   59.94441269
_cell_angle_beta   59.88591867
_cell_angle_gamma   59.69151627
_symmetry_Int_Tables_number   1
_chemical_formula_structural   YbYBe25Ni
_chemical_formula_sum   'Yb1 Y1 Be25 Ni1'
_cell_volume   267.64242021
_cell_formula_units_Z   1
loop_
 _symmetry_equiv_pos_site_id
 _symmetry_equiv_pos_as_xyz
  1  'x, y, z'
loop_
 _atom_site_type_symbol
 _atom_site_label
 _atom_site_symmetry_multiplicity
 _atom_site_fract_x
 _atom_site_fract_y
 _atom_site_fract_z
 _atom_site_occupancy
  Yb  Yb0  1  0.246828  0.253080  0.250120  1
  Y  Y1  1  0.749411  0.751615  0.750195  1
  Be  Be2  1  0.501260  0.500678  0.498856  1
  Be  Be3  1  0.999619  0.001787  0.000495  1
  Be  Be4  1  0.204489  0.439312  0.793987  1
  Be  Be5  1  0.567193  0.787903  0.434620  1
  Be  Be6  1  0.435042  0.207686  0.566456  1
  Be  Be7  1  0.291493  0.933869  0.710109  1
  Be  Be8  1  0.709816  0.064781  0.291726  1
  Be  Be9  1  0.933165  0.288889  0.065275  1
  Be  Be10  1  0.066814  0.715249  0.931635  1
  Be  Be11  1  0.207039  0.793230  0.563504  1
  Be  Be12  1  0.790653  0.205818  0.437302  1
  Be  Be13  1  0.438050  0.565447  0.791663  1
  Be  Be14  1  0.563444  0.435272  0.208213  1
  Be  Be15  1  0.712033  0.286088  0.933805  1
  Be  Be16  1  0.288492  0.713572  0.064334  1
  Be  Be17  1  0.064291  0.930294  0.289550  1
  Be  Be18  1  0.934170  0.064842  0.712939  1
  Be  Be19  1  0.562921  0.208770  0.791210  1
  Be  Be20  1  0.436059  0.790192  0.207967  1
  Be  Be21  1  0.791161  0.435748  0.565120  1
  Be  Be22  1  0.207185  0.564659  0.438952  1
  Be  Be23  1  0.935438  0.711782  0.289671  1
  Be  Be24  1  0.064227  0.289797  0.711566  1
  Be  Be25  1  0.290600  0.063628  0.933399  1
  Be  Be26  1  0.712021  0.935491  0.063149  1
  Ni  Ni27  1  0.797090  0.560520  0.204183  1
