# generated using pymatgen
data_Y16Cd3InNi4
_symmetry_space_group_name_H-M   'P 1'
_cell_length_a   9.58314487
_cell_length_b   9.58314419
_cell_length_c   9.58314530
_cell_angle_alpha   60.37483228
_cell_angle_beta   60.37482935
_cell_angle_gamma   60.37483667
_symmetry_Int_Tables_number   1
_chemical_formula_structural   Y16Cd3InNi4
_chemical_formula_sum   'Y16 Cd3 In1 Ni4'
_cell_volume   627.58941881
_cell_formula_units_Z   1
loop_
 _symmetry_equiv_pos_site_id
 _symmetry_equiv_pos_as_xyz
  1  'x, y, z'
loop_
 _atom_site_type_symbol
 _atom_site_label
 _atom_site_symmetry_multiplicity
 _atom_site_fract_x
 _atom_site_fract_y
 _atom_site_fract_z
 _atom_site_occupancy
  Y  Y0  1  0.346346  0.346346  0.346346  1
  Y  Y1  1  0.350895  0.350895  0.950668  1
  Y  Y2  1  0.350895  0.950668  0.350895  1
  Y  Y3  1  0.950668  0.350895  0.350895  1
  Y  Y4  1  0.811840  0.189120  0.189120  1
  Y  Y5  1  0.189269  0.810889  0.810889  1
  Y  Y6  1  0.189120  0.811840  0.189120  1
  Y  Y7  1  0.810889  0.189269  0.810889  1
  Y  Y8  1  0.189120  0.189120  0.811840  1
  Y  Y9  1  0.810889  0.810889  0.189269  1
  Y  Y10  1  0.937133  0.565117  0.565117  1
  Y  Y11  1  0.562958  0.937532  0.937532  1
  Y  Y12  1  0.565117  0.937133  0.565117  1
  Y  Y13  1  0.937532  0.562958  0.937532  1
  Y  Y14  1  0.565117  0.565117  0.937133  1
  Y  Y15  1  0.937532  0.937532  0.562958  1
  Cd  Cd16  1  0.579848  0.579848  0.255400  1
  Cd  Cd17  1  0.579848  0.255400  0.579848  1
  Cd  Cd18  1  0.255400  0.579848  0.579848  1
  In  In19  1  0.581276  0.581276  0.581276  1
  Ni  Ni20  1  0.144154  0.144154  0.144154  1
  Ni  Ni21  1  0.140078  0.140078  0.573995  1
  Ni  Ni22  1  0.140078  0.573995  0.140078  1
  Ni  Ni23  1  0.573995  0.140078  0.140078  1
