# generated using pymatgen
data_CaSm3Tm4(B6Ru)4
_symmetry_space_group_name_H-M   'P 1'
_cell_length_a   3.66372100
_cell_length_b   9.14944673
_cell_length_c   11.56858903
_cell_angle_alpha   89.92038300
_cell_angle_beta   90.00000000
_cell_angle_gamma   90.00000000
_symmetry_Int_Tables_number   1
_chemical_formula_structural   CaSm3Tm4(B6Ru)4
_chemical_formula_sum   'Ca1 Sm3 Tm4 B24 Ru4'
_cell_volume   387.79053128
_cell_formula_units_Z   1
loop_
 _symmetry_equiv_pos_site_id
 _symmetry_equiv_pos_as_xyz
  1  'x, y, z'
loop_
 _atom_site_type_symbol
 _atom_site_label
 _atom_site_symmetry_multiplicity
 _atom_site_fract_x
 _atom_site_fract_y
 _atom_site_fract_z
 _atom_site_occupancy
  Ca  Ca0  1  0.000000  0.322009  0.414255  1
  Sm  Sm1  1  0.000000  0.676045  0.584651  1
  Sm  Sm2  1  0.000000  0.822524  0.086379  1
  Sm  Sm3  1  0.000000  0.177879  0.914626  1
  Tm  Tm4  1  0.000000  0.944439  0.371218  1
  Tm  Tm5  1  0.000000  0.058085  0.627676  1
  Tm  Tm6  1  0.000000  0.442979  0.130120  1
  Tm  Tm7  1  0.000000  0.555925  0.871649  1
  B  B8  1  0.500000  0.554594  0.431165  1
  B  B9  1  0.500000  0.444324  0.568304  1
  B  B10  1  0.500000  0.055074  0.068454  1
  B  B11  1  0.500000  0.944462  0.930920  1
  B  B12  1  0.500000  0.749478  0.417544  1
  B  B13  1  0.500000  0.250963  0.581536  1
  B  B14  1  0.500000  0.249470  0.082502  1
  B  B15  1  0.500000  0.750022  0.917909  1
  B  B16  1  0.500000  0.791196  0.266396  1
  B  B17  1  0.500000  0.209747  0.733498  1
  B  B18  1  0.500000  0.290488  0.234395  1
  B  B19  1  0.500000  0.709340  0.766145  1
  B  B20  1  0.500000  0.630207  0.185936  1
  B  B21  1  0.500000  0.369672  0.815269  1
  B  B22  1  0.500000  0.130919  0.314828  1
  B  B23  1  0.500000  0.869748  0.684690  1
  B  B24  1  0.500000  0.984702  0.213267  1
  B  B25  1  0.500000  0.015736  0.785965  1
  B  B26  1  0.500000  0.483469  0.287295  1
  B  B27  1  0.500000  0.515426  0.713464  1
  B  B28  1  0.500000  0.602294  0.028387  1
  B  B29  1  0.500000  0.397564  0.972455  1
  B  B30  1  0.500000  0.102156  0.471905  1
  B  B31  1  0.500000  0.898484  0.527714  1
  Ru  Ru32  1  0.000000  0.640224  0.319196  1
  Ru  Ru33  1  0.000000  0.360967  0.681390  1
  Ru  Ru34  1  0.000000  0.138289  0.179570  1
  Ru  Ru35  1  0.000000  0.861098  0.819328  1
