# generated using pymatgen
data_HoTm3(As4O9)2
_symmetry_space_group_name_H-M   'P 1'
_cell_length_a   6.68397764
_cell_length_b   7.48856752
_cell_length_c   9.77911471
_cell_angle_alpha   94.71989796
_cell_angle_beta   104.12103058
_cell_angle_gamma   104.76920914
_symmetry_Int_Tables_number   1
_chemical_formula_structural   HoTm3(As4O9)2
_chemical_formula_sum   'Ho1 Tm3 As8 O18'
_cell_volume   453.52326305
_cell_formula_units_Z   1
loop_
 _symmetry_equiv_pos_site_id
 _symmetry_equiv_pos_as_xyz
  1  'x, y, z'
loop_
 _atom_site_type_symbol
 _atom_site_label
 _atom_site_symmetry_multiplicity
 _atom_site_fract_x
 _atom_site_fract_y
 _atom_site_fract_z
 _atom_site_occupancy
  Ho  Ho0  1  0.242062  0.939322  0.614601  1
  Tm  Tm1  1  0.757586  0.061547  0.385225  1
  Tm  Tm2  1  0.721189  0.528567  0.410115  1
  Tm  Tm3  1  0.278455  0.471100  0.589560  1
  As  As4  1  0.683828  0.773763  0.080326  1
  As  As5  1  0.316326  0.226979  0.920424  1
  As  As6  1  0.169106  0.751329  0.912374  1
  As  As7  1  0.830633  0.248222  0.087887  1
  As  As8  1  0.742948  0.914310  0.709279  1
  As  As9  1  0.257649  0.085633  0.290172  1
  As  As10  1  0.810193  0.351647  0.701268  1
  As  As11  1  0.190322  0.648106  0.298443  1
  O  O12  1  0.722888  0.748155  0.261541  1
  O  O13  1  0.277350  0.253331  0.739293  1
  O  O14  1  0.315799  0.978584  0.868553  1
  O  O15  1  0.684954  0.021849  0.133369  1
  O  O16  1  0.608583  0.326542  0.985362  1
  O  O17  1  0.391428  0.673415  0.014719  1
  O  O18  1  0.125498  0.643409  0.737154  1
  O  O19  1  0.874423  0.356350  0.262865  1
  O  O20  1  0.846328  0.876888  0.557838  1
  O  O21  1  0.150633  0.124431  0.439791  1
  O  O22  1  0.480181  0.765794  0.665827  1
  O  O23  1  0.521429  0.233000  0.334805  1
  O  O24  1  0.373523  0.531667  0.381135  1
  O  O25  1  0.626655  0.467901  0.618589  1
  O  O26  1  0.088077  0.668523  0.454273  1
  O  O27  1  0.910985  0.329396  0.544832  1
  O  O28  1  0.380614  0.899903  0.359145  1
  O  O29  1  0.620353  0.100335  0.641235  1
