# generated using pymatgen
data_Ac4ZnSi5
_symmetry_space_group_name_H-M   'P 1'
_cell_length_a   4.17670500
_cell_length_b   4.70114512
_cell_length_c   13.31576251
_cell_angle_alpha   100.16745955
_cell_angle_beta   90.00000000
_cell_angle_gamma   90.00000000
_symmetry_Int_Tables_number   1
_chemical_formula_structural   Ac4ZnSi5
_chemical_formula_sum   'Ac4 Zn1 Si5'
_cell_volume   257.35299727
_cell_formula_units_Z   1
loop_
 _symmetry_equiv_pos_site_id
 _symmetry_equiv_pos_as_xyz
  1  'x, y, z'
loop_
 _atom_site_type_symbol
 _atom_site_label
 _atom_site_symmetry_multiplicity
 _atom_site_fract_x
 _atom_site_fract_y
 _atom_site_fract_z
 _atom_site_occupancy
  Ac  Ac0  1  0.750000  0.428695  0.857389  1
  Ac  Ac1  1  0.250000  0.571481  0.142962  1
  Ac  Ac2  1  0.750000  0.702502  0.405007  1
  Ac  Ac3  1  0.250000  0.298300  0.596598  1
  Zn  Zn4  1  0.750000  0.021963  0.043926  1
  Si  Si5  1  0.250000  0.976347  0.952693  1
  Si  Si6  1  0.750000  0.115015  0.230030  1
  Si  Si7  1  0.250000  0.884760  0.769519  1
  Si  Si8  1  0.750000  0.833920  0.667840  1
  Si  Si9  1  0.250000  0.167019  0.334038  1
