# generated using pymatgen
data_Sr2CrCoF10
_symmetry_space_group_name_H-M   'P 1'
_cell_length_a   5.77575461
_cell_length_b   5.81348668
_cell_length_c   8.09925400
_cell_angle_alpha   69.28118499
_cell_angle_beta   70.36145432
_cell_angle_gamma   70.92171256
_symmetry_Int_Tables_number   1
_chemical_formula_structural   Sr2CrCoF10
_chemical_formula_sum   'Sr2 Cr1 Co1 F10'
_cell_volume   232.79621357
_cell_formula_units_Z   1
loop_
 _symmetry_equiv_pos_site_id
 _symmetry_equiv_pos_as_xyz
  1  'x, y, z'
loop_
 _atom_site_type_symbol
 _atom_site_label
 _atom_site_symmetry_multiplicity
 _atom_site_fract_x
 _atom_site_fract_y
 _atom_site_fract_z
 _atom_site_occupancy
  Sr  Sr0  1  0.545425  0.452506  0.253563  1
  Sr  Sr1  1  0.454575  0.547494  0.746437  1
  Cr  Cr2  1  0.000000  0.000000  0.500000  1
  Co  Co3  1  0.000000  0.000000  0.000000  1
  F  F4  1  0.073294  0.926110  0.740375  1
  F  F5  1  0.926706  0.073890  0.259625  1
  F  F6  1  0.198238  0.224384  0.895576  1
  F  F7  1  0.761674  0.790242  0.612060  1
  F  F8  1  0.720137  0.295774  0.531320  1
  F  F9  1  0.713468  0.269944  0.974276  1
  F  F10  1  0.279863  0.704226  0.468680  1
  F  F11  1  0.286532  0.730056  0.025724  1
  F  F12  1  0.238326  0.209758  0.387940  1
  F  F13  1  0.801762  0.775616  0.104424  1
