# generated using pymatgen
data_Pr16Mg2CdAgIr4
_symmetry_space_group_name_H-M   'P 1'
_cell_length_a   10.04148120
_cell_length_b   10.04148059
_cell_length_c   10.05342107
_cell_angle_alpha   60.09063338
_cell_angle_beta   60.09073559
_cell_angle_gamma   60.24114942
_symmetry_Int_Tables_number   1
_chemical_formula_structural   Pr16Mg2CdAgIr4
_chemical_formula_sum   'Pr16 Mg2 Cd1 Ag1 Ir4'
_cell_volume   719.07759464
_cell_formula_units_Z   1
loop_
 _symmetry_equiv_pos_site_id
 _symmetry_equiv_pos_as_xyz
  1  'x, y, z'
loop_
 _atom_site_type_symbol
 _atom_site_label
 _atom_site_symmetry_multiplicity
 _atom_site_fract_x
 _atom_site_fract_y
 _atom_site_fract_z
 _atom_site_occupancy
  Pr  Pr0  1  0.347019  0.347019  0.346372  1
  Pr  Pr1  1  0.347548  0.347550  0.958912  1
  Pr  Pr2  1  0.348154  0.956688  0.347486  1
  Pr  Pr3  1  0.956689  0.348156  0.347485  1
  Pr  Pr4  1  0.810097  0.189901  0.189652  1
  Pr  Pr5  1  0.188377  0.809639  0.810104  1
  Pr  Pr6  1  0.189899  0.810098  0.189652  1
  Pr  Pr7  1  0.809640  0.188377  0.810101  1
  Pr  Pr8  1  0.188691  0.188689  0.810941  1
  Pr  Pr9  1  0.807189  0.807191  0.191523  1
  Pr  Pr10  1  0.935276  0.561090  0.561673  1
  Pr  Pr11  1  0.560739  0.937117  0.938861  1
  Pr  Pr12  1  0.561090  0.935275  0.561673  1
  Pr  Pr13  1  0.937116  0.560737  0.938863  1
  Pr  Pr14  1  0.560761  0.560760  0.936757  1
  Pr  Pr15  1  0.937283  0.937285  0.561415  1
  Mg  Mg16  1  0.579459  0.271469  0.576230  1
  Mg  Mg17  1  0.271470  0.579458  0.576230  1
  Cd  Cd18  1  0.580468  0.580468  0.260383  1
  Ag  Ag19  1  0.580498  0.580497  0.583005  1
  Ir  Ir20  1  0.141599  0.141602  0.141375  1
  Ir  Ir21  1  0.142445  0.142442  0.576041  1
  Ir  Ir22  1  0.142175  0.576320  0.142634  1
  Ir  Ir23  1  0.576319  0.142174  0.142634  1
