# generated using pymatgen
data_Ac5NdIr18
_symmetry_space_group_name_H-M   'P 1'
_cell_length_a   5.48583100
_cell_length_b   5.48584997
_cell_length_c   17.86259000
_cell_angle_alpha   89.99988054
_cell_angle_beta   90.00010116
_cell_angle_gamma   120.00018658
_symmetry_Int_Tables_number   1
_chemical_formula_structural   Ac5NdIr18
_chemical_formula_sum   'Ac5 Nd1 Ir18'
_cell_volume   465.54385158
_cell_formula_units_Z   1
loop_
 _symmetry_equiv_pos_site_id
 _symmetry_equiv_pos_as_xyz
  1  'x, y, z'
loop_
 _atom_site_type_symbol
 _atom_site_label
 _atom_site_symmetry_multiplicity
 _atom_site_fract_x
 _atom_site_fract_y
 _atom_site_fract_z
 _atom_site_occupancy
  Ac  Ac0  1  0.333333  0.666667  0.959148  1
  Ac  Ac1  1  0.666664  0.333331  0.040645  1
  Ac  Ac2  1  0.666665  0.333331  0.461053  1
  Ac  Ac3  1  0.333327  0.666665  0.749322  1
  Ac  Ac4  1  0.666675  0.333337  0.251243  1
  Nd  Nd5  1  0.333333  0.666665  0.542530  1
  Ir  Ir6  1  0.166397  0.833602  0.371528  1
  Ir  Ir7  1  0.166395  0.332792  0.371527  1
  Ir  Ir8  1  0.667202  0.833601  0.371530  1
  Ir  Ir9  1  0.834412  0.165586  0.627930  1
  Ir  Ir10  1  0.834415  0.668835  0.627932  1
  Ir  Ir11  1  0.331171  0.165590  0.627930  1
  Ir  Ir12  1  0.834507  0.165492  0.868235  1
  Ir  Ir13  1  0.834505  0.669010  0.868235  1
  Ir  Ir14  1  0.330991  0.165495  0.868236  1
  Ir  Ir15  1  0.165290  0.834710  0.131342  1
  Ir  Ir16  1  0.165291  0.330579  0.131342  1
  Ir  Ir17  1  0.669423  0.834710  0.131341  1
  Ir  Ir18  1  0.333346  0.666669  0.250508  1
  Ir  Ir19  1  0.666658  0.333330  0.748476  1
  Ir  Ir20  1  0.999995  0.000000  0.251984  1
  Ir  Ir21  1  0.000004  0.000004  0.747926  1
  Ir  Ir22  1  0.000001  0.999997  0.500312  1
  Ir  Ir23  1  0.999998  0.000001  0.999744  1
