# generated using pymatgen
data_CaYb2Eu5Ir2
_symmetry_space_group_name_H-M   'P 1'
_cell_length_a   7.71606537
_cell_length_b   7.72246464
_cell_length_c   7.72289195
_cell_angle_alpha   107.35273778
_cell_angle_beta   106.58302342
_cell_angle_gamma   114.57502767
_symmetry_Int_Tables_number   1
_chemical_formula_structural   CaYb2Eu5Ir2
_chemical_formula_sum   'Ca1 Yb2 Eu5 Ir2'
_cell_volume   352.22190544
_cell_formula_units_Z   1
loop_
 _symmetry_equiv_pos_site_id
 _symmetry_equiv_pos_as_xyz
  1  'x, y, z'
loop_
 _atom_site_type_symbol
 _atom_site_label
 _atom_site_symmetry_multiplicity
 _atom_site_fract_x
 _atom_site_fract_y
 _atom_site_fract_z
 _atom_site_occupancy
  Ca  Ca0  1  0.873846  0.570450  0.302768  1
  Yb  Yb1  1  0.816858  0.013382  0.197593  1
  Yb  Yb2  1  0.433565  0.130683  0.696672  1
  Eu  Eu3  1  0.819581  0.624497  0.805553  1
  Eu  Eu4  1  0.374998  0.178666  0.194955  1
  Eu  Eu5  1  0.430935  0.735278  0.304862  1
  Eu  Eu6  1  0.268452  0.572212  0.695234  1
  Eu  Eu7  1  0.983801  0.177651  0.805065  1
  Ir  Ir8  1  0.500959  0.501345  0.997525  1
  Ir  Ir9  1  0.747005  0.245835  0.499775  1
