# generated using pymatgen
data_La8Tm2Ir3Rh
_symmetry_space_group_name_H-M   'P 1'
_cell_length_a   6.70734002
_cell_length_b   7.30167850
_cell_length_c   9.14347000
_cell_angle_alpha   95.82439920
_cell_angle_beta   111.25534207
_cell_angle_gamma   90.00856686
_symmetry_Int_Tables_number   1
_chemical_formula_structural   La8Tm2Ir3Rh
_chemical_formula_sum   'La8 Tm2 Ir3 Rh1'
_cell_volume   414.85387047
_cell_formula_units_Z   1
loop_
 _symmetry_equiv_pos_site_id
 _symmetry_equiv_pos_as_xyz
  1  'x, y, z'
loop_
 _atom_site_type_symbol
 _atom_site_label
 _atom_site_symmetry_multiplicity
 _atom_site_fract_x
 _atom_site_fract_y
 _atom_site_fract_z
 _atom_site_occupancy
  La  La0  1  0.798882  0.083143  0.818332  1
  La  La1  1  0.981134  0.416291  0.181893  1
  La  La2  1  0.201739  0.916717  0.182283  1
  La  La3  1  0.020382  0.584653  0.819207  1
  La  La4  1  0.215534  0.183802  0.573313  1
  La  La5  1  0.642286  0.315127  0.424380  1
  La  La6  1  0.783048  0.815062  0.426676  1
  La  La7  1  0.357756  0.684895  0.574135  1
  Tm  Tm8  1  0.434072  0.249235  0.000952  1
  Tm  Tm9  1  0.565215  0.752166  0.001021  1
  Ir  Ir10  1  0.804935  0.074178  0.211128  1
  Ir  Ir11  1  0.402917  0.572891  0.208595  1
  Ir  Ir12  1  0.194075  0.925335  0.787940  1
  Rh  Rh13  1  0.598025  0.426502  0.790143  1
