# generated using pymatgen
data_CdPdRu3Pb3O14
_symmetry_space_group_name_H-M   'P 1'
_cell_length_a   7.33444278
_cell_length_b   7.28320414
_cell_length_c   7.33444148
_cell_angle_alpha   60.39891417
_cell_angle_beta   60.34923097
_cell_angle_gamma   60.39891149
_symmetry_Int_Tables_number   1
_chemical_formula_structural   CdPdRu3Pb3O14
_chemical_formula_sum   'Cd1 Pd1 Ru3 Pb3 O14'
_cell_volume   279.43510121
_cell_formula_units_Z   1
loop_
 _symmetry_equiv_pos_site_id
 _symmetry_equiv_pos_as_xyz
  1  'x, y, z'
loop_
 _atom_site_type_symbol
 _atom_site_label
 _atom_site_symmetry_multiplicity
 _atom_site_fract_x
 _atom_site_fract_y
 _atom_site_fract_z
 _atom_site_occupancy
  Cd  Cd0  1  0.125000  0.125000  0.125000  1
  Pd  Pd1  1  0.625000  0.125000  0.625000  1
  Ru  Ru2  1  0.625000  0.625000  0.125000  1
  Ru  Ru3  1  0.125000  0.625000  0.625000  1
  Ru  Ru4  1  0.625000  0.625000  0.625000  1
  Pb  Pb5  1  0.125000  0.625000  0.125000  1
  Pb  Pb6  1  0.125000  0.125000  0.625000  1
  Pb  Pb7  1  0.625000  0.125000  0.125000  1
  O  O8  1  0.703396  0.694253  0.302546  1
  O  O9  1  0.947454  0.555747  0.546604  1
  O  O10  1  0.544493  0.947693  0.963110  1
  O  O11  1  0.963110  0.947693  0.544493  1
  O  O12  1  0.936599  0.582972  0.936599  1
  O  O13  1  0.545243  0.948137  0.545243  1
  O  O14  1  0.313401  0.667028  0.313401  1
  O  O15  1  0.302546  0.694253  0.703396  1
  O  O16  1  0.705507  0.302307  0.286890  1
  O  O17  1  0.704757  0.301863  0.704757  1
  O  O18  1  0.546604  0.555747  0.947454  1
  O  O19  1  0.286890  0.302307  0.705507  1
  O  O20  1  0.244817  0.242574  0.244817  1
  O  O21  1  0.005183  0.007426  0.005183  1
