# generated using pymatgen
data_La7Er(SiBr6)2
_symmetry_space_group_name_H-M   'P 1'
_cell_length_a   4.28015200
_cell_length_b   13.92076963
_cell_length_c   14.70819792
_cell_angle_alpha   90.75188605
_cell_angle_beta   90.00000000
_cell_angle_gamma   90.00000000
_symmetry_Int_Tables_number   1
_chemical_formula_structural   La7Er(SiBr6)2
_chemical_formula_sum   'La7 Er1 Si2 Br12'
_cell_volume   876.28324581
_cell_formula_units_Z   1
loop_
 _symmetry_equiv_pos_site_id
 _symmetry_equiv_pos_as_xyz
  1  'x, y, z'
loop_
 _atom_site_type_symbol
 _atom_site_label
 _atom_site_symmetry_multiplicity
 _atom_site_fract_x
 _atom_site_fract_y
 _atom_site_fract_z
 _atom_site_occupancy
  La  La0  1  0.500000  0.120321  0.339341  1
  La  La1  1  0.500000  0.880721  0.661416  1
  La  La2  1  0.500000  0.618610  0.159217  1
  La  La3  1  0.000000  0.124146  0.583268  1
  La  La4  1  0.000000  0.879380  0.419511  1
  La  La5  1  0.000000  0.618810  0.917945  1
  La  La6  1  0.000000  0.377864  0.077534  1
  Er  Er7  1  0.500000  0.382896  0.842466  1
  Si  Si8  1  0.500000  0.001564  0.501041  1
  Si  Si9  1  0.500000  0.497535  0.996664  1
  Br  Br10  1  0.500000  0.241800  0.160932  1
  Br  Br11  1  0.500000  0.757063  0.837657  1
  Br  Br12  1  0.500000  0.741352  0.337744  1
  Br  Br13  1  0.500000  0.262130  0.671131  1
  Br  Br14  1  0.000000  0.255562  0.413039  1
  Br  Br15  1  0.000000  0.745050  0.587915  1
  Br  Br16  1  0.000000  0.754214  0.088321  1
  Br  Br17  1  0.000000  0.255485  0.899813  1
  Br  Br18  1  0.000000  0.001003  0.243642  1
  Br  Br19  1  0.000000  0.999391  0.757132  1
  Br  Br20  1  0.000000  0.501418  0.255363  1
  Br  Br21  1  0.000000  0.483682  0.748908  1
