# generated using pymatgen
data_TbDy2Lu2(In2Ni)2
_symmetry_space_group_name_H-M   'P 1'
_cell_length_a   3.58643400
_cell_length_b   7.97926753
_cell_length_c   17.80748922
_cell_angle_alpha   90.04211474
_cell_angle_beta   90.00000000
_cell_angle_gamma   90.00000000
_symmetry_Int_Tables_number   1
_chemical_formula_structural   TbDy2Lu2(In2Ni)2
_chemical_formula_sum   'Tb2 Dy4 Lu4 In8 Ni4'
_cell_volume   509.59885358
_cell_formula_units_Z   2
loop_
 _symmetry_equiv_pos_site_id
 _symmetry_equiv_pos_as_xyz
  1  'x, y, z'
loop_
 _atom_site_type_symbol
 _atom_site_label
 _atom_site_symmetry_multiplicity
 _atom_site_fract_x
 _atom_site_fract_y
 _atom_site_fract_z
 _atom_site_occupancy
  Tb  Tb0  1  0.500000  0.499695  0.998777  1
  Tb  Tb1  1  0.500000  0.000251  0.500682  1
  Dy  Dy2  1  0.500000  0.253812  0.780352  1
  Dy  Dy3  1  0.500000  0.746671  0.219453  1
  Dy  Dy4  1  0.500000  0.246742  0.278525  1
  Dy  Dy5  1  0.500000  0.618333  0.412331  1
  Lu  Lu6  1  0.500000  0.383296  0.591479  1
  Lu  Lu7  1  0.500000  0.880845  0.909454  1
  Lu  Lu8  1  0.500000  0.117658  0.088885  1
  Lu  Lu9  1  0.500000  0.754206  0.721277  1
  In  In10  1  0.000000  0.800915  0.065537  1
  In  In11  1  0.000000  0.927652  0.346817  1
  In  In12  1  0.000000  0.073098  0.653449  1
  In  In13  1  0.000000  0.577262  0.846368  1
  In  In14  1  0.000000  0.701643  0.570344  1
  In  In15  1  0.000000  0.196914  0.933496  1
  In  In16  1  0.000000  0.296319  0.433202  1
  In  In17  1  0.000000  0.424537  0.151379  1
  Ni  Ni18  1  0.000000  0.969720  0.804518  1
  Ni  Ni19  1  0.000000  0.525176  0.304292  1
  Ni  Ni20  1  0.000000  0.478869  0.695672  1
  Ni  Ni21  1  0.000000  0.026386  0.193710  1
