# generated using pymatgen
data_La16Cd4RePd3
_symmetry_space_group_name_H-M   'P 1'
_cell_length_a   10.25960872
_cell_length_b   10.25942303
_cell_length_c   10.25991062
_cell_angle_alpha   59.02808781
_cell_angle_beta   59.03355461
_cell_angle_gamma   59.03255552
_symmetry_Int_Tables_number   1
_chemical_formula_structural   La16Cd4RePd3
_chemical_formula_sum   'La16 Cd4 Re1 Pd3'
_cell_volume   746.76012378
_cell_formula_units_Z   1
loop_
 _symmetry_equiv_pos_site_id
 _symmetry_equiv_pos_as_xyz
  1  'x, y, z'
loop_
 _atom_site_type_symbol
 _atom_site_label
 _atom_site_symmetry_multiplicity
 _atom_site_fract_x
 _atom_site_fract_y
 _atom_site_fract_z
 _atom_site_occupancy
  La  La0  1  0.351500  0.351516  0.351508  1
  La  La1  1  0.346558  0.346518  0.953330  1
  La  La2  1  0.346533  0.953333  0.346548  1
  La  La3  1  0.953340  0.346488  0.346572  1
  La  La4  1  0.817059  0.189621  0.189655  1
  La  La5  1  0.194047  0.806652  0.806620  1
  La  La6  1  0.189608  0.817054  0.189656  1
  La  La7  1  0.806616  0.194073  0.806652  1
  La  La8  1  0.189621  0.189631  0.817073  1
  La  La9  1  0.806646  0.806668  0.194082  1
  La  La10  1  0.934523  0.563546  0.563533  1
  La  La11  1  0.555760  0.938940  0.938920  1
  La  La12  1  0.563591  0.934471  0.563571  1
  La  La13  1  0.938946  0.555801  0.938890  1
  La  La14  1  0.563567  0.563606  0.934455  1
  La  La15  1  0.938928  0.938961  0.555757  1
  Cd  Cd16  1  0.579399  0.579403  0.579406  1
  Cd  Cd17  1  0.579116  0.579121  0.262293  1
  Cd  Cd18  1  0.579121  0.262282  0.579127  1
  Cd  Cd19  1  0.262281  0.579119  0.579131  1
  Re  Re20  1  0.142312  0.142311  0.142325  1
  Pd  Pd21  1  0.143462  0.143442  0.573994  1
  Pd  Pd22  1  0.143458  0.573999  0.143458  1
  Pd  Pd23  1  0.574007  0.143446  0.143444  1
