# generated using pymatgen
data_Ho7ThCdNi2Hg
_symmetry_space_group_name_H-M   'P 1'
_cell_length_a   9.55368786
_cell_length_b   9.55368819
_cell_length_c   9.55235200
_cell_angle_alpha   60.00462645
_cell_angle_beta   60.00462533
_cell_angle_gamma   59.87801788
_symmetry_Int_Tables_number   1
_chemical_formula_structural   Ho7ThCdNi2Hg
_chemical_formula_sum   'Ho14 Th2 Cd2 Ni4 Hg2'
_cell_volume   615.97880617
_cell_formula_units_Z   2
loop_
 _symmetry_equiv_pos_site_id
 _symmetry_equiv_pos_as_xyz
  1  'x, y, z'
loop_
 _atom_site_type_symbol
 _atom_site_label
 _atom_site_symmetry_multiplicity
 _atom_site_fract_x
 _atom_site_fract_y
 _atom_site_fract_z
 _atom_site_occupancy
  Ho  Ho0  1  0.352083  0.944848  0.351534  1
  Ho  Ho1  1  0.944848  0.352083  0.351534  1
  Ho  Ho2  1  0.812029  0.189683  0.187827  1
  Ho  Ho3  1  0.189683  0.812029  0.810460  1
  Ho  Ho4  1  0.189683  0.812029  0.187827  1
  Ho  Ho5  1  0.812029  0.189683  0.810460  1
  Ho  Ho6  1  0.187283  0.187283  0.812717  1
  Ho  Ho7  1  0.811520  0.811520  0.188480  1
  Ho  Ho8  1  0.936128  0.564849  0.565975  1
  Ho  Ho9  1  0.564849  0.936128  0.933048  1
  Ho  Ho10  1  0.564849  0.936128  0.565975  1
  Ho  Ho11  1  0.936128  0.564849  0.933048  1
  Ho  Ho12  1  0.564182  0.564182  0.935818  1
  Ho  Ho13  1  0.936641  0.936641  0.563359  1
  Th  Th14  1  0.343650  0.343650  0.351361  1
  Th  Th15  1  0.343650  0.343650  0.961339  1
  Cd  Cd16  1  0.582457  0.255673  0.580935  1
  Cd  Cd17  1  0.255673  0.582457  0.580935  1
  Ni  Ni18  1  0.141877  0.141877  0.145122  1
  Ni  Ni19  1  0.141877  0.141877  0.571122  1
  Ni  Ni20  1  0.145254  0.569801  0.142472  1
  Ni  Ni21  1  0.569801  0.145254  0.142472  1
  Hg  Hg22  1  0.586914  0.586914  0.585073  1
  Hg  Hg23  1  0.586914  0.586914  0.241101  1
