# generated using pymatgen
data_Th4Sn2Pd3Rh
_symmetry_space_group_name_H-M   'P 1'
_cell_length_a   7.91905724
_cell_length_b   7.91905724
_cell_length_c   3.82846400
_cell_angle_alpha   90.00000000
_cell_angle_beta   90.00000000
_cell_angle_gamma   89.97159470
_symmetry_Int_Tables_number   1
_chemical_formula_structural   Th4Sn2Pd3Rh
_chemical_formula_sum   'Th4 Sn2 Pd3 Rh1'
_cell_volume   240.08856668
_cell_formula_units_Z   1
loop_
 _symmetry_equiv_pos_site_id
 _symmetry_equiv_pos_as_xyz
  1  'x, y, z'
loop_
 _atom_site_type_symbol
 _atom_site_label
 _atom_site_symmetry_multiplicity
 _atom_site_fract_x
 _atom_site_fract_y
 _atom_site_fract_z
 _atom_site_occupancy
  Th  Th0  1  0.682357  0.182357  0.500000  1
  Th  Th1  1  0.168694  0.323369  0.500000  1
  Th  Th2  1  0.325698  0.825698  0.500000  1
  Th  Th3  1  0.823369  0.668694  0.500000  1
  Sn  Sn4  1  0.500190  0.498787  0.000000  1
  Sn  Sn5  1  0.998787  0.000190  0.000000  1
  Pd  Pd6  1  0.373439  0.127179  0.000000  1
  Pd  Pd7  1  0.627179  0.873439  0.000000  1
  Pd  Pd8  1  0.128819  0.628819  0.000000  1
  Rh  Rh9  1  0.871467  0.371467  0.000000  1
