# generated using pymatgen
data_Zr6Al5(GaNi8)2
_symmetry_space_group_name_H-M   'P 1'
_cell_length_a   8.27163730
_cell_length_b   8.27163655
_cell_length_c   8.28064700
_cell_angle_alpha   59.96394707
_cell_angle_beta   59.96395006
_cell_angle_gamma   60.07208302
_symmetry_Int_Tables_number   1
_chemical_formula_structural   Zr6Al5(GaNi8)2
_chemical_formula_sum   'Zr6 Al5 Ga2 Ni16'
_cell_volume   400.61859413
_cell_formula_units_Z   1
loop_
 _symmetry_equiv_pos_site_id
 _symmetry_equiv_pos_as_xyz
  1  'x, y, z'
loop_
 _atom_site_type_symbol
 _atom_site_label
 _atom_site_symmetry_multiplicity
 _atom_site_fract_x
 _atom_site_fract_y
 _atom_site_fract_z
 _atom_site_occupancy
  Zr  Zr0  1  0.792717  0.207283  0.792717  1
  Zr  Zr1  1  0.792208  0.792208  0.207792  1
  Zr  Zr2  1  0.207283  0.792717  0.792717  1
  Zr  Zr3  1  0.207792  0.207792  0.792208  1
  Zr  Zr4  1  0.792717  0.207283  0.207283  1
  Zr  Zr5  1  0.207283  0.792717  0.207283  1
  Al  Al6  1  0.000000  0.500000  0.000000  1
  Al  Al7  1  0.500000  0.500000  0.500000  1
  Al  Al8  1  0.500000  0.000000  0.500000  1
  Al  Al9  1  0.000000  0.500000  0.500000  1
  Al  Al10  1  0.500000  0.000000  0.000000  1
  Ga  Ga11  1  0.500000  0.500000  0.000000  1
  Ga  Ga12  1  0.000000  0.000000  0.500000  1
  Ni  Ni13  1  0.169267  0.169267  0.168568  1
  Ni  Ni14  1  0.621495  0.621495  0.138454  1
  Ni  Ni15  1  0.378505  0.378505  0.381445  1
  Ni  Ni16  1  0.168568  0.492898  0.169267  1
  Ni  Ni17  1  0.169267  0.169267  0.492898  1
  Ni  Ni18  1  0.138454  0.618555  0.621495  1
  Ni  Ni19  1  0.618555  0.138454  0.621495  1
  Ni  Ni20  1  0.830733  0.830733  0.831432  1
  Ni  Ni21  1  0.861546  0.381445  0.378505  1
  Ni  Ni22  1  0.378505  0.378505  0.861546  1
  Ni  Ni23  1  0.381445  0.861546  0.378505  1
  Ni  Ni24  1  0.507102  0.831432  0.830733  1
  Ni  Ni25  1  0.621495  0.621495  0.618555  1
  Ni  Ni26  1  0.830733  0.830733  0.507102  1
  Ni  Ni27  1  0.492898  0.168568  0.169267  1
  Ni  Ni28  1  0.831432  0.507102  0.830733  1
