# generated using pymatgen
data_Tb3Mn8CoP6
_symmetry_space_group_name_H-M   'P 1'
_cell_length_a   3.65591400
_cell_length_b   10.87149900
_cell_length_c   12.67360900
_cell_angle_alpha   90.00000000
_cell_angle_beta   90.00000000
_cell_angle_gamma   90.00000000
_symmetry_Int_Tables_number   1
_chemical_formula_structural   Tb3Mn8CoP6
_chemical_formula_sum   'Tb6 Mn16 Co2 P12'
_cell_volume   503.71595322
_cell_formula_units_Z   2
loop_
 _symmetry_equiv_pos_site_id
 _symmetry_equiv_pos_as_xyz
  1  'x, y, z'
loop_
 _atom_site_type_symbol
 _atom_site_label
 _atom_site_symmetry_multiplicity
 _atom_site_fract_x
 _atom_site_fract_y
 _atom_site_fract_z
 _atom_site_occupancy
  Tb  Tb0  1  0.000000  0.500000  0.532087  1
  Tb  Tb1  1  0.500000  0.000000  0.467913  1
  Tb  Tb2  1  0.500000  0.822824  0.206520  1
  Tb  Tb3  1  0.500000  0.177176  0.206520  1
  Tb  Tb4  1  0.000000  0.677176  0.793480  1
  Tb  Tb5  1  0.000000  0.322824  0.793480  1
  Mn  Mn6  1  0.500000  0.500000  0.166169  1
  Mn  Mn7  1  0.000000  0.000000  0.833831  1
  Mn  Mn8  1  0.000000  0.500000  0.992686  1
  Mn  Mn9  1  0.500000  0.000000  0.007314  1
  Mn  Mn10  1  0.500000  0.332545  0.997505  1
  Mn  Mn11  1  0.500000  0.667455  0.997505  1
  Mn  Mn12  1  0.000000  0.167455  0.002495  1
  Mn  Mn13  1  0.000000  0.832545  0.002495  1
  Mn  Mn14  1  0.500000  0.297971  0.432324  1
  Mn  Mn15  1  0.500000  0.702029  0.432324  1
  Mn  Mn16  1  0.000000  0.202029  0.567676  1
  Mn  Mn17  1  0.000000  0.797971  0.567676  1
  Mn  Mn18  1  0.500000  0.881913  0.702625  1
  Mn  Mn19  1  0.500000  0.118087  0.702625  1
  Mn  Mn20  1  0.000000  0.618087  0.297375  1
  Mn  Mn21  1  0.000000  0.381913  0.297375  1
  Co  Co22  1  0.500000  0.500000  0.705934  1
  Co  Co23  1  0.000000  0.000000  0.294066  1
  P  P24  1  0.500000  0.500000  0.881853  1
  P  P25  1  0.000000  0.000000  0.118147  1
  P  P26  1  0.500000  0.500000  0.358951  1
  P  P27  1  0.000000  0.000000  0.641049  1
  P  P28  1  0.500000  0.317313  0.618658  1
  P  P29  1  0.500000  0.682687  0.618658  1
  P  P30  1  0.000000  0.182687  0.381342  1
  P  P31  1  0.000000  0.817313  0.381342  1
  P  P32  1  0.500000  0.845641  0.885273  1
  P  P33  1  0.500000  0.154359  0.885273  1
  P  P34  1  0.000000  0.654359  0.114727  1
  P  P35  1  0.000000  0.345641  0.114727  1
