# generated using pymatgen
data_TbYbRu2O7
_symmetry_space_group_name_H-M   'P 1'
_cell_length_a   7.23732224
_cell_length_b   7.23732196
_cell_length_c   7.24845800
_cell_angle_alpha   59.94908727
_cell_angle_beta   59.94908857
_cell_angle_gamma   59.96936356
_symmetry_Int_Tables_number   1
_chemical_formula_structural   TbYbRu2O7
_chemical_formula_sum   'Tb2 Yb2 Ru4 O14'
_cell_volume   268.19538345
_cell_formula_units_Z   2
loop_
 _symmetry_equiv_pos_site_id
 _symmetry_equiv_pos_as_xyz
  1  'x, y, z'
loop_
 _atom_site_type_symbol
 _atom_site_label
 _atom_site_symmetry_multiplicity
 _atom_site_fract_x
 _atom_site_fract_y
 _atom_site_fract_z
 _atom_site_occupancy
  Tb  Tb0  1  0.625000  0.625000  0.125000  1
  Tb  Tb1  1  0.625000  0.625000  0.625000  1
  Yb  Yb2  1  0.625000  0.125000  0.625000  1
  Yb  Yb3  1  0.125000  0.625000  0.625000  1
  Ru  Ru4  1  0.125000  0.125000  0.625000  1
  Ru  Ru5  1  0.125000  0.625000  0.125000  1
  Ru  Ru6  1  0.625000  0.125000  0.125000  1
  Ru  Ru7  1  0.125000  0.125000  0.125000  1
  O  O8  1  0.746705  0.746705  0.753295  1
  O  O9  1  0.503295  0.503295  0.496705  1
  O  O10  1  0.046038  0.453246  0.048316  1
  O  O11  1  0.796754  0.203962  0.797600  1
  O  O12  1  0.053000  0.053000  0.447000  1
  O  O13  1  0.453246  0.046038  0.048316  1
  O  O14  1  0.046038  0.453246  0.452400  1
  O  O15  1  0.457740  0.457740  0.042260  1
  O  O16  1  0.453246  0.046038  0.452400  1
  O  O17  1  0.203962  0.796754  0.797600  1
  O  O18  1  0.796754  0.203962  0.201684  1
  O  O19  1  0.203962  0.796754  0.201684  1
  O  O20  1  0.792260  0.792260  0.207740  1
  O  O21  1  0.197000  0.197000  0.803000  1
