# generated using pymatgen
data_Ta6Nb(B4Ru3)2
_symmetry_space_group_name_H-M   'P 1'
_cell_length_a   9.59632100
_cell_length_b   9.59632095
_cell_length_c   3.12343900
_cell_angle_alpha   90.00000000
_cell_angle_beta   90.00000000
_cell_angle_gamma   119.99999672
_symmetry_Int_Tables_number   1
_chemical_formula_structural   Ta6Nb(B4Ru3)2
_chemical_formula_sum   'Ta6 Nb1 B8 Ru6'
_cell_volume   249.09970093
_cell_formula_units_Z   1
loop_
 _symmetry_equiv_pos_site_id
 _symmetry_equiv_pos_as_xyz
  1  'x, y, z'
loop_
 _atom_site_type_symbol
 _atom_site_label
 _atom_site_symmetry_multiplicity
 _atom_site_fract_x
 _atom_site_fract_y
 _atom_site_fract_z
 _atom_site_occupancy
  Ta  Ta0  1  0.724219  0.638263  0.000000  1
  Ta  Ta1  1  0.361737  0.085956  0.000000  1
  Ta  Ta2  1  0.914044  0.275781  0.000000  1
  Ta  Ta3  1  0.275781  0.361737  0.000000  1
  Ta  Ta4  1  0.638263  0.914044  0.000000  1
  Ta  Ta5  1  0.085956  0.724219  0.000000  1
  Nb  Nb6  1  0.000000  0.000000  0.000000  1
  B  B7  1  0.666667  0.333333  0.000000  1
  B  B8  1  0.333333  0.666667  0.000000  1
  B  B9  1  0.153211  0.934212  0.500000  1
  B  B10  1  0.065788  0.218999  0.500000  1
  B  B11  1  0.781001  0.846789  0.500000  1
  B  B12  1  0.846789  0.065788  0.500000  1
  B  B13  1  0.934212  0.781001  0.500000  1
  B  B14  1  0.218999  0.153211  0.500000  1
  Ru  Ru15  1  0.359942  0.846145  0.500000  1
  Ru  Ru16  1  0.153855  0.513797  0.500000  1
  Ru  Ru17  1  0.486203  0.640058  0.500000  1
  Ru  Ru18  1  0.640058  0.153855  0.500000  1
  Ru  Ru19  1  0.846145  0.486203  0.500000  1
  Ru  Ru20  1  0.513797  0.359942  0.500000  1
