# generated using pymatgen
data_Yb2HoAl3Si2Pt
_symmetry_space_group_name_H-M   'P 1'
_cell_length_a   6.90435079
_cell_length_b   6.90435082
_cell_length_c   4.28981400
_cell_angle_alpha   90.00000000
_cell_angle_beta   90.00000000
_cell_angle_gamma   120.17211870
_symmetry_Int_Tables_number   1
_chemical_formula_structural   Yb2HoAl3Si2Pt
_chemical_formula_sum   'Yb2 Ho1 Al3 Si2 Pt1'
_cell_volume   176.79050824
_cell_formula_units_Z   1
loop_
 _symmetry_equiv_pos_site_id
 _symmetry_equiv_pos_as_xyz
  1  'x, y, z'
loop_
 _atom_site_type_symbol
 _atom_site_label
 _atom_site_symmetry_multiplicity
 _atom_site_fract_x
 _atom_site_fract_y
 _atom_site_fract_z
 _atom_site_occupancy
  Yb  Yb0  1  0.421576  0.000426  0.000000  1
  Yb  Yb1  1  0.000426  0.421577  0.000000  1
  Ho  Ho2  1  0.579094  0.579095  0.000000  1
  Al  Al3  1  0.762910  0.999085  0.500001  1
  Al  Al4  1  0.236786  0.236786  0.500001  1
  Al  Al5  1  0.999085  0.762910  0.500001  1
  Si  Si6  1  0.665579  0.338162  0.500001  1
  Si  Si7  1  0.338161  0.665579  0.500001  1
  Pt  Pt8  1  0.996383  0.996383  0.000000  1
