# generated using pymatgen
data_RbScCrRh3Se8
_symmetry_space_group_name_H-M   'P 1'
_cell_length_a   9.65661684
_cell_length_b   9.65661709
_cell_length_c   9.04870636
_cell_angle_alpha   74.37751511
_cell_angle_beta   74.37751536
_cell_angle_gamma   22.53980112
_symmetry_Int_Tables_number   1
_chemical_formula_structural   RbScCrRh3Se8
_chemical_formula_sum   'Rb1 Sc1 Cr1 Rh3 Se8'
_cell_volume   311.01438300
_cell_formula_units_Z   1
loop_
 _symmetry_equiv_pos_site_id
 _symmetry_equiv_pos_as_xyz
  1  'x, y, z'
loop_
 _atom_site_type_symbol
 _atom_site_label
 _atom_site_symmetry_multiplicity
 _atom_site_fract_x
 _atom_site_fract_y
 _atom_site_fract_z
 _atom_site_occupancy
  Rb  Rb0  1  0.507950  0.507950  0.490913  1
  Sc  Sc1  1  0.354222  0.354222  0.981709  1
  Cr  Cr2  1  0.700327  0.700327  0.672717  1
  Rh  Rh3  1  0.991611  0.991611  0.004880  1
  Rh  Rh4  1  0.291228  0.291228  0.324468  1
  Rh  Rh5  1  0.660858  0.660858  0.012848  1
  Se  Se6  1  0.239062  0.239062  0.843738  1
  Se  Se7  1  0.430399  0.430399  0.185694  1
  Se  Se8  1  0.568865  0.568865  0.864346  1
  Se  Se9  1  0.920299  0.920299  0.798131  1
  Se  Se10  1  0.086095  0.086095  0.153457  1
  Se  Se11  1  0.822607  0.822607  0.481414  1
  Se  Se12  1  0.167695  0.167695  0.520390  1
  Se  Se13  1  0.758784  0.758784  0.165296  1
