# generated using pymatgen
data_Dy4Ho4Re(TcB8)3
_symmetry_space_group_name_H-M   'P 1'
_cell_length_a   3.67996400
_cell_length_b   9.15401806
_cell_length_c   11.53723201
_cell_angle_alpha   90.02543432
_cell_angle_beta   90.00000000
_cell_angle_gamma   90.00000000
_symmetry_Int_Tables_number   1
_chemical_formula_structural   Dy4Ho4Re(TcB8)3
_chemical_formula_sum   'Dy4 Ho4 Re1 Tc3 B24'
_cell_volume   388.64843056
_cell_formula_units_Z   1
loop_
 _symmetry_equiv_pos_site_id
 _symmetry_equiv_pos_as_xyz
  1  'x, y, z'
loop_
 _atom_site_type_symbol
 _atom_site_label
 _atom_site_symmetry_multiplicity
 _atom_site_fract_x
 _atom_site_fract_y
 _atom_site_fract_z
 _atom_site_occupancy
  Dy  Dy0  1  0.000000  0.324031  0.414096  1
  Dy  Dy1  1  0.000000  0.676182  0.585902  1
  Dy  Dy2  1  0.000000  0.823856  0.086040  1
  Dy  Dy3  1  0.000000  0.176429  0.914207  1
  Ho  Ho4  1  0.000000  0.942728  0.369095  1
  Ho  Ho5  1  0.000000  0.057847  0.630008  1
  Ho  Ho6  1  0.000000  0.442723  0.130926  1
  Ho  Ho7  1  0.000000  0.556228  0.869562  1
  Re  Re8  1  0.000000  0.861146  0.820540  1
  Tc  Tc9  1  0.000000  0.638945  0.320446  1
  Tc  Tc10  1  0.000000  0.361101  0.679497  1
  Tc  Tc11  1  0.000000  0.138991  0.179642  1
  B  B12  1  0.500000  0.553544  0.432842  1
  B  B13  1  0.500000  0.446593  0.567204  1
  B  B14  1  0.500000  0.053523  0.067267  1
  B  B15  1  0.500000  0.946681  0.933035  1
  B  B16  1  0.500000  0.749155  0.418456  1
  B  B17  1  0.500000  0.251100  0.581497  1
  B  B18  1  0.500000  0.249081  0.081567  1
  B  B19  1  0.500000  0.750529  0.918596  1
  B  B20  1  0.500000  0.791986  0.265331  1
  B  B21  1  0.500000  0.208008  0.734515  1
  B  B22  1  0.500000  0.291994  0.234741  1
  B  B23  1  0.500000  0.707659  0.765405  1
  B  B24  1  0.500000  0.630774  0.185610  1
  B  B25  1  0.500000  0.369042  0.814381  1
  B  B26  1  0.500000  0.130815  0.314468  1
  B  B27  1  0.500000  0.869396  0.685388  1
  B  B28  1  0.500000  0.982369  0.211771  1
  B  B29  1  0.500000  0.017959  0.788008  1
  B  B30  1  0.500000  0.482352  0.288238  1
  B  B31  1  0.500000  0.517535  0.711891  1
  B  B32  1  0.500000  0.599685  0.027976  1
  B  B33  1  0.500000  0.399812  0.972241  1
  B  B34  1  0.500000  0.099915  0.471840  1
  B  B35  1  0.500000  0.900285  0.527771  1
