# generated using pymatgen
data_Tc2PbO8
_symmetry_space_group_name_H-M   'P 1'
_cell_length_a   11.44518900
_cell_length_b   11.44518888
_cell_length_c   5.14196100
_cell_angle_alpha   90.00000000
_cell_angle_beta   90.00000000
_cell_angle_gamma   120.00000323
_symmetry_Int_Tables_number   1
_chemical_formula_structural   Tc2PbO8
_chemical_formula_sum   'Tc6 Pb3 O24'
_cell_volume   583.31793407
_cell_formula_units_Z   3
loop_
 _symmetry_equiv_pos_site_id
 _symmetry_equiv_pos_as_xyz
  1  'x, y, z'
loop_
 _atom_site_type_symbol
 _atom_site_label
 _atom_site_symmetry_multiplicity
 _atom_site_fract_x
 _atom_site_fract_y
 _atom_site_fract_z
 _atom_site_occupancy
  Tc  Tc0  1  0.375868  0.000000  0.988325  1
  Tc  Tc1  1  0.000000  0.375868  0.988325  1
  Tc  Tc2  1  0.624132  0.624132  0.988325  1
  Tc  Tc3  1  0.292644  0.292644  0.490238  1
  Tc  Tc4  1  0.000000  0.707356  0.490238  1
  Tc  Tc5  1  0.707356  0.000000  0.490238  1
  Pb  Pb6  1  0.000000  0.000000  0.950337  1
  Pb  Pb7  1  0.333333  0.666667  0.404542  1
  Pb  Pb8  1  0.666667  0.333333  0.404542  1
  O  O9  1  0.616101  0.616101  0.654327  1
  O  O10  1  0.000000  0.383899  0.654327  1
  O  O11  1  0.383899  0.000000  0.654327  1
  O  O12  1  0.149755  0.149755  0.614375  1
  O  O13  1  0.000000  0.850245  0.614375  1
  O  O14  1  0.850245  0.000000  0.614375  1
  O  O15  1  0.295656  0.439646  0.592609  1
  O  O16  1  0.560354  0.856009  0.592609  1
  O  O17  1  0.143991  0.704344  0.592609  1
  O  O18  1  0.229476  0.000000  0.080767  1
  O  O19  1  0.000000  0.229476  0.080767  1
  O  O20  1  0.770524  0.770524  0.080767  1
  O  O21  1  0.518500  0.145692  0.105460  1
  O  O22  1  0.854308  0.372808  0.105460  1
  O  O23  1  0.627192  0.481500  0.105460  1
  O  O24  1  0.145692  0.518500  0.105460  1
  O  O25  1  0.372808  0.854308  0.105460  1
  O  O26  1  0.481500  0.627192  0.105460  1
  O  O27  1  0.714124  0.000000  0.156056  1
  O  O28  1  0.000000  0.714124  0.156056  1
  O  O29  1  0.285876  0.285876  0.156056  1
  O  O30  1  0.704344  0.143991  0.592609  1
  O  O31  1  0.856009  0.560354  0.592609  1
  O  O32  1  0.439646  0.295656  0.592609  1
