# generated using pymatgen
data_PrNd(InRh)2
_symmetry_space_group_name_H-M   'P 1'
_cell_length_a   4.42042600
_cell_length_b   7.28143127
_cell_length_c   8.56566900
_cell_angle_alpha   90.21297623
_cell_angle_beta   90.00000000
_cell_angle_gamma   90.00000000
_symmetry_Int_Tables_number   1
_chemical_formula_structural   PrNd(InRh)2
_chemical_formula_sum   'Pr2 Nd2 In4 Rh4'
_cell_volume   275.70152410
_cell_formula_units_Z   2
loop_
 _symmetry_equiv_pos_site_id
 _symmetry_equiv_pos_as_xyz
  1  'x, y, z'
loop_
 _atom_site_type_symbol
 _atom_site_label
 _atom_site_symmetry_multiplicity
 _atom_site_fract_x
 _atom_site_fract_y
 _atom_site_fract_z
 _atom_site_occupancy
  Pr  Pr0  1  0.750000  0.039088  0.321290  1
  Pr  Pr1  1  0.250000  0.960912  0.678710  1
  Nd  Nd2  1  0.250000  0.460816  0.821570  1
  Nd  Nd3  1  0.750000  0.539184  0.178430  1
  In  In4  1  0.750000  0.638869  0.562238  1
  In  In5  1  0.250000  0.361131  0.437762  1
  In  In6  1  0.250000  0.859836  0.062136  1
  In  In7  1  0.750000  0.140164  0.937864  1
  Rh  Rh8  1  0.750000  0.751191  0.878329  1
  Rh  Rh9  1  0.250000  0.248809  0.121671  1
  Rh  Rh10  1  0.250000  0.745899  0.376027  1
  Rh  Rh11  1  0.750000  0.254101  0.623973  1
