# generated using pymatgen
data_TmThGaRu2
_symmetry_space_group_name_H-M   'P 1'
_cell_length_a   5.54685347
_cell_length_b   5.54685434
_cell_length_c   5.54685400
_cell_angle_alpha   137.38005350
_cell_angle_beta   114.46702085
_cell_angle_gamma   81.37128940
_symmetry_Int_Tables_number   1
_chemical_formula_structural   TmThGaRu2
_chemical_formula_sum   'Tm1 Th1 Ga1 Ru2'
_cell_volume   101.81502684
_cell_formula_units_Z   1
loop_
 _symmetry_equiv_pos_site_id
 _symmetry_equiv_pos_as_xyz
  1  'x, y, z'
loop_
 _atom_site_type_symbol
 _atom_site_label
 _atom_site_symmetry_multiplicity
 _atom_site_fract_x
 _atom_site_fract_y
 _atom_site_fract_z
 _atom_site_occupancy
  Tm  Tm0  1  0.295023  0.795023  0.500000  1
  Th  Th1  1  0.700796  0.200796  0.500000  1
  Ga  Ga2  1  0.006531  0.006531  0.000000  1
  Ru  Ru3  1  0.261016  0.498825  0.762189  1
  Ru  Ru4  1  0.736635  0.498825  0.237811  1
