# generated using pymatgen
data_LiDy3In4Rh
_symmetry_space_group_name_H-M   'P 1'
_cell_length_a   8.13783500
_cell_length_b   8.13783502
_cell_length_c   3.65110700
_cell_angle_alpha   90.00000000
_cell_angle_beta   90.00000000
_cell_angle_gamma   120.00001211
_symmetry_Int_Tables_number   1
_chemical_formula_structural   LiDy3In4Rh
_chemical_formula_sum   'Li1 Dy3 In4 Rh1'
_cell_volume   209.39817894
_cell_formula_units_Z   1
loop_
 _symmetry_equiv_pos_site_id
 _symmetry_equiv_pos_as_xyz
  1  'x, y, z'
loop_
 _atom_site_type_symbol
 _atom_site_label
 _atom_site_symmetry_multiplicity
 _atom_site_fract_x
 _atom_site_fract_y
 _atom_site_fract_z
 _atom_site_occupancy
  Li  Li0  1  0.666667  0.333333  0.500000  1
  Dy  Dy1  1  0.046735  0.292910  0.500000  1
  Dy  Dy2  1  0.707090  0.753825  0.500000  1
  Dy  Dy3  1  0.246175  0.953265  0.500000  1
  In  In4  1  0.663026  0.066637  0.000000  1
  In  In5  1  0.933363  0.596390  0.000000  1
  In  In6  1  0.403610  0.336974  0.000000  1
  In  In7  1  0.333333  0.666667  0.000000  1
  Rh  Rh8  1  0.000000  0.000000  0.000000  1
