# generated using pymatgen
data_Sm2Mn3Fe8CoP7
_symmetry_space_group_name_H-M   'P 1'
_cell_length_a   9.08730722
_cell_length_b   9.07968199
_cell_length_c   3.65638100
_cell_angle_alpha   90.00000000
_cell_angle_beta   90.00000000
_cell_angle_gamma   120.00259128
_symmetry_Int_Tables_number   1
_chemical_formula_structural   Sm2Mn3Fe8CoP7
_chemical_formula_sum   'Sm2 Mn3 Fe8 Co1 P7'
_cell_volume   261.26220207
_cell_formula_units_Z   1
loop_
 _symmetry_equiv_pos_site_id
 _symmetry_equiv_pos_as_xyz
  1  'x, y, z'
loop_
 _atom_site_type_symbol
 _atom_site_label
 _atom_site_symmetry_multiplicity
 _atom_site_fract_x
 _atom_site_fract_y
 _atom_site_fract_z
 _atom_site_occupancy
  Sm  Sm0  1  0.666467  0.333741  0.000000  1
  Sm  Sm1  1  0.333749  0.666898  0.500000  1
  Mn  Mn2  1  0.214048  0.102030  0.000000  1
  Mn  Mn3  1  0.897421  0.112909  0.000000  1
  Mn  Mn4  1  0.885898  0.782629  0.000000  1
  Fe  Fe5  1  0.423459  0.056413  0.500000  1
  Fe  Fe6  1  0.944432  0.368855  0.500000  1
  Fe  Fe7  1  0.632218  0.577517  0.500000  1
  Fe  Fe8  1  0.152627  0.272975  0.500000  1
  Fe  Fe9  1  0.727149  0.880232  0.500000  1
  Fe  Fe10  1  0.119941  0.845557  0.500000  1
  Fe  Fe11  1  0.383428  0.433160  0.000000  1
  Fe  Fe12  1  0.567604  0.950676  0.000000  1
  Co  Co13  1  0.051098  0.615523  0.000000  1
  P  P14  1  0.113815  0.402044  0.000000  1
  P  P15  1  0.595950  0.709143  0.000000  1
  P  P16  1  0.291968  0.888847  0.000000  1
  P  P17  1  0.000162  0.999155  0.500000  1
  P  P18  1  0.411248  0.304441  0.500000  1
  P  P19  1  0.696198  0.108132  0.500000  1
  P  P20  1  0.891121  0.589122  0.500000  1
