# generated using pymatgen
data_InAg(IrS2)4
_symmetry_space_group_name_H-M   'P 1'
_cell_length_a   7.27443258
_cell_length_b   7.27443272
_cell_length_c   7.27443200
_cell_angle_alpha   59.99999419
_cell_angle_beta   59.99999353
_cell_angle_gamma   59.99999372
_symmetry_Int_Tables_number   1
_chemical_formula_structural   InAg(IrS2)4
_chemical_formula_sum   'In1 Ag1 Ir4 S8'
_cell_volume   272.19634199
_cell_formula_units_Z   1
loop_
 _symmetry_equiv_pos_site_id
 _symmetry_equiv_pos_as_xyz
  1  'x, y, z'
loop_
 _atom_site_type_symbol
 _atom_site_label
 _atom_site_symmetry_multiplicity
 _atom_site_fract_x
 _atom_site_fract_y
 _atom_site_fract_z
 _atom_site_occupancy
  In  In0  1  0.000000  0.000000  0.000000  1
  Ag  Ag1  1  0.750000  0.750000  0.750000  1
  Ir  Ir2  1  0.376977  0.376977  0.376977  1
  Ir  Ir3  1  0.376977  0.869067  0.376977  1
  Ir  Ir4  1  0.869067  0.376977  0.376977  1
  Ir  Ir5  1  0.376977  0.376977  0.869067  1
  S  S6  1  0.144040  0.144040  0.144040  1
  S  S7  1  0.144040  0.567878  0.144040  1
  S  S8  1  0.567878  0.144040  0.144040  1
  S  S9  1  0.144040  0.144040  0.567878  1
  S  S10  1  0.606790  0.606790  0.606790  1
  S  S11  1  0.606790  0.179630  0.606790  1
  S  S12  1  0.179630  0.606790  0.606790  1
  S  S13  1  0.606790  0.606790  0.179630  1
