# generated using pymatgen
data_Tb3YFe4(P3Rh4)4
_symmetry_space_group_name_H-M   'P 1'
_cell_length_a   3.86096400
_cell_length_b   10.78006564
_cell_length_c   12.42369976
_cell_angle_alpha   89.93795098
_cell_angle_beta   90.00000000
_cell_angle_gamma   90.00000000
_symmetry_Int_Tables_number   1
_chemical_formula_structural   Tb3YFe4(P3Rh4)4
_chemical_formula_sum   'Tb3 Y1 Fe4 P12 Rh16'
_cell_volume   517.09203716
_cell_formula_units_Z   1
loop_
 _symmetry_equiv_pos_site_id
 _symmetry_equiv_pos_as_xyz
  1  'x, y, z'
loop_
 _atom_site_type_symbol
 _atom_site_label
 _atom_site_symmetry_multiplicity
 _atom_site_fract_x
 _atom_site_fract_y
 _atom_site_fract_z
 _atom_site_occupancy
  Tb  Tb0  1  0.250000  0.917164  0.209290  1
  Tb  Tb1  1  0.750000  0.417127  0.290642  1
  Tb  Tb2  1  0.750000  0.082850  0.790749  1
  Y  Y3  1  0.250000  0.582776  0.709422  1
  Fe  Fe4  1  0.250000  0.462175  0.933021  1
  Fe  Fe5  1  0.250000  0.037913  0.432908  1
  Fe  Fe6  1  0.750000  0.538145  0.067003  1
  Fe  Fe7  1  0.750000  0.961997  0.566731  1
  P  P8  1  0.250000  0.430332  0.105597  1
  P  P9  1  0.250000  0.069497  0.605681  1
  P  P10  1  0.750000  0.569628  0.894308  1
  P  P11  1  0.750000  0.930294  0.394300  1
  P  P12  1  0.250000  0.271373  0.870380  1
  P  P13  1  0.250000  0.228775  0.370357  1
  P  P14  1  0.750000  0.728727  0.129628  1
  P  P15  1  0.750000  0.771150  0.629736  1
  P  P16  1  0.250000  0.601298  0.389179  1
  P  P17  1  0.250000  0.898764  0.889236  1
  P  P18  1  0.750000  0.398819  0.610826  1
  P  P19  1  0.750000  0.101246  0.110791  1
  Rh  Rh20  1  0.250000  0.717203  0.991348  1
  Rh  Rh21  1  0.250000  0.783083  0.491097  1
  Rh  Rh22  1  0.750000  0.282957  0.008786  1
  Rh  Rh23  1  0.750000  0.217045  0.508872  1
  Rh  Rh24  1  0.250000  0.408617  0.479825  1
  Rh  Rh25  1  0.250000  0.091391  0.979923  1
  Rh  Rh26  1  0.750000  0.591402  0.520358  1
  Rh  Rh27  1  0.750000  0.908621  0.020071  1
  Rh  Rh28  1  0.250000  0.230839  0.175147  1
  Rh  Rh29  1  0.250000  0.269048  0.675234  1
  Rh  Rh30  1  0.750000  0.768979  0.824884  1
  Rh  Rh31  1  0.750000  0.730790  0.324797  1
  Rh  Rh32  1  0.250000  0.881805  0.700788  1
  Rh  Rh33  1  0.250000  0.617996  0.200720  1
  Rh  Rh34  1  0.750000  0.118127  0.299176  1
  Rh  Rh35  1  0.750000  0.382046  0.799191  1
