# generated using pymatgen
data_Tb3Dy9Co4BiRh
_symmetry_space_group_name_H-M   'P 1'
_cell_length_a   8.35259432
_cell_length_b   8.35287436
_cell_length_c   8.35138501
_cell_angle_alpha   110.90875170
_cell_angle_beta   110.56340626
_cell_angle_gamma   106.97650968
_symmetry_Int_Tables_number   1
_chemical_formula_structural   Tb3Dy9Co4BiRh
_chemical_formula_sum   'Tb3 Dy9 Co4 Bi1 Rh1'
_cell_volume   447.85793849
_cell_formula_units_Z   1
loop_
 _symmetry_equiv_pos_site_id
 _symmetry_equiv_pos_as_xyz
  1  'x, y, z'
loop_
 _atom_site_type_symbol
 _atom_site_label
 _atom_site_symmetry_multiplicity
 _atom_site_fract_x
 _atom_site_fract_y
 _atom_site_fract_z
 _atom_site_occupancy
  Tb  Tb0  1  0.815728  0.709984  0.525717  1
  Tb  Tb1  1  0.184099  0.289960  0.474061  1
  Tb  Tb2  1  0.184301  0.710075  0.894380  1
  Dy  Dy3  1  0.815873  0.289927  0.105809  1
  Dy  Dy4  1  0.688128  0.379058  0.691064  1
  Dy  Dy5  1  0.311756  0.620819  0.308962  1
  Dy  Dy6  1  0.688158  0.997251  0.308981  1
  Dy  Dy7  1  0.312033  0.002985  0.691098  1
  Dy  Dy8  1  0.594328  0.791460  0.803106  1
  Dy  Dy9  1  0.405824  0.208636  0.197057  1
  Dy  Dy10  1  0.988419  0.791238  0.197056  1
  Dy  Dy11  1  0.011644  0.208777  0.803103  1
  Co  Co12  1  0.622504  0.000094  0.622596  1
  Co  Co13  1  0.377423  0.000006  0.377426  1
  Co  Co14  1  0.111213  0.611137  0.499760  1
  Co  Co15  1  0.888590  0.388507  0.499761  1
  Bi  Bi16  1  0.500034  0.499985  0.000014  1
  Rh  Rh17  1  0.999946  0.000100  0.000050  1
