# generated using pymatgen
data_DyTmMn3Ni9P7
_symmetry_space_group_name_H-M   'P 1'
_cell_length_a   9.10996500
_cell_length_b   9.10996515
_cell_length_c   3.66135100
_cell_angle_alpha   90.00000000
_cell_angle_beta   90.00000000
_cell_angle_gamma   120.00000309
_symmetry_Int_Tables_number   1
_chemical_formula_structural   DyTmMn3Ni9P7
_chemical_formula_sum   'Dy1 Tm1 Mn3 Ni9 P7'
_cell_volume   263.15123173
_cell_formula_units_Z   1
loop_
 _symmetry_equiv_pos_site_id
 _symmetry_equiv_pos_as_xyz
  1  'x, y, z'
loop_
 _atom_site_type_symbol
 _atom_site_label
 _atom_site_symmetry_multiplicity
 _atom_site_fract_x
 _atom_site_fract_y
 _atom_site_fract_z
 _atom_site_occupancy
  Dy  Dy0  1  0.666667  0.333333  0.500000  1
  Tm  Tm1  1  0.000000  0.000000  0.000000  1
  Mn  Mn2  1  0.456484  0.568610  0.500000  1
  Mn  Mn3  1  0.431390  0.887874  0.500000  1
  Mn  Mn4  1  0.112126  0.543516  0.500000  1
  Ni  Ni5  1  0.706424  0.605973  0.000000  1
  Ni  Ni6  1  0.394027  0.100451  0.000000  1
  Ni  Ni7  1  0.899549  0.293576  0.000000  1
  Ni  Ni8  1  0.210358  0.388767  0.000000  1
  Ni  Ni9  1  0.611233  0.821591  0.000000  1
  Ni  Ni10  1  0.178409  0.789642  0.000000  1
  Ni  Ni11  1  0.280283  0.230105  0.500000  1
  Ni  Ni12  1  0.769895  0.050177  0.500000  1
  Ni  Ni13  1  0.949823  0.719717  0.500000  1
  P  P14  1  0.447094  0.372685  0.000000  1
  P  P15  1  0.627315  0.074410  0.000000  1
  P  P16  1  0.925590  0.552906  0.000000  1
  P  P17  1  0.041300  0.259788  0.500000  1
  P  P18  1  0.740212  0.781513  0.500000  1
  P  P19  1  0.218487  0.958700  0.500000  1
  P  P20  1  0.333333  0.666667  0.000000  1
