# generated using pymatgen
data_Ca19Nd(Cd3Au)2
_symmetry_space_group_name_H-M   'P 1'
_cell_length_a   10.24796500
_cell_length_b   10.24796473
_cell_length_c   10.15866100
_cell_angle_alpha   90.00000000
_cell_angle_beta   90.00000000
_cell_angle_gamma   119.99999765
_symmetry_Int_Tables_number   1
_chemical_formula_structural   Ca19Nd(Cd3Au)2
_chemical_formula_sum   'Ca19 Nd1 Cd6 Au2'
_cell_volume   923.93701287
_cell_formula_units_Z   1
loop_
 _symmetry_equiv_pos_site_id
 _symmetry_equiv_pos_as_xyz
  1  'x, y, z'
loop_
 _atom_site_type_symbol
 _atom_site_label
 _atom_site_symmetry_multiplicity
 _atom_site_fract_x
 _atom_site_fract_y
 _atom_site_fract_z
 _atom_site_occupancy
  Ca  Ca0  1  0.203040  0.796960  0.940470  1
  Ca  Ca1  1  0.203040  0.406082  0.940470  1
  Ca  Ca2  1  0.593918  0.796960  0.940470  1
  Ca  Ca3  1  0.796960  0.203040  0.059530  1
  Ca  Ca4  1  0.796960  0.593918  0.059530  1
  Ca  Ca5  1  0.406082  0.203040  0.059530  1
  Ca  Ca6  1  0.797000  0.203000  0.439897  1
  Ca  Ca7  1  0.797000  0.594000  0.439897  1
  Ca  Ca8  1  0.406000  0.203000  0.439897  1
  Ca  Ca9  1  0.203000  0.797000  0.560103  1
  Ca  Ca10  1  0.203000  0.406000  0.560103  1
  Ca  Ca11  1  0.594000  0.797000  0.560103  1
  Ca  Ca12  1  0.540434  0.459566  0.749990  1
  Ca  Ca13  1  0.540434  0.080866  0.749990  1
  Ca  Ca14  1  0.919134  0.459566  0.749990  1
  Ca  Ca15  1  0.459566  0.540434  0.250010  1
  Ca  Ca16  1  0.459566  0.919134  0.250010  1
  Ca  Ca17  1  0.080866  0.540434  0.250010  1
  Ca  Ca18  1  0.000000  0.000000  0.500000  1
  Nd  Nd19  1  0.000000  0.000000  0.000000  1
  Cd  Cd20  1  0.882733  0.117267  0.750397  1
  Cd  Cd21  1  0.882733  0.765465  0.750397  1
  Cd  Cd22  1  0.234535  0.117267  0.750397  1
  Cd  Cd23  1  0.117267  0.882733  0.249603  1
  Cd  Cd24  1  0.117267  0.234535  0.249603  1
  Cd  Cd25  1  0.765465  0.882733  0.249603  1
  Au  Au26  1  0.333333  0.666667  0.749176  1
  Au  Au27  1  0.666667  0.333333  0.250824  1
