# generated using pymatgen
data_SmTh3(ZnGa)4
_symmetry_space_group_name_H-M   'P 1'
_cell_length_a   4.42691500
_cell_length_b   4.42691401
_cell_length_c   15.62355100
_cell_angle_alpha   90.00000000
_cell_angle_beta   90.00000000
_cell_angle_gamma   119.99999990
_symmetry_Int_Tables_number   1
_chemical_formula_structural   SmTh3(ZnGa)4
_chemical_formula_sum   'Sm1 Th3 Zn4 Ga4'
_cell_volume   265.16283360
_cell_formula_units_Z   1
loop_
 _symmetry_equiv_pos_site_id
 _symmetry_equiv_pos_as_xyz
  1  'x, y, z'
loop_
 _atom_site_type_symbol
 _atom_site_label
 _atom_site_symmetry_multiplicity
 _atom_site_fract_x
 _atom_site_fract_y
 _atom_site_fract_z
 _atom_site_occupancy
  Sm  Sm0  1  0.000000  0.000000  0.500000  1
  Th  Th1  1  0.000000  0.000000  0.252958  1
  Th  Th2  1  0.000000  0.000000  0.747042  1
  Th  Th3  1  0.000000  0.000000  0.000000  1
  Zn  Zn4  1  0.333333  0.666667  0.135312  1
  Zn  Zn5  1  0.666667  0.333333  0.864688  1
  Zn  Zn6  1  0.666667  0.333333  0.627674  1
  Zn  Zn7  1  0.333333  0.666667  0.372326  1
  Ga  Ga8  1  0.333333  0.666667  0.619127  1
  Ga  Ga9  1  0.666667  0.333333  0.380873  1
  Ga  Ga10  1  0.666667  0.333333  0.120421  1
  Ga  Ga11  1  0.333333  0.666667  0.879579  1
