# generated using pymatgen
data_NbZn2(CuNi2)3
_symmetry_space_group_name_H-M   'P 1'
_cell_length_a   3.68433300
_cell_length_b   3.66242600
_cell_length_c   10.65973200
_cell_angle_alpha   90.00000000
_cell_angle_beta   90.00000000
_cell_angle_gamma   90.00000000
_symmetry_Int_Tables_number   1
_chemical_formula_structural   NbZn2(CuNi2)3
_chemical_formula_sum   'Nb1 Zn2 Cu3 Ni6'
_cell_volume   143.83812744
_cell_formula_units_Z   1
loop_
 _symmetry_equiv_pos_site_id
 _symmetry_equiv_pos_as_xyz
  1  'x, y, z'
loop_
 _atom_site_type_symbol
 _atom_site_label
 _atom_site_symmetry_multiplicity
 _atom_site_fract_x
 _atom_site_fract_y
 _atom_site_fract_z
 _atom_site_occupancy
  Nb  Nb0  1  0.000000  0.000000  0.000000  1
  Zn  Zn1  1  0.000000  0.000000  0.333858  1
  Zn  Zn2  1  0.000000  0.000000  0.666142  1
  Cu  Cu3  1  0.500000  0.500000  0.334056  1
  Cu  Cu4  1  0.500000  0.500000  0.665944  1
  Cu  Cu5  1  0.500000  0.000000  0.500000  1
  Ni  Ni6  1  0.500000  0.500000  0.000000  1
  Ni  Ni7  1  0.500000  0.000000  0.168095  1
  Ni  Ni8  1  0.500000  0.000000  0.831905  1
  Ni  Ni9  1  0.000000  0.500000  0.168777  1
  Ni  Ni10  1  0.000000  0.500000  0.500000  1
  Ni  Ni11  1  0.000000  0.500000  0.831223  1
