# generated using pymatgen
data_Li8Pr4Nd4Sn3Bi5
_symmetry_space_group_name_H-M   'P 1'
_cell_length_a   9.72332636
_cell_length_b   9.73354355
_cell_length_c   7.58858406
_cell_angle_alpha   90.01454862
_cell_angle_beta   89.90356836
_cell_angle_gamma   120.04719015
_symmetry_Int_Tables_number   1
_chemical_formula_structural   Li8Pr4Nd4Sn3Bi5
_chemical_formula_sum   'Li8 Pr4 Nd4 Sn3 Bi5'
_cell_volume   621.68414719
_cell_formula_units_Z   1
loop_
 _symmetry_equiv_pos_site_id
 _symmetry_equiv_pos_as_xyz
  1  'x, y, z'
loop_
 _atom_site_type_symbol
 _atom_site_label
 _atom_site_symmetry_multiplicity
 _atom_site_fract_x
 _atom_site_fract_y
 _atom_site_fract_z
 _atom_site_occupancy
  Li  Li0  1  0.170977  0.336441  0.267145  1
  Li  Li1  1  0.170616  0.834463  0.267723  1
  Li  Li2  1  0.661435  0.830435  0.277536  1
  Li  Li3  1  0.829814  0.661747  0.777689  1
  Li  Li4  1  0.830295  0.167972  0.775909  1
  Li  Li5  1  0.338676  0.169484  0.783601  1
  Li  Li6  1  0.334944  0.667294  0.680407  1
  Li  Li7  1  0.662322  0.331517  0.181201  1
  Pr  Pr8  1  0.506475  0.022364  0.493068  1
  Pr  Pr9  1  0.506494  0.483999  0.493039  1
  Pr  Pr10  1  0.982114  0.491156  0.493888  1
  Pr  Pr11  1  0.489354  0.982686  0.997198  1
  Nd  Nd12  1  0.488916  0.506317  0.997881  1
  Nd  Nd13  1  0.017242  0.508688  0.994953  1
  Nd  Nd14  1  0.007117  0.003963  0.498502  1
  Nd  Nd15  1  0.003536  0.001709  0.003691  1
  Sn  Sn16  1  0.332126  0.166113  0.237525  1
  Sn  Sn17  1  0.331997  0.666124  0.261478  1
  Sn  Sn18  1  0.667531  0.333880  0.761526  1
  Bi  Bi19  1  0.165899  0.332433  0.742757  1
  Bi  Bi20  1  0.165430  0.833365  0.740599  1
  Bi  Bi21  1  0.668798  0.833914  0.738403  1
  Bi  Bi22  1  0.833769  0.667151  0.237178  1
  Bi  Bi23  1  0.834122  0.166787  0.239076  1
