# generated using pymatgen
data_Ac4Zn3Ir11
_symmetry_space_group_name_H-M   'P 1'
_cell_length_a   13.17668809
_cell_length_b   13.17668829
_cell_length_c   13.17668778
_cell_angle_alpha   24.41546013
_cell_angle_beta   24.41545996
_cell_angle_gamma   24.41546090
_symmetry_Int_Tables_number   1
_chemical_formula_structural   Ac4Zn3Ir11
_chemical_formula_sum   'Ac4 Zn3 Ir11'
_cell_volume   343.64038345
_cell_formula_units_Z   1
loop_
 _symmetry_equiv_pos_site_id
 _symmetry_equiv_pos_as_xyz
  1  'x, y, z'
loop_
 _atom_site_type_symbol
 _atom_site_label
 _atom_site_symmetry_multiplicity
 _atom_site_fract_x
 _atom_site_fract_y
 _atom_site_fract_z
 _atom_site_occupancy
  Ac  Ac0  1  0.951003  0.951003  0.951003  1
  Ac  Ac1  1  0.052087  0.052087  0.052087  1
  Ac  Ac2  1  0.853711  0.853711  0.853711  1
  Ac  Ac3  1  0.148180  0.148180  0.148180  1
  Zn  Zn4  1  0.720971  0.720971  0.720971  1
  Zn  Zn5  1  0.279000  0.279000  0.279000  1
  Zn  Zn6  1  0.610405  0.610405  0.610405  1
  Ir  Ir7  1  0.500702  0.500702  0.500702  1
  Ir  Ir8  1  0.386527  0.386527  0.386527  1
  Ir  Ir9  1  0.501293  0.501293  0.996448  1
  Ir  Ir10  1  0.996448  0.501293  0.501293  1
  Ir  Ir11  1  0.501293  0.996448  0.501293  1
  Ir  Ir12  1  0.388064  0.895231  0.388064  1
  Ir  Ir13  1  0.388064  0.388064  0.895231  1
  Ir  Ir14  1  0.895231  0.388064  0.388064  1
  Ir  Ir15  1  0.609382  0.108260  0.609382  1
  Ir  Ir16  1  0.609382  0.609382  0.108260  1
  Ir  Ir17  1  0.108260  0.609382  0.609382  1
