# generated using pymatgen
data_Er3Tm3Tc2
_symmetry_space_group_name_H-M   'P 1'
_cell_length_a   6.16541810
_cell_length_b   7.40496600
_cell_length_c   9.00786611
_cell_angle_alpha   90.00000000
_cell_angle_beta   90.06444898
_cell_angle_gamma   90.00000000
_symmetry_Int_Tables_number   1
_chemical_formula_structural   Er3Tm3Tc2
_chemical_formula_sum   'Er6 Tm6 Tc4'
_cell_volume   411.25126769
_cell_formula_units_Z   2
loop_
 _symmetry_equiv_pos_site_id
 _symmetry_equiv_pos_as_xyz
  1  'x, y, z'
loop_
 _atom_site_type_symbol
 _atom_site_label
 _atom_site_symmetry_multiplicity
 _atom_site_fract_x
 _atom_site_fract_y
 _atom_site_fract_z
 _atom_site_occupancy
  Er  Er0  1  0.343049  0.676540  0.062494  1
  Er  Er1  1  0.156951  0.176540  0.437506  1
  Er  Er2  1  0.873919  0.540695  0.250207  1
  Er  Er3  1  0.626081  0.040695  0.249793  1
  Er  Er4  1  0.125336  0.459483  0.750036  1
  Er  Er5  1  0.374664  0.959483  0.749964  1
  Tm  Tm6  1  0.656861  0.323837  0.562245  1
  Tm  Tm7  1  0.843139  0.823837  0.937755  1
  Tm  Tm8  1  0.655957  0.323837  0.937452  1
  Tm  Tm9  1  0.844043  0.823837  0.562548  1
  Tm  Tm10  1  0.344181  0.675835  0.437994  1
  Tm  Tm11  1  0.155819  0.175835  0.062006  1
  Tc  Tc12  1  0.043187  0.884514  0.250396  1
  Tc  Tc13  1  0.456813  0.384514  0.249604  1
  Tc  Tc14  1  0.955847  0.115259  0.750756  1
  Tc  Tc15  1  0.544153  0.615259  0.749244  1
