# generated using pymatgen
data_LiSm4BeSi6
_symmetry_space_group_name_H-M   'P 1'
_cell_length_a   8.08287887
_cell_length_b   7.98424101
_cell_length_c   5.77349500
_cell_angle_alpha   69.85691749
_cell_angle_beta   68.02982640
_cell_angle_gamma   42.11323932
_symmetry_Int_Tables_number   1
_chemical_formula_structural   LiSm4BeSi6
_chemical_formula_sum   'Li1 Sm4 Be1 Si6'
_cell_volume   230.37508932
_cell_formula_units_Z   1
loop_
 _symmetry_equiv_pos_site_id
 _symmetry_equiv_pos_as_xyz
  1  'x, y, z'
loop_
 _atom_site_type_symbol
 _atom_site_label
 _atom_site_symmetry_multiplicity
 _atom_site_fract_x
 _atom_site_fract_y
 _atom_site_fract_z
 _atom_site_occupancy
  Li  Li0  1  0.333586  0.333586  0.666414  1
  Sm  Sm1  1  0.244924  0.757440  0.242560  1
  Sm  Sm2  1  0.248828  0.248826  0.251173  1
  Sm  Sm3  1  0.748828  0.748826  0.751173  1
  Sm  Sm4  1  0.757440  0.244925  0.755075  1
  Be  Be5  1  0.666426  0.666427  0.333573  1
  Si  Si6  1  0.828183  0.828184  0.171816  1
  Si  Si7  1  0.824978  0.346131  0.175022  1
  Si  Si8  1  0.661603  0.170957  0.338397  1
  Si  Si9  1  0.346130  0.824978  0.653869  1
  Si  Si10  1  0.170956  0.661603  0.829044  1
  Si  Si11  1  0.168120  0.168121  0.831879  1
