# generated using pymatgen
data_MnCo4Tc3B4
_symmetry_space_group_name_H-M   'P 1'
_cell_length_a   3.20164000
_cell_length_b   5.64720787
_cell_length_c   6.49381777
_cell_angle_alpha   89.47658087
_cell_angle_beta   90.00000000
_cell_angle_gamma   90.00000000
_symmetry_Int_Tables_number   1
_chemical_formula_structural   MnCo4Tc3B4
_chemical_formula_sum   'Mn1 Co4 Tc3 B4'
_cell_volume   117.40544699
_cell_formula_units_Z   1
loop_
 _symmetry_equiv_pos_site_id
 _symmetry_equiv_pos_as_xyz
  1  'x, y, z'
loop_
 _atom_site_type_symbol
 _atom_site_label
 _atom_site_symmetry_multiplicity
 _atom_site_fract_x
 _atom_site_fract_y
 _atom_site_fract_z
 _atom_site_occupancy
  Mn  Mn0  1  0.750000  0.475242  0.327262  1
  Co  Co1  1  0.250000  0.154756  0.442477  1
  Co  Co2  1  0.250000  0.641576  0.060479  1
  Co  Co3  1  0.750000  0.854946  0.551049  1
  Co  Co4  1  0.750000  0.352365  0.946471  1
  Tc  Tc5  1  0.250000  0.027403  0.828315  1
  Tc  Tc6  1  0.250000  0.525552  0.668199  1
  Tc  Tc7  1  0.750000  0.973663  0.171472  1
  B  B8  1  0.250000  0.276425  0.130011  1
  B  B9  1  0.250000  0.762811  0.372280  1
  B  B10  1  0.750000  0.724513  0.875878  1
  B  B11  1  0.750000  0.230747  0.626106  1
