# generated using pymatgen
data_GdSe27
_symmetry_space_group_name_H-M   'P 1'
_cell_length_a   17.21123419
_cell_length_b   17.44341248
_cell_length_c   17.38108300
_cell_angle_alpha   119.13218494
_cell_angle_beta   119.18719151
_cell_angle_gamma   119.24240716
_symmetry_Int_Tables_number   1
_chemical_formula_structural   GdSe27
_chemical_formula_sum   'Gd1 Se27'
_cell_volume   1219.27012802
_cell_formula_units_Z   1
loop_
 _symmetry_equiv_pos_site_id
 _symmetry_equiv_pos_as_xyz
  1  'x, y, z'
loop_
 _atom_site_type_symbol
 _atom_site_label
 _atom_site_symmetry_multiplicity
 _atom_site_fract_x
 _atom_site_fract_y
 _atom_site_fract_z
 _atom_site_occupancy
  Gd  Gd0  1  0.786358  0.841949  0.846668  1
  Se  Se1  1  0.775162  0.494997  0.496076  1
  Se  Se2  1  0.554735  0.551235  0.837477  1
  Se  Se3  1  0.539516  0.821374  0.536039  1
  Se  Se4  1  0.216636  0.345479  0.605223  1
  Se  Se5  1  0.372168  0.967371  0.371070  1
  Se  Se6  1  0.369232  0.368624  0.964881  1
  Se  Se7  1  0.994047  0.396151  0.395779  1
  Se  Se8  1  0.085665  0.697433  0.213697  1
  Se  Se9  1  0.226063  0.099459  0.708913  1
  Se  Se10  1  0.724828  0.242465  0.114474  1
  Se  Se11  1  0.721223  0.112010  0.237558  1
  Se  Se12  1  0.228528  0.712415  0.100152  1
  Se  Se13  1  0.085409  0.214241  0.695944  1
  Se  Se14  1  0.359953  0.887835  0.538236  1
  Se  Se15  1  0.562853  0.379349  0.910516  1
  Se  Se16  1  0.897888  0.548716  0.370734  1
  Se  Se17  1  0.894464  0.366333  0.545369  1
  Se  Se18  1  0.561207  0.908751  0.377562  1
  Se  Se19  1  0.362909  0.541351  0.891041  1
  Se  Se20  1  0.205421  0.595862  0.333591  1
  Se  Se21  1  0.358666  0.228658  0.618972  1
  Se  Se22  1  0.572255  0.311941  0.183887  1
  Se  Se23  1  0.571189  0.182627  0.310668  1
  Se  Se24  1  0.347680  0.609608  0.216572  1
  Se  Se25  1  0.218265  0.352097  0.355444  1
  Se  Se26  1  0.956469  0.903054  0.827378  1
  Se  Se27  1  0.976510  0.843906  0.921377  1
