# generated using pymatgen
data_Tm5MgCuPd3
_symmetry_space_group_name_H-M   'P 1'
_cell_length_a   7.74759500
_cell_length_b   7.72715829
_cell_length_c   3.76962700
_cell_angle_alpha   90.00000000
_cell_angle_beta   90.00000000
_cell_angle_gamma   90.43066641
_symmetry_Int_Tables_number   1
_chemical_formula_structural   Tm5MgCuPd3
_chemical_formula_sum   'Tm5 Mg1 Cu1 Pd3'
_cell_volume   225.66948072
_cell_formula_units_Z   1
loop_
 _symmetry_equiv_pos_site_id
 _symmetry_equiv_pos_as_xyz
  1  'x, y, z'
loop_
 _atom_site_type_symbol
 _atom_site_label
 _atom_site_symmetry_multiplicity
 _atom_site_fract_x
 _atom_site_fract_y
 _atom_site_fract_z
 _atom_site_occupancy
  Tm  Tm0  1  0.817324  0.647855  0.500000  1
  Tm  Tm1  1  0.353977  0.819290  0.500000  1
  Tm  Tm2  1  0.180286  0.352556  0.500000  1
  Tm  Tm3  1  0.647048  0.181571  0.500000  1
  Tm  Tm4  1  0.000715  0.000555  0.000000  1
  Mg  Mg5  1  0.498542  0.499508  0.000000  1
  Cu  Cu6  1  0.123346  0.634505  0.000000  1
  Pd  Pd7  1  0.640284  0.873907  0.000000  1
  Pd  Pd8  1  0.359826  0.123625  0.000000  1
  Pd  Pd9  1  0.878655  0.366628  0.000000  1
