# generated using pymatgen
data_La5CoPdO12
_symmetry_space_group_name_H-M   'P 1'
_cell_length_a   7.11944962
_cell_length_b   7.11944939
_cell_length_c   7.74891700
_cell_angle_alpha   74.32603184
_cell_angle_beta   74.32603237
_cell_angle_gamma   50.31926867
_symmetry_Int_Tables_number   1
_chemical_formula_structural   La5CoPdO12
_chemical_formula_sum   'La5 Co1 Pd1 O12'
_cell_volume   288.49913921
_cell_formula_units_Z   1
loop_
 _symmetry_equiv_pos_site_id
 _symmetry_equiv_pos_as_xyz
  1  'x, y, z'
loop_
 _atom_site_type_symbol
 _atom_site_label
 _atom_site_symmetry_multiplicity
 _atom_site_fract_x
 _atom_site_fract_y
 _atom_site_fract_z
 _atom_site_occupancy
  La  La0  1  0.317331  0.300541  0.354897  1
  La  La1  1  0.699459  0.682669  0.645103  1
  La  La2  1  0.696112  0.689657  0.163293  1
  La  La3  1  0.310343  0.303888  0.836707  1
  La  La4  1  0.001237  0.998763  0.500000  1
  Co  Co5  1  0.747635  0.252365  0.000000  1
  Pd  Pd6  1  0.236437  0.763563  0.000000  1
  O  O7  1  0.101847  0.592542  0.577474  1
  O  O8  1  0.978336  0.020576  0.164457  1
  O  O9  1  0.407458  0.898153  0.422526  1
  O  O10  1  0.505718  0.495741  0.165122  1
  O  O11  1  0.097081  0.578320  0.079548  1
  O  O12  1  0.912217  0.395685  0.422390  1
  O  O13  1  0.979424  0.021664  0.835543  1
  O  O14  1  0.604315  0.087782  0.577610  1
  O  O15  1  0.504259  0.494282  0.834878  1
  O  O16  1  0.586204  0.107091  0.075804  1
  O  O17  1  0.421680  0.902919  0.920452  1
  O  O18  1  0.892909  0.413796  0.924196  1
