# generated using pymatgen
data_Dy14Ho5SnIr12
_symmetry_space_group_name_H-M   'P 1'
_cell_length_a   10.87377003
_cell_length_b   10.87260303
_cell_length_c   6.31845600
_cell_angle_alpha   90.00252506
_cell_angle_beta   89.99632034
_cell_angle_gamma   89.99205370
_symmetry_Int_Tables_number   1
_chemical_formula_structural   Dy14Ho5SnIr12
_chemical_formula_sum   'Dy14 Ho5 Sn1 Ir12'
_cell_volume   747.00693897
_cell_formula_units_Z   1
loop_
 _symmetry_equiv_pos_site_id
 _symmetry_equiv_pos_as_xyz
  1  'x, y, z'
loop_
 _atom_site_type_symbol
 _atom_site_label
 _atom_site_symmetry_multiplicity
 _atom_site_fract_x
 _atom_site_fract_y
 _atom_site_fract_z
 _atom_site_occupancy
  Dy  Dy0  1  0.285203  0.085562  0.378583  1
  Dy  Dy1  1  0.290945  0.911289  0.880806  1
  Dy  Dy2  1  0.708954  0.088601  0.880955  1
  Dy  Dy3  1  0.714680  0.914541  0.378791  1
  Dy  Dy4  1  0.588738  0.790791  0.880518  1
  Dy  Dy5  1  0.588682  0.208520  0.377505  1
  Dy  Dy6  1  0.411208  0.791470  0.377536  1
  Dy  Dy7  1  0.411176  0.209189  0.880562  1
  Dy  Dy8  1  0.208420  0.411362  0.622494  1
  Dy  Dy9  1  0.209115  0.588678  0.119380  1
  Dy  Dy10  1  0.790961  0.411200  0.119470  1
  Dy  Dy11  1  0.791640  0.588741  0.622460  1
  Dy  Dy12  1  0.911544  0.708926  0.119123  1
  Dy  Dy13  1  0.914622  0.285304  0.621340  1
  Ho  Ho14  1  0.085474  0.714294  0.621059  1
  Ho  Ho15  1  0.088514  0.291393  0.118808  1
  Ho  Ho16  1  0.000124  0.000107  0.000076  1
  Ho  Ho17  1  0.499972  0.499955  0.000072  1
  Ho  Ho18  1  0.499992  0.500007  0.500033  1
  Sn  Sn19  1  0.999973  0.000091  0.500033  1
  Ir  Ir20  1  0.847400  0.154582  0.249013  1
  Ir  Ir21  1  0.845637  0.847090  0.750785  1
  Ir  Ir22  1  0.154449  0.152918  0.751312  1
  Ir  Ir23  1  0.152753  0.845385  0.249512  1
  Ir  Ir24  1  0.653944  0.347219  0.747337  1
  Ir  Ir25  1  0.652784  0.653963  0.252658  1
  Ir  Ir26  1  0.347029  0.346005  0.252599  1
  Ir  Ir27  1  0.345854  0.652829  0.747200  1
  Ir  Ir28  1  0.499990  0.999989  0.123187  1
  Ir  Ir29  1  0.499982  0.000001  0.619960  1
  Ir  Ir30  1  0.000121  0.499995  0.876795  1
  Ir  Ir31  1  0.000122  0.500000  0.380039  1
