# generated using pymatgen
data_Tb2ErSc(Co4P3)2
_symmetry_space_group_name_H-M   'P 1'
_cell_length_a   3.70936600
_cell_length_b   10.64010900
_cell_length_c   12.33349500
_cell_angle_alpha   90.00000000
_cell_angle_beta   90.00000000
_cell_angle_gamma   90.00000000
_symmetry_Int_Tables_number   1
_chemical_formula_structural   Tb2ErSc(Co4P3)2
_chemical_formula_sum   'Tb4 Er2 Sc2 Co16 P12'
_cell_volume   486.77910292
_cell_formula_units_Z   2
loop_
 _symmetry_equiv_pos_site_id
 _symmetry_equiv_pos_as_xyz
  1  'x, y, z'
loop_
 _atom_site_type_symbol
 _atom_site_label
 _atom_site_symmetry_multiplicity
 _atom_site_fract_x
 _atom_site_fract_y
 _atom_site_fract_z
 _atom_site_occupancy
  Tb  Tb0  1  0.000000  0.500000  0.527444  1
  Tb  Tb1  1  0.500000  0.000000  0.471859  1
  Tb  Tb2  1  0.000000  0.677823  0.794174  1
  Tb  Tb3  1  0.000000  0.322177  0.794174  1
  Er  Er4  1  0.500000  0.822521  0.205704  1
  Er  Er5  1  0.500000  0.177479  0.205704  1
  Sc  Sc6  1  0.500000  0.500000  0.157110  1
  Sc  Sc7  1  0.000000  0.000000  0.843145  1
  Co  Co8  1  0.500000  0.500000  0.705257  1
  Co  Co9  1  0.000000  0.000000  0.293994  1
  Co  Co10  1  0.000000  0.500000  0.988344  1
  Co  Co11  1  0.500000  0.000000  0.013624  1
  Co  Co12  1  0.500000  0.330740  0.995629  1
  Co  Co13  1  0.500000  0.669260  0.995629  1
  Co  Co14  1  0.000000  0.168521  0.006391  1
  Co  Co15  1  0.000000  0.831479  0.006391  1
  Co  Co16  1  0.500000  0.295081  0.431728  1
  Co  Co17  1  0.500000  0.704919  0.431728  1
  Co  Co18  1  0.000000  0.204330  0.566338  1
  Co  Co19  1  0.000000  0.795670  0.566338  1
  Co  Co20  1  0.500000  0.878188  0.702620  1
  Co  Co21  1  0.500000  0.121812  0.702620  1
  Co  Co22  1  0.000000  0.622515  0.296496  1
  Co  Co23  1  0.000000  0.377485  0.296496  1
  P  P24  1  0.500000  0.500000  0.886583  1
  P  P25  1  0.000000  0.000000  0.115190  1
  P  P26  1  0.500000  0.500000  0.359299  1
  P  P27  1  0.000000  0.000000  0.640265  1
  P  P28  1  0.500000  0.308770  0.614740  1
  P  P29  1  0.500000  0.691230  0.614740  1
  P  P30  1  0.000000  0.190423  0.383318  1
  P  P31  1  0.000000  0.809577  0.383318  1
  P  P32  1  0.500000  0.839925  0.893553  1
  P  P33  1  0.500000  0.160075  0.893553  1
  P  P34  1  0.000000  0.661158  0.108252  1
  P  P35  1  0.000000  0.338842  0.108252  1
