# generated using pymatgen
data_Zn24RhAu7
_symmetry_space_group_name_H-M   'P 1'
_cell_length_a   7.95849400
_cell_length_b   7.95849400
_cell_length_c   7.95849400
_cell_angle_alpha   90.00000000
_cell_angle_beta   90.00000000
_cell_angle_gamma   90.00000000
_symmetry_Int_Tables_number   1
_chemical_formula_structural   Zn24RhAu7
_chemical_formula_sum   'Zn24 Rh1 Au7'
_cell_volume   504.07212245
_cell_formula_units_Z   1
loop_
 _symmetry_equiv_pos_site_id
 _symmetry_equiv_pos_as_xyz
  1  'x, y, z'
loop_
 _atom_site_type_symbol
 _atom_site_label
 _atom_site_symmetry_multiplicity
 _atom_site_fract_x
 _atom_site_fract_y
 _atom_site_fract_z
 _atom_site_occupancy
  Zn  Zn0  1  0.500000  0.207555  0.338622  1
  Zn  Zn1  1  0.500000  0.792445  0.661378  1
  Zn  Zn2  1  0.207555  0.338622  0.500000  1
  Zn  Zn3  1  0.792445  0.338622  0.500000  1
  Zn  Zn4  1  0.338622  0.500000  0.207555  1
  Zn  Zn5  1  0.661378  0.500000  0.207555  1
  Zn  Zn6  1  0.000000  0.835332  0.302146  1
  Zn  Zn7  1  0.000000  0.164668  0.697854  1
  Zn  Zn8  1  0.000000  0.164668  0.302146  1
  Zn  Zn9  1  0.500000  0.207555  0.661378  1
  Zn  Zn10  1  0.500000  0.792445  0.338622  1
  Zn  Zn11  1  0.792445  0.661378  0.500000  1
  Zn  Zn12  1  0.207555  0.661378  0.500000  1
  Zn  Zn13  1  0.338622  0.500000  0.792445  1
  Zn  Zn14  1  0.661378  0.500000  0.792445  1
  Zn  Zn15  1  0.302146  0.000000  0.164668  1
  Zn  Zn16  1  0.164668  0.302146  0.000000  1
  Zn  Zn17  1  0.835332  0.697854  0.000000  1
  Zn  Zn18  1  0.302146  0.000000  0.835332  1
  Zn  Zn19  1  0.835332  0.302146  0.000000  1
  Zn  Zn20  1  0.697854  0.000000  0.164668  1
  Zn  Zn21  1  0.697854  0.000000  0.835332  1
  Zn  Zn22  1  0.164668  0.697854  0.000000  1
  Zn  Zn23  1  0.000000  0.835332  0.697854  1
  Rh  Rh24  1  0.500000  0.500000  0.500000  1
  Au  Au25  1  0.500000  0.248783  0.000000  1
  Au  Au26  1  0.500000  0.751217  0.000000  1
  Au  Au27  1  0.000000  0.500000  0.751217  1
  Au  Au28  1  0.000000  0.500000  0.248783  1
  Au  Au29  1  0.751217  0.000000  0.500000  1
  Au  Au30  1  0.248783  0.000000  0.500000  1
  Au  Au31  1  0.000000  0.000000  0.000000  1
