# generated using pymatgen
data_Cs2Dy7BCl18
_symmetry_space_group_name_H-M   'P 1'
_cell_length_a   10.16717604
_cell_length_b   10.16717423
_cell_length_c   11.02725000
_cell_angle_alpha   117.45180490
_cell_angle_beta   62.54819404
_cell_angle_gamma   120.00000271
_symmetry_Int_Tables_number   1
_chemical_formula_structural   Cs2Dy7BCl18
_chemical_formula_sum   'Cs2 Dy7 B1 Cl18'
_cell_volume   835.69479968
_cell_formula_units_Z   1
loop_
 _symmetry_equiv_pos_site_id
 _symmetry_equiv_pos_as_xyz
  1  'x, y, z'
loop_
 _atom_site_type_symbol
 _atom_site_label
 _atom_site_symmetry_multiplicity
 _atom_site_fract_x
 _atom_site_fract_y
 _atom_site_fract_z
 _atom_site_occupancy
  Cs  Cs0  1  0.222253  0.777747  0.333242  1
  Cs  Cs1  1  0.777748  0.222252  0.666758  1
  Dy  Dy2  1  0.770174  0.113184  0.161204  1
  Dy  Dy3  1  0.886815  0.818194  0.161204  1
  Dy  Dy4  1  0.181807  0.229826  0.161204  1
  Dy  Dy5  1  0.500000  0.500000  0.500000  1
  Dy  Dy6  1  0.818194  0.770175  0.838796  1
  Dy  Dy7  1  0.113184  0.181805  0.838796  1
  Dy  Dy8  1  0.229825  0.886814  0.838796  1
  B  B9  1  0.000000  0.000000  0.000000  1
  Cl  Cl10  1  0.284455  0.422509  0.008824  1
  Cl  Cl11  1  0.577489  0.870770  0.008824  1
  Cl  Cl12  1  0.129231  0.715546  0.008824  1
  Cl  Cl13  1  0.947443  0.346981  0.332228  1
  Cl  Cl14  1  0.067311  0.052557  0.332228  1
  Cl  Cl15  1  0.653018  0.932689  0.332228  1
  Cl  Cl16  1  0.519719  0.216543  0.337732  1
  Cl  Cl17  1  0.783456  0.640908  0.337732  1
  Cl  Cl18  1  0.359092  0.480280  0.337732  1
  Cl  Cl19  1  0.640908  0.519720  0.662268  1
  Cl  Cl20  1  0.216545  0.359094  0.662268  1
  Cl  Cl21  1  0.480280  0.783456  0.662268  1
  Cl  Cl22  1  0.346981  0.067310  0.667771  1
  Cl  Cl23  1  0.932690  0.947442  0.667771  1
  Cl  Cl24  1  0.052557  0.653018  0.667771  1
  Cl  Cl25  1  0.870771  0.284455  0.991176  1
  Cl  Cl26  1  0.422509  0.129229  0.991176  1
  Cl  Cl27  1  0.715545  0.577491  0.991176  1
