# generated using pymatgen
data_Dy6Al24ZnFe6Ru
_symmetry_space_group_name_H-M   'P 1'
_cell_length_a   8.71681328
_cell_length_b   8.72730921
_cell_length_c   9.38613071
_cell_angle_alpha   89.79276558
_cell_angle_beta   90.12390561
_cell_angle_gamma   119.84231469
_symmetry_Int_Tables_number   1
_chemical_formula_structural   Dy6Al24ZnFe6Ru
_chemical_formula_sum   'Dy6 Al24 Zn1 Fe6 Ru1'
_cell_volume   619.35598077
_cell_formula_units_Z   1
loop_
 _symmetry_equiv_pos_site_id
 _symmetry_equiv_pos_as_xyz
  1  'x, y, z'
loop_
 _atom_site_type_symbol
 _atom_site_label
 _atom_site_symmetry_multiplicity
 _atom_site_fract_x
 _atom_site_fract_y
 _atom_site_fract_z
 _atom_site_occupancy
  Dy  Dy0  1  0.194140  0.805261  0.246211  1
  Dy  Dy1  1  0.192076  0.385623  0.253113  1
  Dy  Dy2  1  0.614302  0.807530  0.252808  1
  Dy  Dy3  1  0.805860  0.194739  0.753789  1
  Dy  Dy4  1  0.807924  0.614377  0.746887  1
  Dy  Dy5  1  0.385698  0.192470  0.747192  1
  Al  Al6  1  0.562820  0.437439  0.240359  1
  Al  Al7  1  0.560392  0.119493  0.255588  1
  Al  Al8  1  0.882824  0.440743  0.251373  1
  Al  Al9  1  0.437180  0.562561  0.759641  1
  Al  Al10  1  0.439608  0.880507  0.744412  1
  Al  Al11  1  0.117176  0.559257  0.748627  1
  Al  Al12  1  0.318969  0.147197  0.421767  1
  Al  Al13  1  0.839233  0.161542  0.423984  1
  Al  Al14  1  0.852939  0.680604  0.421634  1
  Al  Al15  1  0.681031  0.852803  0.578233  1
  Al  Al16  1  0.160767  0.838458  0.576016  1
  Al  Al17  1  0.147061  0.319396  0.578366  1
  Al  Al18  1  0.678629  0.836938  0.926350  1
  Al  Al19  1  0.158436  0.835911  0.923463  1
  Al  Al20  1  0.160536  0.321759  0.926873  1
  Al  Al21  1  0.321371  0.163062  0.073650  1
  Al  Al22  1  0.841564  0.164089  0.076537  1
  Al  Al23  1  0.839464  0.678241  0.073127  1
  Al  Al24  1  0.673977  0.325892  0.515119  1
  Al  Al25  1  0.326023  0.674108  0.484881  1
  Al  Al26  1  0.330826  0.660754  0.015186  1
  Al  Al27  1  0.669174  0.339246  0.984814  1
  Al  Al28  1  0.999594  0.001102  0.249349  1
  Al  Al29  1  0.000406  0.998898  0.750651  1
  Zn  Zn30  1  0.500000  0.500000  0.500000  1
  Fe  Fe31  1  0.000000  0.000000  0.500000  1
  Fe  Fe32  1  0.000000  0.000000  0.000000  1
  Fe  Fe33  1  0.500000  0.000000  0.500000  1
  Fe  Fe34  1  0.000000  0.500000  0.500000  1
  Fe  Fe35  1  0.500000  0.500000  0.000000  1
  Fe  Fe36  1  0.000000  0.500000  0.000000  1
  Ru  Ru37  1  0.500000  0.000000  0.000000  1
