# generated using pymatgen
data_Sc2Si7(NiRu3)3
_symmetry_space_group_name_H-M   'P 1'
_cell_length_a   9.49359300
_cell_length_b   9.49359213
_cell_length_c   3.77175600
_cell_angle_alpha   90.00000000
_cell_angle_beta   90.00000000
_cell_angle_gamma   119.99999953
_symmetry_Int_Tables_number   1
_chemical_formula_structural   Sc2Si7(NiRu3)3
_chemical_formula_sum   'Sc2 Si7 Ni3 Ru9'
_cell_volume   294.39837079
_cell_formula_units_Z   1
loop_
 _symmetry_equiv_pos_site_id
 _symmetry_equiv_pos_as_xyz
  1  'x, y, z'
loop_
 _atom_site_type_symbol
 _atom_site_label
 _atom_site_symmetry_multiplicity
 _atom_site_fract_x
 _atom_site_fract_y
 _atom_site_fract_z
 _atom_site_occupancy
  Sc  Sc0  1  0.666667  0.333333  0.500000  1
  Sc  Sc1  1  0.333333  0.666667  0.000000  1
  Si  Si2  1  0.602690  0.710963  0.500000  1
  Si  Si3  1  0.000000  0.000000  0.000000  1
  Si  Si4  1  0.289037  0.891727  0.500000  1
  Si  Si5  1  0.108273  0.397310  0.500000  1
  Si  Si6  1  0.888994  0.595399  0.000000  1
  Si  Si7  1  0.404601  0.293595  0.000000  1
  Si  Si8  1  0.706405  0.111006  0.000000  1
  Ni  Ni9  1  0.724871  0.876705  0.000000  1
  Ni  Ni10  1  0.123295  0.848165  0.000000  1
  Ni  Ni11  1  0.151835  0.275129  0.000000  1
  Ru  Ru12  1  0.562475  0.939706  0.500000  1
  Ru  Ru13  1  0.377234  0.437525  0.500000  1
  Ru  Ru14  1  0.903695  0.110078  0.500000  1
  Ru  Ru15  1  0.206383  0.096305  0.500000  1
  Ru  Ru16  1  0.889922  0.793617  0.500000  1
  Ru  Ru17  1  0.431197  0.061490  0.000000  1
  Ru  Ru18  1  0.938510  0.369708  0.000000  1
  Ru  Ru19  1  0.630292  0.568803  0.000000  1
  Ru  Ru20  1  0.060294  0.622766  0.500000  1
