# generated using pymatgen
data_TbSm2AlC3
_symmetry_space_group_name_H-M   'P 1'
_cell_length_a   3.66009900
_cell_length_b   7.26660908
_cell_length_c   10.06598386
_cell_angle_alpha   89.63792696
_cell_angle_beta   90.00000000
_cell_angle_gamma   90.00000000
_symmetry_Int_Tables_number   1
_chemical_formula_structural   TbSm2AlC3
_chemical_formula_sum   'Tb2 Sm4 Al2 C6'
_cell_volume   267.71468101
_cell_formula_units_Z   2
loop_
 _symmetry_equiv_pos_site_id
 _symmetry_equiv_pos_as_xyz
  1  'x, y, z'
loop_
 _atom_site_type_symbol
 _atom_site_label
 _atom_site_symmetry_multiplicity
 _atom_site_fract_x
 _atom_site_fract_y
 _atom_site_fract_z
 _atom_site_occupancy
  Tb  Tb0  1  0.500000  0.988663  0.199899  1
  Tb  Tb1  1  0.500000  0.011337  0.800101  1
  Sm  Sm2  1  0.500000  0.512596  0.194379  1
  Sm  Sm3  1  0.500000  0.487404  0.805621  1
  Sm  Sm4  1  0.000000  0.750331  0.459977  1
  Sm  Sm5  1  0.000000  0.249669  0.540023  1
  Al  Al6  1  0.000000  0.767028  0.006562  1
  Al  Al7  1  0.000000  0.232972  0.993438  1
  C  C8  1  0.500000  0.507458  0.565342  1
  C  C9  1  0.500000  0.492542  0.434658  1
  C  C10  1  0.500000  0.991965  0.565344  1
  C  C11  1  0.500000  0.008035  0.434656  1
  C  C12  1  0.000000  0.755347  0.207432  1
  C  C13  1  0.000000  0.244653  0.792568  1
