# generated using pymatgen
data_Ce5PrAl20(SiOs2)4
_symmetry_space_group_name_H-M   'P 1'
_cell_length_a   8.80272183
_cell_length_b   8.80272105
_cell_length_c   9.58578900
_cell_angle_alpha   90.00000000
_cell_angle_beta   90.00000000
_cell_angle_gamma   119.95022445
_symmetry_Int_Tables_number   1
_chemical_formula_structural   Ce5PrAl20(SiOs2)4
_chemical_formula_sum   'Ce5 Pr1 Al20 Si4 Os8'
_cell_volume   643.59109427
_cell_formula_units_Z   1
loop_
 _symmetry_equiv_pos_site_id
 _symmetry_equiv_pos_as_xyz
  1  'x, y, z'
loop_
 _atom_site_type_symbol
 _atom_site_label
 _atom_site_symmetry_multiplicity
 _atom_site_fract_x
 _atom_site_fract_y
 _atom_site_fract_z
 _atom_site_occupancy
  Ce  Ce0  1  0.193582  0.388273  0.250000  1
  Ce  Ce1  1  0.805363  0.611883  0.750000  1
  Ce  Ce2  1  0.611727  0.806418  0.250000  1
  Ce  Ce3  1  0.388117  0.194637  0.750000  1
  Ce  Ce4  1  0.193945  0.806055  0.250000  1
  Pr  Pr5  1  0.807637  0.192363  0.750000  1
  Al  Al6  1  0.164221  0.327720  0.575376  1
  Al  Al7  1  0.836455  0.673249  0.423119  1
  Al  Al8  1  0.672280  0.835779  0.575376  1
  Al  Al9  1  0.836455  0.673249  0.076881  1
  Al  Al10  1  0.326751  0.163545  0.423119  1
  Al  Al11  1  0.164221  0.327720  0.924624  1
  Al  Al12  1  0.163274  0.836726  0.576874  1
  Al  Al13  1  0.326751  0.163545  0.076881  1
  Al  Al14  1  0.836349  0.163651  0.421877  1
  Al  Al15  1  0.672280  0.835779  0.924624  1
  Al  Al16  1  0.836349  0.163651  0.078123  1
  Al  Al17  1  0.163274  0.836726  0.923126  1
  Al  Al18  1  0.564096  0.129213  0.250000  1
  Al  Al19  1  0.435101  0.871199  0.750000  1
  Al  Al20  1  0.870787  0.435904  0.250000  1
  Al  Al21  1  0.128801  0.564899  0.750000  1
  Al  Al22  1  0.564269  0.435731  0.250000  1
  Al  Al23  1  0.435276  0.564724  0.750000  1
  Al  Al24  1  0.999929  0.000071  0.250000  1
  Al  Al25  1  0.001717  0.998283  0.750000  1
  Si  Si26  1  0.333551  0.666449  0.030969  1
  Si  Si27  1  0.667095  0.332905  0.970310  1
  Si  Si28  1  0.667095  0.332905  0.529690  1
  Si  Si29  1  0.333551  0.666449  0.469031  1
  Os  Os30  1  0.498427  0.998356  0.002017  1
  Os  Os31  1  0.001644  0.501573  0.002017  1
  Os  Os32  1  0.498427  0.998356  0.497983  1
  Os  Os33  1  0.500064  0.499936  0.000348  1
  Os  Os34  1  0.001644  0.501573  0.497983  1
  Os  Os35  1  0.500064  0.499936  0.499652  1
  Os  Os36  1  0.999716  0.000284  0.000280  1
  Os  Os37  1  0.999716  0.000284  0.499720  1
