# generated using pymatgen
data_Ti2CuSi2Rh
_symmetry_space_group_name_H-M   'P 1'
_cell_length_a   3.72981300
_cell_length_b   6.27786800
_cell_length_c   7.28038200
_cell_angle_alpha   90.00000000
_cell_angle_beta   90.00000000
_cell_angle_gamma   90.00000000
_symmetry_Int_Tables_number   1
_chemical_formula_structural   Ti2CuSi2Rh
_chemical_formula_sum   'Ti4 Cu2 Si4 Rh2'
_cell_volume   170.47213702
_cell_formula_units_Z   2
loop_
 _symmetry_equiv_pos_site_id
 _symmetry_equiv_pos_as_xyz
  1  'x, y, z'
loop_
 _atom_site_type_symbol
 _atom_site_label
 _atom_site_symmetry_multiplicity
 _atom_site_fract_x
 _atom_site_fract_y
 _atom_site_fract_z
 _atom_site_occupancy
  Ti  Ti0  1  0.750000  0.472031  0.324305  1
  Ti  Ti1  1  0.250000  0.032494  0.819541  1
  Ti  Ti2  1  0.750000  0.972031  0.175695  1
  Ti  Ti3  1  0.250000  0.532494  0.680459  1
  Cu  Cu4  1  0.750000  0.850996  0.561396  1
  Cu  Cu5  1  0.750000  0.350996  0.938604  1
  Si  Si6  1  0.250000  0.260228  0.126925  1
  Si  Si7  1  0.250000  0.760228  0.373075  1
  Si  Si8  1  0.750000  0.745324  0.873470  1
  Si  Si9  1  0.750000  0.245324  0.626530  1
  Rh  Rh10  1  0.250000  0.638926  0.057062  1
  Rh  Rh11  1  0.250000  0.138926  0.442938  1
