# generated using pymatgen
data_HfScCuS4
_symmetry_space_group_name_H-M   'P 1'
_cell_length_a   7.36774688
_cell_length_b   7.36774773
_cell_length_c   7.36774693
_cell_angle_alpha   120.15076534
_cell_angle_beta   119.82827608
_cell_angle_gamma   90.01837933
_symmetry_Int_Tables_number   1
_chemical_formula_structural   HfScCuS4
_chemical_formula_sum   'Hf2 Sc2 Cu2 S8'
_cell_volume   282.84832137
_cell_formula_units_Z   2
loop_
 _symmetry_equiv_pos_site_id
 _symmetry_equiv_pos_as_xyz
  1  'x, y, z'
loop_
 _atom_site_type_symbol
 _atom_site_label
 _atom_site_symmetry_multiplicity
 _atom_site_fract_x
 _atom_site_fract_y
 _atom_site_fract_z
 _atom_site_occupancy
  Hf  Hf0  1  0.000000  0.500000  0.000000  1
  Hf  Hf1  1  0.000000  0.000000  0.500000  1
  Sc  Sc2  1  0.500000  0.500000  0.000000  1
  Sc  Sc3  1  0.000000  0.500000  0.500000  1
  Cu  Cu4  1  0.628681  0.878681  0.750000  1
  Cu  Cu5  1  0.371319  0.121319  0.250000  1
  S  S6  1  0.241100  0.749449  0.491650  1
  S  S7  1  0.757799  0.749449  0.008350  1
  S  S8  1  0.756294  0.750273  0.493980  1
  S  S9  1  0.756294  0.262314  0.006020  1
  S  S10  1  0.758900  0.250551  0.508350  1
  S  S11  1  0.242201  0.250551  0.991650  1
  S  S12  1  0.243706  0.249727  0.506020  1
  S  S13  1  0.243706  0.737686  0.993980  1
