# generated using pymatgen
data_YbCe6(TmIr2)3
_symmetry_space_group_name_H-M   'P 1'
_cell_length_a   8.19373100
_cell_length_b   8.19373021
_cell_length_c   6.44606500
_cell_angle_alpha   90.00000000
_cell_angle_beta   90.00000000
_cell_angle_gamma   120.00000722
_symmetry_Int_Tables_number   1
_chemical_formula_structural   YbCe6(TmIr2)3
_chemical_formula_sum   'Yb1 Ce6 Tm3 Ir6'
_cell_volume   374.79055932
_cell_formula_units_Z   1
loop_
 _symmetry_equiv_pos_site_id
 _symmetry_equiv_pos_as_xyz
  1  'x, y, z'
loop_
 _atom_site_type_symbol
 _atom_site_label
 _atom_site_symmetry_multiplicity
 _atom_site_fract_x
 _atom_site_fract_y
 _atom_site_fract_z
 _atom_site_occupancy
  Yb  Yb0  1  0.666667  0.333333  0.000000  1
  Ce  Ce1  1  0.744697  0.744065  0.248464  1
  Ce  Ce2  1  0.255935  0.000632  0.248464  1
  Ce  Ce3  1  0.999368  0.255303  0.248464  1
  Ce  Ce4  1  0.255935  0.255303  0.751536  1
  Ce  Ce5  1  0.744697  0.000632  0.751536  1
  Ce  Ce6  1  0.999368  0.744065  0.751536  1
  Tm  Tm7  1  0.666667  0.333333  0.500000  1
  Tm  Tm8  1  0.333333  0.666667  0.500000  1
  Tm  Tm9  1  0.333333  0.666667  0.000000  1
  Ir  Ir10  1  0.379728  0.383971  0.259814  1
  Ir  Ir11  1  0.616029  0.995757  0.259814  1
  Ir  Ir12  1  0.004243  0.620272  0.259814  1
  Ir  Ir13  1  0.616029  0.620272  0.740186  1
  Ir  Ir14  1  0.379728  0.995757  0.740186  1
  Ir  Ir15  1  0.004243  0.383971  0.740186  1
