# generated using pymatgen
data_DyThAl3Re
_symmetry_space_group_name_H-M   'P 1'
_cell_length_a   5.54362600
_cell_length_b   5.54362568
_cell_length_c   9.10773700
_cell_angle_alpha   90.00000000
_cell_angle_beta   90.00000000
_cell_angle_gamma   120.00001383
_symmetry_Int_Tables_number   1
_chemical_formula_structural   DyThAl3Re
_chemical_formula_sum   'Dy2 Th2 Al6 Re2'
_cell_volume   242.39791134
_cell_formula_units_Z   2
loop_
 _symmetry_equiv_pos_site_id
 _symmetry_equiv_pos_as_xyz
  1  'x, y, z'
loop_
 _atom_site_type_symbol
 _atom_site_label
 _atom_site_symmetry_multiplicity
 _atom_site_fract_x
 _atom_site_fract_y
 _atom_site_fract_z
 _atom_site_occupancy
  Dy  Dy0  1  0.333333  0.666667  0.443428  1
  Dy  Dy1  1  0.666667  0.333333  0.556572  1
  Th  Th2  1  0.666667  0.333333  0.956342  1
  Th  Th3  1  0.333333  0.666667  0.043658  1
  Al  Al4  1  0.837729  0.162271  0.256728  1
  Al  Al5  1  0.837729  0.675458  0.256728  1
  Al  Al6  1  0.324542  0.162271  0.256728  1
  Al  Al7  1  0.162271  0.837729  0.743272  1
  Al  Al8  1  0.162271  0.324542  0.743272  1
  Al  Al9  1  0.675458  0.837729  0.743272  1
  Re  Re10  1  0.000000  0.000000  0.500000  1
  Re  Re11  1  0.000000  0.000000  0.000000  1
