# generated using pymatgen
data_Y2CoIrBr2
_symmetry_space_group_name_H-M   'P 1'
_cell_length_a   4.09173900
_cell_length_b   4.09173932
_cell_length_c   11.39433200
_cell_angle_alpha   90.00000000
_cell_angle_beta   90.00000000
_cell_angle_gamma   120.00000550
_symmetry_Int_Tables_number   1
_chemical_formula_structural   Y2CoIrBr2
_chemical_formula_sum   'Y2 Co1 Ir1 Br2'
_cell_volume   165.20962983
_cell_formula_units_Z   1
loop_
 _symmetry_equiv_pos_site_id
 _symmetry_equiv_pos_as_xyz
  1  'x, y, z'
loop_
 _atom_site_type_symbol
 _atom_site_label
 _atom_site_symmetry_multiplicity
 _atom_site_fract_x
 _atom_site_fract_y
 _atom_site_fract_z
 _atom_site_occupancy
  Y  Y0  1  0.000000  0.000000  0.163206  1
  Y  Y1  1  0.000000  0.000000  0.837560  1
  Co  Co2  1  0.333334  0.666667  0.993946  1
  Ir  Ir3  1  0.666667  0.333334  0.005404  1
  Br  Br4  1  0.333334  0.666667  0.326268  1
  Br  Br5  1  0.666667  0.333334  0.673616  1
