# generated using pymatgen
data_DyEr2Hf3(GaPt)6
_symmetry_space_group_name_H-M   'P 1'
_cell_length_a   7.26497359
_cell_length_b   7.26012422
_cell_length_c   7.34074100
_cell_angle_alpha   90.00000000
_cell_angle_beta   90.00000000
_cell_angle_gamma   119.97592960
_symmetry_Int_Tables_number   1
_chemical_formula_structural   DyEr2Hf3(GaPt)6
_chemical_formula_sum   'Dy1 Er2 Hf3 Ga6 Pt6'
_cell_volume   335.39293572
_cell_formula_units_Z   1
loop_
 _symmetry_equiv_pos_site_id
 _symmetry_equiv_pos_as_xyz
  1  'x, y, z'
loop_
 _atom_site_type_symbol
 _atom_site_label
 _atom_site_symmetry_multiplicity
 _atom_site_fract_x
 _atom_site_fract_y
 _atom_site_fract_z
 _atom_site_occupancy
  Dy  Dy0  1  0.002126  0.592541  0.750000  1
  Er  Er1  1  0.590877  0.997749  0.750000  1
  Er  Er2  1  0.407049  0.409010  0.750000  1
  Hf  Hf3  1  0.391201  0.388972  0.250000  1
  Hf  Hf4  1  0.997727  0.608754  0.250000  1
  Hf  Hf5  1  0.611062  0.002311  0.250000  1
  Ga  Ga6  1  0.263099  0.999238  0.007316  1
  Ga  Ga7  1  0.263099  0.999238  0.492684  1
  Ga  Ga8  1  0.001108  0.263728  0.492344  1
  Ga  Ga9  1  0.001108  0.263728  0.007656  1
  Ga  Ga10  1  0.735805  0.737231  0.007306  1
  Ga  Ga11  1  0.735805  0.737231  0.492694  1
  Pt  Pt12  1  0.666134  0.332939  0.474215  1
  Pt  Pt13  1  0.999985  0.000831  0.750000  1
  Pt  Pt14  1  0.666134  0.332939  0.025785  1
  Pt  Pt15  1  0.333840  0.666796  0.031826  1
  Pt  Pt16  1  0.333840  0.666796  0.468174  1
  Pt  Pt17  1  0.000002  0.999968  0.250000  1
