# generated using pymatgen
data_Ca6GaGe3Rh4
_symmetry_space_group_name_H-M   'P 1'
_cell_length_a   5.77814000
_cell_length_b   7.86405009
_cell_length_c   13.66335282
_cell_angle_alpha   89.58571997
_cell_angle_beta   90.00000000
_cell_angle_gamma   90.00000000
_symmetry_Int_Tables_number   1
_chemical_formula_structural   Ca6GaGe3Rh4
_chemical_formula_sum   'Ca12 Ga2 Ge6 Rh8'
_cell_volume   620.84081667
_cell_formula_units_Z   2
loop_
 _symmetry_equiv_pos_site_id
 _symmetry_equiv_pos_as_xyz
  1  'x, y, z'
loop_
 _atom_site_type_symbol
 _atom_site_label
 _atom_site_symmetry_multiplicity
 _atom_site_fract_x
 _atom_site_fract_y
 _atom_site_fract_z
 _atom_site_occupancy
  Ca  Ca0  1  0.634051  0.242259  0.250720  1
  Ca  Ca1  1  0.365949  0.757741  0.749280  1
  Ca  Ca2  1  0.365949  0.742259  0.250720  1
  Ca  Ca3  1  0.634051  0.257741  0.749280  1
  Ca  Ca4  1  0.143213  0.395476  0.099466  1
  Ca  Ca5  1  0.856787  0.604524  0.900534  1
  Ca  Ca6  1  0.858456  0.605827  0.598636  1
  Ca  Ca7  1  0.858456  0.894173  0.401364  1
  Ca  Ca8  1  0.141544  0.394173  0.401364  1
  Ca  Ca9  1  0.141544  0.105827  0.598636  1
  Ca  Ca10  1  0.143213  0.104524  0.900534  1
  Ca  Ca11  1  0.856787  0.895476  0.099466  1
  Ga  Ga12  1  0.601750  0.250000  0.000000  1
  Ga  Ga13  1  0.398250  0.750000  0.000000  1
  Ge  Ge14  1  0.149652  0.091596  0.251267  1
  Ge  Ge15  1  0.850348  0.908404  0.748733  1
  Ge  Ge16  1  0.850348  0.591596  0.251267  1
  Ge  Ge17  1  0.149652  0.408404  0.748733  1
  Ge  Ge18  1  0.396251  0.750000  0.500000  1
  Ge  Ge19  1  0.603749  0.250000  0.500000  1
  Rh  Rh20  1  0.361028  0.026631  0.094695  1
  Rh  Rh21  1  0.638972  0.973369  0.905305  1
  Rh  Rh22  1  0.637498  0.971959  0.590574  1
  Rh  Rh23  1  0.637498  0.528041  0.409426  1
  Rh  Rh24  1  0.362502  0.028041  0.409426  1
  Rh  Rh25  1  0.362502  0.471959  0.590574  1
  Rh  Rh26  1  0.361028  0.473369  0.905305  1
  Rh  Rh27  1  0.638972  0.526631  0.094695  1
