# generated using pymatgen
data_Gd2Y4TaO12
_symmetry_space_group_name_H-M   'P 1'
_cell_length_a   6.51286436
_cell_length_b   6.53570874
_cell_length_c   6.50507895
_cell_angle_alpha   98.86250616
_cell_angle_beta   98.53195481
_cell_angle_gamma   98.76591843
_symmetry_Int_Tables_number   1
_chemical_formula_structural   Gd2Y4TaO12
_chemical_formula_sum   'Gd2 Y4 Ta1 O12'
_cell_volume   266.17528410
_cell_formula_units_Z   1
loop_
 _symmetry_equiv_pos_site_id
 _symmetry_equiv_pos_as_xyz
  1  'x, y, z'
loop_
 _atom_site_type_symbol
 _atom_site_label
 _atom_site_symmetry_multiplicity
 _atom_site_fract_x
 _atom_site_fract_y
 _atom_site_fract_z
 _atom_site_occupancy
  Gd  Gd0  1  0.391631  0.695808  0.857804  1
  Gd  Gd1  1  0.137143  0.607440  0.304262  1
  Y  Y2  1  0.859931  0.387617  0.697051  1
  Y  Y3  1  0.612202  0.298026  0.138385  1
  Y  Y4  1  0.304099  0.141712  0.610547  1
  Y  Y5  1  0.701044  0.865633  0.390583  1
  Ta  Ta6  1  0.001686  0.998705  0.999375  1
  O  O7  1  0.927136  0.040153  0.697529  1
  O  O8  1  0.957336  0.301156  0.070413  1
  O  O9  1  0.587937  0.178449  0.436518  1
  O  O10  1  0.820320  0.564417  0.410445  1
  O  O11  1  0.302140  0.074294  0.959482  1
  O  O12  1  0.564208  0.411960  0.824986  1
  O  O13  1  0.436170  0.588825  0.178054  1
  O  O14  1  0.698212  0.929650  0.043673  1
  O  O15  1  0.175368  0.433914  0.587572  1
  O  O16  1  0.413220  0.823033  0.564336  1
  O  O17  1  0.038043  0.698155  0.926020  1
  O  O18  1  0.072175  0.961054  0.302967  1
