# generated using pymatgen
data_Dy7Ho(Si4W3)4
_symmetry_space_group_name_H-M   'P 1'
_cell_length_a   6.78142357
_cell_length_b   6.94253761
_cell_length_c   12.91220314
_cell_angle_alpha   90.00946556
_cell_angle_beta   89.99314967
_cell_angle_gamma   90.01496059
_symmetry_Int_Tables_number   1
_chemical_formula_structural   Dy7Ho(Si4W3)4
_chemical_formula_sum   'Dy7 Ho1 Si16 W12'
_cell_volume   607.91021200
_cell_formula_units_Z   1
loop_
 _symmetry_equiv_pos_site_id
 _symmetry_equiv_pos_as_xyz
  1  'x, y, z'
loop_
 _atom_site_type_symbol
 _atom_site_label
 _atom_site_symmetry_multiplicity
 _atom_site_fract_x
 _atom_site_fract_y
 _atom_site_fract_z
 _atom_site_occupancy
  Dy  Dy0  1  0.495413  0.667554  0.593454  1
  Dy  Dy1  1  0.995665  0.832528  0.906594  1
  Dy  Dy2  1  0.504746  0.332423  0.093539  1
  Dy  Dy3  1  0.004399  0.167669  0.406717  1
  Dy  Dy4  1  0.504487  0.332525  0.406743  1
  Dy  Dy5  1  0.004451  0.167696  0.093500  1
  Dy  Dy6  1  0.495456  0.667509  0.906434  1
  Ho  Ho7  1  0.995156  0.831962  0.593444  1
  Si  Si8  1  0.661734  0.957507  0.453226  1
  Si  Si9  1  0.161711  0.542531  0.047034  1
  Si  Si10  1  0.338808  0.042768  0.952793  1
  Si  Si11  1  0.838482  0.457712  0.547066  1
  Si  Si12  1  0.337794  0.042090  0.547025  1
  Si  Si13  1  0.838488  0.457488  0.952892  1
  Si  Si14  1  0.661514  0.957230  0.047103  1
  Si  Si15  1  0.161445  0.542941  0.453131  1
  Si  Si16  1  0.463525  0.369982  0.750067  1
  Si  Si17  1  0.963834  0.129122  0.749527  1
  Si  Si18  1  0.536417  0.629900  0.250022  1
  Si  Si19  1  0.036364  0.870516  0.250139  1
  Si  Si20  1  0.697370  0.866758  0.749697  1
  Si  Si21  1  0.196173  0.633175  0.749556  1
  Si  Si22  1  0.303189  0.133264  0.250107  1
  Si  Si23  1  0.803193  0.367288  0.250234  1
  W  W24  1  0.667917  0.163115  0.625670  1
  W  W25  1  0.167551  0.336269  0.874188  1
  W  W26  1  0.332129  0.836690  0.125579  1
  W  W27  1  0.832241  0.663796  0.374683  1
  W  W28  1  0.332091  0.836563  0.374405  1
  W  W29  1  0.832431  0.663625  0.125828  1
  W  W30  1  0.668295  0.163377  0.874359  1
  W  W31  1  0.167827  0.336506  0.625483  1
  W  W32  1  0.833821  0.499347  0.749757  1
  W  W33  1  0.333442  0.000291  0.749668  1
  W  W34  1  0.166227  0.500883  0.250105  1
  W  W35  1  0.666213  0.999396  0.250231  1
