# generated using pymatgen
data_Nb12TlS16
_symmetry_space_group_name_H-M   'P 1'
_cell_length_a   6.83331915
_cell_length_b   9.61482201
_cell_length_c   10.19023400
_cell_angle_alpha   118.05224729
_cell_angle_beta   109.56751086
_cell_angle_gamma   90.00679539
_symmetry_Int_Tables_number   1
_chemical_formula_structural   Nb12TlS16
_chemical_formula_sum   'Nb12 Tl1 S16'
_cell_volume   546.63887933
_cell_formula_units_Z   1
loop_
 _symmetry_equiv_pos_site_id
 _symmetry_equiv_pos_as_xyz
  1  'x, y, z'
loop_
 _atom_site_type_symbol
 _atom_site_label
 _atom_site_symmetry_multiplicity
 _atom_site_fract_x
 _atom_site_fract_y
 _atom_site_fract_z
 _atom_site_occupancy
  Nb  Nb0  1  0.181126  0.627283  0.113583  1
  Nb  Nb1  1  0.681594  0.627468  0.113856  1
  Nb  Nb2  1  0.382867  0.886201  0.515244  1
  Nb  Nb3  1  0.880847  0.886568  0.513142  1
  Nb  Nb4  1  0.310832  0.487209  0.373307  1
  Nb  Nb5  1  0.810683  0.485261  0.371000  1
  Nb  Nb6  1  0.817406  0.373538  0.886064  1
  Nb  Nb7  1  0.318026  0.373748  0.886394  1
  Nb  Nb8  1  0.619326  0.113509  0.487180  1
  Nb  Nb9  1  0.116257  0.113757  0.486474  1
  Nb  Nb10  1  0.687018  0.513005  0.627249  1
  Nb  Nb11  1  0.188750  0.512498  0.626461  1
  Tl  Tl12  1  0.197686  0.999920  0.999863  1
  S  S13  1  0.957695  0.333472  0.666544  1
  S  S14  1  0.457026  0.332492  0.665955  1
  S  S15  1  0.041990  0.667184  0.333917  1
  S  S16  1  0.541505  0.666817  0.333620  1
  S  S17  1  0.767278  0.944131  0.286095  1
  S  S18  1  0.267969  0.943653  0.288552  1
  S  S19  1  0.951225  0.710806  0.654856  1
  S  S20  1  0.453317  0.712878  0.657624  1
  S  S21  1  0.652202  0.343235  0.055563  1
  S  S22  1  0.151045  0.344171  0.055710  1
  S  S23  1  0.232263  0.056122  0.713945  1
  S  S24  1  0.732399  0.056040  0.714664  1
  S  S25  1  0.045685  0.286275  0.341925  1
  S  S26  1  0.546451  0.286882  0.342479  1
  S  S27  1  0.348326  0.657954  0.944526  1
  S  S28  1  0.846556  0.657924  0.944208  1
