# generated using pymatgen
data_Yb4Ga18IrPt5
_symmetry_space_group_name_H-M   'P 1'
_cell_length_a   7.66901691
_cell_length_b   7.66901745
_cell_length_c   9.52799198
_cell_angle_alpha   90.03616743
_cell_angle_beta   90.03616527
_cell_angle_gamma   119.83190840
_symmetry_Int_Tables_number   1
_chemical_formula_structural   Yb4Ga18IrPt5
_chemical_formula_sum   'Yb4 Ga18 Ir1 Pt5'
_cell_volume   486.12080826
_cell_formula_units_Z   1
loop_
 _symmetry_equiv_pos_site_id
 _symmetry_equiv_pos_as_xyz
  1  'x, y, z'
loop_
 _atom_site_type_symbol
 _atom_site_label
 _atom_site_symmetry_multiplicity
 _atom_site_fract_x
 _atom_site_fract_y
 _atom_site_fract_z
 _atom_site_occupancy
  Yb  Yb0  1  0.996909  0.667946  0.250576  1
  Yb  Yb1  1  0.003091  0.332054  0.749424  1
  Yb  Yb2  1  0.667946  0.996909  0.250576  1
  Yb  Yb3  1  0.332054  0.003091  0.749424  1
  Ga  Ga4  1  0.127012  0.127012  0.251994  1
  Ga  Ga5  1  0.872988  0.872988  0.748006  1
  Ga  Ga6  1  0.997280  0.334489  0.083814  1
  Ga  Ga7  1  0.002720  0.665511  0.916186  1
  Ga  Ga8  1  0.003407  0.669294  0.580669  1
  Ga  Ga9  1  0.330706  0.996593  0.419331  1
  Ga  Ga10  1  0.996593  0.330706  0.419331  1
  Ga  Ga11  1  0.669294  0.003407  0.580669  1
  Ga  Ga12  1  0.665511  0.002720  0.916186  1
  Ga  Ga13  1  0.334489  0.997280  0.083814  1
  Ga  Ga14  1  0.325866  0.325866  0.569581  1
  Ga  Ga15  1  0.674134  0.674134  0.430419  1
  Ga  Ga16  1  0.669966  0.669966  0.071843  1
  Ga  Ga17  1  0.330034  0.330034  0.928157  1
  Ga  Ga18  1  0.338710  0.543445  0.250428  1
  Ga  Ga19  1  0.661290  0.456555  0.749572  1
  Ga  Ga20  1  0.543445  0.338710  0.250428  1
  Ga  Ga21  1  0.456555  0.661290  0.749572  1
  Ir  Ir22  1  0.000000  0.000000  0.500000  1
  Pt  Pt23  1  0.670419  0.329581  0.000000  1
  Pt  Pt24  1  0.329581  0.670419  0.000000  1
  Pt  Pt25  1  0.329692  0.670308  0.500000  1
  Pt  Pt26  1  0.670308  0.329692  0.500000  1
  Pt  Pt27  1  0.000000  0.000000  0.000000  1
