# generated using pymatgen
data_Dy3ErAlZn11
_symmetry_space_group_name_H-M   'P 1'
_cell_length_a   4.39635500
_cell_length_b   6.65961008
_cell_length_c   10.06662291
_cell_angle_alpha   89.98459896
_cell_angle_beta   90.00000000
_cell_angle_gamma   90.00000000
_symmetry_Int_Tables_number   1
_chemical_formula_structural   Dy3ErAlZn11
_chemical_formula_sum   'Dy3 Er1 Al1 Zn11'
_cell_volume   294.73067644
_cell_formula_units_Z   1
loop_
 _symmetry_equiv_pos_site_id
 _symmetry_equiv_pos_as_xyz
  1  'x, y, z'
loop_
 _atom_site_type_symbol
 _atom_site_label
 _atom_site_symmetry_multiplicity
 _atom_site_fract_x
 _atom_site_fract_y
 _atom_site_fract_z
 _atom_site_occupancy
  Dy  Dy0  1  0.250000  0.279609  0.660036  1
  Dy  Dy1  1  0.250000  0.779586  0.835445  1
  Dy  Dy2  1  0.750000  0.718161  0.337231  1
  Er  Er3  1  0.750000  0.218127  0.163902  1
  Al  Al4  1  0.250000  0.537749  0.106539  1
  Zn  Zn5  1  0.250000  0.034836  0.394601  1
  Zn  Zn6  1  0.750000  0.463352  0.896148  1
  Zn  Zn7  1  0.750000  0.964461  0.604475  1
  Zn  Zn8  1  0.250000  0.924011  0.147734  1
  Zn  Zn9  1  0.250000  0.417931  0.353182  1
  Zn  Zn10  1  0.750000  0.081511  0.852799  1
  Zn  Zn11  1  0.750000  0.581996  0.648230  1
  Zn  Zn12  1  0.250000  0.215707  0.957339  1
  Zn  Zn13  1  0.250000  0.716558  0.542562  1
  Zn  Zn14  1  0.750000  0.783877  0.042634  1
  Zn  Zn15  1  0.750000  0.282526  0.457142  1
