# generated using pymatgen
data_Na6VFe3P4(O8F3)2
_symmetry_space_group_name_H-M   'P 1'
_cell_length_a   9.16654900
_cell_length_b   9.19762600
_cell_length_c   10.92377900
_cell_angle_alpha   90.00000000
_cell_angle_beta   90.00000000
_cell_angle_gamma   90.00000000
_symmetry_Int_Tables_number   1
_chemical_formula_structural   Na6VFe3P4(O8F3)2
_chemical_formula_sum   'Na12 V2 Fe6 P8 O32 F12'
_cell_volume   920.98915373
_cell_formula_units_Z   2
loop_
 _symmetry_equiv_pos_site_id
 _symmetry_equiv_pos_as_xyz
  1  'x, y, z'
loop_
 _atom_site_type_symbol
 _atom_site_label
 _atom_site_symmetry_multiplicity
 _atom_site_fract_x
 _atom_site_fract_y
 _atom_site_fract_z
 _atom_site_occupancy
  Na  Na0  1  0.029874  0.284904  0.500000  1
  Na  Na1  1  0.046276  0.808105  0.000000  1
  Na  Na2  1  0.243295  0.511331  0.000000  1
  Na  Na3  1  0.256603  0.011607  0.500000  1
  Na  Na4  1  0.455327  0.306727  0.500000  1
  Na  Na5  1  0.468964  0.785838  0.000000  1
  Na  Na6  1  0.529408  0.215180  0.000000  1
  Na  Na7  1  0.549273  0.693409  0.500000  1
  Na  Na8  1  0.743314  0.984868  0.500000  1
  Na  Na9  1  0.756708  0.487756  0.000000  1
  Na  Na10  1  0.955825  0.193576  0.000000  1
  Na  Na11  1  0.965023  0.714722  0.500000  1
  V  V12  1  0.750811  0.754532  0.186392  1
  V  V13  1  0.750811  0.754532  0.813608  1
  Fe  Fe14  1  0.249129  0.245098  0.188060  1
  Fe  Fe15  1  0.249129  0.245098  0.811940  1
  Fe  Fe16  1  0.250968  0.745048  0.312608  1
  Fe  Fe17  1  0.250968  0.745048  0.687392  1
  Fe  Fe18  1  0.749051  0.255002  0.312412  1
  Fe  Fe19  1  0.749051  0.255002  0.687588  1
  P  P20  1  0.000437  0.000538  0.742396  1
  P  P21  1  0.000437  0.000538  0.257604  1
  P  P22  1  0.499482  0.499710  0.756337  1
  P  P23  1  0.499482  0.499710  0.243663  1
  P  P24  1  0.499541  0.000624  0.746399  1
  P  P25  1  0.499541  0.000624  0.253601  1
  P  P26  1  0.000567  0.499630  0.752080  1
  P  P27  1  0.000567  0.499630  0.247920  1
  O  O28  1  0.091941  0.598871  0.333065  1
  O  O29  1  0.091941  0.598871  0.666935  1
  O  O30  1  0.091512  0.097828  0.170153  1
  O  O31  1  0.091512  0.097828  0.829847  1
  O  O32  1  0.098428  0.406123  0.162743  1
  O  O33  1  0.098134  0.906007  0.658303  1
  O  O34  1  0.098428  0.406123  0.837257  1
  O  O35  1  0.098134  0.906007  0.341697  1
  O  O36  1  0.401350  0.906621  0.662194  1
  O  O37  1  0.401350  0.906621  0.337806  1
  O  O38  1  0.402004  0.405523  0.158784  1
  O  O39  1  0.402004  0.405523  0.841216  1
  O  O40  1  0.408414  0.597550  0.330398  1
  O  O41  1  0.408414  0.597550  0.669602  1
  O  O42  1  0.408315  0.099189  0.167532  1
  O  O43  1  0.408315  0.099189  0.832468  1
  O  O44  1  0.590802  0.901063  0.167989  1
  O  O45  1  0.590802  0.901063  0.832011  1
  O  O46  1  0.591190  0.402142  0.330241  1
  O  O47  1  0.591190  0.402142  0.669759  1
  O  O48  1  0.597401  0.593644  0.158897  1
  O  O49  1  0.597401  0.593644  0.841103  1
  O  O50  1  0.598019  0.094274  0.662076  1
  O  O51  1  0.598019  0.094274  0.337924  1
  O  O52  1  0.901690  0.592859  0.163206  1
  O  O53  1  0.901690  0.592859  0.836794  1
  O  O54  1  0.902510  0.094829  0.658214  1
  O  O55  1  0.902510  0.094829  0.341786  1
  O  O56  1  0.909307  0.902620  0.170424  1
  O  O57  1  0.909307  0.902620  0.829576  1
  O  O58  1  0.908676  0.400709  0.333037  1
  O  O59  1  0.908676  0.400709  0.666963  1
  F  F60  1  0.250395  0.239215  0.367653  1
  F  F61  1  0.250395  0.239215  0.632347  1
  F  F62  1  0.246779  0.247723  0.000000  1
  F  F63  1  0.253167  0.747968  0.500000  1
  F  F64  1  0.249568  0.739231  0.132765  1
  F  F65  1  0.249568  0.739231  0.867235  1
  F  F66  1  0.750426  0.260570  0.132775  1
  F  F67  1  0.750426  0.260570  0.867225  1
  F  F68  1  0.746813  0.252392  0.500000  1
  F  F69  1  0.753514  0.751317  0.000000  1
  F  F70  1  0.749849  0.762237  0.371125  1
  F  F71  1  0.749849  0.762237  0.628875  1
