# generated using pymatgen
data_Lu12GaCo4Os
_symmetry_space_group_name_H-M   'P 1'
_cell_length_a   8.03946138
_cell_length_b   8.03945835
_cell_length_c   8.03946053
_cell_angle_alpha   106.23819533
_cell_angle_beta   110.74881002
_cell_angle_gamma   111.47512574
_symmetry_Int_Tables_number   1
_chemical_formula_structural   Lu12GaCo4Os
_chemical_formula_sum   'Lu12 Ga1 Co4 Os1'
_cell_volume   399.03348827
_cell_formula_units_Z   1
loop_
 _symmetry_equiv_pos_site_id
 _symmetry_equiv_pos_as_xyz
  1  'x, y, z'
loop_
 _atom_site_type_symbol
 _atom_site_label
 _atom_site_symmetry_multiplicity
 _atom_site_fract_x
 _atom_site_fract_y
 _atom_site_fract_z
 _atom_site_occupancy
  Lu  Lu0  1  0.307034  0.269874  0.576932  1
  Lu  Lu1  1  0.692966  0.730126  0.423068  1
  Lu  Lu2  1  0.307059  0.730126  0.037160  1
  Lu  Lu3  1  0.692941  0.269874  0.962840  1
  Lu  Lu4  1  0.195245  0.513504  0.318259  1
  Lu  Lu5  1  0.195232  0.877001  0.681769  1
  Lu  Lu6  1  0.804755  0.486496  0.681741  1
  Lu  Lu7  1  0.804768  0.122999  0.318231  1
  Lu  Lu8  1  0.405567  0.224233  0.181314  1
  Lu  Lu9  1  0.042919  0.224233  0.818666  1
  Lu  Lu10  1  0.957081  0.775767  0.181334  1
  Lu  Lu11  1  0.594433  0.775767  0.818686  1
  Ga  Ga12  1  0.500000  0.000000  0.500000  1
  Co  Co13  1  0.131227  0.500000  0.631227  1
  Co  Co14  1  0.868773  0.500000  0.368773  1
  Co  Co15  1  0.999998  0.113803  0.113805  1
  Co  Co16  1  0.000002  0.886197  0.886195  1
  Os  Os17  1  0.500000  0.500000  0.000000  1
