# generated using pymatgen
data_Pr4Tm(SiAs)2
_symmetry_space_group_name_H-M   'P 1'
_cell_length_a   8.53927300
_cell_length_b   8.53927375
_cell_length_c   7.95947900
_cell_angle_alpha   90.00000000
_cell_angle_beta   90.00000000
_cell_angle_gamma   124.98081721
_symmetry_Int_Tables_number   1
_chemical_formula_structural   Pr4Tm(SiAs)2
_chemical_formula_sum   'Pr8 Tm2 Si4 As4'
_cell_volume   475.54626098
_cell_formula_units_Z   2
loop_
 _symmetry_equiv_pos_site_id
 _symmetry_equiv_pos_as_xyz
  1  'x, y, z'
loop_
 _atom_site_type_symbol
 _atom_site_label
 _atom_site_symmetry_multiplicity
 _atom_site_fract_x
 _atom_site_fract_y
 _atom_site_fract_z
 _atom_site_occupancy
  Pr  Pr0  1  0.035810  0.310267  0.331070  1
  Pr  Pr1  1  0.964190  0.689733  0.668930  1
  Pr  Pr2  1  0.464190  0.189733  0.831070  1
  Pr  Pr3  1  0.810267  0.535810  0.168930  1
  Pr  Pr4  1  0.535810  0.810267  0.168930  1
  Pr  Pr5  1  0.189733  0.464190  0.831070  1
  Pr  Pr6  1  0.689733  0.964190  0.668930  1
  Pr  Pr7  1  0.310267  0.035810  0.331070  1
  Tm  Tm8  1  0.000000  0.000000  0.000000  1
  Tm  Tm9  1  0.500000  0.500000  0.500000  1
  Si  Si10  1  0.381295  0.381295  0.118792  1
  Si  Si11  1  0.618705  0.618705  0.881208  1
  Si  Si12  1  0.118705  0.118705  0.618792  1
  Si  Si13  1  0.881295  0.881295  0.381208  1
  As  As14  1  0.803925  0.196075  0.000000  1
  As  As15  1  0.196075  0.803925  0.000000  1
  As  As16  1  0.696075  0.303925  0.500000  1
  As  As17  1  0.303925  0.696075  0.500000  1
