# generated using pymatgen
data_Pr5Sn2Pt
_symmetry_space_group_name_H-M   'P 1'
_cell_length_a   8.37664800
_cell_length_b   9.36084800
_cell_length_c   12.81754600
_cell_angle_alpha   90.00000000
_cell_angle_beta   90.00000000
_cell_angle_gamma   90.00000000
_symmetry_Int_Tables_number   1
_chemical_formula_structural   Pr5Sn2Pt
_chemical_formula_sum   'Pr20 Sn8 Pt4'
_cell_volume   1005.05619330
_cell_formula_units_Z   4
loop_
 _symmetry_equiv_pos_site_id
 _symmetry_equiv_pos_as_xyz
  1  'x, y, z'
loop_
 _atom_site_type_symbol
 _atom_site_label
 _atom_site_symmetry_multiplicity
 _atom_site_fract_x
 _atom_site_fract_y
 _atom_site_fract_z
 _atom_site_occupancy
  Pr  Pr0  1  0.833260  0.750000  0.786617  1
  Pr  Pr1  1  0.166740  0.250000  0.213383  1
  Pr  Pr2  1  0.333260  0.250000  0.713383  1
  Pr  Pr3  1  0.666740  0.750000  0.286617  1
  Pr  Pr4  1  0.360745  0.750000  0.696714  1
  Pr  Pr5  1  0.639255  0.250000  0.303286  1
  Pr  Pr6  1  0.860745  0.250000  0.803286  1
  Pr  Pr7  1  0.139255  0.750000  0.196714  1
  Pr  Pr8  1  0.951101  0.750000  0.501324  1
  Pr  Pr9  1  0.048899  0.250000  0.498676  1
  Pr  Pr10  1  0.451101  0.250000  0.998676  1
  Pr  Pr11  1  0.548899  0.750000  0.001324  1
  Pr  Pr12  1  0.683259  0.034178  0.575108  1
  Pr  Pr13  1  0.316741  0.965822  0.424892  1
  Pr  Pr14  1  0.183259  0.965822  0.924892  1
  Pr  Pr15  1  0.316741  0.534178  0.424892  1
  Pr  Pr16  1  0.816741  0.034178  0.075108  1
  Pr  Pr17  1  0.683259  0.465822  0.575108  1
  Pr  Pr18  1  0.816741  0.465822  0.075108  1
  Pr  Pr19  1  0.183259  0.534178  0.924892  1
  Sn  Sn20  1  0.563074  0.495230  0.826647  1
  Sn  Sn21  1  0.436926  0.504770  0.173353  1
  Sn  Sn22  1  0.063074  0.504770  0.673353  1
  Sn  Sn23  1  0.436926  0.995230  0.173353  1
  Sn  Sn24  1  0.936926  0.495230  0.326647  1
  Sn  Sn25  1  0.563074  0.004770  0.826647  1
  Sn  Sn26  1  0.936926  0.004770  0.326647  1
  Sn  Sn27  1  0.063074  0.995230  0.673353  1
  Pt  Pt28  1  0.572959  0.750000  0.508139  1
  Pt  Pt29  1  0.427041  0.250000  0.491861  1
  Pt  Pt30  1  0.072959  0.250000  0.991861  1
  Pt  Pt31  1  0.927041  0.750000  0.008139  1
