# generated using pymatgen
data_PrCd3(Ir2O7)2
_symmetry_space_group_name_H-M   'P 1'
_cell_length_a   7.27529227
_cell_length_b   7.33911197
_cell_length_c   7.27529300
_cell_angle_alpha   60.28724260
_cell_angle_beta   60.00000121
_cell_angle_gamma   60.28724220
_symmetry_Int_Tables_number   1
_chemical_formula_structural   PrCd3(Ir2O7)2
_chemical_formula_sum   'Pr1 Cd3 Ir4 O14'
_cell_volume   275.86806832
_cell_formula_units_Z   1
loop_
 _symmetry_equiv_pos_site_id
 _symmetry_equiv_pos_as_xyz
  1  'x, y, z'
loop_
 _atom_site_type_symbol
 _atom_site_label
 _atom_site_symmetry_multiplicity
 _atom_site_fract_x
 _atom_site_fract_y
 _atom_site_fract_z
 _atom_site_occupancy
  Pr  Pr0  1  0.125000  0.625000  0.125000  1
  Cd  Cd1  1  0.125000  0.125000  0.625000  1
  Cd  Cd2  1  0.125000  0.125000  0.125000  1
  Cd  Cd3  1  0.625000  0.125000  0.125000  1
  Ir  Ir4  1  0.625000  0.625000  0.625000  1
  Ir  Ir5  1  0.125000  0.625000  0.625000  1
  Ir  Ir6  1  0.625000  0.125000  0.625000  1
  Ir  Ir7  1  0.625000  0.625000  0.125000  1
  O  O8  1  0.952404  0.548781  0.546412  1
  O  O9  1  0.302693  0.303973  0.696667  1
  O  O10  1  0.952404  0.548781  0.952404  1
  O  O11  1  0.696667  0.303973  0.302693  1
  O  O12  1  0.546412  0.548781  0.952404  1
  O  O13  1  0.553333  0.946027  0.553333  1
  O  O14  1  0.553333  0.946027  0.947307  1
  O  O15  1  0.256230  0.231309  0.256230  1
  O  O16  1  0.297596  0.701219  0.703588  1
  O  O17  1  0.696667  0.303973  0.696667  1
  O  O18  1  0.993770  0.018691  0.993770  1
  O  O19  1  0.947307  0.946027  0.553333  1
  O  O20  1  0.297596  0.701219  0.297596  1
  O  O21  1  0.703588  0.701219  0.297596  1
