# generated using pymatgen
data_Mg2Tc2Ni10P7
_symmetry_space_group_name_H-M   'P 1'
_cell_length_a   9.04272507
_cell_length_b   9.10424225
_cell_length_c   3.60495100
_cell_angle_alpha   90.00000000
_cell_angle_beta   90.00000000
_cell_angle_gamma   119.68609367
_symmetry_Int_Tables_number   1
_chemical_formula_structural   Mg2Tc2Ni10P7
_chemical_formula_sum   'Mg2 Tc2 Ni10 P7'
_cell_volume   257.83281293
_cell_formula_units_Z   1
loop_
 _symmetry_equiv_pos_site_id
 _symmetry_equiv_pos_as_xyz
  1  'x, y, z'
loop_
 _atom_site_type_symbol
 _atom_site_label
 _atom_site_symmetry_multiplicity
 _atom_site_fract_x
 _atom_site_fract_y
 _atom_site_fract_z
 _atom_site_occupancy
  Mg  Mg0  1  0.999566  0.003140  0.000000  1
  Mg  Mg1  1  0.331880  0.666785  0.500000  1
  Tc  Tc2  1  0.878235  0.454071  0.500000  1
  Tc  Tc3  1  0.548857  0.430934  0.500000  1
  Ni  Ni4  1  0.294143  0.401800  0.000000  1
  Ni  Ni5  1  0.107162  0.706625  0.000000  1
  Ni  Ni6  1  0.386117  0.172460  0.000000  1
  Ni  Ni7  1  0.794970  0.624713  0.000000  1
  Ni  Ni8  1  0.819518  0.204745  0.000000  1
  Ni  Ni9  1  0.229852  0.951131  0.500000  1
  Ni  Ni10  1  0.050238  0.272986  0.500000  1
  Ni  Ni11  1  0.727384  0.778463  0.500000  1
  Ni  Ni12  1  0.565543  0.103101  0.500000  1
  Ni  Ni13  1  0.598814  0.891900  0.000000  1
  P  P14  1  0.667297  0.334525  0.000000  1
  P  P15  1  0.076056  0.449383  0.000000  1
  P  P16  1  0.256774  0.214127  0.500000  1
  P  P17  1  0.783742  0.042233  0.500000  1
  P  P18  1  0.962502  0.747398  0.500000  1
  P  P19  1  0.548447  0.629169  0.000000  1
  P  P20  1  0.372902  0.920313  0.000000  1
