# generated using pymatgen
data_CaYb2PrP3
_symmetry_space_group_name_H-M   'P 1'
_cell_length_a   7.56444129
_cell_length_b   7.61306051
_cell_length_c   7.56444100
_cell_angle_alpha   109.50236471
_cell_angle_beta   109.19771064
_cell_angle_gamma   109.50235391
_symmetry_Int_Tables_number   1
_chemical_formula_structural   CaYb2PrP3
_chemical_formula_sum   'Ca2 Yb4 Pr2 P6'
_cell_volume   336.21341182
_cell_formula_units_Z   2
loop_
 _symmetry_equiv_pos_site_id
 _symmetry_equiv_pos_as_xyz
  1  'x, y, z'
loop_
 _atom_site_type_symbol
 _atom_site_label
 _atom_site_symmetry_multiplicity
 _atom_site_fract_x
 _atom_site_fract_y
 _atom_site_fract_z
 _atom_site_occupancy
  Ca  Ca0  1  0.503938  0.005898  0.133671  1
  Ca  Ca1  1  0.633671  0.505898  0.003938  1
  Yb  Yb2  1  0.995121  0.633035  0.500383  1
  Yb  Yb3  1  0.868064  0.863423  0.865913  1
  Yb  Yb4  1  0.000383  0.133035  0.495121  1
  Yb  Yb5  1  0.365913  0.363423  0.368064  1
  Pr  Pr6  1  0.134517  0.497935  0.998902  1
  Pr  Pr7  1  0.498902  0.997935  0.634517  1
  P  P8  1  0.623599  0.748709  0.377097  1
  P  P9  1  0.750972  0.374886  0.626164  1
  P  P10  1  0.248712  0.126112  0.872945  1
  P  P11  1  0.372945  0.626112  0.748712  1
  P  P12  1  0.126164  0.874886  0.250972  1
  P  P13  1  0.877097  0.248709  0.123599  1
