# generated using pymatgen
data_Tb2PrFe(Co4P3)2
_symmetry_space_group_name_H-M   'P 1'
_cell_length_a   3.72698700
_cell_length_b   10.58292600
_cell_length_c   12.25302000
_cell_angle_alpha   90.00000000
_cell_angle_beta   90.00000000
_cell_angle_gamma   90.00000000
_symmetry_Int_Tables_number   1
_chemical_formula_structural   Tb2PrFe(Co4P3)2
_chemical_formula_sum   'Tb4 Pr2 Fe2 Co16 P12'
_cell_volume   483.28885452
_cell_formula_units_Z   2
loop_
 _symmetry_equiv_pos_site_id
 _symmetry_equiv_pos_as_xyz
  1  'x, y, z'
loop_
 _atom_site_type_symbol
 _atom_site_label
 _atom_site_symmetry_multiplicity
 _atom_site_fract_x
 _atom_site_fract_y
 _atom_site_fract_z
 _atom_site_occupancy
  Tb  Tb0  1  0.500000  0.817854  0.203939  1
  Tb  Tb1  1  0.500000  0.182146  0.203939  1
  Tb  Tb2  1  0.000000  0.682146  0.796061  1
  Tb  Tb3  1  0.000000  0.317854  0.796061  1
  Pr  Pr4  1  0.000000  0.500000  0.522002  1
  Pr  Pr5  1  0.500000  0.000000  0.477998  1
  Fe  Fe6  1  0.500000  0.500000  0.154472  1
  Fe  Fe7  1  0.000000  0.000000  0.845528  1
  Co  Co8  1  0.500000  0.500000  0.705783  1
  Co  Co9  1  0.000000  0.000000  0.294217  1
  Co  Co10  1  0.000000  0.500000  0.987027  1
  Co  Co11  1  0.500000  0.000000  0.012973  1
  Co  Co12  1  0.500000  0.333033  0.994625  1
  Co  Co13  1  0.500000  0.666967  0.994625  1
  Co  Co14  1  0.000000  0.166967  0.005375  1
  Co  Co15  1  0.000000  0.833033  0.005375  1
  Co  Co16  1  0.500000  0.296044  0.429034  1
  Co  Co17  1  0.500000  0.703956  0.429034  1
  Co  Co18  1  0.000000  0.203956  0.570966  1
  Co  Co19  1  0.000000  0.796044  0.570966  1
  Co  Co20  1  0.500000  0.879545  0.712484  1
  Co  Co21  1  0.500000  0.120455  0.712484  1
  Co  Co22  1  0.000000  0.620455  0.287516  1
  Co  Co23  1  0.000000  0.379545  0.287516  1
  P  P24  1  0.500000  0.500000  0.884272  1
  P  P25  1  0.000000  0.000000  0.115728  1
  P  P26  1  0.500000  0.500000  0.337319  1
  P  P27  1  0.000000  0.000000  0.662681  1
  P  P28  1  0.500000  0.306337  0.617527  1
  P  P29  1  0.500000  0.693663  0.617527  1
  P  P30  1  0.000000  0.193663  0.382473  1
  P  P31  1  0.000000  0.806337  0.382473  1
  P  P32  1  0.500000  0.846955  0.894205  1
  P  P33  1  0.500000  0.153045  0.894205  1
  P  P34  1  0.000000  0.653045  0.105795  1
  P  P35  1  0.000000  0.346955  0.105795  1
