# generated using pymatgen
data_Rb5MnO5
_symmetry_space_group_name_H-M   'P 1'
_cell_length_a   8.28672353
_cell_length_b   8.28672340
_cell_length_c   9.59669600
_cell_angle_alpha   76.86548760
_cell_angle_beta   76.86549492
_cell_angle_gamma   95.83097314
_symmetry_Int_Tables_number   1
_chemical_formula_structural   Rb5MnO5
_chemical_formula_sum   'Rb10 Mn2 O10'
_cell_volume   616.76225708
_cell_formula_units_Z   2
loop_
 _symmetry_equiv_pos_site_id
 _symmetry_equiv_pos_as_xyz
  1  'x, y, z'
loop_
 _atom_site_type_symbol
 _atom_site_label
 _atom_site_symmetry_multiplicity
 _atom_site_fract_x
 _atom_site_fract_y
 _atom_site_fract_z
 _atom_site_occupancy
  Rb  Rb0  1  0.406849  0.406849  0.376081  1
  Rb  Rb1  1  0.593151  0.593151  0.623919  1
  Rb  Rb2  1  0.669381  0.669381  0.012186  1
  Rb  Rb3  1  0.330619  0.330619  0.987814  1
  Rb  Rb4  1  0.920820  0.920820  0.197465  1
  Rb  Rb5  1  0.079180  0.079180  0.802535  1
  Rb  Rb6  1  0.544314  0.100479  0.754534  1
  Rb  Rb7  1  0.899521  0.455686  0.245466  1
  Rb  Rb8  1  0.455686  0.899521  0.245466  1
  Rb  Rb9  1  0.100479  0.544314  0.754534  1
  Mn  Mn10  1  0.756608  0.243392  0.000000  1
  Mn  Mn11  1  0.243392  0.756608  0.000000  1
  O  O12  1  0.664444  0.664444  0.316266  1
  O  O13  1  0.335556  0.335556  0.683734  1
  O  O14  1  0.722687  0.040769  0.981358  1
  O  O15  1  0.959231  0.277313  0.018642  1
  O  O16  1  0.277313  0.959231  0.018642  1
  O  O17  1  0.040769  0.722687  0.981358  1
  O  O18  1  0.384383  0.736813  0.844085  1
  O  O19  1  0.263187  0.615617  0.155914  1
  O  O20  1  0.615617  0.263187  0.155914  1
  O  O21  1  0.736813  0.384383  0.844085  1
