# generated using pymatgen
data_Nb8TlCoS16
_symmetry_space_group_name_H-M   'P 1'
_cell_length_a   6.66331010
_cell_length_b   6.66192892
_cell_length_c   14.25784900
_cell_angle_alpha   90.06239649
_cell_angle_beta   89.98987933
_cell_angle_gamma   120.00255994
_symmetry_Int_Tables_number   1
_chemical_formula_structural   Nb8TlCoS16
_chemical_formula_sum   'Nb8 Tl1 Co1 S16'
_cell_volume   548.10424096
_cell_formula_units_Z   1
loop_
 _symmetry_equiv_pos_site_id
 _symmetry_equiv_pos_as_xyz
  1  'x, y, z'
loop_
 _atom_site_type_symbol
 _atom_site_label
 _atom_site_symmetry_multiplicity
 _atom_site_fract_x
 _atom_site_fract_y
 _atom_site_fract_z
 _atom_site_occupancy
  Nb  Nb0  1  0.000169  0.000296  0.210269  1
  Nb  Nb1  1  0.999831  0.999704  0.789731  1
  Nb  Nb2  1  0.503361  0.006681  0.205483  1
  Nb  Nb3  1  0.993621  0.496944  0.205480  1
  Nb  Nb4  1  0.503363  0.496940  0.205490  1
  Nb  Nb5  1  0.496639  0.993319  0.794517  1
  Nb  Nb6  1  0.006379  0.503056  0.794520  1
  Nb  Nb7  1  0.496637  0.503060  0.794510  1
  Tl  Tl8  1  0.000000  0.000000  0.500000  1
  Co  Co9  1  0.000000  0.000000  0.000000  1
  S  S10  1  0.333330  0.666788  0.904956  1
  S  S11  1  0.666670  0.333212  0.095044  1
  S  S12  1  0.666921  0.333846  0.318786  1
  S  S13  1  0.333079  0.666154  0.681214  1
  S  S14  1  0.167923  0.832831  0.317463  1
  S  S15  1  0.167951  0.335932  0.317484  1
  S  S16  1  0.664896  0.832841  0.317469  1
  S  S17  1  0.832077  0.167169  0.682537  1
  S  S18  1  0.832049  0.664068  0.682516  1
  S  S19  1  0.335104  0.167159  0.682531  1
  S  S20  1  0.836228  0.163754  0.903251  1
  S  S21  1  0.836196  0.672496  0.903217  1
  S  S22  1  0.327421  0.163754  0.903230  1
  S  S23  1  0.163772  0.836246  0.096749  1
  S  S24  1  0.163804  0.327504  0.096783  1
  S  S25  1  0.672579  0.836246  0.096770  1
