# generated using pymatgen
data_Yb2NiB8Ru7
_symmetry_space_group_name_H-M   'P 1'
_cell_length_a   9.17901239
_cell_length_b   7.38933428
_cell_length_c   7.38799267
_cell_angle_alpha   90.07279755
_cell_angle_beta   113.72287488
_cell_angle_gamma   114.28763030
_symmetry_Int_Tables_number   1
_chemical_formula_structural   Yb2NiB8Ru7
_chemical_formula_sum   'Yb4 Ni2 B16 Ru14'
_cell_volume   409.72393543
_cell_formula_units_Z   2
loop_
 _symmetry_equiv_pos_site_id
 _symmetry_equiv_pos_as_xyz
  1  'x, y, z'
loop_
 _atom_site_type_symbol
 _atom_site_label
 _atom_site_symmetry_multiplicity
 _atom_site_fract_x
 _atom_site_fract_y
 _atom_site_fract_z
 _atom_site_occupancy
  Yb  Yb0  1  0.748485  0.873822  0.122172  1
  Yb  Yb1  1  0.248820  0.626391  0.370928  1
  Yb  Yb2  1  0.749150  0.373229  0.632087  1
  Yb  Yb3  1  0.249466  0.117846  0.876313  1
  Ni  Ni4  1  0.878470  0.548785  0.037338  1
  Ni  Ni5  1  0.376565  0.840518  0.049576  1
  B  B6  1  0.914063  0.287835  0.073442  1
  B  B7  1  0.416363  0.570056  0.126945  1
  B  B8  1  0.087730  0.211103  0.157064  1
  B  B9  1  0.582565  0.157424  0.206101  1
  B  B10  1  0.402825  0.056488  0.280394  1
  B  B11  1  0.917397  0.628047  0.349709  1
  B  B12  1  0.587256  0.654272  0.373766  1
  B  B13  1  0.088644  0.877615  0.438772  1
  B  B14  1  0.909854  0.124629  0.563688  1
  B  B15  1  0.414288  0.344573  0.622961  1
  B  B16  1  0.088526  0.376823  0.662630  1
  B  B17  1  0.589565  0.935839  0.709405  1
  B  B18  1  0.415992  0.843664  0.787873  1
  B  B19  1  0.906976  0.786833  0.844194  1
  B  B20  1  0.589313  0.433278  0.875126  1
  B  B21  1  0.082911  0.709188  0.931194  1
  Ru  Ru22  1  0.114464  0.937038  0.160600  1
  Ru  Ru23  1  0.632445  0.467554  0.177058  1
  Ru  Ru24  1  0.371907  0.332522  0.315335  1
  Ru  Ru25  1  0.872802  0.324251  0.338655  1
  Ru  Ru26  1  0.622070  0.962222  0.437497  1
  Ru  Ru27  1  0.127950  0.181765  0.466046  1
  Ru  Ru28  1  0.872355  0.820229  0.535905  1
  Ru  Ru29  1  0.372734  0.034043  0.550936  1
  Ru  Ru30  1  0.133373  0.683476  0.672543  1
  Ru  Ru31  1  0.621608  0.662452  0.673618  1
  Ru  Ru32  1  0.375386  0.536343  0.826403  1
  Ru  Ru33  1  0.873953  0.055420  0.835248  1
  Ru  Ru34  1  0.632296  0.169538  0.948833  1
  Ru  Ru35  1  0.131438  0.454891  0.969648  1
