# generated using pymatgen
data_Nd2SiP5Pd21
_symmetry_space_group_name_H-M   'P 1'
_cell_length_a   8.67969666
_cell_length_b   8.67934077
_cell_length_c   8.67934101
_cell_angle_alpha   60.00271756
_cell_angle_beta   59.99864266
_cell_angle_gamma   59.99864000
_symmetry_Int_Tables_number   1
_chemical_formula_structural   Nd2SiP5Pd21
_chemical_formula_sum   'Nd2 Si1 P5 Pd21'
_cell_volume   462.34167428
_cell_formula_units_Z   1
loop_
 _symmetry_equiv_pos_site_id
 _symmetry_equiv_pos_as_xyz
  1  'x, y, z'
loop_
 _atom_site_type_symbol
 _atom_site_label
 _atom_site_symmetry_multiplicity
 _atom_site_fract_x
 _atom_site_fract_y
 _atom_site_fract_z
 _atom_site_occupancy
  Nd  Nd0  1  0.749500  0.750500  0.750500  1
  Nd  Nd1  1  0.249500  0.250500  0.250500  1
  Si  Si2  1  0.259293  0.740707  0.740707  1
  P  P3  1  0.737736  0.739932  0.262264  1
  P  P4  1  0.260068  0.739932  0.262264  1
  P  P5  1  0.739269  0.260731  0.260731  1
  P  P6  1  0.260068  0.262264  0.739932  1
  P  P7  1  0.737736  0.262264  0.739932  1
  Pd  Pd8  1  0.002390  0.997610  0.997610  1
  Pd  Pd9  1  0.613571  0.613327  0.159533  1
  Pd  Pd10  1  0.613571  0.159533  0.613327  1
  Pd  Pd11  1  0.158150  0.613608  0.613608  1
  Pd  Pd12  1  0.614636  0.613608  0.613608  1
  Pd  Pd13  1  0.386392  0.385364  0.841850  1
  Pd  Pd14  1  0.386392  0.841850  0.385364  1
  Pd  Pd15  1  0.840467  0.386429  0.386429  1
  Pd  Pd16  1  0.386673  0.386429  0.386429  1
  Pd  Pd17  1  0.999918  0.000082  0.343781  1
  Pd  Pd18  1  0.656219  0.000082  0.343781  1
  Pd  Pd19  1  0.001295  0.655233  0.342178  1
  Pd  Pd20  1  0.656219  0.343781  0.000082  1
  Pd  Pd21  1  0.999918  0.343781  0.000082  1
  Pd  Pd22  1  0.001295  0.342178  0.655233  1
  Pd  Pd23  1  0.346146  0.653854  0.002578  1
  Pd  Pd24  1  0.346146  0.002578  0.653854  1
  Pd  Pd25  1  0.344767  0.998705  0.998705  1
  Pd  Pd26  1  0.997422  0.002578  0.653854  1
  Pd  Pd27  1  0.997422  0.653854  0.002578  1
  Pd  Pd28  1  0.657822  0.998705  0.998705  1
