# generated using pymatgen
data_Dy8Ti3Si16Mo8W
_symmetry_space_group_name_H-M   'P 1'
_cell_length_a   6.92179112
_cell_length_b   6.92179094
_cell_length_c   12.83330397
_cell_angle_alpha   90.03167686
_cell_angle_beta   89.96832051
_cell_angle_gamma   89.83549237
_symmetry_Int_Tables_number   1
_chemical_formula_structural   Dy8Ti3Si16Mo8W
_chemical_formula_sum   'Dy8 Ti3 Si16 Mo8 W1'
_cell_volume   614.85615576
_cell_formula_units_Z   1
loop_
 _symmetry_equiv_pos_site_id
 _symmetry_equiv_pos_as_xyz
  1  'x, y, z'
loop_
 _atom_site_type_symbol
 _atom_site_label
 _atom_site_symmetry_multiplicity
 _atom_site_fract_x
 _atom_site_fract_y
 _atom_site_fract_z
 _atom_site_occupancy
  Dy  Dy0  1  0.997680  0.660273  0.031466  1
  Dy  Dy1  1  0.000792  0.340713  0.531297  1
  Dy  Dy2  1  0.660273  0.997680  0.968534  1
  Dy  Dy3  1  0.160795  0.503519  0.780857  1
  Dy  Dy4  1  0.838895  0.500193  0.282779  1
  Dy  Dy5  1  0.503519  0.160795  0.219143  1
  Dy  Dy6  1  0.500193  0.838895  0.717221  1
  Dy  Dy7  1  0.340713  0.000792  0.468703  1
  Ti  Ti8  1  0.829045  0.168890  0.748421  1
  Ti  Ti9  1  0.168890  0.829045  0.251579  1
  Ti  Ti10  1  0.330680  0.330680  0.000000  1
  Si  Si11  1  0.036620  0.712579  0.438249  1
  Si  Si12  1  0.958291  0.289198  0.936121  1
  Si  Si13  1  0.712579  0.036620  0.561751  1
  Si  Si14  1  0.209475  0.459705  0.186271  1
  Si  Si15  1  0.788660  0.541962  0.685153  1
  Si  Si16  1  0.459705  0.209475  0.813729  1
  Si  Si17  1  0.541962  0.788660  0.314847  1
  Si  Si18  1  0.289198  0.958291  0.063879  1
  Si  Si19  1  0.800142  0.871193  0.183953  1
  Si  Si20  1  0.303348  0.625899  0.565528  1
  Si  Si21  1  0.700462  0.371542  0.065920  1
  Si  Si22  1  0.625899  0.303348  0.434472  1
  Si  Si23  1  0.371542  0.700462  0.934080  1
  Si  Si24  1  0.127984  0.202688  0.315354  1
  Si  Si25  1  0.202688  0.127984  0.684646  1
  Si  Si26  1  0.871193  0.800142  0.816047  1
  Mo  Mo27  1  0.334100  0.505193  0.374857  1
  Mo  Mo28  1  0.843560  0.997896  0.373200  1
  Mo  Mo29  1  0.006642  0.159395  0.125531  1
  Mo  Mo30  1  0.997896  0.843560  0.626800  1
  Mo  Mo31  1  0.505193  0.334100  0.625143  1
  Mo  Mo32  1  0.159395  0.006642  0.874469  1
  Mo  Mo33  1  0.493928  0.659389  0.124990  1
  Mo  Mo34  1  0.659389  0.493928  0.875010  1
  W  W35  1  0.668679  0.668679  0.500000  1
