# generated using pymatgen
data_Ta2Tc5B6RuW4
_symmetry_space_group_name_H-M   'P 1'
_cell_length_a   3.11456900
_cell_length_b   8.96960511
_cell_length_c   15.60596867
_cell_angle_alpha   89.77822273
_cell_angle_beta   90.00000000
_cell_angle_gamma   90.00000000
_symmetry_Int_Tables_number   1
_chemical_formula_structural   Ta2Tc5B6RuW4
_chemical_formula_sum   'Ta4 Tc10 B12 Ru2 W8'
_cell_volume   435.97216005
_cell_formula_units_Z   2
loop_
 _symmetry_equiv_pos_site_id
 _symmetry_equiv_pos_as_xyz
  1  'x, y, z'
loop_
 _atom_site_type_symbol
 _atom_site_label
 _atom_site_symmetry_multiplicity
 _atom_site_fract_x
 _atom_site_fract_y
 _atom_site_fract_z
 _atom_site_occupancy
  Ta  Ta0  1  0.000000  0.680152  0.204323  1
  Ta  Ta1  1  0.000000  0.319848  0.795677  1
  Ta  Ta2  1  0.000000  0.184938  0.296206  1
  Ta  Ta3  1  0.000000  0.815062  0.703794  1
  Tc  Tc4  1  0.500000  0.715599  0.357066  1
  Tc  Tc5  1  0.500000  0.284401  0.642934  1
  Tc  Tc6  1  0.500000  0.213420  0.143449  1
  Tc  Tc7  1  0.500000  0.786580  0.856551  1
  Tc  Tc8  1  0.500000  0.515683  0.091482  1
  Tc  Tc9  1  0.500000  0.484317  0.908518  1
  Tc  Tc10  1  0.500000  0.015758  0.407587  1
  Tc  Tc11  1  0.500000  0.984242  0.592413  1
  Tc  Tc12  1  0.500000  0.565391  0.731582  1
  Tc  Tc13  1  0.500000  0.434609  0.268418  1
  B  B14  1  0.500000  0.607349  0.495567  1
  B  B15  1  0.500000  0.392651  0.504433  1
  B  B16  1  0.500000  0.106951  0.004282  1
  B  B17  1  0.500000  0.893049  0.995718  1
  B  B18  1  0.000000  0.609901  0.832653  1
  B  B19  1  0.000000  0.390099  0.167347  1
  B  B20  1  0.000000  0.110649  0.666413  1
  B  B21  1  0.000000  0.889351  0.333587  1
  B  B22  1  0.500000  0.716509  0.599826  1
  B  B23  1  0.500000  0.283491  0.400174  1
  B  B24  1  0.500000  0.217725  0.900808  1
  B  B25  1  0.500000  0.782275  0.099192  1
  Ru  Ru26  1  0.500000  0.065689  0.767952  1
  Ru  Ru27  1  0.500000  0.934311  0.232048  1
  W  W28  1  0.000000  0.796490  0.496012  1
  W  W29  1  0.000000  0.203510  0.503988  1
  W  W30  1  0.000000  0.296379  0.005005  1
  W  W31  1  0.000000  0.703621  0.994995  1
  W  W32  1  0.000000  0.518173  0.591552  1
  W  W33  1  0.000000  0.481827  0.408448  1
  W  W34  1  0.000000  0.019030  0.909206  1
  W  W35  1  0.000000  0.980970  0.090794  1
