# generated using pymatgen
data_CeEr(ThH5)6
_symmetry_space_group_name_H-M   'P 1'
_cell_length_a   7.85168821
_cell_length_b   7.84627579
_cell_length_c   7.85412356
_cell_angle_alpha   109.53711958
_cell_angle_beta   109.64190719
_cell_angle_gamma   109.51727697
_symmetry_Int_Tables_number   1
_chemical_formula_structural   CeEr(ThH5)6
_chemical_formula_sum   'Ce1 Er1 Th6 H30'
_cell_volume   371.17422629
_cell_formula_units_Z   1
loop_
 _symmetry_equiv_pos_site_id
 _symmetry_equiv_pos_as_xyz
  1  'x, y, z'
loop_
 _atom_site_type_symbol
 _atom_site_label
 _atom_site_symmetry_multiplicity
 _atom_site_fract_x
 _atom_site_fract_y
 _atom_site_fract_z
 _atom_site_occupancy
  Ce  Ce0  1  0.498961  0.999607  0.080666  1
  Er  Er1  1  0.914834  0.914201  0.915020  1
  Th  Th2  1  0.998203  0.081829  0.497666  1
  Th  Th3  1  0.083331  0.500780  0.999677  1
  Th  Th4  1  0.997987  0.585006  0.505141  1
  Th  Th5  1  0.585247  0.505281  0.998970  1
  Th  Th6  1  0.504848  0.998479  0.586082  1
  Th  Th7  1  0.414132  0.412641  0.412688  1
  H  H8  1  0.654389  0.965631  0.374774  1
  H  H9  1  0.218988  0.315736  0.846403  1
  H  H10  1  0.186130  0.404626  0.534190  1
  H  H11  1  0.094534  0.278247  0.124000  1
  H  H12  1  0.273357  0.124619  0.094743  1
  H  H13  1  0.123397  0.094298  0.276994  1
  H  H14  1  0.467644  0.156525  0.866834  1
  H  H15  1  0.719129  0.349578  0.814441  1
  H  H16  1  0.625818  0.381544  0.251984  1
  H  H17  1  0.248709  0.623749  0.374435  1
  H  H18  1  0.753296  0.874799  0.128479  1
  H  H19  1  0.120379  0.743626  0.872515  1
  H  H20  1  0.375350  0.250281  0.624269  1
  H  H21  1  0.877161  0.127207  0.748132  1
  H  H22  1  0.780586  0.596462  0.630118  1
  H  H23  1  0.314601  0.845099  0.223180  1
  H  H24  1  0.368944  0.648452  0.965720  1
  H  H25  1  0.966284  0.370218  0.652552  1
  H  H26  1  0.534693  0.187810  0.410288  1
  H  H27  1  0.404718  0.534038  0.185372  1
  H  H28  1  0.851246  0.223092  0.320478  1
  H  H29  1  0.905939  0.690779  0.030672  1
  H  H30  1  0.814212  0.718644  0.348388  1
  H  H31  1  0.152955  0.869731  0.467252  1
  H  H32  1  0.694461  0.031066  0.902663  1
  H  H33  1  0.346308  0.811519  0.712996  1
  H  H34  1  0.871616  0.469358  0.154975  1
  H  H35  1  0.630952  0.780089  0.596032  1
  H  H36  1  0.597195  0.629373  0.780752  1
  H  H37  1  0.029464  0.905977  0.690458  1
