# generated using pymatgen
data_Nb7V(Ni2N)2
_symmetry_space_group_name_H-M   'P 1'
_cell_length_a   8.18431687
_cell_length_b   8.18983283
_cell_length_c   8.18983165
_cell_angle_alpha   60.00522954
_cell_angle_beta   60.02227073
_cell_angle_gamma   60.02227389
_symmetry_Int_Tables_number   1
_chemical_formula_structural   Nb7V(Ni2N)2
_chemical_formula_sum   'Nb14 V2 Ni8 N4'
_cell_volume   388.31193923
_cell_formula_units_Z   2
loop_
 _symmetry_equiv_pos_site_id
 _symmetry_equiv_pos_as_xyz
  1  'x, y, z'
loop_
 _atom_site_type_symbol
 _atom_site_label
 _atom_site_symmetry_multiplicity
 _atom_site_fract_x
 _atom_site_fract_y
 _atom_site_fract_z
 _atom_site_occupancy
  Nb  Nb0  1  0.125000  0.625000  0.625000  1
  Nb  Nb1  1  0.625000  0.625000  0.625000  1
  Nb  Nb2  1  0.815616  0.815641  0.183254  1
  Nb  Nb3  1  0.185488  0.183254  0.815641  1
  Nb  Nb4  1  0.815616  0.183254  0.815641  1
  Nb  Nb5  1  0.185488  0.815641  0.183254  1
  Nb  Nb6  1  0.183070  0.816930  0.816930  1
  Nb  Nb7  1  0.814574  0.185426  0.185426  1
  Nb  Nb8  1  0.434384  0.434359  0.066746  1
  Nb  Nb9  1  0.064512  0.066746  0.434359  1
  Nb  Nb10  1  0.434384  0.066746  0.434359  1
  Nb  Nb11  1  0.064512  0.434359  0.066746  1
  Nb  Nb12  1  0.066930  0.433070  0.433070  1
  Nb  Nb13  1  0.435426  0.064574  0.064574  1
  V  V14  1  0.625000  0.125000  0.625000  1
  V  V15  1  0.625000  0.625000  0.125000  1
  Ni  Ni16  1  0.735053  0.416946  0.416946  1
  Ni  Ni17  1  0.425909  0.737538  0.410643  1
  Ni  Ni18  1  0.425909  0.410643  0.737538  1
  Ni  Ni19  1  0.431053  0.416946  0.416946  1
  Ni  Ni20  1  0.514947  0.833054  0.833054  1
  Ni  Ni21  1  0.824091  0.512462  0.839357  1
  Ni  Ni22  1  0.824091  0.839357  0.512462  1
  Ni  Ni23  1  0.818947  0.833054  0.833054  1
  N  N24  1  0.625000  0.125000  0.125000  1
  N  N25  1  0.125000  0.625000  0.125000  1
  N  N26  1  0.125000  0.125000  0.625000  1
  N  N27  1  0.125000  0.125000  0.125000  1
