# generated using pymatgen
data_Lu5Ni4(P4Ru5)3
_symmetry_space_group_name_H-M   'P 1'
_cell_length_a   12.44026523
_cell_length_b   12.32245810
_cell_length_c   3.85880400
_cell_angle_alpha   90.00000000
_cell_angle_beta   90.00000000
_cell_angle_gamma   119.34913883
_symmetry_Int_Tables_number   1
_chemical_formula_structural   Lu5Ni4(P4Ru5)3
_chemical_formula_sum   'Lu5 Ni4 P12 Ru15'
_cell_volume   515.61015943
_cell_formula_units_Z   1
loop_
 _symmetry_equiv_pos_site_id
 _symmetry_equiv_pos_as_xyz
  1  'x, y, z'
loop_
 _atom_site_type_symbol
 _atom_site_label
 _atom_site_symmetry_multiplicity
 _atom_site_fract_x
 _atom_site_fract_y
 _atom_site_fract_z
 _atom_site_occupancy
  Lu  Lu0  1  0.998440  0.816439  0.500000  1
  Lu  Lu1  1  0.182108  0.183875  0.500000  1
  Lu  Lu2  1  0.817230  0.002129  0.500000  1
  Lu  Lu3  1  0.666615  0.333231  0.000000  1
  Lu  Lu4  1  0.338492  0.668521  0.000000  1
  Ni  Ni5  1  0.282089  0.999390  0.500000  1
  Ni  Ni6  1  0.001672  0.000276  0.000000  1
  Ni  Ni7  1  0.634143  0.809591  0.000000  1
  Ni  Ni8  1  0.716365  0.723358  0.500000  1
  P  P9  1  0.687405  0.522476  0.500000  1
  P  P10  1  0.478328  0.165645  0.500000  1
  P  P11  1  0.829342  0.309929  0.500000  1
  P  P12  1  0.314368  0.832395  0.500000  1
  P  P13  1  0.167895  0.479375  0.500000  1
  P  P14  1  0.827036  0.830450  0.000000  1
  P  P15  1  0.175454  0.001188  0.000000  1
  P  P16  1  0.998548  0.633336  0.000000  1
  P  P17  1  0.368828  0.368043  0.000000  1
  P  P18  1  0.632593  0.997608  0.000000  1
  P  P19  1  0.521938  0.683235  0.500000  1
  P  P20  1  0.001306  0.176300  0.000000  1
  Ru  Ru21  1  0.999317  0.281077  0.500000  1
  Ru  Ru22  1  0.371589  0.175480  0.000000  1
  Ru  Ru23  1  0.803566  0.632176  0.000000  1
  Ru  Ru24  1  0.816540  0.188440  0.000000  1
  Ru  Ru25  1  0.181944  0.373822  0.000000  1
  Ru  Ru26  1  0.192099  0.822905  0.000000  1
  Ru  Ru27  1  0.870847  0.513286  0.500000  1
  Ru  Ru28  1  0.635580  0.123747  0.500000  1
  Ru  Ru29  1  0.488995  0.361488  0.500000  1
  Ru  Ru30  1  0.361122  0.487086  0.500000  1
  Ru  Ru31  1  0.128187  0.640941  0.500000  1
  Ru  Ru32  1  0.516835  0.867896  0.500000  1
  Ru  Ru33  1  0.997192  0.445486  0.000000  1
  Ru  Ru34  1  0.552835  0.559199  0.000000  1
  Ru  Ru35  1  0.443157  0.990178  0.000000  1
