# generated using pymatgen
data_TmScNi2P7Ru10
_symmetry_space_group_name_H-M   'P 1'
_cell_length_a   9.37624912
_cell_length_b   9.24512717
_cell_length_c   3.85157400
_cell_angle_alpha   90.00000000
_cell_angle_beta   90.00000000
_cell_angle_gamma   119.12541407
_symmetry_Int_Tables_number   1
_chemical_formula_structural   TmScNi2P7Ru10
_chemical_formula_sum   'Tm1 Sc1 Ni2 P7 Ru10'
_cell_volume   291.65621313
_cell_formula_units_Z   1
loop_
 _symmetry_equiv_pos_site_id
 _symmetry_equiv_pos_as_xyz
  1  'x, y, z'
loop_
 _atom_site_type_symbol
 _atom_site_label
 _atom_site_symmetry_multiplicity
 _atom_site_fract_x
 _atom_site_fract_y
 _atom_site_fract_z
 _atom_site_occupancy
  Tm  Tm0  1  0.332910  0.662777  0.000000  1
  Sc  Sc1  1  0.672521  0.338112  0.500000  1
  Ni  Ni2  1  0.112471  0.836504  0.000000  1
  Ni  Ni3  1  0.726348  0.891923  0.000000  1
  P  P4  1  0.993985  0.994549  0.000000  1
  P  P5  1  0.424569  0.307795  0.000000  1
  P  P6  1  0.886358  0.587704  0.000000  1
  P  P7  1  0.693753  0.117903  0.000000  1
  P  P8  1  0.120100  0.404774  0.500000  1
  P  P9  1  0.288493  0.882728  0.500000  1
  P  P10  1  0.597463  0.712848  0.500000  1
  Ru  Ru11  1  0.425419  0.063465  0.000000  1
  Ru  Ru12  1  0.639952  0.575267  0.000000  1
  Ru  Ru13  1  0.927083  0.362654  0.000000  1
  Ru  Ru14  1  0.160652  0.272745  0.000000  1
  Ru  Ru15  1  0.392382  0.437201  0.500000  1
  Ru  Ru16  1  0.055263  0.616793  0.500000  1
  Ru  Ru17  1  0.564878  0.949688  0.500000  1
  Ru  Ru18  1  0.197305  0.077756  0.500000  1
  Ru  Ru19  1  0.873627  0.784927  0.500000  1
  Ru  Ru20  1  0.914468  0.121886  0.500000  1
