# generated using pymatgen
data_Be9AlPd2
_symmetry_space_group_name_H-M   'P 1'
_cell_length_a   7.46216518
_cell_length_b   7.46216521
_cell_length_c   7.46216477
_cell_angle_alpha   33.65851797
_cell_angle_beta   33.65851471
_cell_angle_gamma   33.65851626
_symmetry_Int_Tables_number   1
_chemical_formula_structural   Be9AlPd2
_chemical_formula_sum   'Be9 Al1 Pd2'
_cell_volume   113.71260616
_cell_formula_units_Z   1
loop_
 _symmetry_equiv_pos_site_id
 _symmetry_equiv_pos_as_xyz
  1  'x, y, z'
loop_
 _atom_site_type_symbol
 _atom_site_label
 _atom_site_symmetry_multiplicity
 _atom_site_fract_x
 _atom_site_fract_y
 _atom_site_fract_z
 _atom_site_occupancy
  Be  Be0  1  0.066719  0.563058  0.563058  1
  Be  Be1  1  0.560565  0.060531  0.060531  1
  Be  Be2  1  0.563058  0.563058  0.066719  1
  Be  Be3  1  0.060531  0.060531  0.560565  1
  Be  Be4  1  0.812592  0.812592  0.812592  1
  Be  Be5  1  0.312895  0.312895  0.312895  1
  Be  Be6  1  0.563058  0.066719  0.563058  1
  Be  Be7  1  0.060531  0.560565  0.060531  1
  Be  Be8  1  0.124559  0.124559  0.124559  1
  Al  Al9  1  0.625003  0.625003  0.625003  1
  Pd  Pd10  1  0.001570  0.001570  0.001570  1
  Pd  Pd11  1  0.498918  0.498918  0.498918  1
