# generated using pymatgen
data_Dy3Mg3Ag2Os
_symmetry_space_group_name_H-M   'P 1'
_cell_length_a   7.71957700
_cell_length_b   7.71957743
_cell_length_c   4.00387500
_cell_angle_alpha   90.00000000
_cell_angle_beta   90.00000000
_cell_angle_gamma   120.00000243
_symmetry_Int_Tables_number   1
_chemical_formula_structural   Dy3Mg3Ag2Os
_chemical_formula_sum   'Dy3 Mg3 Ag2 Os1'
_cell_volume   206.63227767
_cell_formula_units_Z   1
loop_
 _symmetry_equiv_pos_site_id
 _symmetry_equiv_pos_as_xyz
  1  'x, y, z'
loop_
 _atom_site_type_symbol
 _atom_site_label
 _atom_site_symmetry_multiplicity
 _atom_site_fract_x
 _atom_site_fract_y
 _atom_site_fract_z
 _atom_site_occupancy
  Dy  Dy0  1  0.433781  0.398076  0.500000  1
  Dy  Dy1  1  0.601924  0.035705  0.500000  1
  Dy  Dy2  1  0.964295  0.566219  0.500000  1
  Mg  Mg3  1  0.746454  0.743925  0.000000  1
  Mg  Mg4  1  0.256075  0.002528  0.000000  1
  Mg  Mg5  1  0.997472  0.253546  0.000000  1
  Ag  Ag6  1  0.333333  0.666667  0.000000  1
  Ag  Ag7  1  0.000000  0.000000  0.500000  1
  Os  Os8  1  0.666667  0.333333  0.000000  1
