# generated using pymatgen
data_La8GePd24
_symmetry_space_group_name_H-M   'P 1'
_cell_length_a   8.54907600
_cell_length_b   8.54907600
_cell_length_c   8.54907600
_cell_angle_alpha   90.00000000
_cell_angle_beta   90.00000000
_cell_angle_gamma   90.00000000
_symmetry_Int_Tables_number   1
_chemical_formula_structural   La8GePd24
_chemical_formula_sum   'La8 Ge1 Pd24'
_cell_volume   624.82375677
_cell_formula_units_Z   1
loop_
 _symmetry_equiv_pos_site_id
 _symmetry_equiv_pos_as_xyz
  1  'x, y, z'
loop_
 _atom_site_type_symbol
 _atom_site_label
 _atom_site_symmetry_multiplicity
 _atom_site_fract_x
 _atom_site_fract_y
 _atom_site_fract_z
 _atom_site_occupancy
  La  La0  1  0.252190  0.252190  0.252190  1
  La  La1  1  0.747810  0.747810  0.747810  1
  La  La2  1  0.747810  0.747810  0.252190  1
  La  La3  1  0.747810  0.252190  0.747810  1
  La  La4  1  0.252190  0.252190  0.747810  1
  La  La5  1  0.252190  0.747810  0.252190  1
  La  La6  1  0.252190  0.747810  0.747810  1
  La  La7  1  0.747810  0.252190  0.252190  1
  Ge  Ge8  1  0.000000  0.000000  0.000000  1
  Pd  Pd9  1  0.261883  0.500000  0.000000  1
  Pd  Pd10  1  0.738117  0.500000  0.000000  1
  Pd  Pd11  1  0.000000  0.261883  0.500000  1
  Pd  Pd12  1  0.500000  0.261883  0.000000  1
  Pd  Pd13  1  0.000000  0.738117  0.500000  1
  Pd  Pd14  1  0.500000  0.738117  0.000000  1
  Pd  Pd15  1  0.500000  0.000000  0.261883  1
  Pd  Pd16  1  0.261883  0.000000  0.500000  1
  Pd  Pd17  1  0.500000  0.000000  0.738117  1
  Pd  Pd18  1  0.738117  0.000000  0.500000  1
  Pd  Pd19  1  0.000000  0.500000  0.261883  1
  Pd  Pd20  1  0.000000  0.500000  0.738117  1
  Pd  Pd21  1  0.253620  0.500000  0.500000  1
  Pd  Pd22  1  0.746380  0.500000  0.500000  1
  Pd  Pd23  1  0.500000  0.253620  0.500000  1
  Pd  Pd24  1  0.500000  0.746380  0.500000  1
  Pd  Pd25  1  0.500000  0.500000  0.253620  1
  Pd  Pd26  1  0.500000  0.500000  0.746380  1
  Pd  Pd27  1  0.295331  0.000000  0.000000  1
  Pd  Pd28  1  0.704669  0.000000  0.000000  1
  Pd  Pd29  1  0.000000  0.295331  0.000000  1
  Pd  Pd30  1  0.000000  0.704669  0.000000  1
  Pd  Pd31  1  0.000000  0.000000  0.295331  1
  Pd  Pd32  1  0.000000  0.000000  0.704669  1
