# generated using pymatgen
data_SmDyU4O12
_symmetry_space_group_name_H-M   'P 1'
_cell_length_a   6.63888457
_cell_length_b   6.63888434
_cell_length_c   6.59608886
_cell_angle_alpha   80.33467288
_cell_angle_beta   80.33467592
_cell_angle_gamma   120.06596531
_symmetry_Int_Tables_number   1
_chemical_formula_structural   SmDyU4O12
_chemical_formula_sum   'Sm1 Dy1 U4 O12'
_cell_volume   236.96580172
_cell_formula_units_Z   1
loop_
 _symmetry_equiv_pos_site_id
 _symmetry_equiv_pos_as_xyz
  1  'x, y, z'
loop_
 _atom_site_type_symbol
 _atom_site_label
 _atom_site_symmetry_multiplicity
 _atom_site_fract_x
 _atom_site_fract_y
 _atom_site_fract_z
 _atom_site_occupancy
  Sm  Sm0  1  0.499817  0.500183  0.500000  1
  Dy  Dy1  1  0.833558  0.166442  0.500000  1
  U  U2  1  0.166846  0.833154  0.500000  1
  U  U3  1  0.667951  0.332049  0.000000  1
  U  U4  1  0.999629  0.000371  0.000000  1
  U  U5  1  0.332286  0.667714  0.000000  1
  O  O6  1  0.115474  0.110087  0.637715  1
  O  O7  1  0.703845  0.040489  0.884319  1
  O  O8  1  0.959511  0.296155  0.115681  1
  O  O9  1  0.369007  0.367416  0.889047  1
  O  O10  1  0.042090  0.707159  0.881700  1
  O  O11  1  0.535918  0.199137  0.364719  1
  O  O12  1  0.889913  0.884526  0.362285  1
  O  O13  1  0.448521  0.790655  0.636796  1
  O  O14  1  0.632584  0.630993  0.110953  1
  O  O15  1  0.292841  0.957910  0.118300  1
  O  O16  1  0.800863  0.464082  0.635281  1
  O  O17  1  0.209345  0.551479  0.363204  1
