# generated using pymatgen
data_CaAs12PdRu3
_symmetry_space_group_name_H-M   'P 1'
_cell_length_a   7.47882903
_cell_length_b   7.47882776
_cell_length_c   7.47882878
_cell_angle_alpha   109.42855412
_cell_angle_beta   109.42854725
_cell_angle_gamma   109.42855228
_symmetry_Int_Tables_number   1
_chemical_formula_structural   CaAs12PdRu3
_chemical_formula_sum   'Ca1 As12 Pd1 Ru3'
_cell_volume   322.52474467
_cell_formula_units_Z   1
loop_
 _symmetry_equiv_pos_site_id
 _symmetry_equiv_pos_as_xyz
  1  'x, y, z'
loop_
 _atom_site_type_symbol
 _atom_site_label
 _atom_site_symmetry_multiplicity
 _atom_site_fract_x
 _atom_site_fract_y
 _atom_site_fract_z
 _atom_site_occupancy
  Ca  Ca0  1  0.000000  0.000000  0.000000  1
  As  As1  1  0.858225  0.653559  0.502093  1
  As  As2  1  0.141775  0.346441  0.497907  1
  As  As3  1  0.150225  0.653952  0.803572  1
  As  As4  1  0.849775  0.346048  0.196428  1
  As  As5  1  0.653559  0.502093  0.858225  1
  As  As6  1  0.346441  0.497907  0.141775  1
  As  As7  1  0.653952  0.803572  0.150225  1
  As  As8  1  0.346048  0.196428  0.849775  1
  As  As9  1  0.502093  0.858225  0.653559  1
  As  As10  1  0.497907  0.141775  0.346441  1
  As  As11  1  0.196428  0.849775  0.346048  1
  As  As12  1  0.803572  0.150225  0.653952  1
  Pd  Pd13  1  0.500000  0.500000  0.500000  1
  Ru  Ru14  1  0.500000  0.000000  0.000000  1
  Ru  Ru15  1  0.000000  0.500000  0.000000  1
  Ru  Ru16  1  0.000000  0.000000  0.500000  1
