# generated using pymatgen
data_Pr8Dy11YGa5Si11
_symmetry_space_group_name_H-M   'P 1'
_cell_length_a   7.57761502
_cell_length_b   7.87931726
_cell_length_c   15.05884432
_cell_angle_alpha   89.99904202
_cell_angle_beta   90.10398073
_cell_angle_gamma   90.04182513
_symmetry_Int_Tables_number   1
_chemical_formula_structural   Pr8Dy11YGa5Si11
_chemical_formula_sum   'Pr8 Dy11 Y1 Ga5 Si11'
_cell_volume   899.10815648
_cell_formula_units_Z   1
loop_
 _symmetry_equiv_pos_site_id
 _symmetry_equiv_pos_as_xyz
  1  'x, y, z'
loop_
 _atom_site_type_symbol
 _atom_site_label
 _atom_site_symmetry_multiplicity
 _atom_site_fract_x
 _atom_site_fract_y
 _atom_site_fract_z
 _atom_site_occupancy
  Pr  Pr0  1  0.019863  0.177305  0.400408  1
  Pr  Pr1  1  0.519657  0.323077  0.400613  1
  Pr  Pr2  1  0.483316  0.678883  0.898967  1
  Pr  Pr3  1  0.481161  0.681223  0.599932  1
  Pr  Pr4  1  0.981058  0.819836  0.599765  1
  Pr  Pr5  1  0.980936  0.826041  0.899334  1
  Pr  Pr6  1  0.518197  0.320515  0.101066  1
  Pr  Pr7  1  0.018003  0.178746  0.101393  1
  Dy  Dy8  1  0.325387  0.172858  0.623712  1
  Dy  Dy9  1  0.675246  0.821353  0.376356  1
  Dy  Dy10  1  0.661335  0.992562  0.751546  1
  Dy  Dy11  1  0.174361  0.678478  0.376221  1
  Dy  Dy12  1  0.823025  0.323560  0.876234  1
  Dy  Dy13  1  0.823933  0.325598  0.623379  1
  Dy  Dy14  1  0.839272  0.492471  0.250570  1
  Dy  Dy15  1  0.340550  0.006192  0.251613  1
  Dy  Dy16  1  0.327514  0.175608  0.874362  1
  Dy  Dy17  1  0.173404  0.673520  0.125327  1
  Dy  Dy18  1  0.673216  0.826288  0.124276  1
  Y  Y19  1  0.159262  0.505286  0.750431  1
  Ga  Ga20  1  0.153764  0.463369  0.537904  1
  Ga  Ga21  1  0.844692  0.536673  0.038614  1
  Ga  Ga22  1  0.344696  0.962820  0.037340  1
  Ga  Ga23  1  0.154103  0.464596  0.960105  1
  Ga  Ga24  1  0.654192  0.036687  0.537726  1
  Si  Si25  1  0.276895  0.879001  0.749466  1
  Si  Si26  1  0.467740  0.612879  0.251301  1
  Si  Si27  1  0.030853  0.112614  0.749168  1
  Si  Si28  1  0.532229  0.388548  0.749122  1
  Si  Si29  1  0.968118  0.888498  0.250695  1
  Si  Si30  1  0.723114  0.120394  0.251282  1
  Si  Si31  1  0.351292  0.966347  0.460310  1
  Si  Si32  1  0.851111  0.533539  0.460323  1
  Si  Si33  1  0.776380  0.621476  0.749199  1
  Si  Si34  1  0.223146  0.378975  0.251307  1
  Si  Si35  1  0.648974  0.034190  0.960634  1
