# generated using pymatgen
data_Nd16NiHg4Rh3
_symmetry_space_group_name_H-M   'P 1'
_cell_length_a   9.87520244
_cell_length_b   9.91143629
_cell_length_c   9.91143600
_cell_angle_alpha   60.00000096
_cell_angle_beta   59.87855121
_cell_angle_gamma   59.87855223
_symmetry_Int_Tables_number   1
_chemical_formula_structural   Nd16NiHg4Rh3
_chemical_formula_sum   'Nd16 Ni1 Hg4 Rh3'
_cell_volume   684.70659835
_cell_formula_units_Z   1
loop_
 _symmetry_equiv_pos_site_id
 _symmetry_equiv_pos_as_xyz
  1  'x, y, z'
loop_
 _atom_site_type_symbol
 _atom_site_label
 _atom_site_symmetry_multiplicity
 _atom_site_fract_x
 _atom_site_fract_y
 _atom_site_fract_z
 _atom_site_occupancy
  Nd  Nd0  1  0.602355  0.598294  0.598294  1
  Nd  Nd1  1  0.602355  0.598294  0.201058  1
  Nd  Nd2  1  0.602355  0.201058  0.598294  1
  Nd  Nd3  1  0.199898  0.600034  0.600034  1
  Nd  Nd4  1  0.059140  0.439534  0.439534  1
  Nd  Nd5  1  0.440341  0.059938  0.059938  1
  Nd  Nd6  1  0.440341  0.059938  0.439782  1
  Nd  Nd7  1  0.059140  0.439534  0.061793  1
  Nd  Nd8  1  0.440341  0.439782  0.059938  1
  Nd  Nd9  1  0.059140  0.061793  0.439534  1
  Nd  Nd10  1  0.186137  0.812438  0.812438  1
  Nd  Nd11  1  0.811380  0.187033  0.187033  1
  Nd  Nd12  1  0.811380  0.187033  0.814553  1
  Nd  Nd13  1  0.186137  0.812438  0.188986  1
  Nd  Nd14  1  0.811380  0.814553  0.187033  1
  Nd  Nd15  1  0.186137  0.188986  0.812438  1
  Ni  Ni16  1  0.822354  0.392549  0.392549  1
  Hg  Hg17  1  0.832813  0.833001  0.833001  1
  Hg  Hg18  1  0.832813  0.833001  0.501186  1
  Hg  Hg19  1  0.832813  0.501186  0.833001  1
  Hg  Hg20  1  0.502369  0.832544  0.832544  1
  Rh  Rh21  1  0.392960  0.392192  0.392192  1
  Rh  Rh22  1  0.392960  0.392192  0.822657  1
  Rh  Rh23  1  0.392960  0.822657  0.392192  1
