# generated using pymatgen
data_HoZr4Bi3F28
_symmetry_space_group_name_H-M   'P 1'
_cell_length_a   5.82920173
_cell_length_b   9.28775942
_cell_length_c   12.43314992
_cell_angle_alpha   62.08161483
_cell_angle_beta   90.01112059
_cell_angle_gamma   89.99881841
_symmetry_Int_Tables_number   1
_chemical_formula_structural   HoZr4Bi3F28
_chemical_formula_sum   'Ho1 Zr4 Bi3 F28'
_cell_volume   594.79114498
_cell_formula_units_Z   1
loop_
 _symmetry_equiv_pos_site_id
 _symmetry_equiv_pos_as_xyz
  1  'x, y, z'
loop_
 _atom_site_type_symbol
 _atom_site_label
 _atom_site_symmetry_multiplicity
 _atom_site_fract_x
 _atom_site_fract_y
 _atom_site_fract_z
 _atom_site_occupancy
  Ho  Ho0  1  0.756144  0.812241  0.765404  1
  Zr  Zr1  1  0.744783  0.270923  0.457595  1
  Zr  Zr2  1  0.243926  0.725316  0.040946  1
  Zr  Zr3  1  0.255418  0.725356  0.548437  1
  Zr  Zr4  1  0.755974  0.278311  0.953558  1
  Bi  Bi5  1  0.742434  0.814771  0.264606  1
  Bi  Bi6  1  0.243068  0.183110  0.235902  1
  Bi  Bi7  1  0.257786  0.177673  0.735950  1
  F  F8  1  0.468440  0.714402  0.918962  1
  F  F9  1  0.962147  0.289225  0.577920  1
  F  F10  1  0.539855  0.290839  0.077011  1
  F  F11  1  0.040472  0.711568  0.424879  1
  F  F12  1  0.454595  0.281481  0.546458  1
  F  F13  1  0.955999  0.721555  0.945861  1
  F  F14  1  0.542035  0.719181  0.454637  1
  F  F15  1  0.044328  0.284124  0.045688  1
  F  F16  1  0.765625  0.527221  0.857538  1
  F  F17  1  0.267318  0.480930  0.642093  1
  F  F18  1  0.231588  0.480877  0.139438  1
  F  F19  1  0.732315  0.517617  0.360132  1
  F  F20  1  0.760109  0.029203  0.056457  1
  F  F21  1  0.260308  0.974498  0.443574  1
  F  F22  1  0.239668  0.974804  0.942589  1
  F  F23  1  0.740126  0.023014  0.562074  1
  F  F24  1  0.986560  0.736781  0.650862  1
  F  F25  1  0.486853  0.266958  0.853719  1
  F  F26  1  0.013801  0.266136  0.354326  1
  F  F27  1  0.511989  0.733777  0.143564  1
  F  F28  1  0.039931  0.746327  0.167802  1
  F  F29  1  0.540472  0.252958  0.329468  1
  F  F30  1  0.960863  0.255000  0.828806  1
  F  F31  1  0.469882  0.748920  0.672284  1
  F  F32  1  0.419119  0.968984  0.232516  1
  F  F33  1  0.917938  0.029271  0.267722  1
  F  F34  1  0.579274  0.020001  0.766495  1
  F  F35  1  0.068856  0.966648  0.734726  1
