# generated using pymatgen
data_Sm3NbIn2Ir3
_symmetry_space_group_name_H-M   'P 1'
_cell_length_a   7.41709114
_cell_length_b   7.14017704
_cell_length_c   4.32368000
_cell_angle_alpha   90.00000000
_cell_angle_beta   90.00000000
_cell_angle_gamma   118.77247964
_symmetry_Int_Tables_number   1
_chemical_formula_structural   Sm3NbIn2Ir3
_chemical_formula_sum   'Sm3 Nb1 In2 Ir3'
_cell_volume   200.70901327
_cell_formula_units_Z   1
loop_
 _symmetry_equiv_pos_site_id
 _symmetry_equiv_pos_as_xyz
  1  'x, y, z'
loop_
 _atom_site_type_symbol
 _atom_site_label
 _atom_site_symmetry_multiplicity
 _atom_site_fract_x
 _atom_site_fract_y
 _atom_site_fract_z
 _atom_site_occupancy
  Sm  Sm0  1  0.586023  0.586039  0.000000  1
  Sm  Sm1  1  0.413977  0.000015  0.000000  1
  Sm  Sm2  1  0.000000  0.403446  0.000000  1
  Nb  Nb3  1  0.000000  0.755555  0.500000  1
  In  In4  1  0.247849  0.248832  0.500000  1
  In  In5  1  0.752151  0.000984  0.500000  1
  Ir  Ir6  1  0.000000  0.959919  0.000000  1
  Ir  Ir7  1  0.690084  0.367647  0.500000  1
  Ir  Ir8  1  0.309916  0.677564  0.500000  1
