# generated using pymatgen
data_TbTm3Co11(Ni3P4)3
_symmetry_space_group_name_H-M   'P 1'
_cell_length_a   3.66373100
_cell_length_b   10.24678578
_cell_length_c   11.79250824
_cell_angle_alpha   89.91836427
_cell_angle_beta   90.00000000
_cell_angle_gamma   90.00000000
_symmetry_Int_Tables_number   1
_chemical_formula_structural   TbTm3Co11(Ni3P4)3
_chemical_formula_sum   'Tb1 Tm3 Co11 Ni9 P12'
_cell_volume   442.70760626
_cell_formula_units_Z   1
loop_
 _symmetry_equiv_pos_site_id
 _symmetry_equiv_pos_as_xyz
  1  'x, y, z'
loop_
 _atom_site_type_symbol
 _atom_site_label
 _atom_site_symmetry_multiplicity
 _atom_site_fract_x
 _atom_site_fract_y
 _atom_site_fract_z
 _atom_site_occupancy
  Tb  Tb0  1  0.750000  0.418429  0.296016  1
  Tm  Tm1  1  0.250000  0.581636  0.703406  1
  Tm  Tm2  1  0.250000  0.918676  0.204594  1
  Tm  Tm3  1  0.750000  0.081124  0.796601  1
  Co  Co4  1  0.250000  0.277183  0.675986  1
  Co  Co5  1  0.750000  0.777915  0.824068  1
  Co  Co6  1  0.750000  0.723156  0.324053  1
  Co  Co7  1  0.250000  0.880860  0.698795  1
  Co  Co8  1  0.250000  0.621332  0.197012  1
  Co  Co9  1  0.750000  0.118310  0.302230  1
  Co  Co10  1  0.750000  0.381067  0.800896  1
  Co  Co11  1  0.250000  0.466404  0.930977  1
  Co  Co12  1  0.250000  0.031453  0.433434  1
  Co  Co13  1  0.750000  0.534291  0.065765  1
  Co  Co14  1  0.750000  0.966739  0.568492  1
  Ni  Ni15  1  0.250000  0.712519  0.988214  1
  Ni  Ni16  1  0.250000  0.786286  0.491376  1
  Ni  Ni17  1  0.750000  0.284475  0.008332  1
  Ni  Ni18  1  0.750000  0.213187  0.510797  1
  Ni  Ni19  1  0.250000  0.409955  0.486082  1
  Ni  Ni20  1  0.250000  0.091411  0.985208  1
  Ni  Ni21  1  0.750000  0.592415  0.516095  1
  Ni  Ni22  1  0.750000  0.907686  0.015580  1
  Ni  Ni23  1  0.250000  0.222851  0.176088  1
  P  P24  1  0.250000  0.424199  0.111611  1
  P  P25  1  0.250000  0.079118  0.614319  1
  P  P26  1  0.750000  0.579410  0.884721  1
  P  P27  1  0.750000  0.920094  0.387059  1
  P  P28  1  0.250000  0.270141  0.864860  1
  P  P29  1  0.250000  0.227523  0.368967  1
  P  P30  1  0.750000  0.730195  0.134881  1
  P  P31  1  0.750000  0.770672  0.634900  1
  P  P32  1  0.250000  0.606635  0.387538  1
  P  P33  1  0.250000  0.895421  0.887379  1
  P  P34  1  0.750000  0.395861  0.612200  1
  P  P35  1  0.750000  0.101372  0.111467  1
