# generated using pymatgen
data_Hf5ZrPaPt10
_symmetry_space_group_name_H-M   'P 1'
_cell_length_a   8.25041757
_cell_length_b   8.25041887
_cell_length_c   9.67050923
_cell_angle_alpha   90.23953562
_cell_angle_beta   90.23953518
_cell_angle_gamma   107.78887680
_symmetry_Int_Tables_number   1
_chemical_formula_structural   Hf5ZrPaPt10
_chemical_formula_sum   'Hf10 Zr2 Pa2 Pt20'
_cell_volume   626.77746588
_cell_formula_units_Z   2
loop_
 _symmetry_equiv_pos_site_id
 _symmetry_equiv_pos_as_xyz
  1  'x, y, z'
loop_
 _atom_site_type_symbol
 _atom_site_label
 _atom_site_symmetry_multiplicity
 _atom_site_fract_x
 _atom_site_fract_y
 _atom_site_fract_z
 _atom_site_occupancy
  Hf  Hf0  1  0.693958  0.306042  0.000000  1
  Hf  Hf1  1  0.306042  0.693958  0.000000  1
  Hf  Hf2  1  0.809476  0.190524  0.500000  1
  Hf  Hf3  1  0.190524  0.809476  0.500000  1
  Hf  Hf4  1  0.000000  0.000000  0.000000  1
  Hf  Hf5  1  0.500000  0.500000  0.500000  1
  Hf  Hf6  1  0.996838  0.506306  0.251914  1
  Hf  Hf7  1  0.003162  0.493694  0.748086  1
  Hf  Hf8  1  0.493694  0.003162  0.748086  1
  Hf  Hf9  1  0.506306  0.996838  0.251914  1
  Zr  Zr10  1  0.184307  0.184307  0.686869  1
  Zr  Zr11  1  0.815693  0.815693  0.313131  1
  Pa  Pa12  1  0.312669  0.312669  0.186279  1
  Pa  Pa13  1  0.687331  0.687331  0.813721  1
  Pt  Pt14  1  0.855760  0.148419  0.209544  1
  Pt  Pt15  1  0.144240  0.851581  0.790456  1
  Pt  Pt16  1  0.648545  0.352776  0.706961  1
  Pt  Pt17  1  0.647224  0.351455  0.293039  1
  Pt  Pt18  1  0.351455  0.647224  0.293039  1
  Pt  Pt19  1  0.352776  0.648545  0.706961  1
  Pt  Pt20  1  0.851581  0.144240  0.790456  1
  Pt  Pt21  1  0.148419  0.855760  0.209544  1
  Pt  Pt22  1  0.937641  0.643287  0.999967  1
  Pt  Pt23  1  0.062359  0.356713  0.000033  1
  Pt  Pt24  1  0.564573  0.856371  0.502250  1
  Pt  Pt25  1  0.143629  0.435427  0.497750  1
  Pt  Pt26  1  0.435427  0.143629  0.497750  1
  Pt  Pt27  1  0.856371  0.564573  0.502250  1
  Pt  Pt28  1  0.356713  0.062359  0.000033  1
  Pt  Pt29  1  0.643287  0.937641  0.999967  1
  Pt  Pt30  1  0.106389  0.106389  0.395382  1
  Pt  Pt31  1  0.893611  0.893611  0.604618  1
  Pt  Pt32  1  0.393965  0.393965  0.892694  1
  Pt  Pt33  1  0.606035  0.606035  0.107306  1
