# generated using pymatgen
data_Nd3Th(Ni7P4)2
_symmetry_space_group_name_H-M   'P 1'
_cell_length_a   3.77910400
_cell_length_b   9.24928595
_cell_length_c   10.42751284
_cell_angle_alpha   89.98579653
_cell_angle_beta   90.00000000
_cell_angle_gamma   90.00000000
_symmetry_Int_Tables_number   1
_chemical_formula_structural   Nd3Th(Ni7P4)2
_chemical_formula_sum   'Nd3 Th1 Ni14 P8'
_cell_volume   364.48341367
_cell_formula_units_Z   1
loop_
 _symmetry_equiv_pos_site_id
 _symmetry_equiv_pos_as_xyz
  1  'x, y, z'
loop_
 _atom_site_type_symbol
 _atom_site_label
 _atom_site_symmetry_multiplicity
 _atom_site_fract_x
 _atom_site_fract_y
 _atom_site_fract_z
 _atom_site_occupancy
  Nd  Nd0  1  0.500000  0.058867  0.282397  1
  Nd  Nd1  1  0.000000  0.940617  0.782315  1
  Nd  Nd2  1  0.000000  0.563896  0.001226  1
  Th  Th3  1  0.500000  0.437830  0.500883  1
  Ni  Ni4  1  0.500000  0.304048  0.074373  1
  Ni  Ni5  1  0.500000  0.744167  0.402701  1
  Ni  Ni6  1  0.500000  0.418061  0.803658  1
  Ni  Ni7  1  0.500000  0.059504  0.980156  1
  Ni  Ni8  1  0.500000  0.683745  0.760574  1
  Ni  Ni9  1  0.000000  0.278479  0.669953  1
  Ni  Ni10  1  0.000000  0.253939  0.901570  1
  Ni  Ni11  1  0.000000  0.692045  0.569937  1
  Ni  Ni12  1  0.500000  0.098730  0.585666  1
  Ni  Ni13  1  0.000000  0.316670  0.263284  1
  Ni  Ni14  1  0.000000  0.581233  0.308768  1
  Ni  Ni15  1  0.000000  0.901804  0.085066  1
  Ni  Ni16  1  0.000000  0.938869  0.479495  1
  Ni  Ni17  1  0.500000  0.724916  0.171269  1
  P  P18  1  0.000000  0.815850  0.288081  1
  P  P19  1  0.000000  0.185243  0.470164  1
  P  P20  1  0.500000  0.183483  0.789467  1
  P  P21  1  0.000000  0.156252  0.088816  1
  P  P22  1  0.500000  0.476322  0.216606  1
  P  P23  1  0.500000  0.813863  0.970493  1
  P  P24  1  0.500000  0.845317  0.588967  1
  P  P25  1  0.000000  0.526252  0.719516  1
