# generated using pymatgen
data_Ac2HoPa3N8
_symmetry_space_group_name_H-M   'P 1'
_cell_length_a   7.17129133
_cell_length_b   7.17117937
_cell_length_c   7.06081626
_cell_angle_alpha   120.51377004
_cell_angle_beta   90.00720371
_cell_angle_gamma   119.99592859
_symmetry_Int_Tables_number   1
_chemical_formula_structural   Ac2HoPa3N8
_chemical_formula_sum   'Ac2 Ho1 Pa3 N8'
_cell_volume   254.74769196
_cell_formula_units_Z   1
loop_
 _symmetry_equiv_pos_site_id
 _symmetry_equiv_pos_as_xyz
  1  'x, y, z'
loop_
 _atom_site_type_symbol
 _atom_site_label
 _atom_site_symmetry_multiplicity
 _atom_site_fract_x
 _atom_site_fract_y
 _atom_site_fract_z
 _atom_site_occupancy
  Ac  Ac0  1  0.996238  0.992479  0.988739  1
  Ac  Ac1  1  0.753763  0.507521  0.261261  1
  Ho  Ho2  1  0.375000  0.750000  0.125000  1
  Pa  Pa3  1  0.375000  0.750000  0.624999  1
  Pa  Pa4  1  0.375000  0.249999  0.624999  1
  Pa  Pa5  1  0.874999  0.249999  0.625000  1
  N  N6  1  0.612463  0.224984  0.410197  1
  N  N7  1  0.185225  0.797738  0.410201  1
  N  N8  1  0.612513  0.797739  0.410257  1
  N  N9  1  0.145015  0.290088  0.435102  1
  N  N10  1  0.604984  0.209913  0.814898  1
  N  N11  1  0.137487  0.702260  0.839741  1
  N  N12  1  0.137538  0.275017  0.839803  1
  N  N13  1  0.564775  0.702261  0.839799  1
