# generated using pymatgen
data_Ta2MnSi2Pd
_symmetry_space_group_name_H-M   'P 1'
_cell_length_a   3.66929900
_cell_length_b   6.38904364
_cell_length_c   7.45642326
_cell_angle_alpha   89.17327063
_cell_angle_beta   90.00000000
_cell_angle_gamma   90.00000000
_symmetry_Int_Tables_number   1
_chemical_formula_structural   Ta2MnSi2Pd
_chemical_formula_sum   'Ta4 Mn2 Si4 Pd2'
_cell_volume   174.78505597
_cell_formula_units_Z   2
loop_
 _symmetry_equiv_pos_site_id
 _symmetry_equiv_pos_as_xyz
  1  'x, y, z'
loop_
 _atom_site_type_symbol
 _atom_site_label
 _atom_site_symmetry_multiplicity
 _atom_site_fract_x
 _atom_site_fract_y
 _atom_site_fract_z
 _atom_site_occupancy
  Ta  Ta0  1  0.250000  0.522401  0.182293  1
  Ta  Ta1  1  0.750000  0.477599  0.817707  1
  Ta  Ta2  1  0.750000  0.967032  0.659607  1
  Ta  Ta3  1  0.250000  0.032968  0.340393  1
  Mn  Mn4  1  0.250000  0.638330  0.561500  1
  Mn  Mn5  1  0.750000  0.361670  0.438500  1
  Si  Si6  1  0.250000  0.762256  0.864003  1
  Si  Si7  1  0.750000  0.237744  0.135997  1
  Si  Si8  1  0.750000  0.727821  0.377673  1
  Si  Si9  1  0.250000  0.272179  0.622327  1
  Pd  Pd10  1  0.750000  0.850850  0.065363  1
  Pd  Pd11  1  0.250000  0.149150  0.934637  1
