# generated using pymatgen
data_Ti14Nb2As7Se5
_symmetry_space_group_name_H-M   'P 1'
_cell_length_a   7.42747916
_cell_length_b   7.42747923
_cell_length_c   18.86137900
_cell_angle_alpha   89.99938668
_cell_angle_beta   90.00061288
_cell_angle_gamma   152.68368741
_symmetry_Int_Tables_number   1
_chemical_formula_structural   Ti14Nb2As7Se5
_chemical_formula_sum   'Ti14 Nb2 As7 Se5'
_cell_volume   477.50374770
_cell_formula_units_Z   1
loop_
 _symmetry_equiv_pos_site_id
 _symmetry_equiv_pos_as_xyz
  1  'x, y, z'
loop_
 _atom_site_type_symbol
 _atom_site_label
 _atom_site_symmetry_multiplicity
 _atom_site_fract_x
 _atom_site_fract_y
 _atom_site_fract_z
 _atom_site_occupancy
  Ti  Ti0  1  0.733980  0.266020  0.158181  1
  Ti  Ti1  1  0.265900  0.734100  0.841662  1
  Ti  Ti2  1  0.266004  0.733996  0.658739  1
  Ti  Ti3  1  0.734228  0.265772  0.341248  1
  Ti  Ti4  1  0.534597  0.465403  0.116913  1
  Ti  Ti5  1  0.465955  0.534045  0.883065  1
  Ti  Ti6  1  0.465940  0.534060  0.617006  1
  Ti  Ti7  1  0.533985  0.466015  0.382656  1
  Ti  Ti8  1  0.667329  0.332671  0.971559  1
  Ti  Ti9  1  0.332350  0.667650  0.028343  1
  Ti  Ti10  1  0.333244  0.666756  0.470670  1
  Ti  Ti11  1  0.666572  0.333428  0.528971  1
  Ti  Ti12  1  0.057905  0.942095  0.750297  1
  Ti  Ti13  1  0.942446  0.057554  0.249956  1
  Nb  Nb14  1  0.999930  0.000070  0.000280  1
  Nb  Nb15  1  0.000064  0.999936  0.499973  1
  As  As16  1  0.098998  0.901002  0.882086  1
  As  As17  1  0.099126  0.900874  0.618398  1
  As  As18  1  0.901039  0.098961  0.381614  1
  As  As19  1  0.840088  0.159912  0.925056  1
  As  As20  1  0.159597  0.840403  0.075052  1
  As  As21  1  0.160123  0.839877  0.425026  1
  As  As22  1  0.839742  0.160258  0.574793  1
  Se  Se23  1  0.900913  0.099087  0.118425  1
  Se  Se24  1  0.699750  0.300250  0.750200  1
  Se  Se25  1  0.299907  0.700093  0.249910  1
  Se  Se26  1  0.421911  0.578089  0.750007  1
  Se  Se27  1  0.578376  0.421624  0.249913  1
