# generated using pymatgen
data_CeErTm2CdIr
_symmetry_space_group_name_H-M   'P 1'
_cell_length_a   9.61068940
_cell_length_b   9.60813880
_cell_length_c   9.60813934
_cell_angle_alpha   60.01755887
_cell_angle_beta   59.99122082
_cell_angle_gamma   59.99121573
_symmetry_Int_Tables_number   1
_chemical_formula_structural   CeErTm2CdIr
_chemical_formula_sum   'Ce4 Er4 Tm8 Cd4 Ir4'
_cell_volume   627.36173913
_cell_formula_units_Z   4
loop_
 _symmetry_equiv_pos_site_id
 _symmetry_equiv_pos_as_xyz
  1  'x, y, z'
loop_
 _atom_site_type_symbol
 _atom_site_label
 _atom_site_symmetry_multiplicity
 _atom_site_fract_x
 _atom_site_fract_y
 _atom_site_fract_z
 _atom_site_occupancy
  Ce  Ce0  1  0.599776  0.599769  0.599769  1
  Ce  Ce1  1  0.599769  0.599776  0.200686  1
  Ce  Ce2  1  0.599769  0.200686  0.599776  1
  Ce  Ce3  1  0.200686  0.599769  0.599769  1
  Er  Er4  1  0.812894  0.187106  0.812894  1
  Er  Er5  1  0.187106  0.812894  0.187106  1
  Er  Er6  1  0.812894  0.812894  0.187106  1
  Er  Er7  1  0.187106  0.187106  0.812894  1
  Tm  Tm8  1  0.062078  0.437922  0.437922  1
  Tm  Tm9  1  0.437922  0.062078  0.062078  1
  Tm  Tm10  1  0.437952  0.062048  0.437952  1
  Tm  Tm11  1  0.062048  0.437952  0.062048  1
  Tm  Tm12  1  0.437952  0.437952  0.062048  1
  Tm  Tm13  1  0.062048  0.062048  0.437952  1
  Tm  Tm14  1  0.187494  0.812506  0.812506  1
  Tm  Tm15  1  0.812506  0.187494  0.187494  1
  Cd  Cd16  1  0.832411  0.832141  0.832141  1
  Cd  Cd17  1  0.832141  0.832411  0.503307  1
  Cd  Cd18  1  0.832141  0.503307  0.832411  1
  Cd  Cd19  1  0.503307  0.832141  0.832141  1
  Ir  Ir20  1  0.392803  0.392415  0.392415  1
  Ir  Ir21  1  0.392415  0.392803  0.822366  1
  Ir  Ir22  1  0.392415  0.822366  0.392803  1
  Ir  Ir23  1  0.822366  0.392415  0.392415  1
