# generated using pymatgen
data_Na3Nb2Ag3Se8
_symmetry_space_group_name_H-M   'P 1'
_cell_length_a   12.84620155
_cell_length_b   12.84620217
_cell_length_c   13.37109267
_cell_angle_alpha   66.91905050
_cell_angle_beta   66.91904900
_cell_angle_gamma   27.48644164
_symmetry_Int_Tables_number   1
_chemical_formula_structural   Na3Nb2Ag3Se8
_chemical_formula_sum   'Na6 Nb4 Ag6 Se16'
_cell_volume   931.78982427
_cell_formula_units_Z   2
loop_
 _symmetry_equiv_pos_site_id
 _symmetry_equiv_pos_as_xyz
  1  'x, y, z'
loop_
 _atom_site_type_symbol
 _atom_site_label
 _atom_site_symmetry_multiplicity
 _atom_site_fract_x
 _atom_site_fract_y
 _atom_site_fract_z
 _atom_site_occupancy
  Na  Na0  1  0.562409  0.848531  0.382285  1
  Na  Na1  1  0.437591  0.151469  0.617715  1
  Na  Na2  1  0.848531  0.562409  0.882285  1
  Na  Na3  1  0.000000  0.000000  0.500000  1
  Na  Na4  1  0.151469  0.437591  0.117715  1
  Na  Na5  1  0.000000  0.000000  0.000000  1
  Nb  Nb6  1  0.167372  0.573869  0.786741  1
  Nb  Nb7  1  0.832628  0.426131  0.213259  1
  Nb  Nb8  1  0.573869  0.167372  0.286741  1
  Nb  Nb9  1  0.426131  0.832628  0.713259  1
  Ag  Ag10  1  0.293711  0.706289  0.750000  1
  Ag  Ag11  1  0.706289  0.293711  0.250000  1
  Ag  Ag12  1  0.667197  0.071750  0.786903  1
  Ag  Ag13  1  0.928250  0.332803  0.713097  1
  Ag  Ag14  1  0.332803  0.928250  0.213097  1
  Ag  Ag15  1  0.071750  0.667197  0.286903  1
  Se  Se16  1  0.534433  0.573590  0.354551  1
  Se  Se17  1  0.093074  0.254207  0.313558  1
  Se  Se18  1  0.274749  0.307777  0.413841  1
  Se  Se19  1  0.984622  0.835567  0.895714  1
  Se  Se20  1  0.015378  0.164433  0.104286  1
  Se  Se21  1  0.426410  0.465567  0.145449  1
  Se  Se22  1  0.835567  0.984622  0.395714  1
  Se  Se23  1  0.465567  0.426410  0.645449  1
  Se  Se24  1  0.164433  0.015378  0.604286  1
  Se  Se25  1  0.307777  0.274749  0.913841  1
  Se  Se26  1  0.692223  0.725251  0.086159  1
  Se  Se27  1  0.725251  0.692223  0.586159  1
  Se  Se28  1  0.745793  0.906926  0.186442  1
  Se  Se29  1  0.906926  0.745793  0.686442  1
  Se  Se30  1  0.573590  0.534433  0.854551  1
  Se  Se31  1  0.254207  0.093074  0.813558  1
