# generated using pymatgen
data_Pr4PtAu3
_symmetry_space_group_name_H-M   'P 1'
_cell_length_a   4.80847300
_cell_length_b   5.89131366
_cell_length_c   7.50126755
_cell_angle_alpha   90.64963237
_cell_angle_beta   90.00000000
_cell_angle_gamma   90.00000000
_symmetry_Int_Tables_number   1
_chemical_formula_structural   Pr4PtAu3
_chemical_formula_sum   'Pr4 Pt1 Au3'
_cell_volume   212.48391884
_cell_formula_units_Z   1
loop_
 _symmetry_equiv_pos_site_id
 _symmetry_equiv_pos_as_xyz
  1  'x, y, z'
loop_
 _atom_site_type_symbol
 _atom_site_label
 _atom_site_symmetry_multiplicity
 _atom_site_fract_x
 _atom_site_fract_y
 _atom_site_fract_z
 _atom_site_occupancy
  Pr  Pr0  1  0.250000  0.358727  0.693255  1
  Pr  Pr1  1  0.250000  0.145889  0.176180  1
  Pr  Pr2  1  0.750000  0.636188  0.311556  1
  Pr  Pr3  1  0.750000  0.863538  0.819899  1
  Pt  Pt4  1  0.750000  0.347862  0.957902  1
  Au  Au5  1  0.250000  0.852512  0.540371  1
  Au  Au6  1  0.250000  0.649478  0.042769  1
  Au  Au7  1  0.750000  0.145806  0.458067  1
