# generated using pymatgen
data_Tb2Ho2Sb6Ru2Rh5
_symmetry_space_group_name_H-M   'P 1'
_cell_length_a   7.60039352
_cell_length_b   7.60039507
_cell_length_c   7.59226745
_cell_angle_alpha   109.27216423
_cell_angle_beta   109.56733388
_cell_angle_gamma   109.61759055
_symmetry_Int_Tables_number   1
_chemical_formula_structural   Tb2Ho2Sb6Ru2Rh5
_chemical_formula_sum   'Tb2 Ho2 Sb6 Ru2 Rh5'
_cell_volume   337.43134698
_cell_formula_units_Z   1
loop_
 _symmetry_equiv_pos_site_id
 _symmetry_equiv_pos_as_xyz
  1  'x, y, z'
loop_
 _atom_site_type_symbol
 _atom_site_label
 _atom_site_symmetry_multiplicity
 _atom_site_fract_x
 _atom_site_fract_y
 _atom_site_fract_z
 _atom_site_occupancy
  Tb  Tb0  1  0.998282  0.999139  0.499142  1
  Tb  Tb1  1  0.500003  0.500862  0.499142  1
  Ho  Ho2  1  0.500006  0.999058  0.000938  1
  Ho  Ho3  1  0.001879  0.500932  0.000938  1
  Sb  Sb4  1  0.999530  0.315002  0.314532  1
  Sb  Sb5  1  0.684466  0.999410  0.683876  1
  Sb  Sb6  1  0.684455  0.685540  0.001044  1
  Sb  Sb7  1  0.000460  0.684996  0.685455  1
  Sb  Sb8  1  0.315514  0.998465  0.313979  1
  Sb  Sb9  1  0.315504  0.316589  0.001044  1
  Ru  Ru10  1  0.999985  0.000004  0.999989  1
  Ru  Ru11  1  0.499430  0.749997  0.249427  1
  Rh  Rh12  1  0.750663  0.499450  0.250112  1
  Rh  Rh13  1  0.249330  0.749374  0.500027  1
  Rh  Rh14  1  0.249333  0.500474  0.749807  1
  Rh  Rh15  1  0.500508  0.250010  0.750518  1
  Rh  Rh16  1  0.750654  0.250698  0.500027  1
