# generated using pymatgen
data_TbY2In3CuRh2
_symmetry_space_group_name_H-M   'P 1'
_cell_length_a   7.53927700
_cell_length_b   7.49560106
_cell_length_c   3.95281300
_cell_angle_alpha   90.00000000
_cell_angle_beta   90.00000000
_cell_angle_gamma   120.19293499
_symmetry_Int_Tables_number   1
_chemical_formula_structural   TbY2In3CuRh2
_chemical_formula_sum   'Tb1 Y2 In3 Cu1 Rh2'
_cell_volume   193.07473532
_cell_formula_units_Z   1
loop_
 _symmetry_equiv_pos_site_id
 _symmetry_equiv_pos_as_xyz
  1  'x, y, z'
loop_
 _atom_site_type_symbol
 _atom_site_label
 _atom_site_symmetry_multiplicity
 _atom_site_fract_x
 _atom_site_fract_y
 _atom_site_fract_z
 _atom_site_occupancy
  Tb  Tb0  1  0.413908  0.000000  0.500000  1
  Y  Y1  1  0.999982  0.412534  0.500000  1
  Y  Y2  1  0.587448  0.587466  0.500000  1
  In  In3  1  0.750588  0.000000  0.000000  1
  In  In4  1  0.998408  0.748049  0.000000  1
  In  In5  1  0.250359  0.251951  0.000000  1
  Cu  Cu6  1  0.001189  0.000000  0.500000  1
  Rh  Rh7  1  0.333801  0.669485  0.000000  1
  Rh  Rh8  1  0.664317  0.330515  0.000000  1
