# generated using pymatgen
data_Ba6ZrMo3O14
_symmetry_space_group_name_H-M   'P 1'
_cell_length_a   11.32291260
_cell_length_b   11.32291373
_cell_length_c   5.90872000
_cell_angle_alpha   90.00000000
_cell_angle_beta   90.00000000
_cell_angle_gamma   149.61894988
_symmetry_Int_Tables_number   1
_chemical_formula_structural   Ba6ZrMo3O14
_chemical_formula_sum   'Ba6 Zr1 Mo3 O14'
_cell_volume   383.12839645
_cell_formula_units_Z   1
loop_
 _symmetry_equiv_pos_site_id
 _symmetry_equiv_pos_as_xyz
  1  'x, y, z'
loop_
 _atom_site_type_symbol
 _atom_site_label
 _atom_site_symmetry_multiplicity
 _atom_site_fract_x
 _atom_site_fract_y
 _atom_site_fract_z
 _atom_site_occupancy
  Ba  Ba0  1  0.500233  0.499767  0.000000  1
  Ba  Ba1  1  0.999557  0.000443  0.500000  1
  Ba  Ba2  1  0.684954  0.315046  0.000000  1
  Ba  Ba3  1  0.184877  0.815123  0.500000  1
  Ba  Ba4  1  0.814777  0.185223  0.500000  1
  Ba  Ba5  1  0.314975  0.685025  0.000000  1
  Zr  Zr6  1  0.403491  0.596509  0.500000  1
  Mo  Mo7  1  0.903346  0.096654  0.000000  1
  Mo  Mo8  1  0.096245  0.903755  0.000000  1
  Mo  Mo9  1  0.597190  0.402810  0.500000  1
  O  O10  1  0.653603  0.845818  0.754698  1
  O  O11  1  0.154182  0.346397  0.245302  1
  O  O12  1  0.154182  0.346397  0.754698  1
  O  O13  1  0.653603  0.845818  0.245302  1
  O  O14  1  0.844956  0.652699  0.746231  1
  O  O15  1  0.347301  0.155044  0.253769  1
  O  O16  1  0.347301  0.155044  0.746231  1
  O  O17  1  0.844956  0.652699  0.253769  1
  O  O18  1  0.809997  0.190003  0.000000  1
  O  O19  1  0.306101  0.693899  0.500000  1
  O  O20  1  0.694634  0.305366  0.500000  1
  O  O21  1  0.189112  0.810888  0.000000  1
  O  O22  1  0.499930  0.500070  0.500000  1
  O  O23  1  0.000499  0.999501  0.000000  1
