# generated using pymatgen
data_RbTbDyYF10
_symmetry_space_group_name_H-M   'P 1'
_cell_length_a   8.31289008
_cell_length_b   8.31548560
_cell_length_c   8.30274641
_cell_angle_alpha   60.02969321
_cell_angle_beta   60.06068087
_cell_angle_gamma   59.90897016
_symmetry_Int_Tables_number   1
_chemical_formula_structural   RbTbDyYF10
_chemical_formula_sum   'Rb2 Tb2 Dy2 Y2 F20'
_cell_volume   405.82853287
_cell_formula_units_Z   2
loop_
 _symmetry_equiv_pos_site_id
 _symmetry_equiv_pos_as_xyz
  1  'x, y, z'
loop_
 _atom_site_type_symbol
 _atom_site_label
 _atom_site_symmetry_multiplicity
 _atom_site_fract_x
 _atom_site_fract_y
 _atom_site_fract_z
 _atom_site_occupancy
  Rb  Rb0  1  0.250002  0.249998  0.250000  1
  Rb  Rb1  1  0.749998  0.750002  0.750000  1
  Tb  Tb2  1  0.240466  0.240466  0.759535  1
  Tb  Tb3  1  0.759534  0.759534  0.240465  1
  Dy  Dy4  1  0.240426  0.759573  0.240426  1
  Dy  Dy5  1  0.759574  0.240427  0.759574  1
  Y  Y6  1  0.759479  0.240521  0.240521  1
  Y  Y7  1  0.240521  0.759479  0.759479  1
  F  F8  1  0.829590  0.498961  0.501040  1
  F  F9  1  0.170410  0.501039  0.498960  1
  F  F10  1  0.498959  0.829591  0.170410  1
  F  F11  1  0.501041  0.170409  0.829590  1
  F  F12  1  0.499628  0.829900  0.500372  1
  F  F13  1  0.170101  0.500372  0.829900  1
  F  F14  1  0.500372  0.170100  0.499628  1
  F  F15  1  0.829899  0.499628  0.170100  1
  F  F16  1  0.500640  0.499356  0.829122  1
  F  F17  1  0.499360  0.500644  0.170878  1
  F  F18  1  0.170877  0.829122  0.499359  1
  F  F19  1  0.829123  0.170878  0.500641  1
  F  F20  1  0.110554  0.109832  0.111175  1
  F  F21  1  0.889446  0.890168  0.888825  1
  F  F22  1  0.109830  0.110555  0.668441  1
  F  F23  1  0.111175  0.668440  0.110554  1
  F  F24  1  0.890170  0.889445  0.331559  1
  F  F25  1  0.888825  0.331560  0.889446  1
  F  F26  1  0.668442  0.111174  0.109830  1
  F  F27  1  0.331558  0.888826  0.890170  1
