# generated using pymatgen
data_Na3Pr8In3Au20
_symmetry_space_group_name_H-M   'P 1'
_cell_length_a   8.81266792
_cell_length_b   8.81266931
_cell_length_c   10.36528400
_cell_angle_alpha   90.09423313
_cell_angle_beta   89.90576686
_cell_angle_gamma   108.67949035
_symmetry_Int_Tables_number   1
_chemical_formula_structural   Na3Pr8In3Au20
_chemical_formula_sum   'Na3 Pr8 In3 Au20'
_cell_volume   762.59540892
_cell_formula_units_Z   1
loop_
 _symmetry_equiv_pos_site_id
 _symmetry_equiv_pos_as_xyz
  1  'x, y, z'
loop_
 _atom_site_type_symbol
 _atom_site_label
 _atom_site_symmetry_multiplicity
 _atom_site_fract_x
 _atom_site_fract_y
 _atom_site_fract_z
 _atom_site_occupancy
  Na  Na0  1  0.515865  0.015860  0.249999  1
  Na  Na1  1  0.001230  0.001648  0.001367  1
  Na  Na2  1  0.501643  0.501226  0.498632  1
  Pr  Pr3  1  0.702248  0.300527  0.998250  1
  Pr  Pr4  1  0.199661  0.799759  0.500589  1
  Pr  Pr5  1  0.803710  0.803326  0.296059  1
  Pr  Pr6  1  0.303320  0.303696  0.203930  1
  Pr  Pr7  1  0.800520  0.202261  0.501738  1
  Pr  Pr8  1  0.299762  0.699661  0.999406  1
  Pr  Pr9  1  0.698796  0.698817  0.794719  1
  Pr  Pr10  1  0.198812  0.198787  0.705302  1
  In  In11  1  0.982461  0.482460  0.750001  1
  In  In12  1  0.019409  0.519410  0.250000  1
  In  In13  1  0.480440  0.980440  0.750001  1
  Au  Au14  1  0.154752  0.431192  0.481261  1
  Au  Au15  1  0.902472  0.903244  0.593536  1
  Au  Au16  1  0.566803  0.844806  0.516924  1
  Au  Au17  1  0.883220  0.166474  0.208231  1
  Au  Au18  1  0.387036  0.663636  0.291848  1
  Au  Au19  1  0.666472  0.383218  0.291759  1
  Au  Au20  1  0.403242  0.402474  0.906472  1
  Au  Au21  1  0.931185  0.654752  0.018739  1
  Au  Au22  1  0.333261  0.608739  0.708466  1
  Au  Au23  1  0.344807  0.066803  0.983079  1
  Au  Au24  1  0.596520  0.597586  0.094833  1
  Au  Au25  1  0.659365  0.932632  0.020036  1
  Au  Au26  1  0.097589  0.096525  0.405160  1
  Au  Au27  1  0.611392  0.333633  0.708555  1
  Au  Au28  1  0.108737  0.833260  0.791535  1
  Au  Au29  1  0.070183  0.345185  0.978333  1
  Au  Au30  1  0.845186  0.570183  0.521668  1
  Au  Au31  1  0.163639  0.887030  0.208148  1
  Au  Au32  1  0.432635  0.159365  0.479971  1
  Au  Au33  1  0.833629  0.111386  0.791448  1
