# generated using pymatgen
data_Nd2Cu2Hg
_symmetry_space_group_name_H-M   'P 1'
_cell_length_a   7.56710760
_cell_length_b   7.56710747
_cell_length_c   3.71614000
_cell_angle_alpha   90.00000000
_cell_angle_beta   90.00000000
_cell_angle_gamma   147.16135236
_symmetry_Int_Tables_number   1
_chemical_formula_structural   Nd2Cu2Hg
_chemical_formula_sum   'Nd2 Cu2 Hg1'
_cell_volume   115.39088920
_cell_formula_units_Z   1
loop_
 _symmetry_equiv_pos_site_id
 _symmetry_equiv_pos_as_xyz
  1  'x, y, z'
loop_
 _atom_site_type_symbol
 _atom_site_label
 _atom_site_symmetry_multiplicity
 _atom_site_fract_x
 _atom_site_fract_y
 _atom_site_fract_z
 _atom_site_occupancy
  Nd  Nd0  1  0.369250  0.630750  0.000000  1
  Nd  Nd1  1  0.630750  0.369250  0.000000  1
  Cu  Cu2  1  0.203021  0.796979  0.500000  1
  Cu  Cu3  1  0.796979  0.203021  0.500000  1
  Hg  Hg4  1  0.000000  0.000000  0.500000  1
