# generated using pymatgen
data_CaLa4Yb7Ru4
_symmetry_space_group_name_H-M   'P 1'
_cell_length_a   6.55177542
_cell_length_b   7.53886736
_cell_length_c   9.69596819
_cell_angle_alpha   90.00195967
_cell_angle_beta   89.91434181
_cell_angle_gamma   89.81114292
_symmetry_Int_Tables_number   1
_chemical_formula_structural   CaLa4Yb7Ru4
_chemical_formula_sum   'Ca1 La4 Yb7 Ru4'
_cell_volume   478.90948886
_cell_formula_units_Z   1
loop_
 _symmetry_equiv_pos_site_id
 _symmetry_equiv_pos_as_xyz
  1  'x, y, z'
loop_
 _atom_site_type_symbol
 _atom_site_label
 _atom_site_symmetry_multiplicity
 _atom_site_fract_x
 _atom_site_fract_y
 _atom_site_fract_z
 _atom_site_occupancy
  Ca  Ca0  1  0.162189  0.171793  0.068180  1
  La  La1  1  0.859878  0.559878  0.251353  1
  La  La2  1  0.638877  0.059348  0.251448  1
  La  La3  1  0.135156  0.440318  0.748439  1
  La  La4  1  0.364654  0.939979  0.749151  1
  Yb  Yb5  1  0.337822  0.669119  0.069509  1
  Yb  Yb6  1  0.161397  0.169804  0.430618  1
  Yb  Yb7  1  0.660234  0.329885  0.569867  1
  Yb  Yb8  1  0.838691  0.829575  0.930616  1
  Yb  Yb9  1  0.661856  0.330374  0.929856  1
  Yb  Yb10  1  0.839885  0.829859  0.570128  1
  Yb  Yb11  1  0.338751  0.670025  0.430026  1
  Ru  Ru12  1  0.007551  0.858076  0.251428  1
  Ru  Ru13  1  0.493976  0.362101  0.252274  1
  Ru  Ru14  1  0.987663  0.140054  0.747951  1
  Ru  Ru15  1  0.511422  0.639813  0.749155  1
