# generated using pymatgen
data_K3Pr(SbAu)4
_symmetry_space_group_name_H-M   'P 1'
_cell_length_a   4.67427700
_cell_length_b   4.67427671
_cell_length_c   20.04503100
_cell_angle_alpha   90.00000000
_cell_angle_beta   90.00000000
_cell_angle_gamma   120.00000915
_symmetry_Int_Tables_number   1
_chemical_formula_structural   K3Pr(SbAu)4
_chemical_formula_sum   'K3 Pr1 Sb4 Au4'
_cell_volume   379.28545402
_cell_formula_units_Z   1
loop_
 _symmetry_equiv_pos_site_id
 _symmetry_equiv_pos_as_xyz
  1  'x, y, z'
loop_
 _atom_site_type_symbol
 _atom_site_label
 _atom_site_symmetry_multiplicity
 _atom_site_fract_x
 _atom_site_fract_y
 _atom_site_fract_z
 _atom_site_occupancy
  K  K0  1  0.000000  0.000000  0.500000  1
  K  K1  1  0.000000  0.000000  0.239750  1
  K  K2  1  0.000000  0.000000  0.760250  1
  Pr  Pr3  1  0.000000  0.000000  0.000000  1
  Sb  Sb4  1  0.333333  0.666667  0.367809  1
  Sb  Sb5  1  0.666667  0.333333  0.632191  1
  Sb  Sb6  1  0.666667  0.333333  0.895747  1
  Sb  Sb7  1  0.333333  0.666667  0.104253  1
  Au  Au8  1  0.666667  0.333333  0.367332  1
  Au  Au9  1  0.333333  0.666667  0.632668  1
  Au  Au10  1  0.333333  0.666667  0.905233  1
  Au  Au11  1  0.666667  0.333333  0.094767  1
