# generated using pymatgen
data_Hf2Zr2In2CoPt3
_symmetry_space_group_name_H-M   'P 1'
_cell_length_a   7.56837518
_cell_length_b   7.56837577
_cell_length_c   3.31949900
_cell_angle_alpha   90.00000000
_cell_angle_beta   90.00000000
_cell_angle_gamma   89.35183024
_symmetry_Int_Tables_number   1
_chemical_formula_structural   Hf2Zr2In2CoPt3
_chemical_formula_sum   'Hf2 Zr2 In2 Co1 Pt3'
_cell_volume   190.12975598
_cell_formula_units_Z   1
loop_
 _symmetry_equiv_pos_site_id
 _symmetry_equiv_pos_as_xyz
  1  'x, y, z'
loop_
 _atom_site_type_symbol
 _atom_site_label
 _atom_site_symmetry_multiplicity
 _atom_site_fract_x
 _atom_site_fract_y
 _atom_site_fract_z
 _atom_site_occupancy
  Hf  Hf0  1  0.145349  0.327036  0.500000  1
  Hf  Hf1  1  0.827036  0.645349  0.500000  1
  Zr  Zr2  1  0.686135  0.186135  0.500000  1
  Zr  Zr3  1  0.336160  0.836160  0.500000  1
  In  In4  1  0.999368  0.999858  0.000000  1
  In  In5  1  0.499858  0.499368  0.000000  1
  Co  Co6  1  0.872495  0.372495  0.000000  1
  Pt  Pt7  1  0.371623  0.136894  0.000000  1
  Pt  Pt8  1  0.125083  0.625083  0.000000  1
  Pt  Pt9  1  0.636894  0.871623  0.000000  1
