# generated using pymatgen
data_Pr2Nd2In2Pd3Rh
_symmetry_space_group_name_H-M   'P 1'
_cell_length_a   7.84261918
_cell_length_b   7.84261970
_cell_length_c   3.91874000
_cell_angle_alpha   90.00000000
_cell_angle_beta   90.00000000
_cell_angle_gamma   90.12266273
_symmetry_Int_Tables_number   1
_chemical_formula_structural   Pr2Nd2In2Pd3Rh
_chemical_formula_sum   'Pr2 Nd2 In2 Pd3 Rh1'
_cell_volume   241.02813351
_cell_formula_units_Z   1
loop_
 _symmetry_equiv_pos_site_id
 _symmetry_equiv_pos_as_xyz
  1  'x, y, z'
loop_
 _atom_site_type_symbol
 _atom_site_label
 _atom_site_symmetry_multiplicity
 _atom_site_fract_x
 _atom_site_fract_y
 _atom_site_fract_z
 _atom_site_occupancy
  Pr  Pr0  1  0.827080  0.672920  0.500000  1
  Pr  Pr1  1  0.181398  0.318602  0.500000  1
  Nd  Nd2  1  0.324426  0.834589  0.500000  1
  Nd  Nd3  1  0.665411  0.175574  0.500000  1
  In  In4  1  0.000953  0.000489  0.000000  1
  In  In5  1  0.499511  0.499047  0.000000  1
  Pd  Pd6  1  0.872622  0.371120  0.000000  1
  Pd  Pd7  1  0.128880  0.627378  0.000000  1
  Pd  Pd8  1  0.627999  0.872001  0.000000  1
  Rh  Rh9  1  0.371719  0.128281  0.000000  1
