# generated using pymatgen
data_Pr6Ho10MgHg3Ir4
_symmetry_space_group_name_H-M   'P 1'
_cell_length_a   9.71130338
_cell_length_b   9.72490086
_cell_length_c   9.72490000
_cell_angle_alpha   60.00000292
_cell_angle_beta   59.95367486
_cell_angle_gamma   59.95368050
_symmetry_Int_Tables_number   1
_chemical_formula_structural   Pr6Ho10MgHg3Ir4
_chemical_formula_sum   'Pr6 Ho10 Mg1 Hg3 Ir4'
_cell_volume   648.97568993
_cell_formula_units_Z   1
loop_
 _symmetry_equiv_pos_site_id
 _symmetry_equiv_pos_as_xyz
  1  'x, y, z'
loop_
 _atom_site_type_symbol
 _atom_site_label
 _atom_site_symmetry_multiplicity
 _atom_site_fract_x
 _atom_site_fract_y
 _atom_site_fract_z
 _atom_site_occupancy
  Pr  Pr0  1  0.940368  0.560150  0.560150  1
  Pr  Pr1  1  0.558031  0.941141  0.941141  1
  Pr  Pr2  1  0.558031  0.941141  0.559687  1
  Pr  Pr3  1  0.940368  0.560150  0.939332  1
  Pr  Pr4  1  0.558031  0.559687  0.941141  1
  Pr  Pr5  1  0.940368  0.939332  0.560150  1
  Ho  Ho6  1  0.346986  0.346104  0.346104  1
  Ho  Ho7  1  0.346986  0.346104  0.960808  1
  Ho  Ho8  1  0.346986  0.960808  0.346104  1
  Ho  Ho9  1  0.954801  0.348400  0.348400  1
  Ho  Ho10  1  0.810543  0.188810  0.188810  1
  Ho  Ho11  1  0.184785  0.814174  0.814174  1
  Ho  Ho12  1  0.184785  0.814174  0.186868  1
  Ho  Ho13  1  0.810543  0.188810  0.811838  1
  Ho  Ho14  1  0.184785  0.186868  0.814174  1
  Ho  Ho15  1  0.810543  0.811838  0.188810  1
  Mg  Mg16  1  0.285749  0.571417  0.571417  1
  Hg  Hg17  1  0.579840  0.584267  0.584267  1
  Hg  Hg18  1  0.579840  0.584267  0.251626  1
  Hg  Hg19  1  0.579840  0.251626  0.584267  1
  Ir  Ir20  1  0.140488  0.141632  0.141632  1
  Ir  Ir21  1  0.140488  0.141632  0.576249  1
  Ir  Ir22  1  0.140488  0.576249  0.141632  1
  Ir  Ir23  1  0.576331  0.141223  0.141223  1
