# generated using pymatgen
data_ScPt3
_symmetry_space_group_name_H-M   'P 1'
_cell_length_a   5.66194790
_cell_length_b   5.66194809
_cell_length_c   5.63733700
_cell_angle_alpha   60.14369142
_cell_angle_beta   60.14369029
_cell_angle_gamma   59.71261642
_symmetry_Int_Tables_number   1
_chemical_formula_structural   ScPt3
_chemical_formula_sum   'Sc2 Pt6'
_cell_volume   127.78338958
_cell_formula_units_Z   2
loop_
 _symmetry_equiv_pos_site_id
 _symmetry_equiv_pos_as_xyz
  1  'x, y, z'
loop_
 _atom_site_type_symbol
 _atom_site_label
 _atom_site_symmetry_multiplicity
 _atom_site_fract_x
 _atom_site_fract_y
 _atom_site_fract_z
 _atom_site_occupancy
  Sc  Sc0  1  0.499999  0.499999  0.000000  1
  Sc  Sc1  1  0.000000  0.000000  0.499999  1
  Pt  Pt2  1  0.499999  0.499999  0.499999  1
  Pt  Pt3  1  0.000000  0.000000  0.000000  1
  Pt  Pt4  1  0.499999  0.000000  0.000000  1
  Pt  Pt5  1  0.000000  0.499999  0.000000  1
  Pt  Pt6  1  0.499999  0.000000  0.499999  1
  Pt  Pt7  1  0.000000  0.499999  0.499999  1
