# generated using pymatgen
data_Er4Al23GaIr2Pt7
_symmetry_space_group_name_H-M   'P 1'
_cell_length_a   7.50140056
_cell_length_b   7.50094367
_cell_length_c   13.17634604
_cell_angle_alpha   84.51112046
_cell_angle_beta   100.86370161
_cell_angle_gamma   119.76255805
_symmetry_Int_Tables_number   1
_chemical_formula_structural   Er4Al23GaIr2Pt7
_chemical_formula_sum   'Er4 Al23 Ga1 Ir2 Pt7'
_cell_volume   632.06658910
_cell_formula_units_Z   1
loop_
 _symmetry_equiv_pos_site_id
 _symmetry_equiv_pos_as_xyz
  1  'x, y, z'
loop_
 _atom_site_type_symbol
 _atom_site_label
 _atom_site_symmetry_multiplicity
 _atom_site_fract_x
 _atom_site_fract_y
 _atom_site_fract_z
 _atom_site_occupancy
  Er  Er0  1  0.732016  0.998710  0.190161  1
  Er  Er1  1  0.265296  0.001736  0.809618  1
  Er  Er2  1  0.062321  0.669064  0.190607  1
  Er  Er3  1  0.939033  0.330106  0.809591  1
  Al  Al4  1  0.190317  0.128792  0.182522  1
  Al  Al5  1  0.985483  0.669005  0.946342  1
  Al  Al6  1  0.020091  0.334369  0.053678  1
  Al  Al7  1  0.396066  0.664096  0.818875  1
  Al  Al8  1  0.602081  0.335667  0.182764  1
  Al  Al9  1  0.882550  0.664828  0.672874  1
  Al  Al10  1  0.117384  0.334754  0.325991  1
  Al  Al11  1  0.604311  0.457983  0.816775  1
  Al  Al12  1  0.397297  0.544194  0.181538  1
  Al  Al13  1  0.231289  0.340555  0.671161  1
  Al  Al14  1  0.769410  0.659978  0.329061  1
  Al  Al15  1  0.853478  0.333630  0.559159  1
  Al  Al16  1  0.186641  0.999571  0.559026  1
  Al  Al17  1  0.814197  0.000107  0.440829  1
  Al  Al18  1  0.348902  0.996360  0.053972  1
  Al  Al19  1  0.648085  0.998193  0.946655  1
  Al  Al20  1  0.556480  0.992473  0.673360  1
  Al  Al21  1  0.443424  0.007210  0.326587  1
  Al  Al22  1  0.521675  0.668891  0.561251  1
  Al  Al23  1  0.478226  0.331363  0.438205  1
  Al  Al24  1  0.682752  0.671361  0.043931  1
  Al  Al25  1  0.314550  0.332371  0.956787  1
  Al  Al26  1  0.146759  0.665680  0.441018  1
  Ga  Ga27  1  0.806913  0.866988  0.817767  1
  Ir  Ir28  1  0.328954  0.671594  0.999876  1
  Ir  Ir29  1  0.000939  0.000928  0.001466  1
  Pt  Pt30  1  0.546025  0.324668  0.637303  1
  Pt  Pt31  1  0.454108  0.675062  0.362360  1
  Pt  Pt32  1  0.888267  0.009206  0.637122  1
  Pt  Pt33  1  0.111889  0.991380  0.361385  1
  Pt  Pt34  1  0.671669  0.328954  0.999792  1
  Pt  Pt35  1  0.204577  0.667191  0.639030  1
  Pt  Pt36  1  0.796541  0.332980  0.361563  1
