# generated using pymatgen
data_Y2Ho8(InBi)3
_symmetry_space_group_name_H-M   'P 1'
_cell_length_a   9.04106016
_cell_length_b   9.04398186
_cell_length_c   6.56137400
_cell_angle_alpha   90.00000000
_cell_angle_beta   90.00000000
_cell_angle_gamma   120.01069152
_symmetry_Int_Tables_number   1
_chemical_formula_structural   Y2Ho8(InBi)3
_chemical_formula_sum   'Y2 Ho8 In3 Bi3'
_cell_volume   464.57696000
_cell_formula_units_Z   1
loop_
 _symmetry_equiv_pos_site_id
 _symmetry_equiv_pos_as_xyz
  1  'x, y, z'
loop_
 _atom_site_type_symbol
 _atom_site_label
 _atom_site_symmetry_multiplicity
 _atom_site_fract_x
 _atom_site_fract_y
 _atom_site_fract_z
 _atom_site_occupancy
  Y  Y0  1  0.762888  0.762964  0.750000  1
  Y  Y1  1  0.237112  0.000076  0.750000  1
  Ho  Ho2  1  0.666700  0.333319  0.006816  1
  Ho  Ho3  1  0.333300  0.666619  0.006816  1
  Ho  Ho4  1  0.333300  0.666619  0.493184  1
  Ho  Ho5  1  0.666700  0.333319  0.493184  1
  Ho  Ho6  1  0.000000  0.237164  0.750000  1
  Ho  Ho7  1  0.237816  0.237951  0.250000  1
  Ho  Ho8  1  0.762184  0.000135  0.250000  1
  Ho  Ho9  1  0.000000  0.761946  0.250000  1
  In  In10  1  0.606601  0.606592  0.250000  1
  In  In11  1  0.393399  0.999991  0.250000  1
  In  In12  1  0.000000  0.393410  0.250000  1
  Bi  Bi13  1  0.395705  0.395903  0.750000  1
  Bi  Bi14  1  0.604295  0.000198  0.750000  1
  Bi  Bi15  1  0.000000  0.603793  0.750000  1
