# generated using pymatgen
data_LaPu(ReH9)2
_symmetry_space_group_name_H-M   'P 1'
_cell_length_a   4.88178400
_cell_length_b   4.88178403
_cell_length_c   8.82262800
_cell_angle_alpha   90.00000000
_cell_angle_beta   90.00000000
_cell_angle_gamma   119.99999976
_symmetry_Int_Tables_number   1
_chemical_formula_structural   LaPu(ReH9)2
_chemical_formula_sum   'La1 Pu1 Re2 H18'
_cell_volume   182.08984366
_cell_formula_units_Z   1
loop_
 _symmetry_equiv_pos_site_id
 _symmetry_equiv_pos_as_xyz
  1  'x, y, z'
loop_
 _atom_site_type_symbol
 _atom_site_label
 _atom_site_symmetry_multiplicity
 _atom_site_fract_x
 _atom_site_fract_y
 _atom_site_fract_z
 _atom_site_occupancy
  La  La0  1  0.000000  0.000000  0.500000  1
  Pu  Pu1  1  0.000000  0.000000  0.000000  1
  Re  Re2  1  0.333333  0.666667  0.251126  1
  Re  Re3  1  0.666667  0.333333  0.748874  1
  H  H4  1  0.479865  0.520135  0.388235  1
  H  H5  1  0.479865  0.959731  0.388235  1
  H  H6  1  0.040269  0.520135  0.388235  1
  H  H7  1  0.951929  0.475964  0.889302  1
  H  H8  1  0.131218  0.262437  0.245367  1
  H  H9  1  0.868782  0.131218  0.754633  1
  H  H10  1  0.262437  0.131218  0.754633  1
  H  H11  1  0.737563  0.868782  0.245367  1
  H  H12  1  0.131218  0.868782  0.245367  1
  H  H13  1  0.868782  0.737563  0.754633  1
  H  H14  1  0.475964  0.951929  0.110698  1
  H  H15  1  0.520135  0.479865  0.611765  1
  H  H16  1  0.959731  0.479865  0.611765  1
  H  H17  1  0.048071  0.524036  0.110698  1
  H  H18  1  0.475964  0.524036  0.110698  1
  H  H19  1  0.524036  0.048071  0.889302  1
  H  H20  1  0.524036  0.475964  0.889302  1
  H  H21  1  0.520135  0.040269  0.611765  1
