# generated using pymatgen
data_DyPa2(SnRh)3
_symmetry_space_group_name_H-M   'P 1'
_cell_length_a   7.48039619
_cell_length_b   7.39517972
_cell_length_c   4.01888400
_cell_angle_alpha   90.00000000
_cell_angle_beta   90.00000000
_cell_angle_gamma   119.62385660
_symmetry_Int_Tables_number   1
_chemical_formula_structural   DyPa2(SnRh)3
_chemical_formula_sum   'Dy1 Pa2 Sn3 Rh3'
_cell_volume   193.26049271
_cell_formula_units_Z   1
loop_
 _symmetry_equiv_pos_site_id
 _symmetry_equiv_pos_as_xyz
  1  'x, y, z'
loop_
 _atom_site_type_symbol
 _atom_site_label
 _atom_site_symmetry_multiplicity
 _atom_site_fract_x
 _atom_site_fract_y
 _atom_site_fract_z
 _atom_site_occupancy
  Dy  Dy0  1  0.000000  0.591468  0.500000  1
  Pa  Pa1  1  0.413319  0.412174  0.500000  1
  Pa  Pa2  1  0.586681  0.998855  0.500000  1
  Sn  Sn3  1  0.754625  0.744898  0.000000  1
  Sn  Sn4  1  0.245375  0.990273  0.000000  1
  Sn  Sn5  1  0.000000  0.263988  0.000000  1
  Rh  Rh6  1  0.644637  0.315268  0.000000  1
  Rh  Rh7  1  0.355363  0.670632  0.000000  1
  Rh  Rh8  1  0.000000  0.012445  0.500000  1
