# generated using pymatgen
data_Tl2ReF8
_symmetry_space_group_name_H-M   'P 1'
_cell_length_a   6.00214600
_cell_length_b   8.87776300
_cell_length_c   12.75235000
_cell_angle_alpha   90.00000000
_cell_angle_beta   90.00000000
_cell_angle_gamma   90.00000000
_symmetry_Int_Tables_number   1
_chemical_formula_structural   Tl2ReF8
_chemical_formula_sum   'Tl8 Re4 F32'
_cell_volume   679.51699964
_cell_formula_units_Z   4
loop_
 _symmetry_equiv_pos_site_id
 _symmetry_equiv_pos_as_xyz
  1  'x, y, z'
loop_
 _atom_site_type_symbol
 _atom_site_label
 _atom_site_symmetry_multiplicity
 _atom_site_fract_x
 _atom_site_fract_y
 _atom_site_fract_z
 _atom_site_occupancy
  Tl  Tl0  1  0.250000  0.550708  0.708725  1
  Tl  Tl1  1  0.750000  0.449292  0.291275  1
  Tl  Tl2  1  0.250000  0.050708  0.791275  1
  Tl  Tl3  1  0.750000  0.949292  0.208725  1
  Tl  Tl4  1  0.250000  0.669531  0.059899  1
  Tl  Tl5  1  0.750000  0.330469  0.940101  1
  Tl  Tl6  1  0.250000  0.169531  0.440101  1
  Tl  Tl7  1  0.750000  0.830469  0.559899  1
  Re  Re8  1  0.250000  0.716105  0.377949  1
  Re  Re9  1  0.750000  0.283895  0.622051  1
  Re  Re10  1  0.250000  0.216105  0.122051  1
  Re  Re11  1  0.750000  0.783895  0.877949  1
  F  F12  1  0.250000  0.269455  0.971311  1
  F  F13  1  0.750000  0.730545  0.028689  1
  F  F14  1  0.250000  0.769455  0.528689  1
  F  F15  1  0.750000  0.230545  0.471311  1
  F  F16  1  0.250000  0.502448  0.339369  1
  F  F17  1  0.750000  0.497552  0.660631  1
  F  F18  1  0.250000  0.002448  0.160631  1
  F  F19  1  0.750000  0.997552  0.839369  1
  F  F20  1  0.478748  0.369392  0.563416  1
  F  F21  1  0.978748  0.630608  0.436584  1
  F  F22  1  0.021252  0.869392  0.936584  1
  F  F23  1  0.521252  0.130608  0.063416  1
  F  F24  1  0.948532  0.606566  0.885481  1
  F  F25  1  0.448532  0.393434  0.114519  1
  F  F26  1  0.551468  0.106566  0.614519  1
  F  F27  1  0.051468  0.893434  0.385481  1
  F  F28  1  0.051468  0.393434  0.114519  1
  F  F29  1  0.551468  0.606566  0.885481  1
  F  F30  1  0.448532  0.893434  0.385481  1
  F  F31  1  0.948532  0.106566  0.614519  1
  F  F32  1  0.949579  0.792521  0.754552  1
  F  F33  1  0.449579  0.207479  0.245448  1
  F  F34  1  0.550421  0.292521  0.745448  1
  F  F35  1  0.050421  0.707479  0.254552  1
  F  F36  1  0.050421  0.207479  0.245448  1
  F  F37  1  0.550421  0.792521  0.754552  1
  F  F38  1  0.449579  0.707479  0.254552  1
  F  F39  1  0.949579  0.292521  0.745448  1
  F  F40  1  0.478748  0.869392  0.936584  1
  F  F41  1  0.978748  0.130608  0.063416  1
  F  F42  1  0.021252  0.369392  0.563416  1
  F  F43  1  0.521252  0.630608  0.436584  1
