# generated using pymatgen
data_La4Hg2IrAu3
_symmetry_space_group_name_H-M   'P 1'
_cell_length_a   3.93698800
_cell_length_b   8.17370080
_cell_length_c   8.17370143
_cell_angle_alpha   90.18346017
_cell_angle_beta   90.00000000
_cell_angle_gamma   90.00000000
_symmetry_Int_Tables_number   1
_chemical_formula_structural   La4Hg2IrAu3
_chemical_formula_sum   'La4 Hg2 Ir1 Au3'
_cell_volume   263.02641803
_cell_formula_units_Z   1
loop_
 _symmetry_equiv_pos_site_id
 _symmetry_equiv_pos_as_xyz
  1  'x, y, z'
loop_
 _atom_site_type_symbol
 _atom_site_label
 _atom_site_symmetry_multiplicity
 _atom_site_fract_x
 _atom_site_fract_y
 _atom_site_fract_z
 _atom_site_occupancy
  La  La0  1  0.500000  0.170161  0.670161  1
  La  La1  1  0.500000  0.811449  0.311449  1
  La  La2  1  0.500000  0.349243  0.179172  1
  La  La3  1  0.500000  0.679172  0.849243  1
  Hg  Hg4  1  0.000000  0.999262  0.002620  1
  Hg  Hg5  1  0.000000  0.502620  0.499262  1
  Ir  Ir6  1  0.000000  0.624584  0.124584  1
  Au  Au7  1  0.000000  0.371397  0.871397  1
  Au  Au8  1  0.000000  0.868380  0.623734  1
  Au  Au9  1  0.000000  0.123734  0.368380  1
