# generated using pymatgen
data_Rb2CoH7
_symmetry_space_group_name_H-M   'P 1'
_cell_length_a   5.82058447
_cell_length_b   5.98169954
_cell_length_c   5.96112590
_cell_angle_alpha   96.42134248
_cell_angle_beta   116.13540368
_cell_angle_gamma   117.41982730
_symmetry_Int_Tables_number   1
_chemical_formula_structural   Rb2CoH7
_chemical_formula_sum   'Rb2 Co1 H7'
_cell_volume   151.95283951
_cell_formula_units_Z   1
loop_
 _symmetry_equiv_pos_site_id
 _symmetry_equiv_pos_as_xyz
  1  'x, y, z'
loop_
 _atom_site_type_symbol
 _atom_site_label
 _atom_site_symmetry_multiplicity
 _atom_site_fract_x
 _atom_site_fract_y
 _atom_site_fract_z
 _atom_site_occupancy
  Rb  Rb0  1  0.111227  0.086513  0.987219  1
  Rb  Rb1  1  0.113702  0.590320  0.482037  1
  Co  Co2  1  0.613624  0.344094  0.741021  1
  H  H3  1  0.625963  0.162907  0.559070  1
  H  H4  1  0.971025  0.507391  0.901255  1
  H  H5  1  0.487312  0.467962  0.853041  1
  H  H6  1  0.259563  0.138936  0.538611  1
  H  H7  1  0.607465  0.158902  0.905139  1
  H  H8  1  0.620865  0.514249  0.561757  1
  H  H9  1  0.708012  0.570531  0.981187  1
