# generated using pymatgen
data_Sm2Th2Tc7Os
_symmetry_space_group_name_H-M   'P 1'
_cell_length_a   5.30039300
_cell_length_b   5.30039326
_cell_length_c   9.47804800
_cell_angle_alpha   90.00000000
_cell_angle_beta   90.00000000
_cell_angle_gamma   120.00000462
_symmetry_Int_Tables_number   1
_chemical_formula_structural   Sm2Th2Tc7Os
_chemical_formula_sum   'Sm2 Th2 Tc7 Os1'
_cell_volume   230.60338614
_cell_formula_units_Z   1
loop_
 _symmetry_equiv_pos_site_id
 _symmetry_equiv_pos_as_xyz
  1  'x, y, z'
loop_
 _atom_site_type_symbol
 _atom_site_label
 _atom_site_symmetry_multiplicity
 _atom_site_fract_x
 _atom_site_fract_y
 _atom_site_fract_z
 _atom_site_occupancy
  Sm  Sm0  1  0.333333  0.666667  0.437275  1
  Sm  Sm1  1  0.666667  0.333333  0.562725  1
  Th  Th2  1  0.666667  0.333333  0.935087  1
  Th  Th3  1  0.333333  0.666667  0.064913  1
  Tc  Tc4  1  0.000000  0.000000  0.000000  1
  Tc  Tc5  1  0.830025  0.169975  0.254091  1
  Tc  Tc6  1  0.830025  0.660048  0.254091  1
  Tc  Tc7  1  0.339952  0.169975  0.254091  1
  Tc  Tc8  1  0.169975  0.830025  0.745909  1
  Tc  Tc9  1  0.169975  0.339952  0.745909  1
  Tc  Tc10  1  0.660048  0.830025  0.745909  1
  Os  Os11  1  0.000000  0.000000  0.500000  1
