# generated using pymatgen
data_Na2TcBr6
_symmetry_space_group_name_H-M   'P 1'
_cell_length_a   7.38592700
_cell_length_b   7.18148937
_cell_length_c   12.49586084
_cell_angle_alpha   54.57796361
_cell_angle_beta   90.00000000
_cell_angle_gamma   90.00000000
_symmetry_Int_Tables_number   1
_chemical_formula_structural   Na2TcBr6
_chemical_formula_sum   'Na4 Tc2 Br12'
_cell_volume   540.12299013
_cell_formula_units_Z   2
loop_
 _symmetry_equiv_pos_site_id
 _symmetry_equiv_pos_as_xyz
  1  'x, y, z'
loop_
 _atom_site_type_symbol
 _atom_site_label
 _atom_site_symmetry_multiplicity
 _atom_site_fract_x
 _atom_site_fract_y
 _atom_site_fract_z
 _atom_site_occupancy
  Na  Na0  1  0.428507  0.742759  0.249948  1
  Na  Na1  1  0.928507  0.257241  0.250052  1
  Na  Na2  1  0.071493  0.742759  0.749948  1
  Na  Na3  1  0.571493  0.257241  0.750052  1
  Tc  Tc4  1  0.000000  0.000000  0.000000  1
  Tc  Tc5  1  0.500000  0.000000  0.500000  1
  Br  Br6  1  0.826096  0.348691  0.947147  1
  Br  Br7  1  0.528188  0.141220  0.261459  1
  Br  Br8  1  0.471812  0.858780  0.738541  1
  Br  Br9  1  0.295840  0.214774  0.951033  1
  Br  Br10  1  0.326096  0.651309  0.552853  1
  Br  Br11  1  0.204160  0.214774  0.451033  1
  Br  Br12  1  0.173904  0.651309  0.052853  1
  Br  Br13  1  0.795840  0.785226  0.548967  1
  Br  Br14  1  0.704160  0.785226  0.048967  1
  Br  Br15  1  0.028188  0.858780  0.238541  1
  Br  Br16  1  0.971812  0.141220  0.761459  1
  Br  Br17  1  0.673904  0.348691  0.447147  1
