# generated using pymatgen
data_Tm2Sc3Si7Pt9
_symmetry_space_group_name_H-M   'P 1'
_cell_length_a   10.04664900
_cell_length_b   10.04664853
_cell_length_c   3.96038900
_cell_angle_alpha   90.00000000
_cell_angle_beta   90.00000000
_cell_angle_gamma   119.99999826
_symmetry_Int_Tables_number   1
_chemical_formula_structural   Tm2Sc3Si7Pt9
_chemical_formula_sum   'Tm2 Sc3 Si7 Pt9'
_cell_volume   346.18713420
_cell_formula_units_Z   1
loop_
 _symmetry_equiv_pos_site_id
 _symmetry_equiv_pos_as_xyz
  1  'x, y, z'
loop_
 _atom_site_type_symbol
 _atom_site_label
 _atom_site_symmetry_multiplicity
 _atom_site_fract_x
 _atom_site_fract_y
 _atom_site_fract_z
 _atom_site_occupancy
  Tm  Tm0  1  0.000000  0.000000  0.000000  1
  Tm  Tm1  1  0.333333  0.666667  0.500000  1
  Sc  Sc2  1  0.895564  0.457058  0.500000  1
  Sc  Sc3  1  0.561494  0.104436  0.500000  1
  Sc  Sc4  1  0.542942  0.438506  0.500000  1
  Si  Si5  1  0.244100  0.193129  0.500000  1
  Si  Si6  1  0.806871  0.050973  0.500000  1
  Si  Si7  1  0.949027  0.755900  0.500000  1
  Si  Si8  1  0.556194  0.647361  0.000000  1
  Si  Si9  1  0.352639  0.908832  0.000000  1
  Si  Si10  1  0.091168  0.443806  0.000000  1
  Si  Si11  1  0.666667  0.333333  0.000000  1
  Pt  Pt12  1  0.217829  0.935684  0.500000  1
  Pt  Pt13  1  0.064316  0.282146  0.500000  1
  Pt  Pt14  1  0.717854  0.782171  0.500000  1
  Pt  Pt15  1  0.314625  0.414759  0.000000  1
  Pt  Pt16  1  0.585241  0.899865  0.000000  1
  Pt  Pt17  1  0.100135  0.685375  0.000000  1
  Pt  Pt18  1  0.383347  0.171481  0.000000  1
  Pt  Pt19  1  0.828519  0.211865  0.000000  1
  Pt  Pt20  1  0.788135  0.616653  0.000000  1
