# generated using pymatgen
data_TmPa3(CdNi2)2
_symmetry_space_group_name_H-M   'P 1'
_cell_length_a   7.49040921
_cell_length_b   7.49040881
_cell_length_c   3.48424900
_cell_angle_alpha   90.00000000
_cell_angle_beta   90.00000000
_cell_angle_gamma   91.51280341
_symmetry_Int_Tables_number   1
_chemical_formula_structural   TmPa3(CdNi2)2
_chemical_formula_sum   'Tm1 Pa3 Cd2 Ni4'
_cell_volume   195.41992840
_cell_formula_units_Z   1
loop_
 _symmetry_equiv_pos_site_id
 _symmetry_equiv_pos_as_xyz
  1  'x, y, z'
loop_
 _atom_site_type_symbol
 _atom_site_label
 _atom_site_symmetry_multiplicity
 _atom_site_fract_x
 _atom_site_fract_y
 _atom_site_fract_z
 _atom_site_occupancy
  Tm  Tm0  1  0.828844  0.671156  0.500000  1
  Pa  Pa1  1  0.672094  0.171146  0.500000  1
  Pa  Pa2  1  0.328854  0.827906  0.500000  1
  Pa  Pa3  1  0.168855  0.331145  0.500000  1
  Cd  Cd4  1  0.508723  0.504463  0.000000  1
  Cd  Cd5  1  0.995537  0.991277  0.000000  1
  Ni  Ni6  1  0.880218  0.360792  0.000000  1
  Ni  Ni7  1  0.139208  0.619782  0.000000  1
  Ni  Ni8  1  0.367389  0.132611  0.000000  1
  Ni  Ni9  1  0.610279  0.889721  0.000000  1
