# generated using pymatgen
data_La6Tb3Lu(Sn3Cl)2
_symmetry_space_group_name_H-M   'P 1'
_cell_length_a   9.46929900
_cell_length_b   9.46929783
_cell_length_c   6.75073800
_cell_angle_alpha   90.00000000
_cell_angle_beta   90.00000000
_cell_angle_gamma   119.99999362
_symmetry_Int_Tables_number   1
_chemical_formula_structural   La6Tb3Lu(Sn3Cl)2
_chemical_formula_sum   'La6 Tb3 Lu1 Sn6 Cl2'
_cell_volume   524.22474693
_cell_formula_units_Z   1
loop_
 _symmetry_equiv_pos_site_id
 _symmetry_equiv_pos_as_xyz
  1  'x, y, z'
loop_
 _atom_site_type_symbol
 _atom_site_label
 _atom_site_symmetry_multiplicity
 _atom_site_fract_x
 _atom_site_fract_y
 _atom_site_fract_z
 _atom_site_occupancy
  La  La0  1  0.737040  0.999415  0.750448  1
  La  La1  1  0.737040  0.737626  0.249552  1
  La  La2  1  0.000585  0.262960  0.249552  1
  La  La3  1  0.000585  0.737626  0.750448  1
  La  La4  1  0.262374  0.262960  0.750448  1
  La  La5  1  0.262374  0.999415  0.249552  1
  Tb  Tb6  1  0.333333  0.666667  0.500000  1
  Tb  Tb7  1  0.666667  0.333333  0.500000  1
  Tb  Tb8  1  0.333333  0.666667  0.000000  1
  Lu  Lu9  1  0.666667  0.333333  0.000000  1
  Sn  Sn10  1  0.609271  0.606588  0.752558  1
  Sn  Sn11  1  0.997317  0.606588  0.247442  1
  Sn  Sn12  1  0.609271  0.002683  0.247442  1
  Sn  Sn13  1  0.393412  0.002683  0.752558  1
  Sn  Sn14  1  0.997317  0.390729  0.752558  1
  Sn  Sn15  1  0.393412  0.390729  0.247442  1
  Cl  Cl16  1  0.000000  0.000000  0.500000  1
  Cl  Cl17  1  0.000000  0.000000  0.000000  1
