# generated using pymatgen
data_CaNdZn21Ni
_symmetry_space_group_name_H-M   'P 1'
_cell_length_a   8.27899017
_cell_length_b   8.28409700
_cell_length_c   8.28408200
_cell_angle_alpha   99.65385898
_cell_angle_beta   100.16314992
_cell_angle_gamma   131.02366447
_symmetry_Int_Tables_number   1
_chemical_formula_structural   CaNdZn21Ni
_chemical_formula_sum   'Ca1 Nd1 Zn21 Ni1'
_cell_volume   389.95326198
_cell_formula_units_Z   1
loop_
 _symmetry_equiv_pos_site_id
 _symmetry_equiv_pos_as_xyz
  1  'x, y, z'
loop_
 _atom_site_type_symbol
 _atom_site_label
 _atom_site_symmetry_multiplicity
 _atom_site_fract_x
 _atom_site_fract_y
 _atom_site_fract_z
 _atom_site_occupancy
  Ca  Ca0  1  0.747222  0.249107  0.498100  1
  Nd  Nd1  1  0.504104  0.499849  0.004261  1
  Zn  Zn2  1  0.924103  0.595690  0.912453  1
  Zn  Zn3  1  0.845786  0.429983  0.171966  1
  Zn  Zn4  1  0.267508  0.675986  0.829094  1
  Zn  Zn5  1  0.682798  0.003569  0.072869  1
  Zn  Zn6  1  0.400785  0.074303  0.084197  1
  Zn  Zn7  1  0.982543  0.309284  0.908837  1
  Zn  Zn8  1  0.569568  0.145060  0.824088  1
  Zn  Zn9  1  0.326667  0.737985  0.168270  1
  Zn  Zn10  1  0.326667  0.158404  0.588686  1
  Zn  Zn11  1  0.400789  0.316597  0.326485  1
  Zn  Zn12  1  0.982541  0.073709  0.673264  1
  Zn  Zn13  1  0.569565  0.745485  0.424519  1
  Zn  Zn14  1  0.845791  0.673831  0.415808  1
  Zn  Zn15  1  0.267520  0.438426  0.591528  1
  Zn  Zn16  1  0.682797  0.609937  0.679234  1
  Zn  Zn17  1  0.924104  0.011650  0.328418  1
  Zn  Zn18  1  0.124667  0.872750  0.251921  1
  Zn  Zn19  1  0.126732  0.377439  0.250334  1
  Zn  Zn20  1  0.126729  0.876401  0.749294  1
  Zn  Zn21  1  0.269440  0.759454  0.509990  1
  Zn  Zn22  1  0.981342  0.991462  0.989880  1
  Ni  Ni23  1  0.620234  0.873639  0.746507  1
