# generated using pymatgen
data_Zr2UIn3Ru2
_symmetry_space_group_name_H-M   'P 1'
_cell_length_a   7.70191100
_cell_length_b   7.53833682
_cell_length_c   3.39377000
_cell_angle_alpha   90.00000000
_cell_angle_beta   90.00000000
_cell_angle_gamma   120.72043466
_symmetry_Int_Tables_number   1
_chemical_formula_structural   Zr2UIn3Ru2
_chemical_formula_sum   'Zr2 U1 In3 Ru2'
_cell_volume   169.39019883
_cell_formula_units_Z   1
loop_
 _symmetry_equiv_pos_site_id
 _symmetry_equiv_pos_as_xyz
  1  'x, y, z'
loop_
 _atom_site_type_symbol
 _atom_site_label
 _atom_site_symmetry_multiplicity
 _atom_site_fract_x
 _atom_site_fract_y
 _atom_site_fract_z
 _atom_site_occupancy
  Zr  Zr0  1  0.420799  0.417774  0.499999  1
  Zr  Zr1  1  0.003024  0.582226  0.499999  1
  U  U2  1  0.564479  0.000000  0.499999  1
  In  In3  1  0.212463  0.000000  0.000000  1
  In  In4  1  0.010468  0.246934  0.000000  1
  In  In5  1  0.763534  0.753067  0.000000  1
  Ru  Ru6  1  0.662388  0.299543  0.000000  1
  Ru  Ru7  1  0.362844  0.700457  0.000000  1
