# generated using pymatgen
data_Ho4ZnRh
_symmetry_space_group_name_H-M   'P 1'
_cell_length_a   9.44745522
_cell_length_b   9.44745539
_cell_length_c   9.44745500
_cell_angle_alpha   59.99999787
_cell_angle_beta   59.99999728
_cell_angle_gamma   60.00000080
_symmetry_Int_Tables_number   1
_chemical_formula_structural   Ho4ZnRh
_chemical_formula_sum   'Ho16 Zn4 Rh4'
_cell_volume   596.25153894
_cell_formula_units_Z   4
loop_
 _symmetry_equiv_pos_site_id
 _symmetry_equiv_pos_as_xyz
  1  'x, y, z'
loop_
 _atom_site_type_symbol
 _atom_site_label
 _atom_site_symmetry_multiplicity
 _atom_site_fract_x
 _atom_site_fract_y
 _atom_site_fract_z
 _atom_site_occupancy
  Ho  Ho0  1  0.313282  0.895573  0.895573  1
  Ho  Ho1  1  0.685286  0.314714  0.685286  1
  Ho  Ho2  1  0.314714  0.685286  0.314714  1
  Ho  Ho3  1  0.059227  0.440773  0.440773  1
  Ho  Ho4  1  0.685286  0.314714  0.314714  1
  Ho  Ho5  1  0.440773  0.059227  0.440773  1
  Ho  Ho6  1  0.440773  0.059227  0.059227  1
  Ho  Ho7  1  0.895573  0.895573  0.895573  1
  Ho  Ho8  1  0.059227  0.440773  0.059227  1
  Ho  Ho9  1  0.895573  0.313282  0.895573  1
  Ho  Ho10  1  0.314714  0.685286  0.685286  1
  Ho  Ho11  1  0.895573  0.895573  0.313282  1
  Ho  Ho12  1  0.440773  0.440773  0.059227  1
  Ho  Ho13  1  0.314714  0.314714  0.685286  1
  Ho  Ho14  1  0.685286  0.685286  0.314714  1
  Ho  Ho15  1  0.059227  0.059227  0.440773  1
  Zn  Zn16  1  0.985814  0.671395  0.671395  1
  Zn  Zn17  1  0.671395  0.985814  0.671395  1
  Zn  Zn18  1  0.671395  0.671395  0.985814  1
  Zn  Zn19  1  0.671395  0.671395  0.671395  1
  Rh  Rh20  1  0.106273  0.106273  0.681182  1
  Rh  Rh21  1  0.106273  0.681182  0.106273  1
  Rh  Rh22  1  0.106273  0.106273  0.106273  1
  Rh  Rh23  1  0.681182  0.106273  0.106273  1
