# generated using pymatgen
data_Tb4Al24NiPt8
_symmetry_space_group_name_H-M   'P 1'
_cell_length_a   7.51872566
_cell_length_b   7.51865979
_cell_length_c   13.15415469
_cell_angle_alpha   84.34689380
_cell_angle_beta   78.98109841
_cell_angle_gamma   60.07872812
_symmetry_Int_Tables_number   1
_chemical_formula_structural   Tb4Al24NiPt8
_chemical_formula_sum   'Tb4 Al24 Ni1 Pt8'
_cell_volume   632.61273427
_cell_formula_units_Z   1
loop_
 _symmetry_equiv_pos_site_id
 _symmetry_equiv_pos_as_xyz
  1  'x, y, z'
loop_
 _atom_site_type_symbol
 _atom_site_label
 _atom_site_symmetry_multiplicity
 _atom_site_fract_x
 _atom_site_fract_y
 _atom_site_fract_z
 _atom_site_occupancy
  Tb  Tb0  1  0.395526  0.165625  0.808623  1
  Tb  Tb1  1  0.604474  0.834375  0.191377  1
  Tb  Tb2  1  0.731424  0.497796  0.808705  1
  Tb  Tb3  1  0.268576  0.502204  0.191295  1
  Al  Al4  1  0.689689  0.827061  0.946534  1
  Al  Al5  1  0.310311  0.172939  0.053466  1
  Al  Al6  1  0.146520  0.832572  0.561234  1
  Al  Al7  1  0.853480  0.167428  0.438766  1
  Al  Al8  1  0.479810  0.167397  0.558696  1
  Al  Al9  1  0.520190  0.832603  0.441304  1
  Al  Al10  1  0.216037  0.166290  0.329209  1
  Al  Al11  1  0.783963  0.833710  0.670791  1
  Al  Al12  1  0.436096  0.506637  0.670903  1
  Al  Al13  1  0.563904  0.493363  0.329097  1
  Al  Al14  1  0.109586  0.159733  0.669240  1
  Al  Al15  1  0.890414  0.840267  0.330760  1
  Al  Al16  1  0.346157  0.498694  0.946627  1
  Al  Al17  1  0.653843  0.501306  0.053373  1
  Al  Al18  1  0.014480  0.174650  0.956172  1
  Al  Al19  1  0.985520  0.825350  0.043828  1
  Al  Al20  1  0.186753  0.498395  0.441292  1
  Al  Al21  1  0.813247  0.501605  0.558708  1
  Al  Al22  1  0.736523  0.164917  0.182661  1
  Al  Al23  1  0.263477  0.835083  0.817339  1
  Al  Al24  1  0.059882  0.624284  0.819981  1
  Al  Al25  1  0.940118  0.375716  0.180019  1
  Al  Al26  1  0.857256  0.038792  0.817061  1
  Al  Al27  1  0.142744  0.961208  0.182940  1
  Ni  Ni28  1  0.000000  0.500000  0.000000  1
  Pt  Pt29  1  0.119682  0.492835  0.639108  1
  Pt  Pt30  1  0.880318  0.507165  0.360892  1
  Pt  Pt31  1  0.657179  0.171337  0.000026  1
  Pt  Pt32  1  0.342821  0.828663  0.999974  1
  Pt  Pt33  1  0.537858  0.166668  0.360979  1
  Pt  Pt34  1  0.462142  0.833332  0.639021  1
  Pt  Pt35  1  0.778519  0.175206  0.637842  1
  Pt  Pt36  1  0.221481  0.824794  0.362158  1
