# generated using pymatgen
data_Pr6ZrP12Rh17
_symmetry_space_group_name_H-M   'P 1'
_cell_length_a   3.98748300
_cell_length_b   11.36878500
_cell_length_c   13.03362400
_cell_angle_alpha   90.00000000
_cell_angle_beta   90.00000000
_cell_angle_gamma   90.00000000
_symmetry_Int_Tables_number   1
_chemical_formula_structural   Pr6ZrP12Rh17
_chemical_formula_sum   'Pr6 Zr1 P12 Rh17'
_cell_volume   590.85115124
_cell_formula_units_Z   1
loop_
 _symmetry_equiv_pos_site_id
 _symmetry_equiv_pos_as_xyz
  1  'x, y, z'
loop_
 _atom_site_type_symbol
 _atom_site_label
 _atom_site_symmetry_multiplicity
 _atom_site_fract_x
 _atom_site_fract_y
 _atom_site_fract_z
 _atom_site_occupancy
  Pr  Pr0  1  0.000000  0.500000  0.522169  1
  Pr  Pr1  1  0.500000  0.000000  0.478431  1
  Pr  Pr2  1  0.500000  0.817432  0.206453  1
  Pr  Pr3  1  0.500000  0.182568  0.206453  1
  Pr  Pr4  1  0.000000  0.682974  0.797287  1
  Pr  Pr5  1  0.000000  0.317026  0.797287  1
  Zr  Zr6  1  0.500000  0.500000  0.154821  1
  P  P7  1  0.500000  0.500000  0.880179  1
  P  P8  1  0.000000  0.000000  0.116988  1
  P  P9  1  0.500000  0.500000  0.354281  1
  P  P10  1  0.000000  0.000000  0.654420  1
  P  P11  1  0.500000  0.310670  0.617436  1
  P  P12  1  0.500000  0.689330  0.617436  1
  P  P13  1  0.000000  0.188981  0.385889  1
  P  P14  1  0.000000  0.811019  0.385889  1
  P  P15  1  0.500000  0.851630  0.889429  1
  P  P16  1  0.500000  0.148370  0.889429  1
  P  P17  1  0.000000  0.658434  0.104568  1
  P  P18  1  0.000000  0.341566  0.104568  1
  Rh  Rh19  1  0.000000  0.000000  0.832609  1
  Rh  Rh20  1  0.500000  0.500000  0.701614  1
  Rh  Rh21  1  0.000000  0.000000  0.296786  1
  Rh  Rh22  1  0.000000  0.500000  0.984684  1
  Rh  Rh23  1  0.500000  0.000000  0.016498  1
  Rh  Rh24  1  0.500000  0.330139  0.989205  1
  Rh  Rh25  1  0.500000  0.669861  0.989205  1
  Rh  Rh26  1  0.000000  0.164117  0.005635  1
  Rh  Rh27  1  0.000000  0.835883  0.005635  1
  Rh  Rh28  1  0.500000  0.290031  0.434284  1
  Rh  Rh29  1  0.500000  0.709969  0.434284  1
  Rh  Rh30  1  0.000000  0.204152  0.571031  1
  Rh  Rh31  1  0.000000  0.795848  0.571031  1
  Rh  Rh32  1  0.500000  0.876439  0.709349  1
  Rh  Rh33  1  0.500000  0.123561  0.709349  1
  Rh  Rh34  1  0.000000  0.625729  0.292695  1
  Rh  Rh35  1  0.000000  0.374271  0.292695  1
