# generated using pymatgen
data_Nd5TmTa2O14
_symmetry_space_group_name_H-M   'P 1'
_cell_length_a   6.65133825
_cell_length_b   6.61742292
_cell_length_c   7.68461900
_cell_angle_alpha   90.00000000
_cell_angle_beta   90.00000000
_cell_angle_gamma   108.96153349
_symmetry_Int_Tables_number   1
_chemical_formula_structural   Nd5TmTa2O14
_chemical_formula_sum   'Nd5 Tm1 Ta2 O14'
_cell_volume   319.88260039
_cell_formula_units_Z   1
loop_
 _symmetry_equiv_pos_site_id
 _symmetry_equiv_pos_as_xyz
  1  'x, y, z'
loop_
 _atom_site_type_symbol
 _atom_site_label
 _atom_site_symmetry_multiplicity
 _atom_site_fract_x
 _atom_site_fract_y
 _atom_site_fract_z
 _atom_site_occupancy
  Nd  Nd0  1  0.530308  0.523442  0.498361  1
  Nd  Nd1  1  0.530308  0.523442  0.001639  1
  Nd  Nd2  1  0.006268  0.463490  0.750000  1
  Nd  Nd3  1  0.533635  0.002985  0.750000  1
  Nd  Nd4  1  0.463039  0.002730  0.250000  1
  Tm  Tm5  1  0.002354  0.529769  0.250000  1
  Ta  Ta6  1  0.001551  0.001807  0.497172  1
  Ta  Ta7  1  0.001551  0.001807  0.002828  1
  O  O8  1  0.946278  0.058174  0.750000  1
  O  O9  1  0.060465  0.935538  0.250000  1
  O  O10  1  0.349367  0.632173  0.250000  1
  O  O11  1  0.641587  0.370219  0.750000  1
  O  O12  1  0.371232  0.630587  0.750000  1
  O  O13  1  0.647157  0.378973  0.250000  1
  O  O14  1  0.311372  0.075032  0.969837  1
  O  O15  1  0.678399  0.916804  0.473003  1
  O  O16  1  0.311372  0.075032  0.530163  1
  O  O17  1  0.678399  0.916804  0.026997  1
  O  O18  1  0.035062  0.301083  0.455447  1
  O  O19  1  0.932618  0.679513  0.978563  1
  O  O20  1  0.932618  0.679513  0.521437  1
  O  O21  1  0.035062  0.301083  0.044553  1
