# generated using pymatgen
data_Zr6Ti7ZnGa9Rh7
_symmetry_space_group_name_H-M   'P 1'
_cell_length_a   8.87233909
_cell_length_b   8.87231400
_cell_length_c   8.87232168
_cell_angle_alpha   60.37549917
_cell_angle_beta   60.37542790
_cell_angle_gamma   60.37561442
_symmetry_Int_Tables_number   1
_chemical_formula_structural   Zr6Ti7ZnGa9Rh7
_chemical_formula_sum   'Zr6 Ti7 Zn1 Ga9 Rh7'
_cell_volume   498.04707804
_cell_formula_units_Z   1
loop_
 _symmetry_equiv_pos_site_id
 _symmetry_equiv_pos_as_xyz
  1  'x, y, z'
loop_
 _atom_site_type_symbol
 _atom_site_label
 _atom_site_symmetry_multiplicity
 _atom_site_fract_x
 _atom_site_fract_y
 _atom_site_fract_z
 _atom_site_occupancy
  Zr  Zr0  1  0.210166  0.210167  0.787950  1
  Zr  Zr1  1  0.787950  0.210169  0.210168  1
  Zr  Zr2  1  0.210170  0.787946  0.210169  1
  Zr  Zr3  1  0.791810  0.791808  0.199990  1
  Zr  Zr4  1  0.199993  0.791810  0.791809  1
  Zr  Zr5  1  0.791815  0.199985  0.791812  1
  Ti  Ti6  1  0.375807  0.375809  0.375812  1
  Ti  Ti7  1  0.377116  0.870458  0.377116  1
  Ti  Ti8  1  0.870448  0.377120  0.377121  1
  Ti  Ti9  1  0.377121  0.377121  0.870452  1
  Ti  Ti10  1  0.833305  0.505558  0.833304  1
  Ti  Ti11  1  0.505561  0.833305  0.833303  1
  Ti  Ti12  1  0.833304  0.833306  0.505556  1
  Zn  Zn13  1  0.002395  0.002390  0.002400  1
  Ga  Ga14  1  0.156734  0.156741  0.156734  1
  Ga  Ga15  1  0.159130  0.523295  0.159131  1
  Ga  Ga16  1  0.523299  0.159127  0.159134  1
  Ga  Ga17  1  0.159134  0.159128  0.523292  1
  Ga  Ga18  1  0.619076  0.619074  0.619081  1
  Ga  Ga19  1  0.615544  0.149359  0.615550  1
  Ga  Ga20  1  0.149359  0.615545  0.615546  1
  Ga  Ga21  1  0.615547  0.615550  0.149352  1
  Ga  Ga22  1  0.833233  0.833235  0.833232  1
  Rh  Rh23  1  0.003196  0.003200  0.491938  1
  Rh  Rh24  1  0.491936  0.003205  0.003198  1
  Rh  Rh25  1  0.003199  0.491944  0.003192  1
  Rh  Rh26  1  0.501329  0.501324  0.000224  1
  Rh  Rh27  1  0.000215  0.501325  0.501331  1
  Rh  Rh28  1  0.501329  0.000212  0.501331  1
  Rh  Rh29  1  0.500781  0.500782  0.500773  1
