# generated using pymatgen
data_Th2Co2Si5Pd
_symmetry_space_group_name_H-M   'P 1'
_cell_length_a   8.08737164
_cell_length_b   8.08737111
_cell_length_c   8.08737191
_cell_angle_alpha   137.60043400
_cell_angle_beta   105.89239383
_cell_angle_gamma   89.29570530
_symmetry_Int_Tables_number   1
_chemical_formula_structural   Th2Co2Si5Pd
_chemical_formula_sum   'Th4 Co4 Si10 Pd2'
_cell_volume   328.00272794
_cell_formula_units_Z   2
loop_
 _symmetry_equiv_pos_site_id
 _symmetry_equiv_pos_as_xyz
  1  'x, y, z'
loop_
 _atom_site_type_symbol
 _atom_site_label
 _atom_site_symmetry_multiplicity
 _atom_site_fract_x
 _atom_site_fract_y
 _atom_site_fract_z
 _atom_site_occupancy
  Th  Th0  1  0.864436  0.629427  0.235010  1
  Th  Th1  1  0.135564  0.370573  0.764990  1
  Th  Th2  1  0.394417  0.129427  0.264990  1
  Th  Th3  1  0.605583  0.870573  0.735010  1
  Co  Co4  1  0.255107  0.865221  0.389887  1
  Co  Co5  1  0.744893  0.134779  0.610113  1
  Co  Co6  1  0.475335  0.365221  0.110113  1
  Co  Co7  1  0.524665  0.634779  0.889887  1
  Si  Si8  1  0.500000  0.750000  0.250000  1
  Si  Si9  1  0.500000  0.250000  0.750000  1
  Si  Si10  1  0.241592  0.991592  0.750000  1
  Si  Si11  1  0.758408  0.508408  0.750000  1
  Si  Si12  1  0.758408  0.008408  0.250000  1
  Si  Si13  1  0.241592  0.491592  0.250000  1
  Si  Si14  1  0.040397  0.883408  0.156990  1
  Si  Si15  1  0.959603  0.116592  0.843010  1
  Si  Si16  1  0.726418  0.383408  0.343010  1
  Si  Si17  1  0.273582  0.616592  0.656990  1
  Pd  Pd18  1  0.000000  0.750000  0.750000  1
  Pd  Pd19  1  0.000000  0.250000  0.250000  1
