# generated using pymatgen
data_HoTmCdGa2
_symmetry_space_group_name_H-M   'P 1'
_cell_length_a   7.29450272
_cell_length_b   7.29450177
_cell_length_c   4.24009000
_cell_angle_alpha   90.00000000
_cell_angle_beta   90.00000000
_cell_angle_gamma   89.63354791
_symmetry_Int_Tables_number   1
_chemical_formula_structural   HoTmCdGa2
_chemical_formula_sum   'Ho2 Tm2 Cd2 Ga4'
_cell_volume   225.60956962
_cell_formula_units_Z   2
loop_
 _symmetry_equiv_pos_site_id
 _symmetry_equiv_pos_as_xyz
  1  'x, y, z'
loop_
 _atom_site_type_symbol
 _atom_site_label
 _atom_site_symmetry_multiplicity
 _atom_site_fract_x
 _atom_site_fract_y
 _atom_site_fract_z
 _atom_site_occupancy
  Ho  Ho0  1  0.672036  0.172036  0.500000  1
  Ho  Ho1  1  0.327964  0.827964  0.500000  1
  Tm  Tm2  1  0.171081  0.328919  0.500000  1
  Tm  Tm3  1  0.828919  0.671081  0.500000  1
  Cd  Cd4  1  0.000000  0.000000  0.000000  1
  Cd  Cd5  1  0.500000  0.500000  0.000000  1
  Ga  Ga6  1  0.125646  0.625646  0.000000  1
  Ga  Ga7  1  0.874354  0.374354  0.000000  1
  Ga  Ga8  1  0.626955  0.873045  0.000000  1
  Ga  Ga9  1  0.373045  0.126955  0.000000  1
