# generated using pymatgen
data_Er3Lu(Ga2Ag)4
_symmetry_space_group_name_H-M   'P 1'
_cell_length_a   4.35990500
_cell_length_b   6.90596003
_cell_length_c   10.20595594
_cell_angle_alpha   89.98098482
_cell_angle_beta   90.00000000
_cell_angle_gamma   90.00000000
_symmetry_Int_Tables_number   1
_chemical_formula_structural   Er3Lu(Ga2Ag)4
_chemical_formula_sum   'Er3 Lu1 Ga8 Ag4'
_cell_volume   307.29447505
_cell_formula_units_Z   1
loop_
 _symmetry_equiv_pos_site_id
 _symmetry_equiv_pos_as_xyz
  1  'x, y, z'
loop_
 _atom_site_type_symbol
 _atom_site_label
 _atom_site_symmetry_multiplicity
 _atom_site_fract_x
 _atom_site_fract_y
 _atom_site_fract_z
 _atom_site_occupancy
  Er  Er0  1  0.250000  0.778972  0.824838  1
  Er  Er1  1  0.750000  0.221061  0.175145  1
  Er  Er2  1  0.750000  0.720881  0.324795  1
  Lu  Lu3  1  0.250000  0.279091  0.675211  1
  Ga  Ga4  1  0.250000  0.929189  0.154750  1
  Ga  Ga5  1  0.750000  0.070725  0.845144  1
  Ga  Ga6  1  0.750000  0.569906  0.654839  1
  Ga  Ga7  1  0.250000  0.429545  0.345211  1
  Ga  Ga8  1  0.250000  0.701413  0.536208  1
  Ga  Ga9  1  0.750000  0.298712  0.464083  1
  Ga  Ga10  1  0.750000  0.798448  0.036361  1
  Ga  Ga11  1  0.250000  0.201504  0.963611  1
  Ag  Ag12  1  0.250000  0.544472  0.096203  1
  Ag  Ag13  1  0.750000  0.455437  0.903867  1
  Ag  Ag14  1  0.750000  0.956026  0.596046  1
  Ag  Ag15  1  0.250000  0.044619  0.403686  1
