# generated using pymatgen
data_Dy7Lu(HgRh)2
_symmetry_space_group_name_H-M   'P 1'
_cell_length_a   9.56940631
_cell_length_b   9.58311787
_cell_length_c   9.56761178
_cell_angle_alpha   59.94637288
_cell_angle_beta   60.03891984
_cell_angle_gamma   59.95258484
_symmetry_Int_Tables_number   1
_chemical_formula_structural   Dy7Lu(HgRh)2
_chemical_formula_sum   'Dy14 Lu2 Hg4 Rh4'
_cell_volume   620.11993286
_cell_formula_units_Z   2
loop_
 _symmetry_equiv_pos_site_id
 _symmetry_equiv_pos_as_xyz
  1  'x, y, z'
loop_
 _atom_site_type_symbol
 _atom_site_label
 _atom_site_symmetry_multiplicity
 _atom_site_fract_x
 _atom_site_fract_y
 _atom_site_fract_z
 _atom_site_occupancy
  Dy  Dy0  1  0.313460  0.687907  0.310726  1
  Dy  Dy1  1  0.935257  0.937574  0.562453  1
  Dy  Dy2  1  0.146977  0.149961  0.553100  1
  Dy  Dy3  1  0.563019  0.938124  0.560734  1
  Dy  Dy4  1  0.147225  0.150323  0.150243  1
  Dy  Dy5  1  0.312284  0.309659  0.689169  1
  Dy  Dy6  1  0.935257  0.564716  0.562453  1
  Dy  Dy7  1  0.562191  0.562769  0.938390  1
  Dy  Dy8  1  0.562191  0.936650  0.938390  1
  Dy  Dy9  1  0.934861  0.563346  0.938448  1
  Dy  Dy10  1  0.147225  0.552209  0.150243  1
  Dy  Dy11  1  0.312284  0.688888  0.689169  1
  Dy  Dy12  1  0.688664  0.311874  0.687588  1
  Dy  Dy13  1  0.557309  0.147666  0.147357  1
  Lu  Lu14  1  0.689177  0.311866  0.311146  1
  Lu  Lu15  1  0.689177  0.687811  0.311146  1
  Hg  Hg16  1  0.916200  0.914943  0.253912  1
  Hg  Hg17  1  0.254044  0.915192  0.915572  1
  Hg  Hg18  1  0.916057  0.253704  0.915500  1
  Hg  Hg19  1  0.916057  0.914738  0.915500  1
  Rh  Rh20  1  0.360070  0.355955  0.356883  1
  Rh  Rh21  1  0.924345  0.359776  0.356104  1
  Rh  Rh22  1  0.356596  0.357254  0.928897  1
  Rh  Rh23  1  0.360070  0.927094  0.356883  1
