# generated using pymatgen
data_Ho6Al24NiRu4Pt3
_symmetry_space_group_name_H-M   'P 1'
_cell_length_a   8.81772948
_cell_length_b   8.81517187
_cell_length_c   9.48129824
_cell_angle_alpha   89.72046037
_cell_angle_beta   89.94260211
_cell_angle_gamma   119.66803745
_symmetry_Int_Tables_number   1
_chemical_formula_structural   Ho6Al24NiRu4Pt3
_chemical_formula_sum   'Ho6 Al24 Ni1 Ru4 Pt3'
_cell_volume   640.35457717
_cell_formula_units_Z   1
loop_
 _symmetry_equiv_pos_site_id
 _symmetry_equiv_pos_as_xyz
  1  'x, y, z'
loop_
 _atom_site_type_symbol
 _atom_site_label
 _atom_site_symmetry_multiplicity
 _atom_site_fract_x
 _atom_site_fract_y
 _atom_site_fract_z
 _atom_site_occupancy
  Ho  Ho0  1  0.188258  0.382495  0.248147  1
  Ho  Ho1  1  0.811742  0.617505  0.751853  1
  Ho  Ho2  1  0.617147  0.811474  0.250742  1
  Ho  Ho3  1  0.382853  0.188526  0.749258  1
  Ho  Ho4  1  0.192023  0.807993  0.248195  1
  Ho  Ho5  1  0.807977  0.192007  0.751805  1
  Al  Al6  1  0.340258  0.668672  0.029476  1
  Al  Al7  1  0.659742  0.331328  0.970524  1
  Al  Al8  1  0.672343  0.336578  0.529467  1
  Al  Al9  1  0.327657  0.663422  0.470533  1
  Al  Al10  1  0.158516  0.324871  0.576226  1
  Al  Al11  1  0.841484  0.675129  0.423774  1
  Al  Al12  1  0.675968  0.836576  0.577741  1
  Al  Al13  1  0.832783  0.674424  0.076543  1
  Al  Al14  1  0.324032  0.163424  0.422259  1
  Al  Al15  1  0.167217  0.325576  0.923457  1
  Al  Al16  1  0.158022  0.832091  0.576538  1
  Al  Al17  1  0.325813  0.161628  0.075722  1
  Al  Al18  1  0.841978  0.167909  0.423462  1
  Al  Al19  1  0.674187  0.838372  0.924278  1
  Al  Al20  1  0.831732  0.159038  0.076558  1
  Al  Al21  1  0.168268  0.840962  0.923442  1
  Al  Al22  1  0.561982  0.126508  0.245755  1
  Al  Al23  1  0.438018  0.873492  0.754245  1
  Al  Al24  1  0.873554  0.438187  0.253549  1
  Al  Al25  1  0.126446  0.561813  0.746451  1
  Al  Al26  1  0.560424  0.439230  0.243692  1
  Al  Al27  1  0.439576  0.560770  0.756308  1
  Al  Al28  1  0.998655  0.000785  0.249966  1
  Al  Al29  1  0.001345  0.999215  0.750034  1
  Ni  Ni30  1  0.500000  0.500000  0.000000  1
  Ru  Ru31  1  0.500000  0.000000  0.000000  1
  Ru  Ru32  1  0.000000  0.500000  0.500000  1
  Ru  Ru33  1  0.000000  0.000000  0.000000  1
  Ru  Ru34  1  0.000000  0.000000  0.500000  1
  Pt  Pt35  1  0.000000  0.500000  0.000000  1
  Pt  Pt36  1  0.500000  0.000000  0.500000  1
  Pt  Pt37  1  0.500000  0.500000  0.500000  1
