# generated using pymatgen
data_La7CdSbPd24
_symmetry_space_group_name_H-M   'P 1'
_cell_length_a   8.56760480
_cell_length_b   8.56760480
_cell_length_c   8.56760480
_cell_angle_alpha   90.32753770
_cell_angle_beta   90.32753770
_cell_angle_gamma   89.67246230
_symmetry_Int_Tables_number   1
_chemical_formula_structural   La7CdSbPd24
_chemical_formula_sum   'La7 Cd1 Sb1 Pd24'
_cell_volume   628.86448331
_cell_formula_units_Z   1
loop_
 _symmetry_equiv_pos_site_id
 _symmetry_equiv_pos_as_xyz
  1  'x, y, z'
loop_
 _atom_site_type_symbol
 _atom_site_label
 _atom_site_symmetry_multiplicity
 _atom_site_fract_x
 _atom_site_fract_y
 _atom_site_fract_z
 _atom_site_occupancy
  La  La0  1  0.747762  0.252554  0.747446  1
  La  La1  1  0.252554  0.747762  0.747446  1
  La  La2  1  0.745977  0.745977  0.747321  1
  La  La3  1  0.745977  0.252679  0.254023  1
  La  La4  1  0.253835  0.253835  0.746165  1
  La  La5  1  0.252679  0.745977  0.254023  1
  La  La6  1  0.252554  0.252554  0.252238  1
  Cd  Cd7  1  0.747266  0.747266  0.252734  1
  Sb  Sb8  1  0.004337  0.004337  0.995663  1
  Pd  Pd9  1  0.993490  0.993490  0.306277  1
  Pd  Pd10  1  0.732834  0.994565  0.498189  1
  Pd  Pd11  1  0.732834  0.501811  0.005435  1
  Pd  Pd12  1  0.501855  0.000653  0.734589  1
  Pd  Pd13  1  0.994565  0.732834  0.498189  1
  Pd  Pd14  1  0.501811  0.994565  0.267166  1
  Pd  Pd15  1  0.000653  0.265411  0.498145  1
  Pd  Pd16  1  0.501811  0.732834  0.005435  1
  Pd  Pd17  1  0.255263  0.500568  0.499432  1
  Pd  Pd18  1  0.500568  0.500568  0.744737  1
  Pd  Pd19  1  0.503215  0.503215  0.255500  1
  Pd  Pd20  1  0.500568  0.255263  0.499432  1
  Pd  Pd21  1  0.503215  0.744500  0.496785  1
  Pd  Pd22  1  0.744500  0.503215  0.496785  1
  Pd  Pd23  1  0.314283  0.000243  0.999757  1
  Pd  Pd24  1  0.000243  0.000243  0.685717  1
  Pd  Pd25  1  0.994565  0.501811  0.267166  1
  Pd  Pd26  1  0.000243  0.314283  0.999757  1
  Pd  Pd27  1  0.993490  0.693723  0.006510  1
  Pd  Pd28  1  0.693723  0.993490  0.006510  1
  Pd  Pd29  1  0.265411  0.501855  0.999347  1
  Pd  Pd30  1  0.265411  0.000653  0.498145  1
  Pd  Pd31  1  0.000653  0.501855  0.734589  1
  Pd  Pd32  1  0.501855  0.265411  0.999347  1
