# generated using pymatgen
data_Ba(PPt3)2
_symmetry_space_group_name_H-M   'P 1'
_cell_length_a   8.66008400
_cell_length_b   8.66008400
_cell_length_c   8.66008400
_cell_angle_alpha   90.00000000
_cell_angle_beta   90.00000000
_cell_angle_gamma   90.00000000
_symmetry_Int_Tables_number   1
_chemical_formula_structural   Ba(PPt3)2
_chemical_formula_sum   'Ba4 P8 Pt24'
_cell_volume   649.48079507
_cell_formula_units_Z   4
loop_
 _symmetry_equiv_pos_site_id
 _symmetry_equiv_pos_as_xyz
  1  'x, y, z'
loop_
 _atom_site_type_symbol
 _atom_site_label
 _atom_site_symmetry_multiplicity
 _atom_site_fract_x
 _atom_site_fract_y
 _atom_site_fract_z
 _atom_site_occupancy
  Ba  Ba0  1  0.500000  0.500000  0.000000  1
  Ba  Ba1  1  0.500000  0.000000  0.500000  1
  Ba  Ba2  1  0.000000  0.500000  0.500000  1
  Ba  Ba3  1  0.000000  0.000000  0.000000  1
  P  P4  1  0.806110  0.306110  0.193890  1
  P  P5  1  0.193890  0.806110  0.306110  1
  P  P6  1  0.693890  0.693890  0.693890  1
  P  P7  1  0.306110  0.193890  0.806110  1
  P  P8  1  0.193890  0.693890  0.806110  1
  P  P9  1  0.806110  0.193890  0.693890  1
  P  P10  1  0.306110  0.306110  0.306110  1
  P  P11  1  0.693890  0.806110  0.193890  1
  Pt  Pt12  1  0.421132  0.843504  0.156011  1
  Pt  Pt13  1  0.578868  0.343504  0.343989  1
  Pt  Pt14  1  0.078868  0.156496  0.656011  1
  Pt  Pt15  1  0.921132  0.656496  0.843989  1
  Pt  Pt16  1  0.156011  0.421132  0.843504  1
  Pt  Pt17  1  0.343989  0.578868  0.343504  1
  Pt  Pt18  1  0.656011  0.078868  0.156496  1
  Pt  Pt19  1  0.843989  0.921132  0.656496  1
  Pt  Pt20  1  0.843504  0.156011  0.421132  1
  Pt  Pt21  1  0.343504  0.343989  0.578868  1
  Pt  Pt22  1  0.156496  0.656011  0.078868  1
  Pt  Pt23  1  0.656496  0.843989  0.921132  1
  Pt  Pt24  1  0.578868  0.156496  0.843989  1
  Pt  Pt25  1  0.421132  0.656496  0.656011  1
  Pt  Pt26  1  0.921132  0.843504  0.343989  1
  Pt  Pt27  1  0.078868  0.343504  0.156011  1
  Pt  Pt28  1  0.843989  0.578868  0.156496  1
  Pt  Pt29  1  0.656011  0.421132  0.656496  1
  Pt  Pt30  1  0.343989  0.921132  0.843504  1
  Pt  Pt31  1  0.156011  0.078868  0.343504  1
  Pt  Pt32  1  0.156496  0.843989  0.578868  1
  Pt  Pt33  1  0.656496  0.656011  0.421132  1
  Pt  Pt34  1  0.843504  0.343989  0.921132  1
  Pt  Pt35  1  0.343504  0.156011  0.078868  1
