# generated using pymatgen
data_Tb4Dy7Tm5(InIr)4
_symmetry_space_group_name_H-M   'P 1'
_cell_length_a   9.64450532
_cell_length_b   9.64450541
_cell_length_c   9.65101000
_cell_angle_alpha   59.97768052
_cell_angle_beta   59.97768019
_cell_angle_gamma   60.04343157
_symmetry_Int_Tables_number   1
_chemical_formula_structural   Tb4Dy7Tm5(InIr)4
_chemical_formula_sum   'Tb4 Dy7 Tm5 In4 Ir4'
_cell_volume   634.76553797
_cell_formula_units_Z   1
loop_
 _symmetry_equiv_pos_site_id
 _symmetry_equiv_pos_as_xyz
  1  'x, y, z'
loop_
 _atom_site_type_symbol
 _atom_site_label
 _atom_site_symmetry_multiplicity
 _atom_site_fract_x
 _atom_site_fract_y
 _atom_site_fract_z
 _atom_site_occupancy
  Tb  Tb0  1  0.599704  0.599704  0.598940  1
  Tb  Tb1  1  0.599704  0.599704  0.201653  1
  Tb  Tb2  1  0.600011  0.201145  0.599421  1
  Tb  Tb3  1  0.201145  0.600011  0.599421  1
  Dy  Dy4  1  0.061052  0.061052  0.438948  1
  Dy  Dy5  1  0.190079  0.810106  0.810885  1
  Dy  Dy6  1  0.810106  0.190079  0.188929  1
  Dy  Dy7  1  0.810106  0.190079  0.810885  1
  Dy  Dy8  1  0.190079  0.810106  0.188929  1
  Dy  Dy9  1  0.810505  0.810505  0.189495  1
  Dy  Dy10  1  0.189957  0.189957  0.810043  1
  Tm  Tm11  1  0.060563  0.438843  0.439379  1
  Tm  Tm12  1  0.438843  0.060563  0.061216  1
  Tm  Tm13  1  0.438843  0.060563  0.439379  1
  Tm  Tm14  1  0.060563  0.438843  0.061216  1
  Tm  Tm15  1  0.438361  0.438361  0.061639  1
  In  In16  1  0.833063  0.833063  0.833242  1
  In  In17  1  0.833063  0.833063  0.500633  1
  In  In18  1  0.832778  0.501103  0.833060  1
  In  In19  1  0.501103  0.832778  0.833060  1
  Ir  Ir20  1  0.390229  0.390229  0.390722  1
  Ir  Ir21  1  0.390229  0.390229  0.828821  1
  Ir  Ir22  1  0.392422  0.827493  0.390044  1
  Ir  Ir23  1  0.827493  0.392422  0.390044  1
