# generated using pymatgen
data_Nd15Sm(CdCo)4
_symmetry_space_group_name_H-M   'P 1'
_cell_length_a   9.80906005
_cell_length_b   9.80906023
_cell_length_c   9.81260800
_cell_angle_alpha   59.98802816
_cell_angle_beta   59.98802754
_cell_angle_gamma   60.13657959
_symmetry_Int_Tables_number   1
_chemical_formula_structural   Nd15Sm(CdCo)4
_chemical_formula_sum   'Nd15 Sm1 Cd4 Co4'
_cell_volume   668.17734245
_cell_formula_units_Z   1
loop_
 _symmetry_equiv_pos_site_id
 _symmetry_equiv_pos_as_xyz
  1  'x, y, z'
loop_
 _atom_site_type_symbol
 _atom_site_label
 _atom_site_symmetry_multiplicity
 _atom_site_fract_x
 _atom_site_fract_y
 _atom_site_fract_z
 _atom_site_occupancy
  Nd  Nd0  1  0.152286  0.540328  0.153693  1
  Nd  Nd1  1  0.688474  0.311284  0.688939  1
  Nd  Nd2  1  0.688474  0.311284  0.311303  1
  Nd  Nd3  1  0.939370  0.560630  0.562126  1
  Nd  Nd4  1  0.540328  0.152286  0.153693  1
  Nd  Nd5  1  0.154241  0.154241  0.539412  1
  Nd  Nd6  1  0.940131  0.940131  0.559869  1
  Nd  Nd7  1  0.311284  0.688474  0.311303  1
  Nd  Nd8  1  0.560630  0.939370  0.937873  1
  Nd  Nd9  1  0.560630  0.939370  0.562126  1
  Nd  Nd10  1  0.690289  0.690289  0.309711  1
  Nd  Nd11  1  0.559902  0.559902  0.940098  1
  Nd  Nd12  1  0.939370  0.560630  0.937873  1
  Nd  Nd13  1  0.311284  0.688474  0.688939  1
  Nd  Nd14  1  0.154241  0.154241  0.152106  1
  Sm  Sm15  1  0.310202  0.310202  0.689798  1
  Cd  Cd16  1  0.921051  0.239006  0.919971  1
  Cd  Cd17  1  0.920637  0.920637  0.920248  1
  Cd  Cd18  1  0.920637  0.920637  0.238477  1
  Cd  Cd19  1  0.239006  0.921051  0.919971  1
  Co  Co20  1  0.358694  0.358694  0.921889  1
  Co  Co21  1  0.358032  0.922112  0.359928  1
  Co  Co22  1  0.922112  0.358032  0.359928  1
  Co  Co23  1  0.358694  0.358694  0.360723  1
