# generated using pymatgen
data_Sr3Si2Rh7
_symmetry_space_group_name_H-M   'P 1'
_cell_length_a   8.65854947
_cell_length_b   8.65854826
_cell_length_c   8.65854900
_cell_angle_alpha   38.14627095
_cell_angle_beta   38.14627779
_cell_angle_gamma   38.14627982
_symmetry_Int_Tables_number   1
_chemical_formula_structural   Sr3Si2Rh7
_chemical_formula_sum   'Sr3 Si2 Rh7'
_cell_volume   222.36771269
_cell_formula_units_Z   1
loop_
 _symmetry_equiv_pos_site_id
 _symmetry_equiv_pos_as_xyz
  1  'x, y, z'
loop_
 _atom_site_type_symbol
 _atom_site_label
 _atom_site_symmetry_multiplicity
 _atom_site_fract_x
 _atom_site_fract_y
 _atom_site_fract_z
 _atom_site_occupancy
  Sr  Sr0  1  0.358566  0.358566  0.358566  1
  Sr  Sr1  1  0.500000  0.500000  0.500000  1
  Sr  Sr2  1  0.641434  0.641434  0.641434  1
  Si  Si3  1  0.167110  0.167110  0.167110  1
  Si  Si4  1  0.832890  0.832890  0.832890  1
  Rh  Rh5  1  0.000000  0.000000  0.000000  1
  Rh  Rh6  1  0.577957  0.070747  0.070746  1
  Rh  Rh7  1  0.070747  0.577957  0.070746  1
  Rh  Rh8  1  0.929253  0.929253  0.422044  1
  Rh  Rh9  1  0.070747  0.070747  0.577956  1
  Rh  Rh10  1  0.929253  0.422043  0.929254  1
  Rh  Rh11  1  0.422043  0.929253  0.929254  1
