# generated using pymatgen
data_Lu4AlTc3Os4
_symmetry_space_group_name_H-M   'P 1'
_cell_length_a   5.29634515
_cell_length_b   5.30464909
_cell_length_c   8.76729603
_cell_angle_alpha   90.00000071
_cell_angle_beta   89.99244329
_cell_angle_gamma   120.05185443
_symmetry_Int_Tables_number   1
_chemical_formula_structural   Lu4AlTc3Os4
_chemical_formula_sum   'Lu4 Al1 Tc3 Os4'
_cell_volume   213.20730072
_cell_formula_units_Z   1
loop_
 _symmetry_equiv_pos_site_id
 _symmetry_equiv_pos_as_xyz
  1  'x, y, z'
loop_
 _atom_site_type_symbol
 _atom_site_label
 _atom_site_symmetry_multiplicity
 _atom_site_fract_x
 _atom_site_fract_y
 _atom_site_fract_z
 _atom_site_occupancy
  Lu  Lu0  1  0.335881  0.667941  0.435688  1
  Lu  Lu1  1  0.669367  0.334683  0.562580  1
  Lu  Lu2  1  0.667364  0.333681  0.932326  1
  Lu  Lu3  1  0.334082  0.667042  0.069761  1
  Al  Al4  1  0.997986  0.998993  0.001714  1
  Tc  Tc5  1  0.170388  0.340476  0.750211  1
  Tc  Tc6  1  0.170388  0.829912  0.750211  1
  Tc  Tc7  1  0.341073  0.170536  0.250709  1
  Os  Os8  1  0.827742  0.656678  0.248054  1
  Os  Os9  1  0.656804  0.828403  0.752910  1
  Os  Os10  1  0.827742  0.171063  0.248054  1
  Os  Os11  1  0.001186  0.000593  0.497783  1
