# generated using pymatgen
data_KMnFe(Sb6Pt)2
_symmetry_space_group_name_H-M   'P 1'
_cell_length_a   8.14540848
_cell_length_b   8.10023694
_cell_length_c   8.13065364
_cell_angle_alpha   109.42771075
_cell_angle_beta   109.70190046
_cell_angle_gamma   109.45934084
_symmetry_Int_Tables_number   1
_chemical_formula_structural   KMnFe(Sb6Pt)2
_chemical_formula_sum   'K1 Mn1 Fe1 Sb12 Pt2'
_cell_volume   412.06795592
_cell_formula_units_Z   1
loop_
 _symmetry_equiv_pos_site_id
 _symmetry_equiv_pos_as_xyz
  1  'x, y, z'
loop_
 _atom_site_type_symbol
 _atom_site_label
 _atom_site_symmetry_multiplicity
 _atom_site_fract_x
 _atom_site_fract_y
 _atom_site_fract_z
 _atom_site_occupancy
  K  K0  1  0.000000  0.000000  0.000000  1
  Mn  Mn1  1  0.000000  0.000000  0.500000  1
  Fe  Fe2  1  0.500000  0.000000  0.000000  1
  Sb  Sb3  1  0.852197  0.670023  0.500753  1
  Sb  Sb4  1  0.147803  0.329977  0.499247  1
  Sb  Sb5  1  0.169630  0.669856  0.817205  1
  Sb  Sb6  1  0.830370  0.330144  0.182795  1
  Sb  Sb7  1  0.649896  0.497232  0.848367  1
  Sb  Sb8  1  0.350104  0.502768  0.151633  1
  Sb  Sb9  1  0.670053  0.833395  0.163530  1
  Sb  Sb10  1  0.329947  0.166605  0.836470  1
  Sb  Sb11  1  0.501895  0.852383  0.669360  1
  Sb  Sb12  1  0.498105  0.147617  0.330640  1
  Sb  Sb13  1  0.182383  0.852702  0.350259  1
  Sb  Sb14  1  0.817617  0.147298  0.649741  1
  Pt  Pt15  1  0.500000  0.500000  0.500000  1
  Pt  Pt16  1  0.000000  0.500000  0.000000  1
