# generated using pymatgen
data_Er4GeAsSe2
_symmetry_space_group_name_H-M   'P 1'
_cell_length_a   7.07234630
_cell_length_b   7.07234669
_cell_length_c   7.07234684
_cell_angle_alpha   132.06695020
_cell_angle_beta   132.06694847
_cell_angle_gamma   70.12330465
_symmetry_Int_Tables_number   1
_chemical_formula_structural   Er4GeAsSe2
_chemical_formula_sum   'Er4 Ge1 As1 Se2'
_cell_volume   191.10561221
_cell_formula_units_Z   1
loop_
 _symmetry_equiv_pos_site_id
 _symmetry_equiv_pos_as_xyz
  1  'x, y, z'
loop_
 _atom_site_type_symbol
 _atom_site_label
 _atom_site_symmetry_multiplicity
 _atom_site_fract_x
 _atom_site_fract_y
 _atom_site_fract_z
 _atom_site_occupancy
  Er  Er0  1  0.756291  0.756291  0.000000  1
  Er  Er1  1  0.243710  0.243710  0.000000  1
  Er  Er2  1  0.004287  0.504287  0.500000  1
  Er  Er3  1  0.495713  0.995713  0.500000  1
  Ge  Ge4  1  0.000000  0.000000  0.000000  1
  As  As5  1  0.250000  0.750000  0.500000  1
  Se  Se6  1  0.500000  0.500000  0.000000  1
  Se  Se7  1  0.750000  0.250000  0.500000  1
