# generated using pymatgen
data_Er4Be7BRu10
_symmetry_space_group_name_H-M   'P 1'
_cell_length_a   3.20668500
_cell_length_b   8.92505776
_cell_length_c   10.29234948
_cell_angle_alpha   89.85591353
_cell_angle_beta   90.00000000
_cell_angle_gamma   90.00000000
_symmetry_Int_Tables_number   1
_chemical_formula_structural   Er4Be7BRu10
_chemical_formula_sum   'Er4 Be7 B1 Ru10'
_cell_volume   294.56455504
_cell_formula_units_Z   1
loop_
 _symmetry_equiv_pos_site_id
 _symmetry_equiv_pos_as_xyz
  1  'x, y, z'
loop_
 _atom_site_type_symbol
 _atom_site_label
 _atom_site_symmetry_multiplicity
 _atom_site_fract_x
 _atom_site_fract_y
 _atom_site_fract_z
 _atom_site_occupancy
  Er  Er0  1  0.500000  0.667368  0.816077  1
  Er  Er1  1  0.500000  0.337476  0.182108  1
  Er  Er2  1  0.500000  0.163205  0.682718  1
  Er  Er3  1  0.500000  0.830155  0.317731  1
  Be  Be4  1  0.500000  0.846567  0.594242  1
  Be  Be5  1  0.500000  0.165862  0.406263  1
  Be  Be6  1  0.500000  0.334473  0.907749  1
  Be  Be7  1  0.500000  0.654603  0.095258  1
  Be  Be8  1  0.500000  0.963657  0.907341  1
  Be  Be9  1  0.500000  0.031599  0.094117  1
  Be  Be10  1  0.500000  0.469980  0.591465  1
  B  B11  1  0.500000  0.534301  0.408474  1
  Ru  Ru12  1  0.000000  0.410912  0.747812  1
  Ru  Ru13  1  0.000000  0.584113  0.263418  1
  Ru  Ru14  1  0.000000  0.910177  0.753731  1
  Ru  Ru15  1  0.000000  0.087891  0.247661  1
  Ru  Ru16  1  0.000000  0.004405  0.494812  1
  Ru  Ru17  1  0.000000  0.500469  0.996083  1
  Ru  Ru18  1  0.000000  0.656697  0.537383  1
  Ru  Ru19  1  0.000000  0.352689  0.452706  1
  Ru  Ru20  1  0.000000  0.153407  0.955447  1
  Ru  Ru21  1  0.000000  0.839994  0.047403  1
