# generated using pymatgen
data_Eu6Zn16Ir7
_symmetry_space_group_name_H-M   'P 1'
_cell_length_a   9.08693291
_cell_length_b   9.08693280
_cell_length_c   9.08693400
_cell_angle_alpha   60.00000291
_cell_angle_beta   60.00000330
_cell_angle_gamma   60.00000601
_symmetry_Int_Tables_number   1
_chemical_formula_structural   Eu6Zn16Ir7
_chemical_formula_sum   'Eu6 Zn16 Ir7'
_cell_volume   530.56311418
_cell_formula_units_Z   1
loop_
 _symmetry_equiv_pos_site_id
 _symmetry_equiv_pos_as_xyz
  1  'x, y, z'
loop_
 _atom_site_type_symbol
 _atom_site_label
 _atom_site_symmetry_multiplicity
 _atom_site_fract_x
 _atom_site_fract_y
 _atom_site_fract_z
 _atom_site_occupancy
  Eu  Eu0  1  0.215400  0.784600  0.784600  1
  Eu  Eu1  1  0.784600  0.215400  0.215400  1
  Eu  Eu2  1  0.784600  0.215400  0.784600  1
  Eu  Eu3  1  0.784600  0.784600  0.215400  1
  Eu  Eu4  1  0.215400  0.784600  0.215400  1
  Eu  Eu5  1  0.215400  0.215400  0.784600  1
  Zn  Zn6  1  0.827137  0.827137  0.827137  1
  Zn  Zn7  1  0.827137  0.827137  0.518590  1
  Zn  Zn8  1  0.518590  0.827137  0.827137  1
  Zn  Zn9  1  0.827137  0.518590  0.827137  1
  Zn  Zn10  1  0.172863  0.172863  0.172863  1
  Zn  Zn11  1  0.172863  0.172863  0.481410  1
  Zn  Zn12  1  0.172863  0.481410  0.172863  1
  Zn  Zn13  1  0.481410  0.172863  0.172863  1
  Zn  Zn14  1  0.622367  0.622367  0.622367  1
  Zn  Zn15  1  0.622367  0.622367  0.132900  1
  Zn  Zn16  1  0.132900  0.622367  0.622367  1
  Zn  Zn17  1  0.622367  0.132900  0.622367  1
  Zn  Zn18  1  0.377633  0.377633  0.377633  1
  Zn  Zn19  1  0.377633  0.377633  0.867100  1
  Zn  Zn20  1  0.377633  0.867100  0.377633  1
  Zn  Zn21  1  0.867100  0.377633  0.377633  1
  Ir  Ir22  1  0.500000  0.500000  0.500000  1
  Ir  Ir23  1  0.000000  0.500000  0.500000  1
  Ir  Ir24  1  0.500000  0.000000  0.000000  1
  Ir  Ir25  1  0.500000  0.000000  0.500000  1
  Ir  Ir26  1  0.500000  0.500000  0.000000  1
  Ir  Ir27  1  0.000000  0.500000  0.000000  1
  Ir  Ir28  1  0.000000  0.000000  0.500000  1
