# generated using pymatgen
data_PrDy2Co8MoP6
_symmetry_space_group_name_H-M   'P 1'
_cell_length_a   3.75906100
_cell_length_b   10.61917700
_cell_length_c   12.34086100
_cell_angle_alpha   90.00000000
_cell_angle_beta   90.00000000
_cell_angle_gamma   90.00000000
_symmetry_Int_Tables_number   1
_chemical_formula_structural   PrDy2Co8MoP6
_chemical_formula_sum   'Pr2 Dy4 Co16 Mo2 P12'
_cell_volume   492.62414447
_cell_formula_units_Z   2
loop_
 _symmetry_equiv_pos_site_id
 _symmetry_equiv_pos_as_xyz
  1  'x, y, z'
loop_
 _atom_site_type_symbol
 _atom_site_label
 _atom_site_symmetry_multiplicity
 _atom_site_fract_x
 _atom_site_fract_y
 _atom_site_fract_z
 _atom_site_occupancy
  Pr  Pr0  1  0.000000  0.500000  0.524921  1
  Pr  Pr1  1  0.500000  0.000000  0.475079  1
  Dy  Dy2  1  0.500000  0.818546  0.203552  1
  Dy  Dy3  1  0.500000  0.181454  0.203552  1
  Dy  Dy4  1  0.000000  0.681454  0.796448  1
  Dy  Dy5  1  0.000000  0.318546  0.796448  1
  Co  Co6  1  0.500000  0.500000  0.705369  1
  Co  Co7  1  0.000000  0.000000  0.294631  1
  Co  Co8  1  0.000000  0.500000  0.986496  1
  Co  Co9  1  0.500000  0.000000  0.013504  1
  Co  Co10  1  0.500000  0.332119  0.990477  1
  Co  Co11  1  0.500000  0.667881  0.990477  1
  Co  Co12  1  0.000000  0.167881  0.009523  1
  Co  Co13  1  0.000000  0.832119  0.009523  1
  Co  Co14  1  0.500000  0.295083  0.429653  1
  Co  Co15  1  0.500000  0.704917  0.429653  1
  Co  Co16  1  0.000000  0.204917  0.570347  1
  Co  Co17  1  0.000000  0.795083  0.570347  1
  Co  Co18  1  0.500000  0.878879  0.710221  1
  Co  Co19  1  0.500000  0.121121  0.710221  1
  Co  Co20  1  0.000000  0.621121  0.289779  1
  Co  Co21  1  0.000000  0.378879  0.289779  1
  Mo  Mo22  1  0.500000  0.500000  0.153568  1
  Mo  Mo23  1  0.000000  0.000000  0.846432  1
  P  P24  1  0.500000  0.500000  0.882630  1
  P  P25  1  0.000000  0.000000  0.117370  1
  P  P26  1  0.500000  0.500000  0.344210  1
  P  P27  1  0.000000  0.000000  0.655790  1
  P  P28  1  0.500000  0.307253  0.617835  1
  P  P29  1  0.500000  0.692747  0.617835  1
  P  P30  1  0.000000  0.192747  0.382165  1
  P  P31  1  0.000000  0.807253  0.382165  1
  P  P32  1  0.500000  0.844934  0.894249  1
  P  P33  1  0.500000  0.155066  0.894249  1
  P  P34  1  0.000000  0.655066  0.105751  1
  P  P35  1  0.000000  0.344934  0.105751  1
