# generated using pymatgen
data_Ho7TmIn3Cu
_symmetry_space_group_name_H-M   'P 1'
_cell_length_a   10.53794127
_cell_length_b   10.53794149
_cell_length_c   6.82230900
_cell_angle_alpha   90.01286960
_cell_angle_beta   89.98714127
_cell_angle_gamma   119.97933210
_symmetry_Int_Tables_number   1
_chemical_formula_structural   Ho7TmIn3Cu
_chemical_formula_sum   'Ho14 Tm2 In6 Cu2'
_cell_volume   656.24192034
_cell_formula_units_Z   2
loop_
 _symmetry_equiv_pos_site_id
 _symmetry_equiv_pos_as_xyz
  1  'x, y, z'
loop_
 _atom_site_type_symbol
 _atom_site_label
 _atom_site_symmetry_multiplicity
 _atom_site_fract_x
 _atom_site_fract_y
 _atom_site_fract_z
 _atom_site_occupancy
  Ho  Ho0  1  0.526313  0.473687  0.509640  1
  Ho  Ho1  1  0.473660  0.947445  0.009678  1
  Ho  Ho2  1  0.052555  0.526340  0.009678  1
  Ho  Ho3  1  0.473809  0.526191  0.009887  1
  Ho  Ho4  1  0.175305  0.350605  0.721494  1
  Ho  Ho5  1  0.649395  0.824695  0.721494  1
  Ho  Ho6  1  0.175272  0.824728  0.721103  1
  Ho  Ho7  1  0.824838  0.649584  0.221495  1
  Ho  Ho8  1  0.350416  0.175162  0.221495  1
  Ho  Ho9  1  0.824556  0.175444  0.221022  1
  Ho  Ho10  1  0.666642  0.333358  0.880521  1
  Ho  Ho11  1  0.333361  0.666639  0.381247  1
  Ho  Ho12  1  0.999975  0.000025  0.489547  1
  Ho  Ho13  1  0.999965  0.000035  0.989386  1
  Tm  Tm14  1  0.526585  0.052739  0.509566  1
  Tm  Tm15  1  0.947261  0.473415  0.509566  1
  In  In16  1  0.836425  0.672296  0.743892  1
  In  In17  1  0.327704  0.163575  0.743892  1
  In  In18  1  0.836126  0.163874  0.743628  1
  In  In19  1  0.163608  0.327524  0.244129  1
  In  In20  1  0.672476  0.836392  0.244129  1
  In  In21  1  0.163842  0.836158  0.244116  1
  Cu  Cu22  1  0.666572  0.333428  0.283711  1
  Cu  Cu23  1  0.333339  0.666661  0.783725  1
