# generated using pymatgen
data_Pr(ThB8)3
_symmetry_space_group_name_H-M   'P 1'
_cell_length_a   4.12096900
_cell_length_b   4.12096900
_cell_length_c   16.46120100
_cell_angle_alpha   90.00000000
_cell_angle_beta   90.00000000
_cell_angle_gamma   90.00000000
_symmetry_Int_Tables_number   1
_chemical_formula_structural   Pr(ThB8)3
_chemical_formula_sum   'Pr1 Th3 B24'
_cell_volume   279.55046116
_cell_formula_units_Z   1
loop_
 _symmetry_equiv_pos_site_id
 _symmetry_equiv_pos_as_xyz
  1  'x, y, z'
loop_
 _atom_site_type_symbol
 _atom_site_label
 _atom_site_symmetry_multiplicity
 _atom_site_fract_x
 _atom_site_fract_y
 _atom_site_fract_z
 _atom_site_occupancy
  Pr  Pr0  1  0.000000  0.000000  0.000000  1
  Th  Th1  1  0.000000  0.000000  0.253133  1
  Th  Th2  1  0.000000  0.000000  0.500000  1
  Th  Th3  1  0.000000  0.000000  0.746867  1
  B  B4  1  0.198502  0.500000  0.125852  1
  B  B5  1  0.197266  0.500000  0.375279  1
  B  B6  1  0.197266  0.500000  0.624721  1
  B  B7  1  0.198502  0.500000  0.874148  1
  B  B8  1  0.500000  0.500000  0.201081  1
  B  B9  1  0.500000  0.500000  0.450718  1
  B  B10  1  0.500000  0.500000  0.700297  1
  B  B11  1  0.500000  0.500000  0.950052  1
  B  B12  1  0.500000  0.198502  0.125852  1
  B  B13  1  0.500000  0.197266  0.375279  1
  B  B14  1  0.500000  0.197266  0.624721  1
  B  B15  1  0.500000  0.198502  0.874148  1
  B  B16  1  0.500000  0.500000  0.049948  1
  B  B17  1  0.500000  0.500000  0.299703  1
  B  B18  1  0.500000  0.500000  0.549282  1
  B  B19  1  0.500000  0.500000  0.798919  1
  B  B20  1  0.500000  0.801498  0.125852  1
  B  B21  1  0.500000  0.802734  0.375279  1
  B  B22  1  0.500000  0.802734  0.624721  1
  B  B23  1  0.500000  0.801498  0.874148  1
  B  B24  1  0.801498  0.500000  0.125852  1
  B  B25  1  0.802734  0.500000  0.375279  1
  B  B26  1  0.802734  0.500000  0.624721  1
  B  B27  1  0.801498  0.500000  0.874148  1
