# generated using pymatgen
data_Nb3SbTe3
_symmetry_space_group_name_H-M   'P 1'
_cell_length_a   10.69527400
_cell_length_b   10.69527365
_cell_length_c   3.71713700
_cell_angle_alpha   90.00000000
_cell_angle_beta   90.00000000
_cell_angle_gamma   120.00000192
_symmetry_Int_Tables_number   1
_chemical_formula_structural   Nb3SbTe3
_chemical_formula_sum   'Nb6 Sb2 Te6'
_cell_volume   368.23325523
_cell_formula_units_Z   2
loop_
 _symmetry_equiv_pos_site_id
 _symmetry_equiv_pos_as_xyz
  1  'x, y, z'
loop_
 _atom_site_type_symbol
 _atom_site_label
 _atom_site_symmetry_multiplicity
 _atom_site_fract_x
 _atom_site_fract_y
 _atom_site_fract_z
 _atom_site_occupancy
  Nb  Nb0  1  0.111187  0.618849  0.750000  1
  Nb  Nb1  1  0.381151  0.492337  0.750000  1
  Nb  Nb2  1  0.507663  0.888813  0.750000  1
  Nb  Nb3  1  0.888813  0.381151  0.250000  1
  Nb  Nb4  1  0.618849  0.507663  0.250000  1
  Nb  Nb5  1  0.492337  0.111187  0.250000  1
  Sb  Sb6  1  0.666667  0.333333  0.750000  1
  Sb  Sb7  1  0.333333  0.666667  0.250000  1
  Te  Te8  1  0.275522  0.938129  0.750000  1
  Te  Te9  1  0.061871  0.337393  0.750000  1
  Te  Te10  1  0.662607  0.724478  0.750000  1
  Te  Te11  1  0.724478  0.061871  0.250000  1
  Te  Te12  1  0.938129  0.662607  0.250000  1
  Te  Te13  1  0.337393  0.275522  0.250000  1
