# generated using pymatgen
data_Th3In3OsPt2
_symmetry_space_group_name_H-M   'P 1'
_cell_length_a   7.74916300
_cell_length_b   7.74916150
_cell_length_c   4.05117000
_cell_angle_alpha   90.00000000
_cell_angle_beta   90.00000000
_cell_angle_gamma   120.00001065
_symmetry_Int_Tables_number   1
_chemical_formula_structural   Th3In3OsPt2
_chemical_formula_sum   'Th3 In3 Os1 Pt2'
_cell_volume   210.67866684
_cell_formula_units_Z   1
loop_
 _symmetry_equiv_pos_site_id
 _symmetry_equiv_pos_as_xyz
  1  'x, y, z'
loop_
 _atom_site_type_symbol
 _atom_site_label
 _atom_site_symmetry_multiplicity
 _atom_site_fract_x
 _atom_site_fract_y
 _atom_site_fract_z
 _atom_site_occupancy
  Th  Th0  1  0.418884  0.407412  0.500000  1
  Th  Th1  1  0.592588  0.011471  0.500000  1
  Th  Th2  1  0.988529  0.581116  0.500000  1
  In  In3  1  0.748070  0.748750  0.000000  1
  In  In4  1  0.251250  0.999320  0.000000  1
  In  In5  1  0.000680  0.251930  0.000000  1
  Os  Os6  1  0.666667  0.333333  0.000000  1
  Pt  Pt7  1  0.333333  0.666667  0.000000  1
  Pt  Pt8  1  0.000000  0.000000  0.500000  1
