# generated using pymatgen
data_Ho11Th5Mg3CdRu4
_symmetry_space_group_name_H-M   'P 1'
_cell_length_a   9.68371782
_cell_length_b   9.74690011
_cell_length_c   9.74690044
_cell_angle_alpha   59.83476010
_cell_angle_beta   60.20412899
_cell_angle_gamma   60.20413016
_symmetry_Int_Tables_number   1
_chemical_formula_structural   Ho11Th5Mg3CdRu4
_chemical_formula_sum   'Ho11 Th5 Mg3 Cd1 Ru4'
_cell_volume   651.69545633
_cell_formula_units_Z   1
loop_
 _symmetry_equiv_pos_site_id
 _symmetry_equiv_pos_as_xyz
  1  'x, y, z'
loop_
 _atom_site_type_symbol
 _atom_site_label
 _atom_site_symmetry_multiplicity
 _atom_site_fract_x
 _atom_site_fract_y
 _atom_site_fract_z
 _atom_site_occupancy
  Ho  Ho0  1  0.186419  0.812910  0.812910  1
  Ho  Ho1  1  0.191100  0.809154  0.185737  1
  Ho  Ho2  1  0.812818  0.185313  0.809640  1
  Ho  Ho3  1  0.191100  0.185737  0.809154  1
  Ho  Ho4  1  0.812818  0.809640  0.185313  1
  Ho  Ho5  1  0.932247  0.567233  0.567233  1
  Ho  Ho6  1  0.564347  0.935146  0.935146  1
  Ho  Ho7  1  0.562880  0.934274  0.565015  1
  Ho  Ho8  1  0.936625  0.564196  0.935596  1
  Ho  Ho9  1  0.562880  0.565015  0.934274  1
  Ho  Ho10  1  0.936625  0.935596  0.564196  1
  Th  Th11  1  0.342332  0.348193  0.348193  1
  Th  Th12  1  0.347531  0.348251  0.957919  1
  Th  Th13  1  0.347531  0.957919  0.348251  1
  Th  Th14  1  0.957932  0.349992  0.349992  1
  Th  Th15  1  0.816191  0.183852  0.183852  1
  Mg  Mg16  1  0.579004  0.581986  0.260092  1
  Mg  Mg17  1  0.579004  0.260092  0.581986  1
  Mg  Mg18  1  0.261105  0.579227  0.579227  1
  Cd  Cd19  1  0.582271  0.581339  0.581339  1
  Ru  Ru20  1  0.129595  0.146830  0.146830  1
  Ru  Ru21  1  0.145401  0.142238  0.568345  1
  Ru  Ru22  1  0.145401  0.568345  0.142238  1
  Ru  Ru23  1  0.576839  0.147525  0.147525  1
