# generated using pymatgen
data_CeNdP4Rh7
_symmetry_space_group_name_H-M   'P 1'
_cell_length_a   3.96362600
_cell_length_b   9.68007185
_cell_length_c   10.91377740
_cell_angle_alpha   89.85723143
_cell_angle_beta   90.00000000
_cell_angle_gamma   90.00000000
_symmetry_Int_Tables_number   1
_chemical_formula_structural   CeNdP4Rh7
_chemical_formula_sum   'Ce2 Nd2 P8 Rh14'
_cell_volume   418.74052474
_cell_formula_units_Z   2
loop_
 _symmetry_equiv_pos_site_id
 _symmetry_equiv_pos_as_xyz
  1  'x, y, z'
loop_
 _atom_site_type_symbol
 _atom_site_label
 _atom_site_symmetry_multiplicity
 _atom_site_fract_x
 _atom_site_fract_y
 _atom_site_fract_z
 _atom_site_occupancy
  Ce  Ce0  1  0.500000  0.447380  0.502960  1
  Ce  Ce1  1  0.500000  0.062359  0.283021  1
  Nd  Nd2  1  0.000000  0.941684  0.781088  1
  Nd  Nd3  1  0.000000  0.553683  0.001519  1
  P  P4  1  0.000000  0.819049  0.284550  1
  P  P5  1  0.000000  0.186325  0.463715  1
  P  P6  1  0.500000  0.180536  0.787196  1
  P  P7  1  0.000000  0.151421  0.094832  1
  P  P8  1  0.500000  0.478654  0.226130  1
  P  P9  1  0.500000  0.812181  0.960948  1
  P  P10  1  0.500000  0.848720  0.595202  1
  P  P11  1  0.000000  0.524014  0.726823  1
  Rh  Rh12  1  0.500000  0.311723  0.081989  1
  Rh  Rh13  1  0.500000  0.755761  0.405912  1
  Rh  Rh14  1  0.500000  0.414522  0.798529  1
  Rh  Rh15  1  0.500000  0.057666  0.976610  1
  Rh  Rh16  1  0.500000  0.699552  0.767544  1
  Rh  Rh17  1  0.000000  0.283372  0.658066  1
  Rh  Rh18  1  0.000000  0.243813  0.905222  1
  Rh  Rh19  1  0.000000  0.682360  0.575910  1
  Rh  Rh20  1  0.500000  0.099222  0.582773  1
  Rh  Rh21  1  0.000000  0.296849  0.272774  1
  Rh  Rh22  1  0.000000  0.584088  0.304126  1
  Rh  Rh23  1  0.000000  0.903035  0.084377  1
  Rh  Rh24  1  0.000000  0.941424  0.473742  1
  Rh  Rh25  1  0.500000  0.720608  0.159841  1
