# generated using pymatgen
data_Sm4Co6O19
_symmetry_space_group_name_H-M   'P 1'
_cell_length_a   7.42645360
_cell_length_b   7.42648052
_cell_length_c   7.42649502
_cell_angle_alpha   109.48001882
_cell_angle_beta   109.46632737
_cell_angle_gamma   109.46710679
_symmetry_Int_Tables_number   1
_chemical_formula_structural   Sm4Co6O19
_chemical_formula_sum   'Sm4 Co6 O19'
_cell_volume   315.30266073
_cell_formula_units_Z   1
loop_
 _symmetry_equiv_pos_site_id
 _symmetry_equiv_pos_as_xyz
  1  'x, y, z'
loop_
 _atom_site_type_symbol
 _atom_site_label
 _atom_site_symmetry_multiplicity
 _atom_site_fract_x
 _atom_site_fract_y
 _atom_site_fract_z
 _atom_site_occupancy
  Sm  Sm0  1  0.328688  0.999843  0.999870  1
  Sm  Sm1  1  0.999970  0.328823  0.000139  1
  Sm  Sm2  1  0.000032  0.000166  0.328857  1
  Sm  Sm3  1  0.671318  0.671184  0.671161  1
  Co  Co4  1  0.658750  0.499993  0.158745  1
  Co  Co5  1  0.500001  0.841230  0.341234  1
  Co  Co6  1  0.158783  0.658788  0.499997  1
  Co  Co7  1  0.841209  0.341217  0.499998  1
  Co  Co8  1  0.500001  0.158769  0.658768  1
  Co  Co9  1  0.341245  0.499995  0.841241  1
  O  O10  1  0.000002  0.000004  0.000008  1
  O  O11  1  0.352850  0.352853  0.000018  1
  O  O12  1  0.647149  0.647143  0.999990  1
  O  O13  1  0.289099  0.676487  0.038997  1
  O  O14  1  0.961022  0.637530  0.250130  1
  O  O15  1  0.676418  0.038898  0.289038  1
  O  O16  1  0.612609  0.362480  0.323499  1
  O  O17  1  0.000004  0.352747  0.352742  1
  O  O18  1  0.352836  0.000006  0.352812  1
  O  O19  1  0.323589  0.612628  0.362488  1
  O  O20  1  0.710892  0.749895  0.387377  1
  O  O21  1  0.362494  0.323510  0.612606  1
  O  O22  1  0.250135  0.961083  0.637499  1
  O  O23  1  0.999995  0.647262  0.647264  1
  O  O24  1  0.647173  0.999983  0.647177  1
  O  O25  1  0.038979  0.289101  0.676505  1
  O  O26  1  0.749866  0.387362  0.710948  1
  O  O27  1  0.387391  0.710894  0.749874  1
  O  O28  1  0.637496  0.250119  0.961008  1
