# generated using pymatgen
data_Sr8LiMg6Si16Hg
_symmetry_space_group_name_H-M   'P 1'
_cell_length_a   4.40083000
_cell_length_b   11.43640416
_cell_length_c   14.44765649
_cell_angle_alpha   89.98675232
_cell_angle_beta   90.00000000
_cell_angle_gamma   90.00000000
_symmetry_Int_Tables_number   1
_chemical_formula_structural   Sr8LiMg6Si16Hg
_chemical_formula_sum   'Sr8 Li1 Mg6 Si16 Hg1'
_cell_volume   727.14577109
_cell_formula_units_Z   1
loop_
 _symmetry_equiv_pos_site_id
 _symmetry_equiv_pos_as_xyz
  1  'x, y, z'
loop_
 _atom_site_type_symbol
 _atom_site_label
 _atom_site_symmetry_multiplicity
 _atom_site_fract_x
 _atom_site_fract_y
 _atom_site_fract_z
 _atom_site_occupancy
  Sr  Sr0  1  0.250000  0.522775  0.197854  1
  Sr  Sr1  1  0.250000  0.740024  0.937640  1
  Sr  Sr2  1  0.750000  0.260542  0.061353  1
  Sr  Sr3  1  0.750000  0.246436  0.559702  1
  Sr  Sr4  1  0.250000  0.754328  0.440995  1
  Sr  Sr5  1  0.250000  0.975669  0.696407  1
  Sr  Sr6  1  0.750000  0.024498  0.303979  1
  Sr  Sr7  1  0.750000  0.476462  0.800736  1
  Li  Li8  1  0.750000  0.555017  0.557759  1
  Mg  Mg9  1  0.750000  0.941912  0.059430  1
  Mg  Mg10  1  0.250000  0.058441  0.940695  1
  Mg  Mg11  1  0.250000  0.677460  0.687431  1
  Mg  Mg12  1  0.750000  0.323203  0.310718  1
  Mg  Mg13  1  0.750000  0.178146  0.809210  1
  Mg  Mg14  1  0.250000  0.820163  0.190149  1
  Si  Si15  1  0.750000  0.951704  0.868214  1
  Si  Si16  1  0.250000  0.452479  0.635079  1
  Si  Si17  1  0.750000  0.548434  0.366891  1
  Si  Si18  1  0.250000  0.030412  0.467358  1
  Si  Si19  1  0.250000  0.047785  0.132816  1
  Si  Si20  1  0.250000  0.274040  0.722229  1
  Si  Si21  1  0.750000  0.725089  0.277465  1
  Si  Si22  1  0.750000  0.774810  0.776461  1
  Si  Si23  1  0.250000  0.212344  0.392079  1
  Si  Si24  1  0.750000  0.969833  0.533675  1
  Si  Si25  1  0.750000  0.529409  0.033689  1
  Si  Si26  1  0.250000  0.470884  0.965465  1
  Si  Si27  1  0.250000  0.287320  0.892496  1
  Si  Si28  1  0.750000  0.783588  0.605999  1
  Si  Si29  1  0.750000  0.712875  0.106095  1
  Si  Si30  1  0.250000  0.225214  0.222620  1
  Hg  Hg31  1  0.250000  0.448701  0.447308  1
