# generated using pymatgen
data_Gd3Pa(TcB4)4
_symmetry_space_group_name_H-M   'P 1'
_cell_length_a   3.62860200
_cell_length_b   5.98679515
_cell_length_c   11.59160460
_cell_angle_alpha   90.01745931
_cell_angle_beta   90.00000000
_cell_angle_gamma   90.00000000
_symmetry_Int_Tables_number   1
_chemical_formula_structural   Gd3Pa(TcB4)4
_chemical_formula_sum   'Gd3 Pa1 Tc4 B16'
_cell_volume   251.81249248
_cell_formula_units_Z   1
loop_
 _symmetry_equiv_pos_site_id
 _symmetry_equiv_pos_as_xyz
  1  'x, y, z'
loop_
 _atom_site_type_symbol
 _atom_site_label
 _atom_site_symmetry_multiplicity
 _atom_site_fract_x
 _atom_site_fract_y
 _atom_site_fract_z
 _atom_site_occupancy
  Gd  Gd0  1  0.000000  0.371930  0.650414  1
  Gd  Gd1  1  0.000000  0.126749  0.149205  1
  Gd  Gd2  1  0.000000  0.874126  0.849209  1
  Pa  Pa3  1  0.000000  0.626615  0.350579  1
  Tc  Tc4  1  0.000000  0.631760  0.090447  1
  Tc  Tc5  1  0.000000  0.366260  0.911981  1
  Tc  Tc6  1  0.000000  0.137588  0.407753  1
  Tc  Tc7  1  0.000000  0.862320  0.588405  1
  B  B8  1  0.500000  0.785802  0.185746  1
  B  B9  1  0.500000  0.213215  0.815298  1
  B  B10  1  0.500000  0.288860  0.315134  1
  B  B11  1  0.500000  0.714704  0.685643  1
  B  B12  1  0.500000  0.862809  0.031828  1
  B  B13  1  0.500000  0.136425  0.968363  1
  B  B14  1  0.500000  0.364408  0.468016  1
  B  B15  1  0.500000  0.637151  0.530927  1
  B  B16  1  0.500000  0.888329  0.453787  1
  B  B17  1  0.500000  0.112938  0.547056  1
  B  B18  1  0.500000  0.386626  0.046002  1
  B  B19  1  0.500000  0.612667  0.953341  1
  B  B20  1  0.500000  0.973338  0.309197  1
  B  B21  1  0.500000  0.023854  0.691481  1
  B  B22  1  0.500000  0.478188  0.191819  1
  B  B23  1  0.500000  0.523337  0.808366  1
