# generated using pymatgen
data_SrCuBiS3
_symmetry_space_group_name_H-M   'P 1'
_cell_length_a   4.04804700
_cell_length_b   11.38292500
_cell_length_c   11.86677900
_cell_angle_alpha   90.00000000
_cell_angle_beta   90.00000000
_cell_angle_gamma   90.00000000
_symmetry_Int_Tables_number   1
_chemical_formula_structural   SrCuBiS3
_chemical_formula_sum   'Sr4 Cu4 Bi4 S12'
_cell_volume   546.80474555
_cell_formula_units_Z   4
loop_
 _symmetry_equiv_pos_site_id
 _symmetry_equiv_pos_as_xyz
  1  'x, y, z'
loop_
 _atom_site_type_symbol
 _atom_site_label
 _atom_site_symmetry_multiplicity
 _atom_site_fract_x
 _atom_site_fract_y
 _atom_site_fract_z
 _atom_site_occupancy
  Sr  Sr0  1  0.250000  0.007608  0.823938  1
  Sr  Sr1  1  0.750000  0.507608  0.676062  1
  Sr  Sr2  1  0.750000  0.992392  0.176062  1
  Sr  Sr3  1  0.250000  0.492392  0.323938  1
  Cu  Cu4  1  0.750000  0.787650  0.766158  1
  Cu  Cu5  1  0.750000  0.712350  0.266158  1
  Cu  Cu6  1  0.250000  0.287650  0.733842  1
  Cu  Cu7  1  0.250000  0.212350  0.233842  1
  Bi  Bi8  1  0.750000  0.316012  0.983105  1
  Bi  Bi9  1  0.250000  0.816012  0.516895  1
  Bi  Bi10  1  0.250000  0.683988  0.016895  1
  Bi  Bi11  1  0.750000  0.183988  0.483105  1
  S  S12  1  0.250000  0.447254  0.874197  1
  S  S13  1  0.750000  0.200809  0.787218  1
  S  S14  1  0.250000  0.052746  0.374197  1
  S  S15  1  0.750000  0.947254  0.625803  1
  S  S16  1  0.250000  0.353057  0.548951  1
  S  S17  1  0.250000  0.799191  0.212782  1
  S  S18  1  0.750000  0.299191  0.287218  1
  S  S19  1  0.250000  0.700809  0.712782  1
  S  S20  1  0.750000  0.552746  0.125803  1
  S  S21  1  0.750000  0.853057  0.951049  1
  S  S22  1  0.250000  0.146943  0.048951  1
  S  S23  1  0.750000  0.646943  0.451049  1
