# generated using pymatgen
data_LaB4Os3Rh
_symmetry_space_group_name_H-M   'P 1'
_cell_length_a   4.00870500
_cell_length_b   7.65704409
_cell_length_c   7.65770817
_cell_angle_alpha   89.59794578
_cell_angle_beta   90.00000000
_cell_angle_gamma   90.00000000
_symmetry_Int_Tables_number   1
_chemical_formula_structural   LaB4Os3Rh
_chemical_formula_sum   'La2 B8 Os6 Rh2'
_cell_volume   235.04627065
_cell_formula_units_Z   2
loop_
 _symmetry_equiv_pos_site_id
 _symmetry_equiv_pos_as_xyz
  1  'x, y, z'
loop_
 _atom_site_type_symbol
 _atom_site_label
 _atom_site_symmetry_multiplicity
 _atom_site_fract_x
 _atom_site_fract_y
 _atom_site_fract_z
 _atom_site_occupancy
  La  La0  1  0.247147  0.250000  0.250000  1
  La  La1  1  0.755166  0.750000  0.750000  1
  B  B2  1  0.360713  0.914737  0.038397  1
  B  B3  1  0.360713  0.585263  0.461603  1
  B  B4  1  0.857436  0.532787  0.086592  1
  B  B5  1  0.857436  0.967213  0.413408  1
  B  B6  1  0.642929  0.092931  0.970730  1
  B  B7  1  0.642929  0.407069  0.529270  1
  B  B8  1  0.140057  0.465071  0.919681  1
  B  B9  1  0.140057  0.034929  0.580319  1
  Os  Os10  1  0.639490  0.140302  0.606539  1
  Os  Os11  1  0.639490  0.359698  0.893461  1
  Os  Os12  1  0.857977  0.604165  0.357712  1
  Os  Os13  1  0.857977  0.895835  0.142288  1
  Os  Os14  1  0.358422  0.856530  0.394169  1
  Os  Os15  1  0.358422  0.643470  0.105831  1
  Rh  Rh16  1  0.141820  0.399596  0.640896  1
  Rh  Rh17  1  0.141820  0.100404  0.859104  1
