# generated using pymatgen
data_Sc8Ta3Ti6Ge16Mo3
_symmetry_space_group_name_H-M   'P 1'
_cell_length_a   6.78152065
_cell_length_b   6.92754307
_cell_length_c   13.13797178
_cell_angle_alpha   89.97430889
_cell_angle_beta   90.05384421
_cell_angle_gamma   89.92076003
_symmetry_Int_Tables_number   1
_chemical_formula_structural   Sc8Ta3Ti6Ge16Mo3
_chemical_formula_sum   'Sc8 Ta3 Ti6 Ge16 Mo3'
_cell_volume   617.21148213
_cell_formula_units_Z   1
loop_
 _symmetry_equiv_pos_site_id
 _symmetry_equiv_pos_as_xyz
  1  'x, y, z'
loop_
 _atom_site_type_symbol
 _atom_site_label
 _atom_site_symmetry_multiplicity
 _atom_site_fract_x
 _atom_site_fract_y
 _atom_site_fract_z
 _atom_site_occupancy
  Sc  Sc0  1  0.494695  0.677463  0.594207  1
  Sc  Sc1  1  0.994207  0.823304  0.905771  1
  Sc  Sc2  1  0.505828  0.323781  0.095443  1
  Sc  Sc3  1  0.006263  0.176268  0.404938  1
  Sc  Sc4  1  0.507178  0.322256  0.405722  1
  Sc  Sc5  1  0.007387  0.177670  0.094263  1
  Sc  Sc6  1  0.491599  0.674755  0.906401  1
  Sc  Sc7  1  0.991812  0.825594  0.593666  1
  Ta  Ta8  1  0.658130  0.169182  0.626722  1
  Ta  Ta9  1  0.159278  0.330289  0.873968  1
  Ta  Ta10  1  0.835421  0.487725  0.749914  1
  Ti  Ti11  1  0.341545  0.831998  0.128176  1
  Ti  Ti12  1  0.841897  0.668197  0.371641  1
  Ti  Ti13  1  0.339192  0.830660  0.372168  1
  Ti  Ti14  1  0.839115  0.669197  0.128007  1
  Ti  Ti15  1  0.659798  0.168909  0.873856  1
  Ti  Ti16  1  0.163141  0.330284  0.625469  1
  Ge  Ge17  1  0.679758  0.959364  0.456884  1
  Ge  Ge18  1  0.180223  0.540157  0.043385  1
  Ge  Ge19  1  0.322091  0.033556  0.960430  1
  Ge  Ge20  1  0.822003  0.465987  0.538828  1
  Ge  Ge21  1  0.317940  0.036081  0.539435  1
  Ge  Ge22  1  0.817832  0.463997  0.961124  1
  Ge  Ge23  1  0.680291  0.963006  0.041623  1
  Ge  Ge24  1  0.180979  0.536863  0.458123  1
  Ge  Ge25  1  0.459293  0.386437  0.751007  1
  Ge  Ge26  1  0.964065  0.112476  0.749013  1
  Ge  Ge27  1  0.537467  0.615897  0.250290  1
  Ge  Ge28  1  0.037778  0.883946  0.249720  1
  Ge  Ge29  1  0.692823  0.852126  0.751808  1
  Ge  Ge30  1  0.194513  0.651436  0.748093  1
  Ge  Ge31  1  0.305633  0.147034  0.250087  1
  Ge  Ge32  1  0.805728  0.352098  0.249970  1
  Mo  Mo33  1  0.337010  0.012271  0.750004  1
  Mo  Mo34  1  0.164013  0.511143  0.250216  1
  Mo  Mo35  1  0.664069  0.988596  0.249627  1
