# generated using pymatgen
data_Lu16In6PtRh
_symmetry_space_group_name_H-M   'P 1'
_cell_length_a   10.25594600
_cell_length_b   10.25594533
_cell_length_c   6.87156500
_cell_angle_alpha   90.00000000
_cell_angle_beta   90.00000000
_cell_angle_gamma   120.00000217
_symmetry_Int_Tables_number   1
_chemical_formula_structural   Lu16In6PtRh
_chemical_formula_sum   'Lu16 In6 Pt1 Rh1'
_cell_volume   625.94720386
_cell_formula_units_Z   1
loop_
 _symmetry_equiv_pos_site_id
 _symmetry_equiv_pos_as_xyz
  1  'x, y, z'
loop_
 _atom_site_type_symbol
 _atom_site_label
 _atom_site_symmetry_multiplicity
 _atom_site_fract_x
 _atom_site_fract_y
 _atom_site_fract_z
 _atom_site_occupancy
  Lu  Lu0  1  0.531163  0.062325  0.526298  1
  Lu  Lu1  1  0.937675  0.468837  0.526298  1
  Lu  Lu2  1  0.531163  0.468837  0.526298  1
  Lu  Lu3  1  0.467387  0.934775  0.024132  1
  Lu  Lu4  1  0.065225  0.532613  0.024132  1
  Lu  Lu5  1  0.467387  0.532613  0.024132  1
  Lu  Lu6  1  0.177101  0.354201  0.729415  1
  Lu  Lu7  1  0.645799  0.822899  0.729415  1
  Lu  Lu8  1  0.177101  0.822899  0.729415  1
  Lu  Lu9  1  0.824137  0.648276  0.229424  1
  Lu  Lu10  1  0.351724  0.175863  0.229424  1
  Lu  Lu11  1  0.824137  0.175863  0.229424  1
  Lu  Lu12  1  0.666667  0.333333  0.900942  1
  Lu  Lu13  1  0.333333  0.666667  0.403997  1
  Lu  Lu14  1  0.000000  0.000000  0.506238  1
  Lu  Lu15  1  0.000000  0.000000  0.007098  1
  In  In16  1  0.837383  0.674766  0.769149  1
  In  In17  1  0.325234  0.162617  0.769149  1
  In  In18  1  0.837383  0.162617  0.769149  1
  In  In19  1  0.162469  0.324938  0.268728  1
  In  In20  1  0.675062  0.837531  0.268728  1
  In  In21  1  0.162469  0.837531  0.268728  1
  Pt  Pt22  1  0.666667  0.333333  0.297944  1
  Rh  Rh23  1  0.333333  0.666667  0.798022  1
