# generated using pymatgen
data_Rb4Na2SmInBi4
_symmetry_space_group_name_H-M   'P 1'
_cell_length_a   11.53188468
_cell_length_b   11.53188432
_cell_length_c   7.53520800
_cell_angle_alpha   90.00000000
_cell_angle_beta   90.00000000
_cell_angle_gamma   100.06086268
_symmetry_Int_Tables_number   1
_chemical_formula_structural   Rb4Na2SmInBi4
_chemical_formula_sum   'Rb8 Na4 Sm2 In2 Bi8'
_cell_volume   986.65580170
_cell_formula_units_Z   2
loop_
 _symmetry_equiv_pos_site_id
 _symmetry_equiv_pos_as_xyz
  1  'x, y, z'
loop_
 _atom_site_type_symbol
 _atom_site_label
 _atom_site_symmetry_multiplicity
 _atom_site_fract_x
 _atom_site_fract_y
 _atom_site_fract_z
 _atom_site_occupancy
  Rb  Rb0  1  0.073123  0.426877  0.250000  1
  Rb  Rb1  1  0.426877  0.073123  0.750000  1
  Rb  Rb2  1  0.920504  0.579496  0.750000  1
  Rb  Rb3  1  0.579496  0.920504  0.250000  1
  Rb  Rb4  1  0.676531  0.329408  0.219529  1
  Rb  Rb5  1  0.823469  0.170592  0.719529  1
  Rb  Rb6  1  0.329408  0.676531  0.780471  1
  Rb  Rb7  1  0.170592  0.823469  0.280471  1
  Na  Na8  1  0.382800  0.382800  0.000000  1
  Na  Na9  1  0.117200  0.117200  0.500000  1
  Na  Na10  1  0.622265  0.622265  0.000000  1
  Na  Na11  1  0.877735  0.877735  0.500000  1
  Sm  Sm12  1  0.125036  0.125036  0.000000  1
  Sm  Sm13  1  0.374964  0.374964  0.500000  1
  In  In14  1  0.868121  0.868121  0.000000  1
  In  In15  1  0.631879  0.631879  0.500000  1
  Bi  Bi16  1  0.850115  0.649884  0.250000  1
  Bi  Bi17  1  0.649884  0.850115  0.750000  1
  Bi  Bi18  1  0.148574  0.351425  0.750000  1
  Bi  Bi19  1  0.351425  0.148574  0.250000  1
  Bi  Bi20  1  0.889310  0.098528  0.214847  1
  Bi  Bi21  1  0.610690  0.401472  0.714847  1
  Bi  Bi22  1  0.098528  0.889310  0.785153  1
  Bi  Bi23  1  0.401472  0.610690  0.285153  1
