# generated using pymatgen
data_Dy2Tm18Bi7Sb5
_symmetry_space_group_name_H-M   'P 1'
_cell_length_a   8.09889409
_cell_length_b   9.37085269
_cell_length_c   11.80919336
_cell_angle_alpha   90.06181036
_cell_angle_beta   89.92124577
_cell_angle_gamma   89.94468966
_symmetry_Int_Tables_number   1
_chemical_formula_structural   Dy2Tm18Bi7Sb5
_chemical_formula_sum   'Dy2 Tm18 Bi7 Sb5'
_cell_volume   896.23974198
_cell_formula_units_Z   1
loop_
 _symmetry_equiv_pos_site_id
 _symmetry_equiv_pos_as_xyz
  1  'x, y, z'
loop_
 _atom_site_type_symbol
 _atom_site_label
 _atom_site_symmetry_multiplicity
 _atom_site_fract_x
 _atom_site_fract_y
 _atom_site_fract_z
 _atom_site_occupancy
  Dy  Dy0  1  0.684318  0.750115  0.781897  1
  Dy  Dy1  1  0.184408  0.749929  0.717926  1
  Tm  Tm2  1  0.356522  0.753712  0.215762  1
  Tm  Tm3  1  0.849006  0.753133  0.286023  1
  Tm  Tm4  1  0.647582  0.250143  0.785613  1
  Tm  Tm5  1  0.147587  0.249952  0.713982  1
  Tm  Tm6  1  0.689686  0.564621  0.058455  1
  Tm  Tm7  1  0.191851  0.936745  0.440887  1
  Tm  Tm8  1  0.310618  0.064115  0.942216  1
  Tm  Tm9  1  0.809936  0.435476  0.557346  1
  Tm  Tm10  1  0.310705  0.435666  0.942361  1
  Tm  Tm11  1  0.809289  0.063467  0.555663  1
  Tm  Tm12  1  0.687946  0.936308  0.060985  1
  Tm  Tm13  1  0.190543  0.564264  0.441262  1
  Tm  Tm14  1  0.473630  0.247526  0.486650  1
  Tm  Tm15  1  0.972943  0.250023  0.012324  1
  Tm  Tm16  1  0.527712  0.752371  0.509123  1
  Tm  Tm17  1  0.026480  0.750206  0.989234  1
  Tm  Tm18  1  0.317208  0.247025  0.218045  1
  Tm  Tm19  1  0.811624  0.245724  0.283480  1
  Bi  Bi20  1  0.065690  0.503953  0.175629  1
  Bi  Bi21  1  0.435058  0.494630  0.673152  1
  Bi  Bi22  1  0.934356  0.005464  0.825582  1
  Bi  Bi23  1  0.434717  0.005446  0.674526  1
  Bi  Bi24  1  0.934642  0.494524  0.825669  1
  Bi  Bi25  1  0.565546  0.503517  0.324981  1
  Bi  Bi26  1  0.065812  0.996083  0.174757  1
  Sb  Sb27  1  0.405283  0.749939  0.959623  1
  Sb  Sb28  1  0.906628  0.749792  0.540515  1
  Sb  Sb29  1  0.594058  0.250225  0.041762  1
  Sb  Sb30  1  0.093541  0.250185  0.457704  1
  Sb  Sb31  1  0.565070  0.995723  0.326868  1
