# generated using pymatgen
data_Nd2Er2Zn10SiPb
_symmetry_space_group_name_H-M   'P 1'
_cell_length_a   8.38158389
_cell_length_b   8.38158470
_cell_length_c   8.91803700
_cell_angle_alpha   90.00000000
_cell_angle_beta   90.00000000
_cell_angle_gamma   149.77001744
_symmetry_Int_Tables_number   1
_chemical_formula_structural   Nd2Er2Zn10SiPb
_chemical_formula_sum   'Nd2 Er2 Zn10 Si1 Pb1'
_cell_volume   315.42561228
_cell_formula_units_Z   1
loop_
 _symmetry_equiv_pos_site_id
 _symmetry_equiv_pos_as_xyz
  1  'x, y, z'
loop_
 _atom_site_type_symbol
 _atom_site_label
 _atom_site_symmetry_multiplicity
 _atom_site_fract_x
 _atom_site_fract_y
 _atom_site_fract_z
 _atom_site_occupancy
  Nd  Nd0  1  0.001165  0.998835  0.483414  1
  Nd  Nd1  1  0.001165  0.998835  0.016586  1
  Er  Er2  1  0.200043  0.799957  0.250000  1
  Er  Er3  1  0.795473  0.204527  0.750000  1
  Zn  Zn4  1  0.810876  0.189124  0.390198  1
  Zn  Zn5  1  0.187831  0.812169  0.606205  1
  Zn  Zn6  1  0.810876  0.189124  0.109802  1
  Zn  Zn7  1  0.187831  0.812169  0.893795  1
  Zn  Zn8  1  0.651236  0.348764  0.471885  1
  Zn  Zn9  1  0.341491  0.658509  0.513598  1
  Zn  Zn10  1  0.651236  0.348764  0.028115  1
  Zn  Zn11  1  0.341491  0.658509  0.986402  1
  Zn  Zn12  1  0.403159  0.596841  0.250000  1
  Zn  Zn13  1  0.611394  0.388606  0.750000  1
  Si  Si14  1  0.558110  0.441890  0.250000  1
  Pb  Pb15  1  0.446620  0.553380  0.750000  1
