# generated using pymatgen
data_Tb8Lu11Si16Tc
_symmetry_space_group_name_H-M   'P 1'
_cell_length_a   7.20504253
_cell_length_b   7.57510263
_cell_length_c   14.28254200
_cell_angle_alpha   90.00000000
_cell_angle_beta   90.00000000
_cell_angle_gamma   90.14195022
_symmetry_Int_Tables_number   1
_chemical_formula_structural   Tb8Lu11Si16Tc
_chemical_formula_sum   'Tb8 Lu11 Si16 Tc1'
_cell_volume   779.52356214
_cell_formula_units_Z   1
loop_
 _symmetry_equiv_pos_site_id
 _symmetry_equiv_pos_as_xyz
  1  'x, y, z'
loop_
 _atom_site_type_symbol
 _atom_site_label
 _atom_site_symmetry_multiplicity
 _atom_site_fract_x
 _atom_site_fract_y
 _atom_site_fract_z
 _atom_site_occupancy
  Tb  Tb0  1  0.015321  0.180209  0.093503  1
  Tb  Tb1  1  0.990771  0.814382  0.898920  1
  Tb  Tb2  1  0.483669  0.673259  0.900923  1
  Tb  Tb3  1  0.990771  0.814382  0.601080  1
  Tb  Tb4  1  0.515400  0.321189  0.096071  1
  Tb  Tb5  1  0.015321  0.180209  0.406497  1
  Tb  Tb6  1  0.515400  0.321189  0.403929  1
  Tb  Tb7  1  0.483669  0.673259  0.599077  1
  Lu  Lu8  1  0.841648  0.491217  0.250000  1
  Lu  Lu9  1  0.343081  0.009566  0.250000  1
  Lu  Lu10  1  0.656123  0.987113  0.750000  1
  Lu  Lu11  1  0.322158  0.181216  0.627610  1
  Lu  Lu12  1  0.675666  0.822814  0.376109  1
  Lu  Lu13  1  0.174738  0.675462  0.378819  1
  Lu  Lu14  1  0.675666  0.822814  0.123891  1
  Lu  Lu15  1  0.825459  0.331014  0.628186  1
  Lu  Lu16  1  0.322158  0.181216  0.872390  1
  Lu  Lu17  1  0.825459  0.331014  0.871814  1
  Lu  Lu18  1  0.174738  0.675462  0.121181  1
  Si  Si19  1  0.025478  0.110036  0.750000  1
  Si  Si20  1  0.975413  0.890629  0.250000  1
  Si  Si21  1  0.469095  0.611377  0.250000  1
  Si  Si22  1  0.513075  0.405588  0.750000  1
  Si  Si23  1  0.279603  0.854612  0.750000  1
  Si  Si24  1  0.722654  0.129855  0.250000  1
  Si  Si25  1  0.219293  0.371372  0.250000  1
  Si  Si26  1  0.793431  0.629774  0.750000  1
  Si  Si27  1  0.154728  0.471246  0.548980  1
  Si  Si28  1  0.844182  0.532763  0.463536  1
  Si  Si29  1  0.348267  0.968518  0.463680  1
  Si  Si30  1  0.844182  0.532763  0.036464  1
  Si  Si31  1  0.655288  0.032782  0.540005  1
  Si  Si32  1  0.154728  0.471246  0.951020  1
  Si  Si33  1  0.655288  0.032782  0.959995  1
  Si  Si34  1  0.348267  0.968518  0.036320  1
  Tc  Tc35  1  0.149817  0.499152  0.750000  1
