# generated using pymatgen
data_Y6Ni17P12Pd
_symmetry_space_group_name_H-M   'P 1'
_cell_length_a   3.81042200
_cell_length_b   10.55253000
_cell_length_c   12.39934200
_cell_angle_alpha   89.99962051
_cell_angle_beta   90.00258237
_cell_angle_gamma   89.99999457
_symmetry_Int_Tables_number   1
_chemical_formula_structural   Y6Ni17P12Pd
_chemical_formula_sum   'Y6 Ni17 P12 Pd1'
_cell_volume   498.57248843
_cell_formula_units_Z   1
loop_
 _symmetry_equiv_pos_site_id
 _symmetry_equiv_pos_as_xyz
  1  'x, y, z'
loop_
 _atom_site_type_symbol
 _atom_site_label
 _atom_site_symmetry_multiplicity
 _atom_site_fract_x
 _atom_site_fract_y
 _atom_site_fract_z
 _atom_site_occupancy
  Y  Y0  1  0.751842  0.000004  0.476528  1
  Y  Y1  1  0.251831  0.499997  0.520885  1
  Y  Y2  1  0.251810  0.682552  0.793996  1
  Y  Y3  1  0.251811  0.317444  0.793994  1
  Y  Y4  1  0.751818  0.816133  0.205746  1
  Y  Y5  1  0.751818  0.183870  0.205748  1
  Ni  Ni6  1  0.751863  0.000000  0.015310  1
  Ni  Ni7  1  0.251899  0.500000  0.984108  1
  Ni  Ni8  1  0.251871  0.199649  0.570091  1
  Ni  Ni9  1  0.251870  0.800350  0.570092  1
  Ni  Ni10  1  0.751912  0.301091  0.428377  1
  Ni  Ni11  1  0.751909  0.698914  0.428377  1
  Ni  Ni12  1  0.251815  0.619964  0.288942  1
  Ni  Ni13  1  0.251813  0.380034  0.288942  1
  Ni  Ni14  1  0.751848  0.877765  0.709420  1
  Ni  Ni15  1  0.751849  0.122236  0.709419  1
  Ni  Ni16  1  0.251855  0.170365  0.008048  1
  Ni  Ni17  1  0.251854  0.829636  0.008047  1
  Ni  Ni18  1  0.751920  0.335806  0.997350  1
  Ni  Ni19  1  0.751920  0.664193  0.997351  1
  Ni  Ni20  1  0.751378  0.499999  0.159144  1
  Ni  Ni21  1  0.251862  0.999999  0.299891  1
  Ni  Ni22  1  0.751857  0.500000  0.699667  1
  P  P23  1  0.251814  0.187821  0.385198  1
  P  P24  1  0.251812  0.812178  0.385198  1
  P  P25  1  0.751840  0.313245  0.613810  1
  P  P26  1  0.751840  0.686755  0.613811  1
  P  P27  1  0.251828  0.000000  0.123321  1
  P  P28  1  0.751818  0.500000  0.876521  1
  P  P29  1  0.251808  0.650284  0.108086  1
  P  P30  1  0.251807  0.349715  0.108087  1
  P  P31  1  0.751755  0.841706  0.896197  1
  P  P32  1  0.751755  0.158295  0.896196  1
  P  P33  1  0.251792  0.000000  0.648681  1
  P  P34  1  0.751770  0.499999  0.343488  1
  Pd  Pd35  1  0.251742  0.000002  0.841936  1
