# generated using pymatgen
data_Ac20Ga3GeBi8
_symmetry_space_group_name_H-M   'P 1'
_cell_length_a   13.37547027
_cell_length_b   10.21711200
_cell_length_c   8.93845400
_cell_angle_alpha   90.00000000
_cell_angle_beta   90.12189124
_cell_angle_gamma   90.00000000
_symmetry_Int_Tables_number   1
_chemical_formula_structural   Ac20Ga3GeBi8
_chemical_formula_sum   'Ac20 Ga3 Ge1 Bi8'
_cell_volume   1221.51454081
_cell_formula_units_Z   1
loop_
 _symmetry_equiv_pos_site_id
 _symmetry_equiv_pos_as_xyz
  1  'x, y, z'
loop_
 _atom_site_type_symbol
 _atom_site_label
 _atom_site_symmetry_multiplicity
 _atom_site_fract_x
 _atom_site_fract_y
 _atom_site_fract_z
 _atom_site_occupancy
  Ac  Ac0  1  0.562507  0.044427  0.316451  1
  Ac  Ac1  1  0.063381  0.455136  0.183011  1
  Ac  Ac2  1  0.436897  0.549257  0.684325  1
  Ac  Ac3  1  0.937000  0.954428  0.815814  1
  Ac  Ac4  1  0.436897  0.950743  0.684325  1
  Ac  Ac5  1  0.937000  0.545572  0.815814  1
  Ac  Ac6  1  0.562507  0.455573  0.316451  1
  Ac  Ac7  1  0.063381  0.044864  0.183011  1
  Ac  Ac8  1  0.715121  0.250000  0.664179  1
  Ac  Ac9  1  0.217196  0.250000  0.833876  1
  Ac  Ac10  1  0.285654  0.750000  0.336383  1
  Ac  Ac11  1  0.784413  0.750000  0.165073  1
  Ac  Ac12  1  0.502019  0.250000  0.967151  1
  Ac  Ac13  1  0.002124  0.250000  0.532467  1
  Ac  Ac14  1  0.498705  0.750000  0.029878  1
  Ac  Ac15  1  0.997582  0.750000  0.469424  1
  Ac  Ac16  1  0.792977  0.250000  0.140185  1
  Ac  Ac17  1  0.291964  0.250000  0.358470  1
  Ac  Ac18  1  0.207761  0.750000  0.858214  1
  Ac  Ac19  1  0.705083  0.750000  0.640617  1
  Ga  Ga20  1  0.976908  0.250000  0.914700  1
  Ga  Ga21  1  0.475252  0.250000  0.586491  1
  Ga  Ga22  1  0.023254  0.750000  0.085398  1
  Ge  Ge23  1  0.522871  0.750000  0.415582  1
  Bi  Bi24  1  0.825641  0.008404  0.430617  1
  Bi  Bi25  1  0.327386  0.491833  0.071299  1
  Bi  Bi26  1  0.173860  0.509402  0.568795  1
  Bi  Bi27  1  0.673886  0.991543  0.930644  1
  Bi  Bi28  1  0.173860  0.990598  0.568795  1
  Bi  Bi29  1  0.673886  0.508457  0.930644  1
  Bi  Bi30  1  0.825641  0.491596  0.430617  1
  Bi  Bi31  1  0.327386  0.008167  0.071299  1
