# generated using pymatgen
data_YLu2Ag(Ir2O7)2
_symmetry_space_group_name_H-M   'P 1'
_cell_length_a   7.28012005
_cell_length_b   7.28012155
_cell_length_c   7.13461959
_cell_angle_alpha   59.35164869
_cell_angle_beta   59.35164884
_cell_angle_gamma   59.91134776
_symmetry_Int_Tables_number   1
_chemical_formula_structural   YLu2Ag(Ir2O7)2
_chemical_formula_sum   'Y1 Lu2 Ag1 Ir4 O14'
_cell_volume   264.55791532
_cell_formula_units_Z   1
loop_
 _symmetry_equiv_pos_site_id
 _symmetry_equiv_pos_as_xyz
  1  'x, y, z'
loop_
 _atom_site_type_symbol
 _atom_site_label
 _atom_site_symmetry_multiplicity
 _atom_site_fract_x
 _atom_site_fract_y
 _atom_site_fract_z
 _atom_site_occupancy
  Y  Y0  1  0.125000  0.125000  0.125000  1
  Lu  Lu1  1  0.625000  0.125000  0.125000  1
  Lu  Lu2  1  0.125000  0.625000  0.125000  1
  Ag  Ag3  1  0.125000  0.125000  0.625000  1
  Ir  Ir4  1  0.125000  0.625000  0.625000  1
  Ir  Ir5  1  0.625000  0.125000  0.625000  1
  Ir  Ir6  1  0.625000  0.625000  0.125000  1
  Ir  Ir7  1  0.625000  0.625000  0.625000  1
  O  O8  1  0.712876  0.712876  0.284539  1
  O  O9  1  0.297447  0.297447  0.709942  1
  O  O10  1  0.690436  0.296870  0.716505  1
  O  O11  1  0.289756  0.708898  0.283707  1
  O  O12  1  0.296870  0.690436  0.716505  1
  O  O13  1  0.708898  0.289756  0.283707  1
  O  O14  1  0.537124  0.537124  0.965461  1
  O  O15  1  0.952553  0.952553  0.540058  1
  O  O16  1  0.559564  0.953130  0.533495  1
  O  O17  1  0.960244  0.541102  0.966293  1
  O  O18  1  0.953130  0.559564  0.533495  1
  O  O19  1  0.541102  0.960244  0.966293  1
  O  O20  1  0.256273  0.256273  0.241638  1
  O  O21  1  0.993727  0.993727  0.008362  1
