# generated using pymatgen
data_Hf10FeRe3
_symmetry_space_group_name_H-M   'P 1'
_cell_length_a   8.48024400
_cell_length_b   8.68758819
_cell_length_c   8.68758702
_cell_angle_alpha   120.00701796
_cell_angle_beta   90.00000000
_cell_angle_gamma   90.00000000
_symmetry_Int_Tables_number   1
_chemical_formula_structural   Hf10FeRe3
_chemical_formula_sum   'Hf20 Fe2 Re6'
_cell_volume   554.25121934
_cell_formula_units_Z   2
loop_
 _symmetry_equiv_pos_site_id
 _symmetry_equiv_pos_as_xyz
  1  'x, y, z'
loop_
 _atom_site_type_symbol
 _atom_site_label
 _atom_site_symmetry_multiplicity
 _atom_site_fract_x
 _atom_site_fract_y
 _atom_site_fract_z
 _atom_site_occupancy
  Hf  Hf0  1  0.560153  0.797378  0.594784  1
  Hf  Hf1  1  0.560168  0.797386  0.202614  1
  Hf  Hf2  1  0.560153  0.405216  0.202622  1
  Hf  Hf3  1  0.439847  0.202622  0.405216  1
  Hf  Hf4  1  0.439832  0.202614  0.797386  1
  Hf  Hf5  1  0.439847  0.594784  0.797378  1
  Hf  Hf6  1  0.060153  0.202622  0.405216  1
  Hf  Hf7  1  0.060168  0.202614  0.797386  1
  Hf  Hf8  1  0.060153  0.594784  0.797378  1
  Hf  Hf9  1  0.939847  0.797378  0.594784  1
  Hf  Hf10  1  0.939832  0.797386  0.202614  1
  Hf  Hf11  1  0.939847  0.405216  0.202622  1
  Hf  Hf12  1  0.750000  0.457845  0.915707  1
  Hf  Hf13  1  0.750000  0.457858  0.542142  1
  Hf  Hf14  1  0.750000  0.084293  0.542154  1
  Hf  Hf15  1  0.250000  0.542154  0.084293  1
  Hf  Hf16  1  0.250000  0.542142  0.457858  1
  Hf  Hf17  1  0.250000  0.915707  0.457845  1
  Hf  Hf18  1  0.500000  0.000000  0.000000  1
  Hf  Hf19  1  0.000000  0.000000  0.000000  1
  Fe  Fe20  1  0.750000  0.666644  0.333356  1
  Fe  Fe21  1  0.250000  0.333356  0.666644  1
  Re  Re22  1  0.750000  0.117659  0.235391  1
  Re  Re23  1  0.750000  0.117681  0.882319  1
  Re  Re24  1  0.750000  0.764609  0.882341  1
  Re  Re25  1  0.250000  0.882341  0.764609  1
  Re  Re26  1  0.250000  0.882319  0.117681  1
  Re  Re27  1  0.250000  0.235391  0.117659  1
