# generated using pymatgen
data_SrSm6OsI12
_symmetry_space_group_name_H-M   'P 1'
_cell_length_a   9.98192306
_cell_length_b   9.98192304
_cell_length_c   9.98192307
_cell_angle_alpha   106.56665116
_cell_angle_beta   106.56664905
_cell_angle_gamma   106.56664723
_symmetry_Int_Tables_number   1
_chemical_formula_structural   SrSm6OsI12
_chemical_formula_sum   'Sr1 Sm6 Os1 I12'
_cell_volume   837.90015532
_cell_formula_units_Z   1
loop_
 _symmetry_equiv_pos_site_id
 _symmetry_equiv_pos_as_xyz
  1  'x, y, z'
loop_
 _atom_site_type_symbol
 _atom_site_label
 _atom_site_symmetry_multiplicity
 _atom_site_fract_x
 _atom_site_fract_y
 _atom_site_fract_z
 _atom_site_occupancy
  Sr  Sr0  1  0.500000  0.500000  0.500000  1
  Sm  Sm1  1  0.095506  0.298036  0.021467  1
  Sm  Sm2  1  0.298035  0.021466  0.095506  1
  Sm  Sm3  1  0.021466  0.095506  0.298036  1
  Sm  Sm4  1  0.978533  0.904494  0.701964  1
  Sm  Sm5  1  0.701965  0.978533  0.904493  1
  Sm  Sm6  1  0.904494  0.701964  0.978533  1
  Os  Os7  1  0.000000  0.000000  0.000000  1
  I  I8  1  0.224263  0.680088  0.073627  1
  I  I9  1  0.452371  0.370865  0.140693  1
  I  I10  1  0.680088  0.073628  0.224263  1
  I  I11  1  0.926373  0.775738  0.319913  1
  I  I12  1  0.140693  0.452371  0.370865  1
  I  I13  1  0.370865  0.140693  0.452372  1
  I  I14  1  0.629135  0.859307  0.547628  1
  I  I15  1  0.859306  0.547629  0.629135  1
  I  I16  1  0.073628  0.224263  0.680088  1
  I  I17  1  0.319913  0.926373  0.775737  1
  I  I18  1  0.547628  0.629134  0.859307  1
  I  I19  1  0.775737  0.319913  0.926373  1
