# generated using pymatgen
data_Tb7Th(CoHg)2
_symmetry_space_group_name_H-M   'P 1'
_cell_length_a   9.53955056
_cell_length_b   9.53955039
_cell_length_c   9.57335900
_cell_angle_alpha   59.88268407
_cell_angle_beta   59.88268465
_cell_angle_gamma   59.96779463
_symmetry_Int_Tables_number   1
_chemical_formula_structural   Tb7Th(CoHg)2
_chemical_formula_sum   'Tb14 Th2 Co4 Hg4'
_cell_volume   614.79078164
_cell_formula_units_Z   2
loop_
 _symmetry_equiv_pos_site_id
 _symmetry_equiv_pos_as_xyz
  1  'x, y, z'
loop_
 _atom_site_type_symbol
 _atom_site_label
 _atom_site_symmetry_multiplicity
 _atom_site_fract_x
 _atom_site_fract_y
 _atom_site_fract_z
 _atom_site_occupancy
  Tb  Tb0  1  0.349373  0.950150  0.350239  1
  Tb  Tb1  1  0.950150  0.349373  0.350239  1
  Tb  Tb2  1  0.812217  0.188889  0.188262  1
  Tb  Tb3  1  0.188889  0.812217  0.810633  1
  Tb  Tb4  1  0.188889  0.812217  0.188262  1
  Tb  Tb5  1  0.812217  0.188889  0.810633  1
  Tb  Tb6  1  0.187830  0.187830  0.812170  1
  Tb  Tb7  1  0.812301  0.812301  0.187699  1
  Tb  Tb8  1  0.939341  0.562427  0.562949  1
  Tb  Tb9  1  0.562427  0.939341  0.935282  1
  Tb  Tb10  1  0.562427  0.939341  0.562949  1
  Tb  Tb11  1  0.939341  0.562427  0.935282  1
  Tb  Tb12  1  0.562473  0.562473  0.937527  1
  Tb  Tb13  1  0.939017  0.939017  0.560983  1
  Th  Th14  1  0.342358  0.342358  0.347818  1
  Th  Th15  1  0.342358  0.342358  0.967467  1
  Co  Co16  1  0.144629  0.144629  0.138838  1
  Co  Co17  1  0.144629  0.144629  0.571905  1
  Co  Co18  1  0.149158  0.568853  0.140995  1
  Co  Co19  1  0.568853  0.149158  0.140995  1
  Hg  Hg20  1  0.584751  0.584751  0.582463  1
  Hg  Hg21  1  0.584751  0.584751  0.248033  1
  Hg  Hg22  1  0.586496  0.245126  0.584188  1
  Hg  Hg23  1  0.245126  0.586496  0.584188  1
