# generated using pymatgen
data_YTiNbFe9
_symmetry_space_group_name_H-M   'P 1'
_cell_length_a   8.34982935
_cell_length_b   8.34982874
_cell_length_c   8.34982700
_cell_angle_alpha   34.03540739
_cell_angle_beta   34.03541358
_cell_angle_gamma   34.03540789
_symmetry_Int_Tables_number   1
_chemical_formula_structural   YTiNbFe9
_chemical_formula_sum   'Y1 Ti1 Nb1 Fe9'
_cell_volume   162.56904821
_cell_formula_units_Z   1
loop_
 _symmetry_equiv_pos_site_id
 _symmetry_equiv_pos_as_xyz
  1  'x, y, z'
loop_
 _atom_site_type_symbol
 _atom_site_label
 _atom_site_symmetry_multiplicity
 _atom_site_fract_x
 _atom_site_fract_y
 _atom_site_fract_z
 _atom_site_occupancy
  Y  Y0  1  0.000867  0.000867  0.000867  1
  Ti  Ti1  1  0.144373  0.144373  0.144373  1
  Nb  Nb2  1  0.855253  0.855253  0.855253  1
  Fe  Fe3  1  0.411463  0.411463  0.917732  1
  Fe  Fe4  1  0.917732  0.411463  0.411463  1
  Fe  Fe5  1  0.587962  0.083087  0.587962  1
  Fe  Fe6  1  0.587962  0.587962  0.083087  1
  Fe  Fe7  1  0.411463  0.917732  0.411463  1
  Fe  Fe8  1  0.083087  0.587962  0.587962  1
  Fe  Fe9  1  0.333325  0.333325  0.333325  1
  Fe  Fe10  1  0.666607  0.666607  0.666607  1
  Fe  Fe11  1  0.499905  0.499905  0.499905  1
