# generated using pymatgen
data_La4MnNi2(BiSb)4
_symmetry_space_group_name_H-M   'P 1'
_cell_length_a   11.10037960
_cell_length_b   11.10038074
_cell_length_c   11.10038031
_cell_angle_alpha   146.58008885
_cell_angle_beta   146.58008970
_cell_angle_gamma   47.98593351
_symmetry_Int_Tables_number   1
_chemical_formula_structural   La4MnNi2(BiSb)4
_chemical_formula_sum   'La4 Mn1 Ni2 Bi4 Sb4'
_cell_volume   413.22304818
_cell_formula_units_Z   1
loop_
 _symmetry_equiv_pos_site_id
 _symmetry_equiv_pos_as_xyz
  1  'x, y, z'
loop_
 _atom_site_type_symbol
 _atom_site_label
 _atom_site_symmetry_multiplicity
 _atom_site_fract_x
 _atom_site_fract_y
 _atom_site_fract_z
 _atom_site_occupancy
  La  La0  1  0.636522  0.137012  0.000000  1
  La  La1  1  0.137012  0.636522  0.000000  1
  La  La2  1  0.862988  0.862988  0.499511  1
  La  La3  1  0.363478  0.363478  0.500489  1
  Mn  Mn4  1  0.000000  0.000000  0.000000  1
  Ni  Ni5  1  0.500000  0.000000  0.500000  1
  Ni  Ni6  1  0.000000  0.500000  0.500000  1
  Bi  Bi7  1  0.249998  0.249998  0.000000  1
  Bi  Bi8  1  0.750002  0.750002  0.000000  1
  Bi  Bi9  1  0.250000  0.750000  0.500000  1
  Bi  Bi10  1  0.750000  0.250000  0.500000  1
  Sb  Sb11  1  0.320840  0.804649  0.000000  1
  Sb  Sb12  1  0.804649  0.320840  0.000000  1
  Sb  Sb13  1  0.195351  0.195351  0.516191  1
  Sb  Sb14  1  0.679160  0.679160  0.483809  1
