# generated using pymatgen
data_Mg2Be(Ni2P)6
_symmetry_space_group_name_H-M   'P 1'
_cell_length_a   8.96794400
_cell_length_b   8.96794372
_cell_length_c   3.54321200
_cell_angle_alpha   90.00000000
_cell_angle_beta   90.00000000
_cell_angle_gamma   120.00000103
_symmetry_Int_Tables_number   1
_chemical_formula_structural   Mg2Be(Ni2P)6
_chemical_formula_sum   'Mg2 Be1 Ni12 P6'
_cell_volume   246.78202698
_cell_formula_units_Z   1
loop_
 _symmetry_equiv_pos_site_id
 _symmetry_equiv_pos_as_xyz
  1  'x, y, z'
loop_
 _atom_site_type_symbol
 _atom_site_label
 _atom_site_symmetry_multiplicity
 _atom_site_fract_x
 _atom_site_fract_y
 _atom_site_fract_z
 _atom_site_occupancy
  Mg  Mg0  1  0.000000  0.000000  0.000000  1
  Mg  Mg1  1  0.333333  0.666667  0.500000  1
  Be  Be2  1  0.666667  0.333333  0.000000  1
  Ni  Ni3  1  0.107194  0.397156  0.000000  1
  Ni  Ni4  1  0.289962  0.892806  0.000000  1
  Ni  Ni5  1  0.602844  0.710038  0.000000  1
  Ni  Ni6  1  0.823859  0.612811  0.000000  1
  Ni  Ni7  1  0.788952  0.176141  0.000000  1
  Ni  Ni8  1  0.387189  0.211048  0.000000  1
  Ni  Ni9  1  0.049023  0.770520  0.500000  1
  Ni  Ni10  1  0.721497  0.950977  0.500000  1
  Ni  Ni11  1  0.229480  0.278503  0.500000  1
  Ni  Ni12  1  0.874590  0.422697  0.500000  1
  Ni  Ni13  1  0.548109  0.125410  0.500000  1
  Ni  Ni14  1  0.577303  0.451891  0.500000  1
  P  P15  1  0.073012  0.620024  0.000000  1
  P  P16  1  0.547014  0.926988  0.000000  1
  P  P17  1  0.379976  0.452986  0.000000  1
  P  P18  1  0.780491  0.738716  0.500000  1
  P  P19  1  0.958225  0.219509  0.500000  1
  P  P20  1  0.261284  0.041775  0.500000  1
