# generated using pymatgen
data_Nd5Gd5(Sn5Rh2)4
_symmetry_space_group_name_H-M   'P 1'
_cell_length_a   14.17100600
_cell_length_b   14.17100600
_cell_length_c   4.58217900
_cell_angle_alpha   90.00000000
_cell_angle_beta   90.00000000
_cell_angle_gamma   90.00000000
_symmetry_Int_Tables_number   1
_chemical_formula_structural   Nd5Gd5(Sn5Rh2)4
_chemical_formula_sum   'Nd5 Gd5 Sn20 Rh8'
_cell_volume   920.18132376
_cell_formula_units_Z   1
loop_
 _symmetry_equiv_pos_site_id
 _symmetry_equiv_pos_as_xyz
  1  'x, y, z'
loop_
 _atom_site_type_symbol
 _atom_site_label
 _atom_site_symmetry_multiplicity
 _atom_site_fract_x
 _atom_site_fract_y
 _atom_site_fract_z
 _atom_site_occupancy
  Nd  Nd0  1  0.000000  0.000000  0.000000  1
  Nd  Nd1  1  0.888390  0.388959  0.500000  1
  Nd  Nd2  1  0.111610  0.611041  0.500000  1
  Nd  Nd3  1  0.388959  0.111610  0.500000  1
  Nd  Nd4  1  0.611041  0.888390  0.500000  1
  Gd  Gd5  1  0.500000  0.500000  0.000000  1
  Gd  Gd6  1  0.676880  0.178184  0.500000  1
  Gd  Gd7  1  0.323120  0.821816  0.500000  1
  Gd  Gd8  1  0.178184  0.323120  0.500000  1
  Gd  Gd9  1  0.821816  0.676880  0.500000  1
  Sn  Sn10  1  0.569495  0.070064  0.000000  1
  Sn  Sn11  1  0.430505  0.929936  0.000000  1
  Sn  Sn12  1  0.070064  0.430505  0.000000  1
  Sn  Sn13  1  0.929936  0.569495  0.000000  1
  Sn  Sn14  1  0.653643  0.698004  0.000000  1
  Sn  Sn15  1  0.346357  0.301996  0.000000  1
  Sn  Sn16  1  0.154270  0.801236  0.000000  1
  Sn  Sn17  1  0.845730  0.198764  0.000000  1
  Sn  Sn18  1  0.301996  0.653643  0.000000  1
  Sn  Sn19  1  0.698004  0.346357  0.000000  1
  Sn  Sn20  1  0.198764  0.154270  0.000000  1
  Sn  Sn21  1  0.801236  0.845730  0.000000  1
  Sn  Sn22  1  0.660893  0.505691  0.500000  1
  Sn  Sn23  1  0.339107  0.494309  0.500000  1
  Sn  Sn24  1  0.163371  0.994253  0.500000  1
  Sn  Sn25  1  0.836629  0.005747  0.500000  1
  Sn  Sn26  1  0.494309  0.660893  0.500000  1
  Sn  Sn27  1  0.505691  0.339107  0.500000  1
  Sn  Sn28  1  0.005747  0.163371  0.500000  1
  Sn  Sn29  1  0.994253  0.836629  0.500000  1
  Rh  Rh30  1  0.746176  0.528994  0.000000  1
  Rh  Rh31  1  0.253824  0.471006  0.000000  1
  Rh  Rh32  1  0.247447  0.970792  0.000000  1
  Rh  Rh33  1  0.752553  0.029208  0.000000  1
  Rh  Rh34  1  0.471006  0.746176  0.000000  1
  Rh  Rh35  1  0.528994  0.253824  0.000000  1
  Rh  Rh36  1  0.029208  0.247447  0.000000  1
  Rh  Rh37  1  0.970792  0.752553  0.000000  1
