# generated using pymatgen
data_Dy15Y(In3Tc)2
_symmetry_space_group_name_H-M   'P 1'
_cell_length_a   10.41738325
_cell_length_b   10.41536053
_cell_length_c   7.05477900
_cell_angle_alpha   89.99949867
_cell_angle_beta   89.99950083
_cell_angle_gamma   120.03131326
_symmetry_Int_Tables_number   1
_chemical_formula_structural   Dy15Y(In3Tc)2
_chemical_formula_sum   'Dy15 Y1 In6 Tc2'
_cell_volume   662.68917086
_cell_formula_units_Z   1
loop_
 _symmetry_equiv_pos_site_id
 _symmetry_equiv_pos_as_xyz
  1  'x, y, z'
loop_
 _atom_site_type_symbol
 _atom_site_label
 _atom_site_symmetry_multiplicity
 _atom_site_fract_x
 _atom_site_fract_y
 _atom_site_fract_z
 _atom_site_occupancy
  Dy  Dy0  1  0.468123  0.531832  0.477152  1
  Dy  Dy1  1  0.063767  0.531899  0.477237  1
  Dy  Dy2  1  0.468114  0.936305  0.477227  1
  Dy  Dy3  1  0.531914  0.468134  0.977137  1
  Dy  Dy4  1  0.936167  0.468071  0.977208  1
  Dy  Dy5  1  0.531918  0.063764  0.977211  1
  Dy  Dy6  1  0.822548  0.177439  0.274853  1
  Dy  Dy7  1  0.354964  0.177467  0.274853  1
  Dy  Dy8  1  0.822528  0.645038  0.274872  1
  Dy  Dy9  1  0.177619  0.822399  0.774275  1
  Dy  Dy10  1  0.644701  0.822366  0.774274  1
  Dy  Dy11  1  0.177642  0.355301  0.774299  1
  Dy  Dy12  1  0.333343  0.666675  0.107377  1
  Dy  Dy13  1  0.666660  0.333326  0.607627  1
  Dy  Dy14  1  0.000009  0.000045  0.498837  1
  Y  Y15  1  0.999994  0.999962  0.998458  1
  In  In16  1  0.162903  0.837096  0.235249  1
  In  In17  1  0.674203  0.837115  0.235219  1
  In  In18  1  0.162886  0.325802  0.235191  1
  In  In19  1  0.837161  0.162814  0.735139  1
  In  In20  1  0.325640  0.162805  0.735140  1
  In  In21  1  0.837191  0.674342  0.735084  1
  Tc  Tc22  1  0.333379  0.666703  0.705073  1
  Tc  Tc23  1  0.666627  0.333302  0.205565  1
