# generated using pymatgen
data_Ba6Sn7Au5
_symmetry_space_group_name_H-M   'P 1'
_cell_length_a   5.00134100
_cell_length_b   8.45195233
_cell_length_c   27.01966362
_cell_angle_alpha   89.89621639
_cell_angle_beta   90.00000000
_cell_angle_gamma   90.00000000
_symmetry_Int_Tables_number   1
_chemical_formula_structural   Ba6Sn7Au5
_chemical_formula_sum   'Ba12 Sn14 Au10'
_cell_volume   1142.14891379
_cell_formula_units_Z   2
loop_
 _symmetry_equiv_pos_site_id
 _symmetry_equiv_pos_as_xyz
  1  'x, y, z'
loop_
 _atom_site_type_symbol
 _atom_site_label
 _atom_site_symmetry_multiplicity
 _atom_site_fract_x
 _atom_site_fract_y
 _atom_site_fract_z
 _atom_site_occupancy
  Ba  Ba0  1  0.750000  0.239930  0.485048  1
  Ba  Ba1  1  0.250000  0.798121  0.166031  1
  Ba  Ba2  1  0.250000  0.762436  0.486199  1
  Ba  Ba3  1  0.250000  0.787502  0.851300  1
  Ba  Ba4  1  0.250000  0.712292  0.322898  1
  Ba  Ba5  1  0.750000  0.212034  0.847316  1
  Ba  Ba6  1  0.750000  0.294250  0.005198  1
  Ba  Ba7  1  0.750000  0.263025  0.667491  1
  Ba  Ba8  1  0.750000  0.292608  0.324056  1
  Ba  Ba9  1  0.250000  0.730734  0.667753  1
  Ba  Ba10  1  0.250000  0.709070  0.010822  1
  Ba  Ba11  1  0.750000  0.207771  0.166240  1
  Sn  Sn12  1  0.250000  0.426304  0.564943  1
  Sn  Sn13  1  0.250000  0.081962  0.386083  1
  Sn  Sn14  1  0.250000  0.087126  0.066981  1
  Sn  Sn15  1  0.250000  0.417747  0.908993  1
  Sn  Sn16  1  0.750000  0.583506  0.107945  1
  Sn  Sn17  1  0.250000  0.424767  0.779985  1
  Sn  Sn18  1  0.750000  0.583111  0.224104  1
  Sn  Sn19  1  0.750000  0.590149  0.412520  1
  Sn  Sn20  1  0.750000  0.918225  0.949103  1
  Sn  Sn21  1  0.250000  0.084320  0.267067  1
  Sn  Sn22  1  0.750000  0.903558  0.576769  1
  Sn  Sn23  1  0.750000  0.893837  0.757661  1
  Sn  Sn24  1  0.250000  0.087777  0.586151  1
  Sn  Sn25  1  0.250000  0.089242  0.744026  1
  Au  Au26  1  0.750000  0.589100  0.922620  1
  Au  Au27  1  0.750000  0.921887  0.396518  1
  Au  Au28  1  0.750000  0.570253  0.580009  1
  Au  Au29  1  0.750000  0.561717  0.759952  1
  Au  Au30  1  0.250000  0.418039  0.409128  1
  Au  Au31  1  0.250000  0.417875  0.235101  1
  Au  Au32  1  0.750000  0.920999  0.072070  1
  Au  Au33  1  0.250000  0.414644  0.097025  1
  Au  Au34  1  0.250000  0.086603  0.941522  1
  Au  Au35  1  0.750000  0.917477  0.253371  1
