# generated using pymatgen
data_Tb3ZrCo18(CuP6)2
_symmetry_space_group_name_H-M   'P 1'
_cell_length_a   3.66936200
_cell_length_b   10.25102900
_cell_length_c   11.80415828
_cell_angle_alpha   90.03704101
_cell_angle_beta   90.00000000
_cell_angle_gamma   90.00000000
_symmetry_Int_Tables_number   1
_chemical_formula_structural   Tb3ZrCo18(CuP6)2
_chemical_formula_sum   'Tb3 Zr1 Co18 Cu2 P12'
_cell_volume   444.01020790
_cell_formula_units_Z   1
loop_
 _symmetry_equiv_pos_site_id
 _symmetry_equiv_pos_as_xyz
  1  'x, y, z'
loop_
 _atom_site_type_symbol
 _atom_site_label
 _atom_site_symmetry_multiplicity
 _atom_site_fract_x
 _atom_site_fract_y
 _atom_site_fract_z
 _atom_site_occupancy
  Tb  Tb0  1  0.250000  0.920622  0.201972  1
  Tb  Tb1  1  0.750000  0.418704  0.296646  1
  Tb  Tb2  1  0.750000  0.081214  0.796663  1
  Zr  Zr3  1  0.250000  0.578599  0.701517  1
  Co  Co4  1  0.750000  0.287220  0.006137  1
  Co  Co5  1  0.750000  0.213827  0.510287  1
  Co  Co6  1  0.250000  0.408060  0.489960  1
  Co  Co7  1  0.250000  0.095102  0.987382  1
  Co  Co8  1  0.750000  0.592740  0.520455  1
  Co  Co9  1  0.750000  0.907632  0.014181  1
  Co  Co10  1  0.250000  0.223610  0.175496  1
  Co  Co11  1  0.250000  0.277842  0.676159  1
  Co  Co12  1  0.750000  0.774663  0.824407  1
  Co  Co13  1  0.750000  0.721086  0.327138  1
  Co  Co14  1  0.250000  0.878564  0.698677  1
  Co  Co15  1  0.250000  0.617951  0.197767  1
  Co  Co16  1  0.750000  0.120792  0.301232  1
  Co  Co17  1  0.750000  0.383212  0.797826  1
  Co  Co18  1  0.250000  0.467550  0.928043  1
  Co  Co19  1  0.250000  0.034543  0.432641  1
  Co  Co20  1  0.750000  0.534791  0.063578  1
  Co  Co21  1  0.750000  0.963049  0.566957  1
  Cu  Cu22  1  0.250000  0.712309  0.991874  1
  Cu  Cu23  1  0.250000  0.787826  0.491039  1
  P  P24  1  0.250000  0.420599  0.109552  1
  P  P25  1  0.250000  0.078757  0.612276  1
  P  P26  1  0.750000  0.576827  0.880188  1
  P  P27  1  0.750000  0.923726  0.384636  1
  P  P28  1  0.250000  0.269621  0.868214  1
  P  P29  1  0.250000  0.231179  0.369357  1
  P  P30  1  0.750000  0.728503  0.138943  1
  P  P31  1  0.750000  0.766129  0.639363  1
  P  P32  1  0.250000  0.599792  0.391455  1
  P  P33  1  0.250000  0.899984  0.891544  1
  P  P34  1  0.750000  0.398341  0.608977  1
  P  P35  1  0.750000  0.105032  0.107460  1
