# generated using pymatgen
data_Ho3Er(CuP2)4
_symmetry_space_group_name_H-M   'P 1'
_cell_length_a   3.71189400
_cell_length_b   3.75972156
_cell_length_c   19.42953500
_cell_angle_alpha   90.10704138
_cell_angle_beta   90.00000000
_cell_angle_gamma   90.00000000
_symmetry_Int_Tables_number   1
_chemical_formula_structural   Ho3Er(CuP2)4
_chemical_formula_sum   'Ho3 Er1 Cu4 P8'
_cell_volume   271.15205340
_cell_formula_units_Z   1
loop_
 _symmetry_equiv_pos_site_id
 _symmetry_equiv_pos_as_xyz
  1  'x, y, z'
loop_
 _atom_site_type_symbol
 _atom_site_label
 _atom_site_symmetry_multiplicity
 _atom_site_fract_x
 _atom_site_fract_y
 _atom_site_fract_z
 _atom_site_occupancy
  Ho  Ho0  1  0.250000  0.718875  0.382217  1
  Ho  Ho1  1  0.250000  0.780729  0.883446  1
  Ho  Ho2  1  0.750000  0.281512  0.617212  1
  Er  Er3  1  0.750000  0.218300  0.117460  1
  Cu  Cu4  1  0.250000  0.220483  0.249293  1
  Cu  Cu5  1  0.750000  0.781687  0.750764  1
  Cu  Cu6  1  0.250000  0.279936  0.750033  1
  Cu  Cu7  1  0.750000  0.718987  0.249333  1
  P  P8  1  0.750000  0.801904  0.501195  1
  P  P9  1  0.750000  0.698002  0.002418  1
  P  P10  1  0.250000  0.198552  0.498186  1
  P  P11  1  0.250000  0.301097  0.999406  1
  P  P12  1  0.250000  0.719410  0.170656  1
  P  P13  1  0.750000  0.219530  0.327790  1
  P  P14  1  0.750000  0.280466  0.828819  1
  P  P15  1  0.250000  0.780530  0.671771  1
