# generated using pymatgen
data_Ce5Zn2Os3
_symmetry_space_group_name_H-M   'P 1'
_cell_length_a   8.38111816
_cell_length_b   8.38111741
_cell_length_c   8.38111800
_cell_angle_alpha   109.47122205
_cell_angle_beta   109.47122024
_cell_angle_gamma   109.47121600
_symmetry_Int_Tables_number   1
_chemical_formula_structural   Ce5Zn2Os3
_chemical_formula_sum   'Ce10 Zn4 Os6'
_cell_volume   453.19381300
_cell_formula_units_Z   2
loop_
 _symmetry_equiv_pos_site_id
 _symmetry_equiv_pos_as_xyz
  1  'x, y, z'
loop_
 _atom_site_type_symbol
 _atom_site_label
 _atom_site_symmetry_multiplicity
 _atom_site_fract_x
 _atom_site_fract_y
 _atom_site_fract_z
 _atom_site_occupancy
  Ce  Ce0  1  0.782368  0.782368  0.782368  1
  Ce  Ce1  1  0.310358  0.560358  0.750000  1
  Ce  Ce2  1  0.750000  0.310358  0.560358  1
  Ce  Ce3  1  0.560358  0.750000  0.310358  1
  Ce  Ce4  1  0.717632  0.500000  0.000000  1
  Ce  Ce5  1  0.000000  0.717632  0.500000  1
  Ce  Ce6  1  0.500000  0.000000  0.717632  1
  Ce  Ce7  1  0.250000  0.189642  0.939642  1
  Ce  Ce8  1  0.939642  0.250000  0.189642  1
  Ce  Ce9  1  0.189642  0.939642  0.250000  1
  Zn  Zn10  1  0.406344  0.406344  0.406344  1
  Zn  Zn11  1  0.093656  0.500000  0.000000  1
  Zn  Zn12  1  0.000000  0.093656  0.500000  1
  Zn  Zn13  1  0.500000  0.000000  0.093656  1
  Os  Os14  1  0.869285  0.119285  0.750000  1
  Os  Os15  1  0.750000  0.869285  0.119285  1
  Os  Os16  1  0.119285  0.750000  0.869285  1
  Os  Os17  1  0.250000  0.630715  0.380715  1
  Os  Os18  1  0.380715  0.250000  0.630715  1
  Os  Os19  1  0.630715  0.380715  0.250000  1
