# generated using pymatgen
data_Nd12Ru(AuI4)3
_symmetry_space_group_name_H-M   'P 1'
_cell_length_a   10.76611090
_cell_length_b   10.76610967
_cell_length_c   10.76611000
_cell_angle_alpha   108.96919543
_cell_angle_beta   108.96919317
_cell_angle_gamma   108.96918515
_symmetry_Int_Tables_number   1
_chemical_formula_structural   Nd12Ru(AuI4)3
_chemical_formula_sum   'Nd12 Ru1 Au3 I12'
_cell_volume   978.07430260
_cell_formula_units_Z   1
loop_
 _symmetry_equiv_pos_site_id
 _symmetry_equiv_pos_as_xyz
  1  'x, y, z'
loop_
 _atom_site_type_symbol
 _atom_site_label
 _atom_site_symmetry_multiplicity
 _atom_site_fract_x
 _atom_site_fract_y
 _atom_site_fract_z
 _atom_site_occupancy
  Nd  Nd0  1  0.462798  0.473330  0.237810  1
  Nd  Nd1  1  0.750000  0.234686  0.265314  1
  Nd  Nd2  1  0.750000  0.016435  0.483565  1
  Nd  Nd3  1  0.237810  0.462798  0.473330  1
  Nd  Nd4  1  0.265314  0.750000  0.234686  1
  Nd  Nd5  1  0.037202  0.262190  0.026670  1
  Nd  Nd6  1  0.026670  0.037202  0.262190  1
  Nd  Nd7  1  0.483565  0.750000  0.016435  1
  Nd  Nd8  1  0.473330  0.237810  0.462798  1
  Nd  Nd9  1  0.016435  0.483565  0.750000  1
  Nd  Nd10  1  0.262190  0.026670  0.037202  1
  Nd  Nd11  1  0.234686  0.265314  0.750000  1
  Ru  Ru12  1  0.250000  0.250000  0.250000  1
  Au  Au13  1  0.498799  0.001201  0.250000  1
  Au  Au14  1  0.001201  0.250000  0.498799  1
  Au  Au15  1  0.250000  0.498799  0.001201  1
  I  I16  1  0.250000  0.757992  0.742008  1
  I  I17  1  0.519545  0.510923  0.761273  1
  I  I18  1  0.980455  0.738727  0.989077  1
  I  I19  1  0.742008  0.250000  0.757992  1
  I  I20  1  0.989077  0.980455  0.738727  1
  I  I21  1  0.250000  0.989247  0.510753  1
  I  I22  1  0.761273  0.519545  0.510923  1
  I  I23  1  0.510753  0.250000  0.989247  1
  I  I24  1  0.757992  0.742008  0.250000  1
  I  I25  1  0.738727  0.989077  0.980455  1
  I  I26  1  0.989247  0.510753  0.250000  1
  I  I27  1  0.510923  0.761273  0.519545  1
