# generated using pymatgen
data_ScAgSnS4
_symmetry_space_group_name_H-M   'P 1'
_cell_length_a   7.66689628
_cell_length_b   7.66689581
_cell_length_c   7.66689495
_cell_angle_alpha   119.65615858
_cell_angle_beta   120.24361511
_cell_angle_gamma   90.08757313
_symmetry_Int_Tables_number   1
_chemical_formula_structural   ScAgSnS4
_chemical_formula_sum   'Sc2 Ag2 Sn2 S8'
_cell_volume   318.90234072
_cell_formula_units_Z   2
loop_
 _symmetry_equiv_pos_site_id
 _symmetry_equiv_pos_as_xyz
  1  'x, y, z'
loop_
 _atom_site_type_symbol
 _atom_site_label
 _atom_site_symmetry_multiplicity
 _atom_site_fract_x
 _atom_site_fract_y
 _atom_site_fract_z
 _atom_site_occupancy
  Sc  Sc0  1  0.750000  0.750483  0.000483  1
  Sc  Sc1  1  0.250000  0.749517  0.499517  1
  Ag  Ag2  1  0.883647  0.133647  0.750000  1
  Ag  Ag3  1  0.616353  0.366353  0.250000  1
  Sn  Sn4  1  0.255906  0.250000  0.505906  1
  Sn  Sn5  1  0.244094  0.750000  0.994094  1
  S  S6  1  0.489587  0.510468  0.985777  1
  S  S7  1  0.489781  0.509881  0.522842  1
  S  S8  1  0.024691  0.503810  0.514223  1
  S  S9  1  0.487037  0.966937  0.977158  1
  S  S10  1  0.010413  0.996190  0.020881  1
  S  S11  1  0.010219  0.533063  0.020100  1
  S  S12  1  0.475309  0.989532  0.479119  1
  S  S13  1  0.012963  0.990119  0.479900  1
