# generated using pymatgen
data_YTm7Sc11Si16Rh
_symmetry_space_group_name_H-M   'P 1'
_cell_length_a   6.94880807
_cell_length_b   7.37058713
_cell_length_c   13.83741646
_cell_angle_alpha   90.02630915
_cell_angle_beta   90.01329039
_cell_angle_gamma   89.92090656
_symmetry_Int_Tables_number   1
_chemical_formula_structural   YTm7Sc11Si16Rh
_chemical_formula_sum   'Y1 Tm7 Sc11 Si16 Rh1'
_cell_volume   708.70735753
_cell_formula_units_Z   1
loop_
 _symmetry_equiv_pos_site_id
 _symmetry_equiv_pos_as_xyz
  1  'x, y, z'
loop_
 _atom_site_type_symbol
 _atom_site_label
 _atom_site_symmetry_multiplicity
 _atom_site_fract_x
 _atom_site_fract_y
 _atom_site_fract_z
 _atom_site_occupancy
  Y  Y0  1  0.012022  0.178737  0.093048  1
  Tm  Tm1  1  0.990649  0.814073  0.902171  1
  Tm  Tm2  1  0.489339  0.674815  0.903019  1
  Tm  Tm3  1  0.990647  0.814151  0.597654  1
  Tm  Tm4  1  0.510054  0.322123  0.093959  1
  Tm  Tm5  1  0.012298  0.179379  0.406545  1
  Tm  Tm6  1  0.510090  0.321914  0.406131  1
  Tm  Tm7  1  0.489263  0.674781  0.596893  1
  Sc  Sc8  1  0.840590  0.496437  0.250197  1
  Sc  Sc9  1  0.342374  0.005115  0.250162  1
  Sc  Sc10  1  0.653354  0.996618  0.749990  1
  Sc  Sc11  1  0.321476  0.176759  0.628217  1
  Sc  Sc12  1  0.672359  0.825091  0.374438  1
  Sc  Sc13  1  0.173288  0.673714  0.376122  1
  Sc  Sc14  1  0.672273  0.824917  0.125716  1
  Sc  Sc15  1  0.831069  0.328593  0.629566  1
  Sc  Sc16  1  0.321598  0.176685  0.871678  1
  Sc  Sc17  1  0.830845  0.328804  0.870314  1
  Sc  Sc18  1  0.173320  0.673585  0.123973  1
  Si  Si19  1  0.023821  0.093829  0.749959  1
  Si  Si20  1  0.973231  0.888951  0.250299  1
  Si  Si21  1  0.469827  0.612461  0.250044  1
  Si  Si22  1  0.517021  0.396583  0.749977  1
  Si  Si23  1  0.282601  0.861552  0.749993  1
  Si  Si24  1  0.715712  0.132138  0.250404  1
  Si  Si25  1  0.215788  0.370110  0.250411  1
  Si  Si26  1  0.792011  0.630053  0.749967  1
  Si  Si27  1  0.161287  0.464298  0.542526  1
  Si  Si28  1  0.841837  0.534708  0.463653  1
  Si  Si29  1  0.343502  0.964970  0.463220  1
  Si  Si30  1  0.841572  0.535556  0.036156  1
  Si  Si31  1  0.659530  0.034507  0.540163  1
  Si  Si32  1  0.161472  0.465015  0.957212  1
  Si  Si33  1  0.659261  0.034323  0.959721  1
  Si  Si34  1  0.344613  0.964371  0.036570  1
  Rh  Rh35  1  0.160007  0.530284  0.749932  1
