# generated using pymatgen
data_Y2NpFe2Si7
_symmetry_space_group_name_H-M   'P 1'
_cell_length_a   12.29544845
_cell_length_b   12.29544804
_cell_length_c   4.01212000
_cell_angle_alpha   90.00000000
_cell_angle_beta   90.00000000
_cell_angle_gamma   161.09690835
_symmetry_Int_Tables_number   1
_chemical_formula_structural   Y2NpFe2Si7
_chemical_formula_sum   'Y2 Np1 Fe2 Si7'
_cell_volume   196.50128220
_cell_formula_units_Z   1
loop_
 _symmetry_equiv_pos_site_id
 _symmetry_equiv_pos_as_xyz
  1  'x, y, z'
loop_
 _atom_site_type_symbol
 _atom_site_label
 _atom_site_symmetry_multiplicity
 _atom_site_fract_x
 _atom_site_fract_y
 _atom_site_fract_z
 _atom_site_occupancy
  Y  Y0  1  0.098989  0.901011  0.500000  1
  Y  Y1  1  0.467103  0.532897  0.500000  1
  Np  Np2  1  0.783085  0.216915  0.000000  1
  Fe  Fe3  1  0.657201  0.342799  0.000000  1
  Fe  Fe4  1  0.908905  0.091095  0.000000  1
  Si  Si5  1  0.368343  0.631657  0.000000  1
  Si  Si6  1  0.561757  0.438243  0.000000  1
  Si  Si7  1  0.867632  0.132368  0.500000  1
  Si  Si8  1  0.004325  0.995675  0.000000  1
  Si  Si9  1  0.197793  0.802207  0.000000  1
  Si  Si10  1  0.283046  0.716954  0.500000  1
  Si  Si11  1  0.698522  0.301478  0.500000  1
