# generated using pymatgen
data_Ca11Pr8LuSi16
_symmetry_space_group_name_H-M   'P 1'
_cell_length_a   7.51912147
_cell_length_b   7.97638798
_cell_length_c   15.19407720
_cell_angle_alpha   89.95580085
_cell_angle_beta   90.01230515
_cell_angle_gamma   89.96320830
_symmetry_Int_Tables_number   1
_chemical_formula_structural   Ca11Pr8LuSi16
_chemical_formula_sum   'Ca11 Pr8 Lu1 Si16'
_cell_volume   911.27083457
_cell_formula_units_Z   1
loop_
 _symmetry_equiv_pos_site_id
 _symmetry_equiv_pos_as_xyz
  1  'x, y, z'
loop_
 _atom_site_type_symbol
 _atom_site_label
 _atom_site_symmetry_multiplicity
 _atom_site_fract_x
 _atom_site_fract_y
 _atom_site_fract_z
 _atom_site_occupancy
  Ca  Ca0  1  0.322825  0.182135  0.622596  1
  Ca  Ca1  1  0.676930  0.818057  0.376988  1
  Ca  Ca2  1  0.649665  0.999883  0.750068  1
  Ca  Ca3  1  0.178825  0.681634  0.377094  1
  Ca  Ca4  1  0.821994  0.318376  0.878588  1
  Ca  Ca5  1  0.823006  0.317697  0.622241  1
  Ca  Ca6  1  0.852519  0.497437  0.250439  1
  Ca  Ca7  1  0.347368  0.002652  0.250207  1
  Ca  Ca8  1  0.322849  0.180020  0.880281  1
  Ca  Ca9  1  0.177107  0.683538  0.121062  1
  Ca  Ca10  1  0.148794  0.499199  0.750273  1
  Pr  Pr11  1  0.024063  0.184493  0.400567  1
  Pr  Pr12  1  0.524361  0.315781  0.401411  1
  Pr  Pr13  1  0.474409  0.685918  0.901756  1
  Pr  Pr14  1  0.474287  0.685978  0.599100  1
  Pr  Pr15  1  0.974550  0.813816  0.598632  1
  Pr  Pr16  1  0.973700  0.813348  0.900716  1
  Pr  Pr17  1  0.525500  0.316001  0.099286  1
  Pr  Pr18  1  0.023425  0.185684  0.096679  1
  Lu  Lu19  1  0.676954  0.816553  0.123563  1
  Si  Si20  1  0.260511  0.873536  0.750963  1
  Si  Si21  1  0.471589  0.596106  0.246275  1
  Si  Si22  1  0.033817  0.089780  0.750840  1
  Si  Si23  1  0.533079  0.409158  0.751553  1
  Si  Si24  1  0.144827  0.472326  0.536187  1
  Si  Si25  1  0.961016  0.904794  0.243997  1
  Si  Si26  1  0.736796  0.121590  0.246052  1
  Si  Si27  1  0.848853  0.535065  0.038498  1
  Si  Si28  1  0.365900  0.970435  0.041376  1
  Si  Si29  1  0.139838  0.473483  0.963738  1
  Si  Si30  1  0.643638  0.027452  0.536196  1
  Si  Si31  1  0.355473  0.973770  0.462403  1
  Si  Si32  1  0.857163  0.526449  0.462044  1
  Si  Si33  1  0.759247  0.626609  0.750690  1
  Si  Si34  1  0.242918  0.376961  0.248741  1
  Si  Si35  1  0.652203  0.024285  0.968897  1
