# generated using pymatgen
data_HoTm11GaCo5
_symmetry_space_group_name_H-M   'P 1'
_cell_length_a   8.11266423
_cell_length_b   8.11266517
_cell_length_c   8.10913223
_cell_angle_alpha   110.88661425
_cell_angle_beta   110.83722075
_cell_angle_gamma   106.74281694
_symmetry_Int_Tables_number   1
_chemical_formula_structural   HoTm11GaCo5
_chemical_formula_sum   'Ho1 Tm11 Ga1 Co5'
_cell_volume   410.05305701
_cell_formula_units_Z   1
loop_
 _symmetry_equiv_pos_site_id
 _symmetry_equiv_pos_as_xyz
  1  'x, y, z'
loop_
 _atom_site_type_symbol
 _atom_site_label
 _atom_site_symmetry_multiplicity
 _atom_site_fract_x
 _atom_site_fract_y
 _atom_site_fract_z
 _atom_site_occupancy
  Ho  Ho0  1  0.287491  0.185834  0.473325  1
  Tm  Tm1  1  0.712558  0.814528  0.527086  1
  Tm  Tm2  1  0.287435  0.814018  0.101452  1
  Tm  Tm3  1  0.712800  0.185513  0.898314  1
  Tm  Tm4  1  0.618998  0.316200  0.302495  1
  Tm  Tm5  1  0.381238  0.684283  0.697484  1
  Tm  Tm6  1  0.013201  0.316246  0.697484  1
  Tm  Tm7  1  0.986295  0.683497  0.302495  1
  Tm  Tm8  1  0.217331  0.409036  0.191035  1
  Tm  Tm9  1  0.783074  0.591622  0.809013  1
  Tm  Tm10  1  0.217392  0.025938  0.809013  1
  Tm  Tm11  1  0.781998  0.973704  0.191035  1
  Ga  Ga12  1  0.500031  0.500040  0.000071  1
  Co  Co13  1  0.999697  0.374785  0.374481  1
  Co  Co14  1  0.000050  0.625387  0.625437  1
  Co  Co15  1  0.386076  0.885446  0.500091  1
  Co  Co16  1  0.614645  0.114015  0.500091  1
  Co  Co17  1  0.999690  0.999909  0.999599  1
