# generated using pymatgen
data_MgZr2(AsPd)3
_symmetry_space_group_name_H-M   'P 1'
_cell_length_a   6.79838300
_cell_length_b   6.90104756
_cell_length_c   3.87164200
_cell_angle_alpha   90.00000000
_cell_angle_beta   90.00000000
_cell_angle_gamma   119.50908736
_symmetry_Int_Tables_number   1
_chemical_formula_structural   MgZr2(AsPd)3
_chemical_formula_sum   'Mg1 Zr2 As3 Pd3'
_cell_volume   158.07880284
_cell_formula_units_Z   1
loop_
 _symmetry_equiv_pos_site_id
 _symmetry_equiv_pos_as_xyz
  1  'x, y, z'
loop_
 _atom_site_type_symbol
 _atom_site_label
 _atom_site_symmetry_multiplicity
 _atom_site_fract_x
 _atom_site_fract_y
 _atom_site_fract_z
 _atom_site_occupancy
  Mg  Mg0  1  0.596998  0.000000  0.500000  1
  Zr  Zr1  1  0.997744  0.595345  0.500000  1
  Zr  Zr2  1  0.402399  0.404655  0.500000  1
  As  As3  1  0.671123  0.353008  0.000000  1
  As  As4  1  0.318113  0.646992  0.000000  1
  As  As5  1  0.011867  0.000000  0.500000  1
  Pd  Pd6  1  0.283086  0.000000  0.000000  1
  Pd  Pd7  1  0.737181  0.755692  0.000000  1
  Pd  Pd8  1  0.981489  0.244308  0.000000  1
