# generated using pymatgen
data_Zr4P4Ir3Ru
_symmetry_space_group_name_H-M   'P 1'
_cell_length_a   3.85239900
_cell_length_b   6.54958796
_cell_length_c   7.41505194
_cell_angle_alpha   90.22057279
_cell_angle_beta   90.00000000
_cell_angle_gamma   90.00000000
_symmetry_Int_Tables_number   1
_chemical_formula_structural   Zr4P4Ir3Ru
_chemical_formula_sum   'Zr4 P4 Ir3 Ru1'
_cell_volume   187.09243158
_cell_formula_units_Z   1
loop_
 _symmetry_equiv_pos_site_id
 _symmetry_equiv_pos_as_xyz
  1  'x, y, z'
loop_
 _atom_site_type_symbol
 _atom_site_label
 _atom_site_symmetry_multiplicity
 _atom_site_fract_x
 _atom_site_fract_y
 _atom_site_fract_z
 _atom_site_occupancy
  Zr  Zr0  1  0.750000  0.525382  0.322821  1
  Zr  Zr1  1  0.250000  0.975653  0.822499  1
  Zr  Zr2  1  0.750000  0.023218  0.176558  1
  Zr  Zr3  1  0.250000  0.477644  0.677325  1
  P  P4  1  0.250000  0.732287  0.116614  1
  P  P5  1  0.250000  0.235138  0.377509  1
  P  P6  1  0.750000  0.270469  0.878159  1
  P  P7  1  0.750000  0.765016  0.626902  1
  Ir  Ir8  1  0.250000  0.351862  0.062338  1
  Ir  Ir9  1  0.250000  0.854931  0.436116  1
  Ir  Ir10  1  0.750000  0.145832  0.561808  1
  Ru  Ru11  1  0.750000  0.642569  0.941351  1
