# generated using pymatgen
data_FeNi7RhSe8
_symmetry_space_group_name_H-M   'P 1'
_cell_length_a   7.45769292
_cell_length_b   7.45769166
_cell_length_c   7.45769245
_cell_angle_alpha   59.98018874
_cell_angle_beta   59.98019290
_cell_angle_gamma   59.98019209
_symmetry_Int_Tables_number   1
_chemical_formula_structural   FeNi7RhSe8
_chemical_formula_sum   'Fe1 Ni7 Rh1 Se8'
_cell_volume   293.15903005
_cell_formula_units_Z   1
loop_
 _symmetry_equiv_pos_site_id
 _symmetry_equiv_pos_as_xyz
  1  'x, y, z'
loop_
 _atom_site_type_symbol
 _atom_site_label
 _atom_site_symmetry_multiplicity
 _atom_site_fract_x
 _atom_site_fract_y
 _atom_site_fract_z
 _atom_site_occupancy
  Fe  Fe0  1  0.878314  0.878314  0.878314  1
  Ni  Ni1  1  0.630230  0.123697  0.123697  1
  Ni  Ni2  1  0.123697  0.630230  0.123697  1
  Ni  Ni3  1  0.123697  0.123697  0.630230  1
  Ni  Ni4  1  0.123849  0.123849  0.123849  1
  Ni  Ni5  1  0.371389  0.875786  0.875786  1
  Ni  Ni6  1  0.875786  0.371389  0.875786  1
  Ni  Ni7  1  0.875786  0.875786  0.371389  1
  Rh  Rh8  1  0.498860  0.498860  0.498860  1
  Se  Se9  1  0.250837  0.250837  0.250837  1
  Se  Se10  1  0.754355  0.754355  0.754355  1
  Se  Se11  1  0.740676  0.259360  0.259360  1
  Se  Se12  1  0.740425  0.252955  0.740425  1
  Se  Se13  1  0.740425  0.740425  0.252955  1
  Se  Se14  1  0.252955  0.740425  0.740425  1
  Se  Se15  1  0.259360  0.740676  0.259360  1
  Se  Se16  1  0.259360  0.259360  0.740676  1
