# generated using pymatgen
data_Yb2CoCuIr2
_symmetry_space_group_name_H-M   'P 1'
_cell_length_a   5.15278399
_cell_length_b   5.24821284
_cell_length_c   5.24821322
_cell_angle_alpha   61.32412733
_cell_angle_beta   58.77692317
_cell_angle_gamma   58.77691470
_symmetry_Int_Tables_number   1
_chemical_formula_structural   Yb2CoCuIr2
_chemical_formula_sum   'Yb2 Co1 Cu1 Ir2'
_cell_volume   99.36956082
_cell_formula_units_Z   1
loop_
 _symmetry_equiv_pos_site_id
 _symmetry_equiv_pos_as_xyz
  1  'x, y, z'
loop_
 _atom_site_type_symbol
 _atom_site_label
 _atom_site_symmetry_multiplicity
 _atom_site_fract_x
 _atom_site_fract_y
 _atom_site_fract_z
 _atom_site_occupancy
  Yb  Yb0  1  0.124656  0.122644  0.122644  1
  Yb  Yb1  1  0.875344  0.877356  0.877356  1
  Co  Co2  1  0.000000  0.500000  0.500000  1
  Cu  Cu3  1  0.500000  0.500000  0.500000  1
  Ir  Ir4  1  0.500000  0.000000  0.500000  1
  Ir  Ir5  1  0.500000  0.500000  0.000000  1
