# generated using pymatgen
data_Tb3PrHo(In2Pd)2
_symmetry_space_group_name_H-M   'P 1'
_cell_length_a   3.66545700
_cell_length_b   8.23364773
_cell_length_c   18.47726386
_cell_angle_alpha   89.92587847
_cell_angle_beta   90.00000000
_cell_angle_gamma   90.00000000
_symmetry_Int_Tables_number   1
_chemical_formula_structural   Tb3PrHo(In2Pd)2
_chemical_formula_sum   'Tb6 Pr2 Ho2 In8 Pd4'
_cell_volume   557.64486605
_cell_formula_units_Z   2
loop_
 _symmetry_equiv_pos_site_id
 _symmetry_equiv_pos_as_xyz
  1  'x, y, z'
loop_
 _atom_site_type_symbol
 _atom_site_label
 _atom_site_symmetry_multiplicity
 _atom_site_fract_x
 _atom_site_fract_y
 _atom_site_fract_z
 _atom_site_occupancy
  Tb  Tb0  1  0.000000  0.739087  0.282587  1
  Tb  Tb1  1  0.000000  0.260913  0.717413  1
  Tb  Tb2  1  0.000000  0.761338  0.782359  1
  Tb  Tb3  1  0.000000  0.238662  0.217641  1
  Tb  Tb4  1  0.000000  0.621811  0.084035  1
  Tb  Tb5  1  0.000000  0.378189  0.915965  1
  Pr  Pr6  1  0.000000  0.500000  0.500000  1
  Pr  Pr7  1  0.000000  0.000000  0.000000  1
  Ho  Ho8  1  0.000000  0.878890  0.584772  1
  Ho  Ho9  1  0.000000  0.121110  0.415228  1
  In  In10  1  0.500000  0.699083  0.931752  1
  In  In11  1  0.500000  0.300917  0.068248  1
  In  In12  1  0.500000  0.802295  0.432257  1
  In  In13  1  0.500000  0.197705  0.567743  1
  In  In14  1  0.500000  0.583984  0.653643  1
  In  In15  1  0.500000  0.416016  0.346357  1
  In  In16  1  0.500000  0.917418  0.153953  1
  In  In17  1  0.500000  0.082582  0.846047  1
  Pd  Pd18  1  0.500000  0.524340  0.196053  1
  Pd  Pd19  1  0.500000  0.475660  0.803947  1
  Pd  Pd20  1  0.500000  0.974995  0.695263  1
  Pd  Pd21  1  0.500000  0.025005  0.304737  1
