# generated using pymatgen
data_YEr3ReB12Os
_symmetry_space_group_name_H-M   'P 1'
_cell_length_a   3.65117400
_cell_length_b   9.13008804
_cell_length_c   11.51441306
_cell_angle_alpha   90.12837198
_cell_angle_beta   90.00000000
_cell_angle_gamma   90.00000000
_symmetry_Int_Tables_number   1
_chemical_formula_structural   YEr3ReB12Os
_chemical_formula_sum   'Y2 Er6 Re2 B24 Os2'
_cell_volume   383.83821449
_cell_formula_units_Z   2
loop_
 _symmetry_equiv_pos_site_id
 _symmetry_equiv_pos_as_xyz
  1  'x, y, z'
loop_
 _atom_site_type_symbol
 _atom_site_label
 _atom_site_symmetry_multiplicity
 _atom_site_fract_x
 _atom_site_fract_y
 _atom_site_fract_z
 _atom_site_occupancy
  Y  Y0  1  0.000000  0.320515  0.412424  1
  Y  Y1  1  0.000000  0.679485  0.587576  1
  Er  Er2  1  0.000000  0.824574  0.084609  1
  Er  Er3  1  0.000000  0.175426  0.915391  1
  Er  Er4  1  0.000000  0.943462  0.370543  1
  Er  Er5  1  0.000000  0.056538  0.629457  1
  Er  Er6  1  0.000000  0.442681  0.128522  1
  Er  Er7  1  0.000000  0.557319  0.871478  1
  Re  Re8  1  0.000000  0.138023  0.179263  1
  Re  Re9  1  0.000000  0.861977  0.820737  1
  B  B10  1  0.500000  0.553899  0.432790  1
  B  B11  1  0.500000  0.446101  0.567210  1
  B  B12  1  0.500000  0.052943  0.066658  1
  B  B13  1  0.500000  0.947057  0.933342  1
  B  B14  1  0.500000  0.749252  0.418435  1
  B  B15  1  0.500000  0.250748  0.581565  1
  B  B16  1  0.500000  0.248973  0.080649  1
  B  B17  1  0.500000  0.751027  0.919351  1
  B  B18  1  0.500000  0.791205  0.265546  1
  B  B19  1  0.500000  0.208795  0.734454  1
  B  B20  1  0.500000  0.291816  0.234215  1
  B  B21  1  0.500000  0.708184  0.765785  1
  B  B22  1  0.500000  0.630944  0.185584  1
  B  B23  1  0.500000  0.369056  0.814416  1
  B  B24  1  0.500000  0.130823  0.314676  1
  B  B25  1  0.500000  0.869177  0.685324  1
  B  B26  1  0.500000  0.982092  0.212383  1
  B  B27  1  0.500000  0.017908  0.787617  1
  B  B28  1  0.500000  0.483062  0.287509  1
  B  B29  1  0.500000  0.516938  0.712491  1
  B  B30  1  0.500000  0.603097  0.028797  1
  B  B31  1  0.500000  0.396903  0.971203  1
  B  B32  1  0.500000  0.102528  0.471736  1
  B  B33  1  0.500000  0.897472  0.528264  1
  Os  Os34  1  0.000000  0.637956  0.321234  1
  Os  Os35  1  0.000000  0.362044  0.678766  1
