# generated using pymatgen
data_Zr3Nb(Ni4P3)2
_symmetry_space_group_name_H-M   'P 1'
_cell_length_a   3.67117400
_cell_length_b   10.55445600
_cell_length_c   12.18200100
_cell_angle_alpha   90.00000000
_cell_angle_beta   90.00000000
_cell_angle_gamma   90.00000000
_symmetry_Int_Tables_number   1
_chemical_formula_structural   Zr3Nb(Ni4P3)2
_chemical_formula_sum   'Zr6 Nb2 Ni16 P12'
_cell_volume   472.01897065
_cell_formula_units_Z   2
loop_
 _symmetry_equiv_pos_site_id
 _symmetry_equiv_pos_as_xyz
  1  'x, y, z'
loop_
 _atom_site_type_symbol
 _atom_site_label
 _atom_site_symmetry_multiplicity
 _atom_site_fract_x
 _atom_site_fract_y
 _atom_site_fract_z
 _atom_site_occupancy
  Zr  Zr0  1  0.751999  0.000000  0.470422  1
  Zr  Zr1  1  0.251999  0.500000  0.529578  1
  Zr  Zr2  1  0.251831  0.676049  0.792685  1
  Zr  Zr3  1  0.251831  0.323951  0.792685  1
  Zr  Zr4  1  0.751831  0.823951  0.207315  1
  Zr  Zr5  1  0.751831  0.176049  0.207315  1
  Nb  Nb6  1  0.251711  0.000000  0.840922  1
  Nb  Nb7  1  0.751711  0.500000  0.159078  1
  Ni  Ni8  1  0.751649  0.000000  0.017961  1
  Ni  Ni9  1  0.251649  0.500000  0.982039  1
  Ni  Ni10  1  0.252003  0.199495  0.568203  1
  Ni  Ni11  1  0.252003  0.800505  0.568203  1
  Ni  Ni12  1  0.752003  0.300505  0.431797  1
  Ni  Ni13  1  0.752003  0.699495  0.431797  1
  Ni  Ni14  1  0.251809  0.625136  0.296629  1
  Ni  Ni15  1  0.251809  0.374864  0.296629  1
  Ni  Ni16  1  0.751809  0.874864  0.703371  1
  Ni  Ni17  1  0.751809  0.125136  0.703371  1
  Ni  Ni18  1  0.251606  0.167526  0.011476  1
  Ni  Ni19  1  0.251606  0.832474  0.011476  1
  Ni  Ni20  1  0.751606  0.332474  0.988524  1
  Ni  Ni21  1  0.751606  0.667526  0.988524  1
  Ni  Ni22  1  0.251933  0.000000  0.300238  1
  Ni  Ni23  1  0.751933  0.500000  0.699762  1
  P  P24  1  0.252025  0.182929  0.383400  1
  P  P25  1  0.252025  0.817071  0.383400  1
  P  P26  1  0.752025  0.317071  0.616600  1
  P  P27  1  0.752025  0.682929  0.616600  1
  P  P28  1  0.251708  0.000000  0.123308  1
  P  P29  1  0.751708  0.500000  0.876692  1
  P  P30  1  0.251702  0.660803  0.111226  1
  P  P31  1  0.251702  0.339197  0.111226  1
  P  P32  1  0.751702  0.839197  0.888774  1
  P  P33  1  0.751702  0.160803  0.888774  1
  P  P34  1  0.251851  0.000000  0.640753  1
  P  P35  1  0.751851  0.500000  0.359247  1
