# generated using pymatgen
data_Ba12Ag12BiPb11
_symmetry_space_group_name_H-M   'P 1'
_cell_length_a   5.24351000
_cell_length_b   8.90883776
_cell_length_c   25.05158500
_cell_angle_alpha   90.16233371
_cell_angle_beta   90.00000000
_cell_angle_gamma   90.00000000
_symmetry_Int_Tables_number   1
_chemical_formula_structural   Ba12Ag12BiPb11
_chemical_formula_sum   'Ba12 Ag12 Bi1 Pb11'
_cell_volume   1170.24451972
_cell_formula_units_Z   1
loop_
 _symmetry_equiv_pos_site_id
 _symmetry_equiv_pos_as_xyz
  1  'x, y, z'
loop_
 _atom_site_type_symbol
 _atom_site_label
 _atom_site_symmetry_multiplicity
 _atom_site_fract_x
 _atom_site_fract_y
 _atom_site_fract_z
 _atom_site_occupancy
  Ba  Ba0  1  0.750000  0.229023  0.498205  1
  Ba  Ba1  1  0.250000  0.788045  0.166644  1
  Ba  Ba2  1  0.250000  0.777281  0.499900  1
  Ba  Ba3  1  0.250000  0.788090  0.833792  1
  Ba  Ba4  1  0.250000  0.713086  0.332211  1
  Ba  Ba5  1  0.750000  0.212553  0.834440  1
  Ba  Ba6  1  0.750000  0.285341  0.998615  1
  Ba  Ba7  1  0.750000  0.287739  0.668187  1
  Ba  Ba8  1  0.750000  0.290698  0.332487  1
  Ba  Ba9  1  0.250000  0.709770  0.667339  1
  Ba  Ba10  1  0.250000  0.714821  0.002131  1
  Ba  Ba11  1  0.750000  0.211608  0.167122  1
  Ag  Ag12  1  0.250000  0.074161  0.597151  1
  Ag  Ag13  1  0.250000  0.085586  0.739480  1
  Ag  Ag14  1  0.750000  0.584201  0.904893  1
  Ag  Ag15  1  0.750000  0.917212  0.404039  1
  Ag  Ag16  1  0.750000  0.589958  0.560987  1
  Ag  Ag17  1  0.750000  0.585904  0.763506  1
  Ag  Ag18  1  0.250000  0.419084  0.426280  1
  Ag  Ag19  1  0.250000  0.414614  0.236913  1
  Ag  Ag20  1  0.750000  0.917682  0.065231  1
  Ag  Ag21  1  0.250000  0.415396  0.095413  1
  Ag  Ag22  1  0.250000  0.082095  0.935233  1
  Ag  Ag23  1  0.750000  0.914250  0.261319  1
  Bi  Bi24  1  0.250000  0.405258  0.574472  1
  Pb  Pb25  1  0.250000  0.085218  0.397739  1
  Pb  Pb26  1  0.250000  0.085123  0.065992  1
  Pb  Pb27  1  0.250000  0.416425  0.899825  1
  Pb  Pb28  1  0.750000  0.583533  0.101200  1
  Pb  Pb29  1  0.250000  0.418034  0.769780  1
  Pb  Pb30  1  0.750000  0.582124  0.230613  1
  Pb  Pb31  1  0.750000  0.589326  0.431281  1
  Pb  Pb32  1  0.750000  0.914440  0.935372  1
  Pb  Pb33  1  0.250000  0.082010  0.268302  1
  Pb  Pb34  1  0.750000  0.913159  0.601196  1
  Pb  Pb35  1  0.750000  0.917154  0.732708  1
