# generated using pymatgen
data_ZrTa(NbN2)3
_symmetry_space_group_name_H-M   'P 1'
_cell_length_a   5.29876900
_cell_length_b   5.29876826
_cell_length_c   10.54585500
_cell_angle_alpha   90.00000000
_cell_angle_beta   90.00000000
_cell_angle_gamma   119.99999836
_symmetry_Int_Tables_number   1
_chemical_formula_structural   ZrTa(NbN2)3
_chemical_formula_sum   'Zr2 Ta2 Nb6 N12'
_cell_volume   256.42617123
_cell_formula_units_Z   2
loop_
 _symmetry_equiv_pos_site_id
 _symmetry_equiv_pos_as_xyz
  1  'x, y, z'
loop_
 _atom_site_type_symbol
 _atom_site_label
 _atom_site_symmetry_multiplicity
 _atom_site_fract_x
 _atom_site_fract_y
 _atom_site_fract_z
 _atom_site_occupancy
  Zr  Zr0  1  0.666667  0.333333  0.000000  1
  Zr  Zr1  1  0.333333  0.666667  0.000000  1
  Ta  Ta2  1  0.333333  0.666667  0.500000  1
  Ta  Ta3  1  0.666667  0.333333  0.500000  1
  Nb  Nb4  1  0.676459  0.676459  0.744984  1
  Nb  Nb5  1  0.323541  0.000000  0.744984  1
  Nb  Nb6  1  0.000000  0.323541  0.744984  1
  Nb  Nb7  1  0.323541  0.323541  0.255016  1
  Nb  Nb8  1  0.676459  0.000000  0.255016  1
  Nb  Nb9  1  0.000000  0.676459  0.255016  1
  N  N10  1  0.657377  0.657377  0.384188  1
  N  N11  1  0.342623  0.000000  0.384188  1
  N  N12  1  0.000000  0.342623  0.384188  1
  N  N13  1  0.342623  0.342623  0.615812  1
  N  N14  1  0.657377  0.000000  0.615812  1
  N  N15  1  0.000000  0.657377  0.615812  1
  N  N16  1  0.342983  0.342983  0.869498  1
  N  N17  1  0.657017  0.000000  0.869498  1
  N  N18  1  0.000000  0.657017  0.869498  1
  N  N19  1  0.657017  0.657017  0.130502  1
  N  N20  1  0.342983  0.000000  0.130502  1
  N  N21  1  0.000000  0.342983  0.130502  1
