# generated using pymatgen
data_Lu2Zr4PdPtF30
_symmetry_space_group_name_H-M   'P 1'
_cell_length_a   8.06749422
_cell_length_b   8.06749504
_cell_length_c   8.07327026
_cell_angle_alpha   79.87866331
_cell_angle_beta   79.87866052
_cell_angle_gamma   100.03634623
_symmetry_Int_Tables_number   1
_chemical_formula_structural   Lu2Zr4PdPtF30
_chemical_formula_sum   'Lu2 Zr4 Pd1 Pt1 F30'
_cell_volume   497.67686515
_cell_formula_units_Z   1
loop_
 _symmetry_equiv_pos_site_id
 _symmetry_equiv_pos_as_xyz
  1  'x, y, z'
loop_
 _atom_site_type_symbol
 _atom_site_label
 _atom_site_symmetry_multiplicity
 _atom_site_fract_x
 _atom_site_fract_y
 _atom_site_fract_z
 _atom_site_occupancy
  Lu  Lu0  1  0.677045  0.322955  0.750000  1
  Lu  Lu1  1  0.322663  0.677337  0.250000  1
  Zr  Zr2  1  0.822873  0.749587  0.327299  1
  Zr  Zr3  1  0.250413  0.177127  0.172701  1
  Zr  Zr4  1  0.177331  0.250645  0.672904  1
  Zr  Zr5  1  0.749355  0.822669  0.827096  1
  Pd  Pd6  1  0.750294  0.249706  0.250000  1
  Pt  Pt7  1  0.249762  0.750238  0.750000  1
  F  F8  1  0.150049  0.185760  0.945823  1
  F  F9  1  0.687700  0.561142  0.846098  1
  F  F10  1  0.044430  0.654269  0.314123  1
  F  F11  1  0.654556  0.045005  0.813047  1
  F  F12  1  0.561583  0.688848  0.345746  1
  F  F13  1  0.186780  0.150263  0.445442  1
  F  F14  1  0.849737  0.813220  0.054558  1
  F  F15  1  0.311152  0.438417  0.154254  1
  F  F16  1  0.954995  0.345444  0.686953  1
  F  F17  1  0.345731  0.955570  0.185877  1
  F  F18  1  0.438858  0.312300  0.653902  1
  F  F19  1  0.814240  0.849951  0.554177  1
  F  F20  1  0.969252  0.030748  0.750000  1
  F  F21  1  0.539312  0.752116  0.029471  1
  F  F22  1  0.247884  0.460688  0.470529  1
  F  F23  1  0.460432  0.248014  0.970268  1
  F  F24  1  0.751986  0.539568  0.529732  1
  F  F25  1  0.031011  0.968989  0.250000  1
  F  F26  1  0.213822  0.726290  0.001387  1
  F  F27  1  0.226265  0.497652  0.789222  1
  F  F28  1  0.996735  0.712940  0.775309  1
  F  F29  1  0.712999  0.998378  0.274487  1
  F  F30  1  0.499518  0.227019  0.289006  1
  F  F31  1  0.727260  0.213742  0.499345  1
  F  F32  1  0.786258  0.272740  0.000655  1
  F  F33  1  0.772981  0.500482  0.210994  1
  F  F34  1  0.001622  0.287001  0.225513  1
  F  F35  1  0.287060  0.003265  0.724691  1
  F  F36  1  0.502348  0.773735  0.710778  1
  F  F37  1  0.273710  0.786178  0.498613  1
