# generated using pymatgen
data_RbLi3SiS4
_symmetry_space_group_name_H-M   'P 1'
_cell_length_a   6.11178900
_cell_length_b   6.11178900
_cell_length_c   6.11178900
_cell_angle_alpha   90.00000000
_cell_angle_beta   90.00000000
_cell_angle_gamma   90.00000000
_symmetry_Int_Tables_number   1
_chemical_formula_structural   RbLi3SiS4
_chemical_formula_sum   'Rb1 Li3 Si1 S4'
_cell_volume   228.29955105
_cell_formula_units_Z   1
loop_
 _symmetry_equiv_pos_site_id
 _symmetry_equiv_pos_as_xyz
  1  'x, y, z'
loop_
 _atom_site_type_symbol
 _atom_site_label
 _atom_site_symmetry_multiplicity
 _atom_site_fract_x
 _atom_site_fract_y
 _atom_site_fract_z
 _atom_site_occupancy
  Rb  Rb0  1  0.500000  0.500000  0.500000  1
  Li  Li1  1  0.000000  0.500000  0.000000  1
  Li  Li2  1  0.000000  0.000000  0.500000  1
  Li  Li3  1  0.500000  0.000000  0.000000  1
  Si  Si4  1  0.000000  0.000000  0.000000  1
  S  S5  1  0.201369  0.201369  0.201369  1
  S  S6  1  0.798631  0.798631  0.201369  1
  S  S7  1  0.201369  0.798631  0.798631  1
  S  S8  1  0.798631  0.201369  0.798631  1
