# generated using pymatgen
data_Tb2Tm6Re(B8Ir)3
_symmetry_space_group_name_H-M   'P 1'
_cell_length_a   3.63829200
_cell_length_b   9.12847885
_cell_length_c   11.47291204
_cell_angle_alpha   90.14853765
_cell_angle_beta   90.00000000
_cell_angle_gamma   90.00000000
_symmetry_Int_Tables_number   1
_chemical_formula_structural   Tb2Tm6Re(B8Ir)3
_chemical_formula_sum   'Tb2 Tm6 Re1 B24 Ir3'
_cell_volume   381.03789517
_cell_formula_units_Z   1
loop_
 _symmetry_equiv_pos_site_id
 _symmetry_equiv_pos_as_xyz
  1  'x, y, z'
loop_
 _atom_site_type_symbol
 _atom_site_label
 _atom_site_symmetry_multiplicity
 _atom_site_fract_x
 _atom_site_fract_y
 _atom_site_fract_z
 _atom_site_occupancy
  Tb  Tb0  1  0.000000  0.320663  0.413715  1
  Tb  Tb1  1  0.000000  0.682819  0.590314  1
  Tm  Tm2  1  0.000000  0.820159  0.082228  1
  Tm  Tm3  1  0.000000  0.176201  0.912428  1
  Tm  Tm4  1  0.000000  0.943792  0.372879  1
  Tm  Tm5  1  0.000000  0.053561  0.626815  1
  Tm  Tm6  1  0.000000  0.443501  0.125614  1
  Tm  Tm7  1  0.000000  0.557446  0.875263  1
  Re  Re8  1  0.000000  0.863021  0.822118  1
  B  B9  1  0.500000  0.554273  0.433611  1
  B  B10  1  0.500000  0.447086  0.567249  1
  B  B11  1  0.500000  0.053399  0.065869  1
  B  B12  1  0.500000  0.947055  0.933899  1
  B  B13  1  0.500000  0.751169  0.419853  1
  B  B14  1  0.500000  0.249515  0.579875  1
  B  B15  1  0.500000  0.249221  0.078463  1
  B  B16  1  0.500000  0.751631  0.920511  1
  B  B17  1  0.500000  0.792825  0.264017  1
  B  B18  1  0.500000  0.207164  0.734434  1
  B  B19  1  0.500000  0.292902  0.234236  1
  B  B20  1  0.500000  0.708112  0.766867  1
  B  B21  1  0.500000  0.631281  0.183443  1
  B  B22  1  0.500000  0.368104  0.816644  1
  B  B23  1  0.500000  0.131220  0.315373  1
  B  B24  1  0.500000  0.869651  0.685792  1
  B  B25  1  0.500000  0.981040  0.212709  1
  B  B26  1  0.500000  0.018142  0.786973  1
  B  B27  1  0.500000  0.481644  0.286376  1
  B  B28  1  0.500000  0.517780  0.715059  1
  B  B29  1  0.500000  0.607640  0.030703  1
  B  B30  1  0.500000  0.389979  0.970427  1
  B  B31  1  0.500000  0.106835  0.470145  1
  B  B32  1  0.500000  0.894063  0.527992  1
  Ir  Ir33  1  0.000000  0.638435  0.320833  1
  Ir  Ir34  1  0.000000  0.361745  0.679352  1
  Ir  Ir35  1  0.000000  0.136926  0.177918  1
