# generated using pymatgen
data_ZrHg(Pd2Au)2
_symmetry_space_group_name_H-M   'P 1'
_cell_length_a   5.91468400
_cell_length_b   5.90526500
_cell_length_c   7.90999900
_cell_angle_alpha   90.00008951
_cell_angle_beta   90.00053165
_cell_angle_gamma   90.00007754
_symmetry_Int_Tables_number   1
_chemical_formula_structural   ZrHg(Pd2Au)2
_chemical_formula_sum   'Zr2 Hg2 Pd8 Au4'
_cell_volume   276.27867648
_cell_formula_units_Z   2
loop_
 _symmetry_equiv_pos_site_id
 _symmetry_equiv_pos_as_xyz
  1  'x, y, z'
loop_
 _atom_site_type_symbol
 _atom_site_label
 _atom_site_symmetry_multiplicity
 _atom_site_fract_x
 _atom_site_fract_y
 _atom_site_fract_z
 _atom_site_occupancy
  Zr  Zr0  1  0.250003  0.249995  0.000006  1
  Zr  Zr1  1  0.749997  0.750005  0.999994  1
  Hg  Hg2  1  0.749954  0.749997  0.500010  1
  Hg  Hg3  1  0.250047  0.250003  0.499990  1
  Pd  Pd4  1  0.500004  0.000000  0.242141  1
  Pd  Pd5  1  0.500004  0.500001  0.242147  1
  Pd  Pd6  1  0.999991  0.000001  0.242175  1
  Pd  Pd7  1  0.999992  0.499999  0.242183  1
  Pd  Pd8  1  0.000009  0.999999  0.757825  1
  Pd  Pd9  1  0.000008  0.500001  0.757817  1
  Pd  Pd10  1  0.499996  0.000000  0.757859  1
  Pd  Pd11  1  0.499996  0.499999  0.757853  1
  Au  Au12  1  0.750012  0.249994  0.999998  1
  Au  Au13  1  0.249986  0.750006  0.000002  1
  Au  Au14  1  0.750031  0.250001  0.500009  1
  Au  Au15  1  0.249969  0.749999  0.499992  1
