# generated using pymatgen
data_Zr3(Zn2Au)4
_symmetry_space_group_name_H-M   'P 1'
_cell_length_a   8.96240343
_cell_length_b   8.96238574
_cell_length_c   8.96239800
_cell_angle_alpha   59.99992470
_cell_angle_beta   59.99989706
_cell_angle_gamma   59.99981833
_symmetry_Int_Tables_number   1
_chemical_formula_structural   Zr3(Zn2Au)4
_chemical_formula_sum   'Zr6 Zn16 Au8'
_cell_volume   509.04499079
_cell_formula_units_Z   2
loop_
 _symmetry_equiv_pos_site_id
 _symmetry_equiv_pos_as_xyz
  1  'x, y, z'
loop_
 _atom_site_type_symbol
 _atom_site_label
 _atom_site_symmetry_multiplicity
 _atom_site_fract_x
 _atom_site_fract_y
 _atom_site_fract_z
 _atom_site_occupancy
  Zr  Zr0  1  0.716726  0.283273  0.283274  1
  Zr  Zr1  1  0.283264  0.716736  0.716736  1
  Zr  Zr2  1  0.283262  0.716738  0.283262  1
  Zr  Zr3  1  0.716725  0.283275  0.716725  1
  Zr  Zr4  1  0.283272  0.283271  0.716728  1
  Zr  Zr5  1  0.716736  0.716734  0.283265  1
  Zn  Zn6  1  0.499999  0.000005  0.999997  1
  Zn  Zn7  1  0.999998  0.500001  0.500001  1
  Zn  Zn8  1  0.999998  0.500001  0.999999  1
  Zn  Zn9  1  0.499999  0.000005  0.499999  1
  Zn  Zn10  1  0.999996  0.000005  0.499999  1
  Zn  Zn11  1  0.500000  0.500001  0.999999  1
  Zn  Zn12  1  0.341929  0.341929  0.341929  1
  Zn  Zn13  1  0.658072  0.658071  0.658072  1
  Zn  Zn14  1  0.341929  0.341929  0.974212  1
  Zn  Zn15  1  0.341921  0.974237  0.341921  1
  Zn  Zn16  1  0.658073  0.658073  0.025781  1
  Zn  Zn17  1  0.658073  0.025781  0.658073  1
  Zn  Zn18  1  0.974213  0.341929  0.341929  1
  Zn  Zn19  1  0.025777  0.658074  0.658074  1
  Zn  Zn20  1  0.999998  0.000003  0.999999  1
  Zn  Zn21  1  0.499999  0.500002  0.499999  1
  Au  Au22  1  0.123561  0.123530  0.123555  1
  Au  Au23  1  0.876462  0.876434  0.876461  1
  Au  Au24  1  0.123562  0.123533  0.629352  1
  Au  Au25  1  0.123547  0.629368  0.123546  1
  Au  Au26  1  0.876466  0.876435  0.370639  1
  Au  Au27  1  0.876453  0.370656  0.876447  1
  Au  Au28  1  0.629349  0.123533  0.123561  1
  Au  Au29  1  0.370638  0.876439  0.876465  1
