# generated using pymatgen
data_Eu2NbWO8
_symmetry_space_group_name_H-M   'P 1'
_cell_length_a   6.96292929
_cell_length_b   6.96292902
_cell_length_c   6.96292731
_cell_angle_alpha   134.36009264
_cell_angle_beta   134.36009229
_cell_angle_gamma   66.52611851
_symmetry_Int_Tables_number   1
_chemical_formula_structural   Eu2NbWO8
_chemical_formula_sum   'Eu2 Nb1 W1 O8'
_cell_volume   169.83351644
_cell_formula_units_Z   1
loop_
 _symmetry_equiv_pos_site_id
 _symmetry_equiv_pos_as_xyz
  1  'x, y, z'
loop_
 _atom_site_type_symbol
 _atom_site_label
 _atom_site_symmetry_multiplicity
 _atom_site_fract_x
 _atom_site_fract_y
 _atom_site_fract_z
 _atom_site_occupancy
  Eu  Eu0  1  0.750000  0.250000  0.500000  1
  Eu  Eu1  1  0.500000  0.500000  0.000000  1
  Nb  Nb2  1  0.000000  0.000000  0.000000  1
  W  W3  1  0.250000  0.750000  0.500000  1
  O  O4  1  0.489412  0.594035  0.414369  1
  O  O5  1  0.179666  0.075044  0.585631  1
  O  O6  1  0.335837  0.248401  0.408896  1
  O  O7  1  0.839506  0.926941  0.591104  1
  O  O8  1  0.751599  0.160494  0.087435  1
  O  O9  1  0.073059  0.664163  0.912565  1
  O  O10  1  0.924956  0.510588  0.104624  1
  O  O11  1  0.405965  0.820334  0.895376  1
