# generated using pymatgen
data_Ho2Ga2CoNi4B2Ru
_symmetry_space_group_name_H-M   'P 1'
_cell_length_a   5.16760500
_cell_length_b   5.17011141
_cell_length_c   6.74361900
_cell_angle_alpha   90.00000000
_cell_angle_beta   90.00000000
_cell_angle_gamma   120.01603910
_symmetry_Int_Tables_number   1
_chemical_formula_structural   Ho2Ga2CoNi4B2Ru
_chemical_formula_sum   'Ho2 Ga2 Co1 Ni4 B2 Ru1'
_cell_volume   156.00648627
_cell_formula_units_Z   1
loop_
 _symmetry_equiv_pos_site_id
 _symmetry_equiv_pos_as_xyz
  1  'x, y, z'
loop_
 _atom_site_type_symbol
 _atom_site_label
 _atom_site_symmetry_multiplicity
 _atom_site_fract_x
 _atom_site_fract_y
 _atom_site_fract_z
 _atom_site_occupancy
  Ho  Ho0  1  0.000000  0.000000  0.512166  1
  Ho  Ho1  1  0.000000  0.000000  0.007368  1
  Ga  Ga2  1  0.325925  0.667397  0.491774  1
  Ga  Ga3  1  0.674075  0.332603  0.491774  1
  Co  Co4  1  0.000000  0.500000  0.201947  1
  Ni  Ni5  1  0.500000  0.000000  0.792902  1
  Ni  Ni6  1  0.000000  0.500000  0.797373  1
  Ni  Ni7  1  0.500000  0.000000  0.206915  1
  Ni  Ni8  1  0.500000  0.500000  0.202433  1
  B  B9  1  0.328638  0.670395  0.002874  1
  B  B10  1  0.671362  0.329605  0.002874  1
  Ru  Ru11  1  0.500000  0.500000  0.789600  1
