# generated using pymatgen
data_CaYb3Ce4(SiPd)8
_symmetry_space_group_name_H-M   'P 1'
_cell_length_a   5.77935412
_cell_length_b   7.78933910
_cell_length_c   10.65953620
_cell_angle_alpha   88.27539423
_cell_angle_beta   90.02136797
_cell_angle_gamma   90.01054585
_symmetry_Int_Tables_number   1
_chemical_formula_structural   CaYb3Ce4(SiPd)8
_chemical_formula_sum   'Ca1 Yb3 Ce4 Si8 Pd8'
_cell_volume   479.64665607
_cell_formula_units_Z   1
loop_
 _symmetry_equiv_pos_site_id
 _symmetry_equiv_pos_as_xyz
  1  'x, y, z'
loop_
 _atom_site_type_symbol
 _atom_site_label
 _atom_site_symmetry_multiplicity
 _atom_site_fract_x
 _atom_site_fract_y
 _atom_site_fract_z
 _atom_site_occupancy
  Ca  Ca0  1  0.367672  0.968619  0.139737  1
  Yb  Yb1  1  0.638078  0.032039  0.860439  1
  Yb  Yb2  1  0.862327  0.531834  0.861084  1
  Yb  Yb3  1  0.137559  0.468239  0.138921  1
  Ce  Ce4  1  0.872720  0.824615  0.366732  1
  Ce  Ce5  1  0.127135  0.175190  0.633651  1
  Ce  Ce6  1  0.373054  0.674974  0.633718  1
  Ce  Ce7  1  0.627168  0.325084  0.366564  1
  Si  Si8  1  0.860293  0.537176  0.572477  1
  Si  Si9  1  0.139554  0.462736  0.427852  1
  Si  Si10  1  0.360016  0.962948  0.427269  1
  Si  Si11  1  0.639391  0.036968  0.572481  1
  Si  Si12  1  0.641826  0.624856  0.144811  1
  Si  Si13  1  0.357568  0.374772  0.855274  1
  Si  Si14  1  0.142250  0.874711  0.855499  1
  Si  Si15  1  0.858882  0.125425  0.144634  1
  Pd  Pd16  1  0.897859  0.839078  0.051089  1
  Pd  Pd17  1  0.096478  0.161855  0.946219  1
  Pd  Pd18  1  0.400279  0.659409  0.947006  1
  Pd  Pd19  1  0.600991  0.340436  0.051737  1
  Pd  Pd20  1  0.893667  0.820007  0.670523  1
  Pd  Pd21  1  0.104522  0.181128  0.330846  1
  Pd  Pd22  1  0.394347  0.677901  0.331073  1
  Pd  Pd23  1  0.606363  0.319999  0.670361  1
