# generated using pymatgen
data_Rb2Zr3CrSe8
_symmetry_space_group_name_H-M   'P 1'
_cell_length_a   6.55596794
_cell_length_b   7.56030244
_cell_length_c   17.07444468
_cell_angle_alpha   90.08143489
_cell_angle_beta   89.91940208
_cell_angle_gamma   90.04089614
_symmetry_Int_Tables_number   1
_chemical_formula_structural   Rb2Zr3CrSe8
_chemical_formula_sum   'Rb4 Zr6 Cr2 Se16'
_cell_volume   846.29465862
_cell_formula_units_Z   2
loop_
 _symmetry_equiv_pos_site_id
 _symmetry_equiv_pos_as_xyz
  1  'x, y, z'
loop_
 _atom_site_type_symbol
 _atom_site_label
 _atom_site_symmetry_multiplicity
 _atom_site_fract_x
 _atom_site_fract_y
 _atom_site_fract_z
 _atom_site_occupancy
  Rb  Rb0  1  0.351767  0.000582  0.998059  1
  Rb  Rb1  1  0.641763  0.499840  0.502543  1
  Rb  Rb2  1  0.033988  0.002059  0.503580  1
  Rb  Rb3  1  0.965584  0.497838  0.996703  1
  Zr  Zr4  1  0.001196  0.999980  0.249333  1
  Zr  Zr5  1  0.000604  0.015206  0.751400  1
  Zr  Zr6  1  0.998682  0.500172  0.250682  1
  Zr  Zr7  1  0.500066  0.250051  0.249997  1
  Zr  Zr8  1  0.498760  0.735003  0.749163  1
  Zr  Zr9  1  0.500069  0.750092  0.249990  1
  Cr  Cr10  1  0.999681  0.498839  0.749456  1
  Cr  Cr11  1  0.500754  0.251241  0.749823  1
  Se  Se12  1  0.833179  0.249070  0.346260  1
  Se  Se13  1  0.844380  0.740404  0.660788  1
  Se  Se14  1  0.166781  0.748347  0.153704  1
  Se  Se15  1  0.180233  0.264952  0.837291  1
  Se  Se16  1  0.166785  0.251166  0.153794  1
  Se  Se17  1  0.157522  0.740984  0.839450  1
  Se  Se18  1  0.833161  0.751689  0.346338  1
  Se  Se19  1  0.823411  0.261978  0.662807  1
  Se  Se20  1  0.670498  0.999747  0.154828  1
  Se  Se21  1  0.660882  0.009749  0.838689  1
  Se  Se22  1  0.329366  0.500432  0.345044  1
  Se  Se23  1  0.319544  0.484954  0.663018  1
  Se  Se24  1  0.336094  0.000401  0.344520  1
  Se  Se25  1  0.345483  0.009354  0.662095  1
  Se  Se26  1  0.663843  0.499740  0.155492  1
  Se  Se27  1  0.675921  0.486129  0.835153  1
