# generated using pymatgen
data_La2(ZnAu3)3
_symmetry_space_group_name_H-M   'P 1'
_cell_length_a   5.78782619
_cell_length_b   5.78782577
_cell_length_c   10.04909300
_cell_angle_alpha   90.00000000
_cell_angle_beta   90.00000000
_cell_angle_gamma   123.94631602
_symmetry_Int_Tables_number   1
_chemical_formula_structural   La2(ZnAu3)3
_chemical_formula_sum   'La2 Zn3 Au9'
_cell_volume   279.25837134
_cell_formula_units_Z   1
loop_
 _symmetry_equiv_pos_site_id
 _symmetry_equiv_pos_as_xyz
  1  'x, y, z'
loop_
 _atom_site_type_symbol
 _atom_site_label
 _atom_site_symmetry_multiplicity
 _atom_site_fract_x
 _atom_site_fract_y
 _atom_site_fract_z
 _atom_site_occupancy
  La  La0  1  0.000000  0.500000  0.755998  1
  La  La1  1  0.500000  0.000000  0.244002  1
  Zn  Zn2  1  0.000000  0.000000  0.500000  1
  Zn  Zn3  1  0.000000  0.000000  0.000000  1
  Zn  Zn4  1  0.500000  0.500000  0.500000  1
  Au  Au5  1  0.000000  0.500000  0.058580  1
  Au  Au6  1  0.500000  0.000000  0.547021  1
  Au  Au7  1  0.500000  0.000000  0.941420  1
  Au  Au8  1  0.000000  0.500000  0.452979  1
  Au  Au9  1  0.700776  0.803413  0.740962  1
  Au  Au10  1  0.196587  0.299224  0.259038  1
  Au  Au11  1  0.803413  0.700776  0.259038  1
  Au  Au12  1  0.299224  0.196587  0.740962  1
  Au  Au13  1  0.500000  0.500000  0.000000  1
