# generated using pymatgen
data_Tb4Pd3RuO14
_symmetry_space_group_name_H-M   'P 1'
_cell_length_a   7.29465449
_cell_length_b   7.25096748
_cell_length_c   7.25096700
_cell_angle_alpha   59.99999762
_cell_angle_beta   60.19791214
_cell_angle_gamma   60.19790876
_symmetry_Int_Tables_number   1
_chemical_formula_structural   Tb4Pd3RuO14
_chemical_formula_sum   'Tb4 Pd3 Ru1 O14'
_cell_volume   272.00338270
_cell_formula_units_Z   1
loop_
 _symmetry_equiv_pos_site_id
 _symmetry_equiv_pos_as_xyz
  1  'x, y, z'
loop_
 _atom_site_type_symbol
 _atom_site_label
 _atom_site_symmetry_multiplicity
 _atom_site_fract_x
 _atom_site_fract_y
 _atom_site_fract_z
 _atom_site_occupancy
  Tb  Tb0  1  0.625000  0.625000  0.125000  1
  Tb  Tb1  1  0.625000  0.125000  0.625000  1
  Tb  Tb2  1  0.125000  0.625000  0.625000  1
  Tb  Tb3  1  0.625000  0.625000  0.625000  1
  Pd  Pd4  1  0.125000  0.125000  0.625000  1
  Pd  Pd5  1  0.125000  0.625000  0.125000  1
  Pd  Pd6  1  0.125000  0.125000  0.125000  1
  Ru  Ru7  1  0.625000  0.125000  0.125000  1
  O  O8  1  0.749185  0.750272  0.750272  1
  O  O9  1  0.500815  0.499728  0.499728  1
  O  O10  1  0.032189  0.466077  0.035656  1
  O  O11  1  0.785953  0.210935  0.792178  1
  O  O12  1  0.032189  0.035656  0.466077  1
  O  O13  1  0.464047  0.039065  0.039065  1
  O  O14  1  0.032189  0.466077  0.466077  1
  O  O15  1  0.464047  0.457822  0.039065  1
  O  O16  1  0.464047  0.039065  0.457822  1
  O  O17  1  0.217811  0.783923  0.783923  1
  O  O18  1  0.785953  0.210935  0.210935  1
  O  O19  1  0.217811  0.783923  0.214344  1
  O  O20  1  0.785953  0.792178  0.210935  1
  O  O21  1  0.217811  0.214344  0.783923  1
