# generated using pymatgen
data_NaNd4Co4Ag
_symmetry_space_group_name_H-M   'P 1'
_cell_length_a   3.98382900
_cell_length_b   3.98382865
_cell_length_c   18.17062300
_cell_angle_alpha   90.00000000
_cell_angle_beta   90.00000000
_cell_angle_gamma   119.99999462
_symmetry_Int_Tables_number   1
_chemical_formula_structural   NaNd4Co4Ag
_chemical_formula_sum   'Na1 Nd4 Co4 Ag1'
_cell_volume   249.74788095
_cell_formula_units_Z   1
loop_
 _symmetry_equiv_pos_site_id
 _symmetry_equiv_pos_as_xyz
  1  'x, y, z'
loop_
 _atom_site_type_symbol
 _atom_site_label
 _atom_site_symmetry_multiplicity
 _atom_site_fract_x
 _atom_site_fract_y
 _atom_site_fract_z
 _atom_site_occupancy
  Na  Na0  1  0.333333  0.666667  0.250000  1
  Nd  Nd1  1  0.000000  0.000000  0.078479  1
  Nd  Nd2  1  0.000000  0.000000  0.872147  1
  Nd  Nd3  1  0.000000  0.000000  0.627853  1
  Nd  Nd4  1  0.000000  0.000000  0.421521  1
  Co  Co5  1  0.333333  0.666667  0.521556  1
  Co  Co6  1  0.666667  0.333333  0.521458  1
  Co  Co7  1  0.666667  0.333333  0.978542  1
  Co  Co8  1  0.333333  0.666667  0.978444  1
  Ag  Ag9  1  0.666667  0.333333  0.750000  1
