# generated using pymatgen
data_Ho2Si2PdRu
_symmetry_space_group_name_H-M   'P 1'
_cell_length_a   4.26971800
_cell_length_b   6.93880649
_cell_length_c   7.39232754
_cell_angle_alpha   90.45934643
_cell_angle_beta   90.00000000
_cell_angle_gamma   90.00000000
_symmetry_Int_Tables_number   1
_chemical_formula_structural   Ho2Si2PdRu
_chemical_formula_sum   'Ho4 Si4 Pd2 Ru2'
_cell_volume   219.00357907
_cell_formula_units_Z   2
loop_
 _symmetry_equiv_pos_site_id
 _symmetry_equiv_pos_as_xyz
  1  'x, y, z'
loop_
 _atom_site_type_symbol
 _atom_site_label
 _atom_site_symmetry_multiplicity
 _atom_site_fract_x
 _atom_site_fract_y
 _atom_site_fract_z
 _atom_site_occupancy
  Ho  Ho0  1  0.250000  0.993371  0.806881  1
  Ho  Ho1  1  0.750000  0.006629  0.193119  1
  Ho  Ho2  1  0.250000  0.499327  0.689163  1
  Ho  Ho3  1  0.750000  0.500673  0.310837  1
  Si  Si4  1  0.250000  0.300688  0.089575  1
  Si  Si5  1  0.750000  0.699312  0.910425  1
  Si  Si6  1  0.250000  0.789189  0.381870  1
  Si  Si7  1  0.750000  0.210811  0.618130  1
  Pd  Pd8  1  0.750000  0.834986  0.574015  1
  Pd  Pd9  1  0.250000  0.165014  0.425985  1
  Ru  Ru10  1  0.750000  0.345797  0.933015  1
  Ru  Ru11  1  0.250000  0.654203  0.066985  1
