# generated using pymatgen
data_KBaSrB2Pt7
_symmetry_space_group_name_H-M   'P 1'
_cell_length_a   8.56307240
_cell_length_b   8.56307196
_cell_length_c   8.56307124
_cell_angle_alpha   38.71349207
_cell_angle_beta   38.71349527
_cell_angle_gamma   38.71348987
_symmetry_Int_Tables_number   1
_chemical_formula_structural   KBaSrB2Pt7
_chemical_formula_sum   'K1 Ba1 Sr1 B2 Pt7'
_cell_volume   220.75987782
_cell_formula_units_Z   1
loop_
 _symmetry_equiv_pos_site_id
 _symmetry_equiv_pos_as_xyz
  1  'x, y, z'
loop_
 _atom_site_type_symbol
 _atom_site_label
 _atom_site_symmetry_multiplicity
 _atom_site_fract_x
 _atom_site_fract_y
 _atom_site_fract_z
 _atom_site_occupancy
  K  K0  1  0.856027  0.856027  0.856027  1
  Ba  Ba1  1  0.145837  0.145837  0.145837  1
  Sr  Sr2  1  0.997182  0.997182  0.997182  1
  B  B3  1  0.669694  0.669694  0.669694  1
  B  B4  1  0.330721  0.330721  0.330721  1
  Pt  Pt5  1  0.440385  0.931617  0.440385  1
  Pt  Pt6  1  0.440385  0.440385  0.931617  1
  Pt  Pt7  1  0.931617  0.440385  0.440385  1
  Pt  Pt8  1  0.560178  0.067540  0.560178  1
  Pt  Pt9  1  0.560178  0.560178  0.067540  1
  Pt  Pt10  1  0.067540  0.560178  0.560178  1
  Pt  Pt11  1  0.500254  0.500254  0.500254  1
