# generated using pymatgen
data_Eu3Lu3(BiO7)2
_symmetry_space_group_name_H-M   'P 1'
_cell_length_a   6.58924613
_cell_length_b   6.60655545
_cell_length_c   7.73828400
_cell_angle_alpha   106.97443780
_cell_angle_beta   89.90460331
_cell_angle_gamma   99.20160733
_symmetry_Int_Tables_number   1
_chemical_formula_structural   Eu3Lu3(BiO7)2
_chemical_formula_sum   'Eu3 Lu3 Bi2 O14'
_cell_volume   317.68142291
_cell_formula_units_Z   1
loop_
 _symmetry_equiv_pos_site_id
 _symmetry_equiv_pos_as_xyz
  1  'x, y, z'
loop_
 _atom_site_type_symbol
 _atom_site_label
 _atom_site_symmetry_multiplicity
 _atom_site_fract_x
 _atom_site_fract_y
 _atom_site_fract_z
 _atom_site_occupancy
  Eu  Eu0  1  0.728103  0.467205  0.114783  1
  Eu  Eu1  1  0.740783  0.485072  0.623354  1
  Eu  Eu2  1  0.257308  0.516365  0.379121  1
  Lu  Lu3  1  0.465071  0.006475  0.252430  1
  Lu  Lu4  1  0.532520  0.992174  0.747697  1
  Lu  Lu5  1  0.272924  0.539825  0.885018  1
  Bi  Bi6  1  0.001828  0.003784  0.502596  1
  Bi  Bi7  1  0.003429  0.000650  0.997908  1
  O  O8  1  0.442240  0.660091  0.157810  1
  O  O9  1  0.536194  0.339570  0.835801  1
  O  O10  1  0.305942  0.924396  0.950103  1
  O  O11  1  0.698172  0.066183  0.051026  1
  O  O12  1  0.304044  0.935271  0.516956  1
  O  O13  1  0.697447  0.063217  0.481204  1
  O  O14  1  0.538921  0.357916  0.342483  1
  O  O15  1  0.453753  0.642058  0.667129  1
  O  O16  1  0.937284  0.660671  0.944504  1
  O  O17  1  0.082062  0.334938  0.038505  1
  O  O18  1  0.072367  0.348393  0.626607  1
  O  O19  1  0.932916  0.651980  0.384699  1
  O  O20  1  0.865583  0.915398  0.727761  1
  O  O21  1  0.131107  0.088371  0.272504  1
