# generated using pymatgen
data_Lu6Nb4Al4Ga8Os7
_symmetry_space_group_name_H-M   'P 1'
_cell_length_a   8.97119681
_cell_length_b   8.97119684
_cell_length_c   8.97119600
_cell_angle_alpha   59.99999573
_cell_angle_beta   59.99999562
_cell_angle_gamma   59.99999293
_symmetry_Int_Tables_number   1
_chemical_formula_structural   Lu6Nb4Al4Ga8Os7
_chemical_formula_sum   'Lu6 Nb4 Al4 Ga8 Os7'
_cell_volume   510.54739662
_cell_formula_units_Z   1
loop_
 _symmetry_equiv_pos_site_id
 _symmetry_equiv_pos_as_xyz
  1  'x, y, z'
loop_
 _atom_site_type_symbol
 _atom_site_label
 _atom_site_symmetry_multiplicity
 _atom_site_fract_x
 _atom_site_fract_y
 _atom_site_fract_z
 _atom_site_occupancy
  Lu  Lu0  1  0.708448  0.708448  0.291552  1
  Lu  Lu1  1  0.291552  0.708448  0.291552  1
  Lu  Lu2  1  0.708448  0.291552  0.291552  1
  Lu  Lu3  1  0.291552  0.291552  0.708448  1
  Lu  Lu4  1  0.708448  0.291552  0.708448  1
  Lu  Lu5  1  0.291552  0.708448  0.708448  1
  Nb  Nb6  1  0.878614  0.878614  0.364158  1
  Nb  Nb7  1  0.878614  0.364158  0.878614  1
  Nb  Nb8  1  0.364158  0.878614  0.878614  1
  Nb  Nb9  1  0.878614  0.878614  0.878614  1
  Al  Al10  1  0.120922  0.120922  0.637233  1
  Al  Al11  1  0.120922  0.637233  0.120922  1
  Al  Al12  1  0.637233  0.120922  0.120922  1
  Al  Al13  1  0.120922  0.120922  0.120922  1
  Ga  Ga14  1  0.661687  0.661687  0.014937  1
  Ga  Ga15  1  0.661687  0.014937  0.661687  1
  Ga  Ga16  1  0.014937  0.661687  0.661687  1
  Ga  Ga17  1  0.661687  0.661687  0.661687  1
  Ga  Ga18  1  0.335501  0.335501  0.993497  1
  Ga  Ga19  1  0.335501  0.993497  0.335501  1
  Ga  Ga20  1  0.993497  0.335501  0.335501  1
  Ga  Ga21  1  0.335501  0.335501  0.335501  1
  Os  Os22  1  0.000000  0.000000  0.000000  1
  Os  Os23  1  0.997394  0.997394  0.502606  1
  Os  Os24  1  0.502606  0.997394  0.502606  1
  Os  Os25  1  0.997394  0.502606  0.502606  1
  Os  Os26  1  0.502606  0.502606  0.997394  1
  Os  Os27  1  0.997394  0.502606  0.997394  1
  Os  Os28  1  0.502606  0.997394  0.997394  1
