# generated using pymatgen
data_SrLa3Ir8
_symmetry_space_group_name_H-M   'P 1'
_cell_length_a   9.46777350
_cell_length_b   9.46777283
_cell_length_c   9.46777319
_cell_angle_alpha   33.72963186
_cell_angle_beta   33.72963564
_cell_angle_gamma   33.72963285
_symmetry_Int_Tables_number   1
_chemical_formula_structural   SrLa3Ir8
_chemical_formula_sum   'Sr1 La3 Ir8'
_cell_volume   233.14467820
_cell_formula_units_Z   1
loop_
 _symmetry_equiv_pos_site_id
 _symmetry_equiv_pos_as_xyz
  1  'x, y, z'
loop_
 _atom_site_type_symbol
 _atom_site_label
 _atom_site_symmetry_multiplicity
 _atom_site_fract_x
 _atom_site_fract_y
 _atom_site_fract_z
 _atom_site_occupancy
  Sr  Sr0  1  0.125869  0.125869  0.125869  1
  La  La1  1  0.624076  0.624076  0.624076  1
  La  La2  1  0.001924  0.001924  0.001924  1
  La  La3  1  0.498003  0.498003  0.498003  1
  Ir  Ir4  1  0.562678  0.562678  0.059906  1
  Ir  Ir5  1  0.062402  0.062402  0.564963  1
  Ir  Ir6  1  0.562678  0.059906  0.562678  1
  Ir  Ir7  1  0.062402  0.564963  0.062402  1
  Ir  Ir8  1  0.812558  0.812558  0.812558  1
  Ir  Ir9  1  0.312542  0.312542  0.312542  1
  Ir  Ir10  1  0.059906  0.562678  0.562678  1
  Ir  Ir11  1  0.564963  0.062402  0.062402  1
