# generated using pymatgen
data_GdY3CuPt3
_symmetry_space_group_name_H-M   'P 1'
_cell_length_a   4.47658100
_cell_length_b   5.64278028
_cell_length_c   7.08755000
_cell_angle_alpha   89.73081107
_cell_angle_beta   90.00000000
_cell_angle_gamma   90.00000000
_symmetry_Int_Tables_number   1
_chemical_formula_structural   GdY3CuPt3
_chemical_formula_sum   'Gd1 Y3 Cu1 Pt3'
_cell_volume   179.03210968
_cell_formula_units_Z   1
loop_
 _symmetry_equiv_pos_site_id
 _symmetry_equiv_pos_as_xyz
  1  'x, y, z'
loop_
 _atom_site_type_symbol
 _atom_site_label
 _atom_site_symmetry_multiplicity
 _atom_site_fract_x
 _atom_site_fract_y
 _atom_site_fract_z
 _atom_site_occupancy
  Gd  Gd0  1  0.500000  0.138969  0.176379  1
  Y  Y1  1  0.000000  0.641271  0.316862  1
  Y  Y2  1  0.000000  0.856198  0.818803  1
  Y  Y3  1  0.500000  0.363694  0.686846  1
  Cu  Cu4  1  0.000000  0.137266  0.463925  1
  Pt  Pt5  1  0.000000  0.341839  0.957035  1
  Pt  Pt6  1  0.500000  0.866285  0.533947  1
  Pt  Pt7  1  0.500000  0.654478  0.046206  1
