# generated using pymatgen
data_Dy5Er3ReRu3C8
_symmetry_space_group_name_H-M   'P 1'
_cell_length_a   5.08886900
_cell_length_b   6.49443716
_cell_length_c   9.77049320
_cell_angle_alpha   90.05098193
_cell_angle_beta   90.00000000
_cell_angle_gamma   90.00000000
_symmetry_Int_Tables_number   1
_chemical_formula_structural   Dy5Er3ReRu3C8
_chemical_formula_sum   'Dy5 Er3 Re1 Ru3 C8'
_cell_volume   322.90822304
_cell_formula_units_Z   1
loop_
 _symmetry_equiv_pos_site_id
 _symmetry_equiv_pos_as_xyz
  1  'x, y, z'
loop_
 _atom_site_type_symbol
 _atom_site_label
 _atom_site_symmetry_multiplicity
 _atom_site_fract_x
 _atom_site_fract_y
 _atom_site_fract_z
 _atom_site_occupancy
  Dy  Dy0  1  0.750000  0.681788  0.443728  1
  Dy  Dy1  1  0.250000  0.471305  0.214949  1
  Dy  Dy2  1  0.250000  0.970310  0.282591  1
  Dy  Dy3  1  0.750000  0.527683  0.787880  1
  Dy  Dy4  1  0.750000  0.027482  0.714439  1
  Er  Er5  1  0.250000  0.826340  0.943705  1
  Er  Er6  1  0.250000  0.324888  0.555753  1
  Er  Er7  1  0.750000  0.174694  0.055581  1
  Re  Re8  1  0.750000  0.221119  0.366512  1
  Ru  Ru9  1  0.250000  0.280517  0.864713  1
  Ru  Ru10  1  0.250000  0.779852  0.635440  1
  Ru  Ru11  1  0.750000  0.721607  0.132328  1
  C  C12  1  0.250000  0.045562  0.741845  1
  C  C13  1  0.250000  0.545280  0.757699  1
  C  C14  1  0.750000  0.956082  0.259748  1
  C  C15  1  0.750000  0.453981  0.242233  1
  C  C16  1  0.250000  0.672609  0.447725  1
  C  C17  1  0.250000  0.171094  0.052455  1
  C  C18  1  0.750000  0.322189  0.554043  1
  C  C19  1  0.750000  0.825619  0.946634  1
