# generated using pymatgen
data_YBiPt2O7
_symmetry_space_group_name_H-M   'P 1'
_cell_length_a   7.37342508
_cell_length_b   7.37342597
_cell_length_c   7.37342635
_cell_angle_alpha   120.23321217
_cell_angle_beta   119.91519536
_cell_angle_gamma   89.87174596
_symmetry_Int_Tables_number   1
_chemical_formula_structural   YBiPt2O7
_chemical_formula_sum   'Y2 Bi2 Pt4 O14'
_cell_volume   283.13932629
_cell_formula_units_Z   2
loop_
 _symmetry_equiv_pos_site_id
 _symmetry_equiv_pos_as_xyz
  1  'x, y, z'
loop_
 _atom_site_type_symbol
 _atom_site_label
 _atom_site_symmetry_multiplicity
 _atom_site_fract_x
 _atom_site_fract_y
 _atom_site_fract_z
 _atom_site_occupancy
  Y  Y0  1  0.500000  0.500000  0.000000  1
  Y  Y1  1  0.000000  0.500000  0.500000  1
  Bi  Bi2  1  0.500000  0.500000  0.500000  1
  Bi  Bi3  1  0.500000  0.000000  0.000000  1
  Pt  Pt4  1  0.000000  0.000000  0.500000  1
  Pt  Pt5  1  0.000000  0.500000  0.000000  1
  Pt  Pt6  1  0.000000  0.000000  0.000000  1
  Pt  Pt7  1  0.500000  0.000000  0.500000  1
  O  O8  1  0.336235  0.092537  0.673568  1
  O  O9  1  0.918969  0.092537  0.256302  1
  O  O10  1  0.911106  0.661106  0.250000  1
  O  O11  1  0.918969  0.662666  0.826432  1
  O  O12  1  0.336235  0.662666  0.243698  1
  O  O13  1  0.333992  0.083992  0.250000  1
  O  O14  1  0.663765  0.907463  0.326432  1
  O  O15  1  0.081031  0.907463  0.743698  1
  O  O16  1  0.088894  0.338894  0.750000  1
  O  O17  1  0.081031  0.337334  0.173568  1
  O  O18  1  0.663765  0.337334  0.756302  1
  O  O19  1  0.666008  0.916008  0.750000  1
  O  O20  1  0.633867  0.383867  0.250000  1
  O  O21  1  0.366133  0.616133  0.750000  1
