# generated using pymatgen
data_Dy4ScMn3(P3Ir4)4
_symmetry_space_group_name_H-M   'P 1'
_cell_length_a   12.65609800
_cell_length_b   12.65609767
_cell_length_c   3.94342000
_cell_angle_alpha   90.00000000
_cell_angle_beta   90.00000000
_cell_angle_gamma   120.00000086
_symmetry_Int_Tables_number   1
_chemical_formula_structural   Dy4ScMn3(P3Ir4)4
_chemical_formula_sum   'Dy4 Sc1 Mn3 P12 Ir16'
_cell_volume   547.02013130
_cell_formula_units_Z   1
loop_
 _symmetry_equiv_pos_site_id
 _symmetry_equiv_pos_as_xyz
  1  'x, y, z'
loop_
 _atom_site_type_symbol
 _atom_site_label
 _atom_site_symmetry_multiplicity
 _atom_site_fract_x
 _atom_site_fract_y
 _atom_site_fract_z
 _atom_site_occupancy
  Dy  Dy0  1  0.666667  0.333333  0.500000  1
  Dy  Dy1  1  0.999456  0.809570  0.000000  1
  Dy  Dy2  1  0.190430  0.189886  0.000000  1
  Dy  Dy3  1  0.810114  0.000544  0.000000  1
  Sc  Sc4  1  0.333333  0.666667  0.500000  1
  Mn  Mn5  1  0.000805  0.457491  0.500000  1
  Mn  Mn6  1  0.542509  0.543314  0.500000  1
  Mn  Mn7  1  0.456686  0.999195  0.500000  1
  P  P8  1  0.999461  0.634168  0.500000  1
  P  P9  1  0.365832  0.365293  0.500000  1
  P  P10  1  0.634707  0.000539  0.500000  1
  P  P11  1  0.515037  0.687151  0.000000  1
  P  P12  1  0.312849  0.827886  0.000000  1
  P  P13  1  0.172114  0.484963  0.000000  1
  P  P14  1  0.482636  0.168193  0.000000  1
  P  P15  1  0.685557  0.517364  0.000000  1
  P  P16  1  0.831807  0.314443  0.000000  1
  P  P17  1  0.001455  0.179511  0.500000  1
  P  P18  1  0.820489  0.821943  0.500000  1
  P  P19  1  0.178057  0.998545  0.500000  1
  Ir  Ir20  1  0.504943  0.865695  0.000000  1
  Ir  Ir21  1  0.134305  0.639248  0.000000  1
  Ir  Ir22  1  0.360752  0.495057  0.000000  1
  Ir  Ir23  1  0.491267  0.359828  0.000000  1
  Ir  Ir24  1  0.868562  0.508733  0.000000  1
  Ir  Ir25  1  0.640172  0.131438  0.000000  1
  Ir  Ir26  1  0.001549  0.283466  0.000000  1
  Ir  Ir27  1  0.716534  0.718083  0.000000  1
  Ir  Ir28  1  0.281917  0.998451  0.000000  1
  Ir  Ir29  1  0.622025  0.802795  0.500000  1
  Ir  Ir30  1  0.197205  0.819231  0.500000  1
  Ir  Ir31  1  0.180769  0.377975  0.500000  1
  Ir  Ir32  1  0.376227  0.178203  0.500000  1
  Ir  Ir33  1  0.801976  0.623773  0.500000  1
  Ir  Ir34  1  0.821797  0.198024  0.500000  1
  Ir  Ir35  1  0.000000  0.000000  0.500000  1
