# generated using pymatgen
data_TiNbGeB2Ru5
_symmetry_space_group_name_H-M   'P 1'
_cell_length_a   9.29930514
_cell_length_b   9.29930514
_cell_length_c   2.97753400
_cell_angle_alpha   90.00000000
_cell_angle_beta   90.00000000
_cell_angle_gamma   89.41993607
_symmetry_Int_Tables_number   1
_chemical_formula_structural   TiNbGeB2Ru5
_chemical_formula_sum   'Ti2 Nb2 Ge2 B4 Ru10'
_cell_volume   257.47523876
_cell_formula_units_Z   2
loop_
 _symmetry_equiv_pos_site_id
 _symmetry_equiv_pos_as_xyz
  1  'x, y, z'
loop_
 _atom_site_type_symbol
 _atom_site_label
 _atom_site_symmetry_multiplicity
 _atom_site_fract_x
 _atom_site_fract_y
 _atom_site_fract_z
 _atom_site_occupancy
  Ti  Ti0  1  0.825579  0.674421  0.000000  1
  Ti  Ti1  1  0.174421  0.325579  0.000000  1
  Nb  Nb2  1  0.323115  0.823115  0.000000  1
  Nb  Nb3  1  0.676885  0.176885  0.000000  1
  Ge  Ge4  1  0.500000  0.500000  0.000000  1
  Ge  Ge5  1  0.000000  0.000000  0.000000  1
  B  B6  1  0.625436  0.874564  0.000000  1
  B  B7  1  0.374564  0.125436  0.000000  1
  B  B8  1  0.122841  0.622841  0.000000  1
  B  B9  1  0.877159  0.377159  0.000000  1
  Ru  Ru10  1  0.570894  0.712822  0.500000  1
  Ru  Ru11  1  0.429106  0.287178  0.500000  1
  Ru  Ru12  1  0.067155  0.785949  0.500000  1
  Ru  Ru13  1  0.932845  0.214051  0.500000  1
  Ru  Ru14  1  0.285949  0.567155  0.500000  1
  Ru  Ru15  1  0.714051  0.432845  0.500000  1
  Ru  Ru16  1  0.212822  0.070894  0.500000  1
  Ru  Ru17  1  0.787178  0.929106  0.500000  1
  Ru  Ru18  1  0.500000  0.000000  0.500000  1
  Ru  Ru19  1  0.000000  0.500000  0.500000  1
