# generated using pymatgen
data_TmMgGa3Os
_symmetry_space_group_name_H-M   'P 1'
_cell_length_a   5.29828200
_cell_length_b   5.29828130
_cell_length_c   8.70140800
_cell_angle_alpha   90.00000000
_cell_angle_beta   90.00000000
_cell_angle_gamma   120.00000437
_symmetry_Int_Tables_number   1
_chemical_formula_structural   TmMgGa3Os
_chemical_formula_sum   'Tm2 Mg2 Ga6 Os2'
_cell_volume   211.53889311
_cell_formula_units_Z   2
loop_
 _symmetry_equiv_pos_site_id
 _symmetry_equiv_pos_as_xyz
  1  'x, y, z'
loop_
 _atom_site_type_symbol
 _atom_site_label
 _atom_site_symmetry_multiplicity
 _atom_site_fract_x
 _atom_site_fract_y
 _atom_site_fract_z
 _atom_site_occupancy
  Tm  Tm0  1  0.333334  0.666667  0.551236  1
  Tm  Tm1  1  0.333334  0.666667  0.948765  1
  Mg  Mg2  1  0.666668  0.333334  0.047215  1
  Mg  Mg3  1  0.666668  0.333334  0.452786  1
  Ga  Ga4  1  0.165479  0.330957  0.250000  1
  Ga  Ga5  1  0.165479  0.834521  0.250000  1
  Ga  Ga6  1  0.669044  0.834521  0.250000  1
  Ga  Ga7  1  0.331994  0.165996  0.750000  1
  Ga  Ga8  1  0.834001  0.165996  0.750000  1
  Ga  Ga9  1  0.834003  0.668005  0.750000  1
  Os  Os10  1  0.000000  0.000000  0.007437  1
  Os  Os11  1  0.000000  0.000000  0.492563  1
