# generated using pymatgen
data_Dy8Cd3Ni8Ag
_symmetry_space_group_name_H-M   'P 1'
_cell_length_a   7.36058900
_cell_length_b   7.36058900
_cell_length_c   7.31714900
_cell_angle_alpha   90.00000000
_cell_angle_beta   90.00000000
_cell_angle_gamma   90.00000000
_symmetry_Int_Tables_number   1
_chemical_formula_structural   Dy8Cd3Ni8Ag
_chemical_formula_sum   'Dy8 Cd3 Ni8 Ag1'
_cell_volume   396.43047728
_cell_formula_units_Z   1
loop_
 _symmetry_equiv_pos_site_id
 _symmetry_equiv_pos_as_xyz
  1  'x, y, z'
loop_
 _atom_site_type_symbol
 _atom_site_label
 _atom_site_symmetry_multiplicity
 _atom_site_fract_x
 _atom_site_fract_y
 _atom_site_fract_z
 _atom_site_occupancy
  Dy  Dy0  1  0.826595  0.176302  0.498407  1
  Dy  Dy1  1  0.173405  0.823698  0.498407  1
  Dy  Dy2  1  0.323698  0.326595  0.001593  1
  Dy  Dy3  1  0.676302  0.673405  0.001593  1
  Dy  Dy4  1  0.677406  0.674541  0.498379  1
  Dy  Dy5  1  0.322594  0.325459  0.498379  1
  Dy  Dy6  1  0.174541  0.822594  0.001621  1
  Dy  Dy7  1  0.825459  0.177406  0.001621  1
  Cd  Cd8  1  0.500000  0.000000  0.250000  1
  Cd  Cd9  1  0.000000  0.500000  0.750000  1
  Cd  Cd10  1  0.500000  0.000000  0.750000  1
  Ni  Ni11  1  0.618875  0.381742  0.251377  1
  Ni  Ni12  1  0.381125  0.618258  0.251377  1
  Ni  Ni13  1  0.119120  0.118391  0.751352  1
  Ni  Ni14  1  0.880880  0.881609  0.751352  1
  Ni  Ni15  1  0.381609  0.619120  0.748648  1
  Ni  Ni16  1  0.618391  0.380880  0.748648  1
  Ni  Ni17  1  0.881742  0.881125  0.248623  1
  Ni  Ni18  1  0.118258  0.118875  0.248623  1
  Ag  Ag19  1  0.000000  0.500000  0.250000  1
