# generated using pymatgen
data_Ca2Ac3Pb3Br
_symmetry_space_group_name_H-M   'P 1'
_cell_length_a   9.89428000
_cell_length_b   9.89428065
_cell_length_c   7.10014800
_cell_angle_alpha   90.00000000
_cell_angle_beta   90.00000000
_cell_angle_gamma   120.00000453
_symmetry_Int_Tables_number   1
_chemical_formula_structural   Ca2Ac3Pb3Br
_chemical_formula_sum   'Ca4 Ac6 Pb6 Br2'
_cell_volume   601.95833806
_cell_formula_units_Z   2
loop_
 _symmetry_equiv_pos_site_id
 _symmetry_equiv_pos_as_xyz
  1  'x, y, z'
loop_
 _atom_site_type_symbol
 _atom_site_label
 _atom_site_symmetry_multiplicity
 _atom_site_fract_x
 _atom_site_fract_y
 _atom_site_fract_z
 _atom_site_occupancy
  Ca  Ca0  1  0.333333  0.666667  0.500000  1
  Ca  Ca1  1  0.666667  0.333333  0.500000  1
  Ca  Ca2  1  0.333333  0.666667  0.000000  1
  Ca  Ca3  1  0.666667  0.333333  0.000000  1
  Ac  Ac4  1  0.272972  0.272972  0.750000  1
  Ac  Ac5  1  0.000000  0.727028  0.750000  1
  Ac  Ac6  1  0.727028  0.000000  0.750000  1
  Ac  Ac7  1  0.000000  0.272972  0.250000  1
  Ac  Ac8  1  0.727028  0.727028  0.250000  1
  Ac  Ac9  1  0.272972  0.000000  0.250000  1
  Pb  Pb10  1  0.612694  0.000000  0.250000  1
  Pb  Pb11  1  0.000000  0.387306  0.750000  1
  Pb  Pb12  1  0.387306  0.000000  0.750000  1
  Pb  Pb13  1  0.612694  0.612694  0.750000  1
  Pb  Pb14  1  0.000000  0.612694  0.250000  1
  Pb  Pb15  1  0.387306  0.387306  0.250000  1
  Br  Br16  1  0.000000  0.000000  0.000000  1
  Br  Br17  1  0.000000  0.000000  0.500000  1
