# generated using pymatgen
data_Dy2B4Ir4Ru
_symmetry_space_group_name_H-M   'P 1'
_cell_length_a   7.52107244
_cell_length_b   6.37129865
_cell_length_c   5.55418792
_cell_angle_alpha   77.86670514
_cell_angle_beta   55.91454212
_cell_angle_gamma   46.65039234
_symmetry_Int_Tables_number   1
_chemical_formula_structural   Dy2B4Ir4Ru
_chemical_formula_sum   'Dy2 B4 Ir4 Ru1'
_cell_volume   153.41248520
_cell_formula_units_Z   1
loop_
 _symmetry_equiv_pos_site_id
 _symmetry_equiv_pos_as_xyz
  1  'x, y, z'
loop_
 _atom_site_type_symbol
 _atom_site_label
 _atom_site_symmetry_multiplicity
 _atom_site_fract_x
 _atom_site_fract_y
 _atom_site_fract_z
 _atom_site_occupancy
  Dy  Dy0  1  0.861466  0.861467  0.138534  1
  Dy  Dy1  1  0.138532  0.138533  0.861468  1
  B  B2  1  0.469269  0.793185  0.214360  1
  B  B3  1  0.206814  0.530731  0.476814  1
  B  B4  1  0.793184  0.469270  0.523187  1
  B  B5  1  0.530730  0.206815  0.785642  1
  Ir  Ir6  1  0.499999  0.500000  0.000000  1
  Ir  Ir7  1  0.250450  0.250451  0.249550  1
  Ir  Ir8  1  0.499999  0.500000  0.500001  1
  Ir  Ir9  1  0.749549  0.749551  0.750451  1
  Ru  Ru10  1  0.000000  0.000000  0.500000  1
