# generated using pymatgen
data_Nd2ScGaSi
_symmetry_space_group_name_H-M   'P 1'
_cell_length_a   7.51948500
_cell_length_b   7.50426800
_cell_length_c   4.43769200
_cell_angle_alpha   90.00000000
_cell_angle_beta   90.00000000
_cell_angle_gamma   90.00000000
_symmetry_Int_Tables_number   1
_chemical_formula_structural   Nd2ScGaSi
_chemical_formula_sum   'Nd4 Sc2 Ga2 Si2'
_cell_volume   250.41110778
_cell_formula_units_Z   2
loop_
 _symmetry_equiv_pos_site_id
 _symmetry_equiv_pos_as_xyz
  1  'x, y, z'
loop_
 _atom_site_type_symbol
 _atom_site_label
 _atom_site_symmetry_multiplicity
 _atom_site_fract_x
 _atom_site_fract_y
 _atom_site_fract_z
 _atom_site_occupancy
  Nd  Nd0  1  0.674874  0.177293  0.500000  1
  Nd  Nd1  1  0.825126  0.677293  0.500000  1
  Nd  Nd2  1  0.178795  0.323601  0.500000  1
  Nd  Nd3  1  0.321205  0.823601  0.500000  1
  Sc  Sc4  1  0.493667  0.496257  0.000000  1
  Sc  Sc5  1  0.006333  0.996257  0.000000  1
  Ga  Ga6  1  0.619600  0.880753  0.000000  1
  Ga  Ga7  1  0.880400  0.380753  0.000000  1
  Si  Si8  1  0.122179  0.622095  0.000000  1
  Si  Si9  1  0.377821  0.122095  0.000000  1
