# generated using pymatgen
data_LiPd4Pt3
_symmetry_space_group_name_H-M   'P 1'
_cell_length_a   5.54298044
_cell_length_b   5.56594192
_cell_length_c   5.53849246
_cell_angle_alpha   59.98865417
_cell_angle_beta   59.97319224
_cell_angle_gamma   60.13637417
_symmetry_Int_Tables_number   1
_chemical_formula_structural   LiPd4Pt3
_chemical_formula_sum   'Li1 Pd4 Pt3'
_cell_volume   120.91456878
_cell_formula_units_Z   1
loop_
 _symmetry_equiv_pos_site_id
 _symmetry_equiv_pos_as_xyz
  1  'x, y, z'
loop_
 _atom_site_type_symbol
 _atom_site_label
 _atom_site_symmetry_multiplicity
 _atom_site_fract_x
 _atom_site_fract_y
 _atom_site_fract_z
 _atom_site_occupancy
  Li  Li0  1  0.000000  0.000000  0.000000  1
  Pd  Pd1  1  0.499999  0.000000  0.000000  1
  Pd  Pd2  1  0.000000  0.500001  0.500001  1
  Pd  Pd3  1  0.000000  0.000000  0.499999  1
  Pd  Pd4  1  0.500001  0.000000  0.500001  1
  Pt  Pt5  1  0.500001  0.500001  0.000000  1
  Pt  Pt6  1  0.000000  0.499999  0.000000  1
  Pt  Pt7  1  0.500001  0.500001  0.500001  1
