# generated using pymatgen
data_Ho12Ir2OsPd
_symmetry_space_group_name_H-M   'P 1'
_cell_length_a   6.38298103
_cell_length_b   7.21644467
_cell_length_c   9.21376700
_cell_angle_alpha   90.00000000
_cell_angle_beta   90.00000000
_cell_angle_gamma   90.20869058
_symmetry_Int_Tables_number   1
_chemical_formula_structural   Ho12Ir2OsPd
_chemical_formula_sum   'Ho12 Ir2 Os1 Pd1'
_cell_volume   424.40567729
_cell_formula_units_Z   1
loop_
 _symmetry_equiv_pos_site_id
 _symmetry_equiv_pos_as_xyz
  1  'x, y, z'
loop_
 _atom_site_type_symbol
 _atom_site_label
 _atom_site_symmetry_multiplicity
 _atom_site_fract_x
 _atom_site_fract_y
 _atom_site_fract_z
 _atom_site_occupancy
  Ho  Ho0  1  0.334500  0.673080  0.059481  1
  Ho  Ho1  1  0.175618  0.183738  0.440800  1
  Ho  Ho2  1  0.670771  0.321565  0.560057  1
  Ho  Ho3  1  0.824451  0.822252  0.935678  1
  Ho  Ho4  1  0.670771  0.321565  0.939943  1
  Ho  Ho5  1  0.824451  0.822252  0.564322  1
  Ho  Ho6  1  0.334500  0.673080  0.440519  1
  Ho  Ho7  1  0.175618  0.183738  0.059200  1
  Ho  Ho8  1  0.871646  0.527157  0.250000  1
  Ho  Ho9  1  0.619975  0.038515  0.250000  1
  Ho  Ho10  1  0.124874  0.466278  0.750000  1
  Ho  Ho11  1  0.369964  0.964253  0.750000  1
  Ir  Ir12  1  0.954647  0.115538  0.750000  1
  Ir  Ir13  1  0.542856  0.614812  0.750000  1
  Os  Os14  1  0.455564  0.385096  0.250000  1
  Pd  Pd15  1  0.049793  0.887082  0.250000  1
