# generated using pymatgen
data_Zr5Ti4Ga12AsRh7
_symmetry_space_group_name_H-M   'P 1'
_cell_length_a   8.82532137
_cell_length_b   8.82532151
_cell_length_c   8.77136900
_cell_angle_alpha   60.20202737
_cell_angle_beta   60.20202686
_cell_angle_gamma   59.70923162
_symmetry_Int_Tables_number   1
_chemical_formula_structural   Zr5Ti4Ga12AsRh7
_chemical_formula_sum   'Zr5 Ti4 Ga12 As1 Rh7'
_cell_volume   483.46351082
_cell_formula_units_Z   1
loop_
 _symmetry_equiv_pos_site_id
 _symmetry_equiv_pos_as_xyz
  1  'x, y, z'
loop_
 _atom_site_type_symbol
 _atom_site_label
 _atom_site_symmetry_multiplicity
 _atom_site_fract_x
 _atom_site_fract_y
 _atom_site_fract_z
 _atom_site_occupancy
  Zr  Zr0  1  0.290362  0.713647  0.288702  1
  Zr  Zr1  1  0.713647  0.290362  0.288702  1
  Zr  Zr2  1  0.310664  0.310664  0.689336  1
  Zr  Zr3  1  0.713647  0.290362  0.707289  1
  Zr  Zr4  1  0.290362  0.713647  0.707289  1
  Ti  Ti5  1  0.878271  0.878271  0.354877  1
  Ti  Ti6  1  0.885020  0.375981  0.869501  1
  Ti  Ti7  1  0.375981  0.885020  0.869501  1
  Ti  Ti8  1  0.878271  0.878271  0.888582  1
  Ga  Ga9  1  0.126017  0.126017  0.633648  1
  Ga  Ga10  1  0.122402  0.647458  0.115070  1
  Ga  Ga11  1  0.647458  0.122402  0.115070  1
  Ga  Ga12  1  0.126017  0.126017  0.114316  1
  Ga  Ga13  1  0.664121  0.664121  0.034816  1
  Ga  Ga14  1  0.675878  0.018741  0.652690  1
  Ga  Ga15  1  0.018741  0.675878  0.652690  1
  Ga  Ga16  1  0.664121  0.664121  0.636941  1
  Ga  Ga17  1  0.346963  0.346963  0.977305  1
  Ga  Ga18  1  0.370653  0.965493  0.331928  1
  Ga  Ga19  1  0.965493  0.370653  0.331928  1
  Ga  Ga20  1  0.346963  0.346963  0.328770  1
  As  As21  1  0.533871  0.533871  0.466129  1
  Rh  Rh22  1  0.007857  0.007857  0.992143  1
  Rh  Rh23  1  0.008376  0.008376  0.491624  1
  Rh  Rh24  1  0.506054  0.007136  0.498839  1
  Rh  Rh25  1  0.007136  0.506054  0.498839  1
  Rh  Rh26  1  0.512467  0.512467  0.987533  1
  Rh  Rh27  1  0.007136  0.506054  0.987972  1
  Rh  Rh28  1  0.506054  0.007136  0.987972  1
