# generated using pymatgen
data_Pr3NpF12
_symmetry_space_group_name_H-M   'P 1'
_cell_length_a   4.52075854
_cell_length_b   7.28014600
_cell_length_c   6.91028399
_cell_angle_alpha   90.00000000
_cell_angle_beta   89.82136216
_cell_angle_gamma   90.00000000
_symmetry_Int_Tables_number   1
_chemical_formula_structural   Pr3NpF12
_chemical_formula_sum   'Pr3 Np1 F12'
_cell_volume   227.42865633
_cell_formula_units_Z   1
loop_
 _symmetry_equiv_pos_site_id
 _symmetry_equiv_pos_as_xyz
  1  'x, y, z'
loop_
 _atom_site_type_symbol
 _atom_site_label
 _atom_site_symmetry_multiplicity
 _atom_site_fract_x
 _atom_site_fract_y
 _atom_site_fract_z
 _atom_site_occupancy
  Pr  Pr0  1  0.064849  0.499999  0.367228  1
  Pr  Pr1  1  0.936084  0.000000  0.634525  1
  Pr  Pr2  1  0.434698  0.499999  0.866416  1
  Np  Np3  1  0.565335  0.000000  0.132910  1
  F  F4  1  0.926045  0.499999  0.017690  1
  F  F5  1  0.392366  0.316231  0.162920  1
  F  F6  1  0.392366  0.683769  0.162920  1
  F  F7  1  0.895850  0.184604  0.336978  1
  F  F8  1  0.895850  0.815395  0.336978  1
  F  F9  1  0.429277  0.000000  0.485096  1
  F  F10  1  0.572658  0.499999  0.516761  1
  F  F11  1  0.105674  0.316022  0.663958  1
  F  F12  1  0.105674  0.683978  0.663958  1
  F  F13  1  0.605270  0.184707  0.835495  1
  F  F14  1  0.605270  0.815292  0.835495  1
  F  F15  1  0.072732  0.000000  0.980674  1
