# generated using pymatgen
data_Hf3Fe4MoP4
_symmetry_space_group_name_H-M   'P 1'
_cell_length_a   3.68354400
_cell_length_b   6.17854990
_cell_length_c   6.99144275
_cell_angle_alpha   90.37809046
_cell_angle_beta   90.00000000
_cell_angle_gamma   90.00000000
_symmetry_Int_Tables_number   1
_chemical_formula_structural   Hf3Fe4MoP4
_chemical_formula_sum   'Hf3 Fe4 Mo1 P4'
_cell_volume   159.11450440
_cell_formula_units_Z   1
loop_
 _symmetry_equiv_pos_site_id
 _symmetry_equiv_pos_as_xyz
  1  'x, y, z'
loop_
 _atom_site_type_symbol
 _atom_site_label
 _atom_site_symmetry_multiplicity
 _atom_site_fract_x
 _atom_site_fract_y
 _atom_site_fract_z
 _atom_site_occupancy
  Hf  Hf0  1  0.750000  0.482282  0.321270  1
  Hf  Hf1  1  0.250000  0.017661  0.813932  1
  Hf  Hf2  1  0.750000  0.977112  0.183722  1
  Fe  Fe3  1  0.750000  0.859105  0.566291  1
  Fe  Fe4  1  0.250000  0.148156  0.438147  1
  Fe  Fe5  1  0.750000  0.354062  0.937623  1
  Fe  Fe6  1  0.250000  0.645205  0.055262  1
  Mo  Mo7  1  0.250000  0.519090  0.676419  1
  P  P8  1  0.250000  0.278545  0.116312  1
  P  P9  1  0.750000  0.710697  0.875322  1
  P  P10  1  0.250000  0.779333  0.395555  1
  P  P11  1  0.750000  0.228751  0.620145  1
