# generated using pymatgen
data_Ho5V(P2Ir3)6
_symmetry_space_group_name_H-M   'P 1'
_cell_length_a   12.63957301
_cell_length_b   12.78464951
_cell_length_c   3.97296800
_cell_angle_alpha   90.00000000
_cell_angle_beta   90.00000000
_cell_angle_gamma   120.38041634
_symmetry_Int_Tables_number   1
_chemical_formula_structural   Ho5V(P2Ir3)6
_chemical_formula_sum   'Ho5 V1 P12 Ir18'
_cell_volume   553.84640223
_cell_formula_units_Z   1
loop_
 _symmetry_equiv_pos_site_id
 _symmetry_equiv_pos_as_xyz
  1  'x, y, z'
loop_
 _atom_site_type_symbol
 _atom_site_label
 _atom_site_symmetry_multiplicity
 _atom_site_fract_x
 _atom_site_fract_y
 _atom_site_fract_z
 _atom_site_occupancy
  Ho  Ho0  1  0.329375  0.664241  0.500000  1
  Ho  Ho1  1  0.670625  0.334865  0.500000  1
  Ho  Ho2  1  0.000000  0.812063  0.000000  1
  Ho  Ho3  1  0.183410  0.186284  0.000000  1
  Ho  Ho4  1  0.816590  0.002873  0.000000  1
  V  V5  1  0.000000  0.451702  0.500000  1
  P  P6  1  0.000000  0.633384  0.500000  1
  P  P7  1  0.354948  0.354179  0.500000  1
  P  P8  1  0.645052  0.999230  0.500000  1
  P  P9  1  0.514700  0.688806  0.000000  1
  P  P10  1  0.310884  0.828535  0.000000  1
  P  P11  1  0.164597  0.483904  0.000000  1
  P  P12  1  0.485300  0.174108  0.000000  1
  P  P13  1  0.689116  0.517650  0.000000  1
  P  P14  1  0.835403  0.319307  0.000000  1
  P  P15  1  0.000000  0.175639  0.500000  1
  P  P16  1  0.820809  0.821079  0.500000  1
  P  P17  1  0.179191  0.000270  0.500000  1
  Ir  Ir18  1  0.507417  0.869192  0.000000  1
  Ir  Ir19  1  0.130085  0.640523  0.000000  1
  Ir  Ir20  1  0.356671  0.494567  0.000000  1
  Ir  Ir21  1  0.492583  0.361774  0.000000  1
  Ir  Ir22  1  0.869915  0.510438  0.000000  1
  Ir  Ir23  1  0.643329  0.137896  0.000000  1
  Ir  Ir24  1  0.534390  0.535457  0.500000  1
  Ir  Ir25  1  0.465610  0.001068  0.500000  1
  Ir  Ir26  1  0.000000  0.287036  0.000000  1
  Ir  Ir27  1  0.713514  0.714354  0.000000  1
  Ir  Ir28  1  0.286486  0.000839  0.000000  1
  Ir  Ir29  1  0.621891  0.804016  0.500000  1
  Ir  Ir30  1  0.197412  0.822599  0.500000  1
  Ir  Ir31  1  0.179359  0.373082  0.500000  1
  Ir  Ir32  1  0.378109  0.182125  0.500000  1
  Ir  Ir33  1  0.802588  0.625186  0.500000  1
  Ir  Ir34  1  0.820641  0.193723  0.500000  1
  Ir  Ir35  1  0.000000  0.998003  0.500000  1
