# generated using pymatgen
data_Nd15Dy(CoAg)4
_symmetry_space_group_name_H-M   'P 1'
_cell_length_a   9.67851660
_cell_length_b   9.67851648
_cell_length_c   9.71802300
_cell_angle_alpha   59.86487703
_cell_angle_beta   59.86487744
_cell_angle_gamma   60.43515313
_symmetry_Int_Tables_number   1
_chemical_formula_structural   Nd15Dy(CoAg)4
_chemical_formula_sum   'Nd15 Dy1 Co4 Ag4'
_cell_volume   644.45486021
_cell_formula_units_Z   1
loop_
 _symmetry_equiv_pos_site_id
 _symmetry_equiv_pos_as_xyz
  1  'x, y, z'
loop_
 _atom_site_type_symbol
 _atom_site_label
 _atom_site_symmetry_multiplicity
 _atom_site_fract_x
 _atom_site_fract_y
 _atom_site_fract_z
 _atom_site_occupancy
  Nd  Nd0  1  0.150561  0.544862  0.152289  1
  Nd  Nd1  1  0.687068  0.311645  0.688277  1
  Nd  Nd2  1  0.687068  0.311645  0.313010  1
  Nd  Nd3  1  0.939889  0.560968  0.562495  1
  Nd  Nd4  1  0.544862  0.150561  0.152289  1
  Nd  Nd5  1  0.152742  0.152742  0.545433  1
  Nd  Nd6  1  0.940023  0.940023  0.559977  1
  Nd  Nd7  1  0.311645  0.687068  0.313010  1
  Nd  Nd8  1  0.560968  0.939889  0.936648  1
  Nd  Nd9  1  0.560968  0.939889  0.562495  1
  Nd  Nd10  1  0.690849  0.690849  0.309151  1
  Nd  Nd11  1  0.560276  0.560276  0.939724  1
  Nd  Nd12  1  0.939889  0.560968  0.936648  1
  Nd  Nd13  1  0.311645  0.687068  0.688277  1
  Nd  Nd14  1  0.152742  0.152742  0.149083  1
  Dy  Dy15  1  0.309957  0.309957  0.690043  1
  Co  Co16  1  0.358409  0.358409  0.921184  1
  Co  Co17  1  0.357278  0.923768  0.359477  1
  Co  Co18  1  0.923768  0.357278  0.359477  1
  Co  Co19  1  0.358409  0.358409  0.361999  1
  Ag  Ag20  1  0.921448  0.239890  0.919331  1
  Ag  Ag21  1  0.919825  0.919825  0.919477  1
  Ag  Ag22  1  0.919825  0.919825  0.240874  1
  Ag  Ag23  1  0.239890  0.921448  0.919331  1
