# generated using pymatgen
data_Ho3TaZn2Ir3
_symmetry_space_group_name_H-M   'P 1'
_cell_length_a   7.03315441
_cell_length_b   6.88021814
_cell_length_c   4.20536300
_cell_angle_alpha   90.00000000
_cell_angle_beta   90.00000000
_cell_angle_gamma   119.28323083
_symmetry_Int_Tables_number   1
_chemical_formula_structural   Ho3TaZn2Ir3
_chemical_formula_sum   'Ho3 Ta1 Zn2 Ir3'
_cell_volume   177.49173698
_cell_formula_units_Z   1
loop_
 _symmetry_equiv_pos_site_id
 _symmetry_equiv_pos_as_xyz
  1  'x, y, z'
loop_
 _atom_site_type_symbol
 _atom_site_label
 _atom_site_symmetry_multiplicity
 _atom_site_fract_x
 _atom_site_fract_y
 _atom_site_fract_z
 _atom_site_occupancy
  Ho  Ho0  1  0.571389  0.581087  0.000000  1
  Ho  Ho1  1  0.428611  0.009697  0.000000  1
  Ho  Ho2  1  0.000000  0.393381  0.000000  1
  Ta  Ta3  1  0.000000  0.761309  0.500000  1
  Zn  Zn4  1  0.242187  0.245266  0.500000  1
  Zn  Zn5  1  0.757813  0.003079  0.500000  1
  Ir  Ir6  1  0.000000  0.971873  0.000000  1
  Ir  Ir7  1  0.679402  0.356855  0.500000  1
  Ir  Ir8  1  0.320598  0.677454  0.500000  1
