# generated using pymatgen
data_DyTm4Mg3(P3Ir4)4
_symmetry_space_group_name_H-M   'P 1'
_cell_length_a   12.78479200
_cell_length_b   12.78479143
_cell_length_c   3.96715700
_cell_angle_alpha   90.00000000
_cell_angle_beta   90.00000000
_cell_angle_gamma   120.00000147
_symmetry_Int_Tables_number   1
_chemical_formula_structural   DyTm4Mg3(P3Ir4)4
_chemical_formula_sum   'Dy1 Tm4 Mg3 P12 Ir16'
_cell_volume   561.56150270
_cell_formula_units_Z   1
loop_
 _symmetry_equiv_pos_site_id
 _symmetry_equiv_pos_as_xyz
  1  'x, y, z'
loop_
 _atom_site_type_symbol
 _atom_site_label
 _atom_site_symmetry_multiplicity
 _atom_site_fract_x
 _atom_site_fract_y
 _atom_site_fract_z
 _atom_site_occupancy
  Dy  Dy0  1  0.666667  0.333333  0.500000  1
  Tm  Tm1  1  0.333333  0.666667  0.500000  1
  Tm  Tm2  1  0.999944  0.809541  0.000000  1
  Tm  Tm3  1  0.190459  0.190403  0.000000  1
  Tm  Tm4  1  0.809597  0.000056  0.000000  1
  Mg  Mg5  1  0.000090  0.444884  0.500000  1
  Mg  Mg6  1  0.555116  0.555206  0.500000  1
  Mg  Mg7  1  0.444794  0.999910  0.500000  1
  P  P8  1  0.999842  0.641968  0.500000  1
  P  P9  1  0.358032  0.357874  0.500000  1
  P  P10  1  0.642126  0.000158  0.500000  1
  P  P11  1  0.515679  0.688373  0.000000  1
  P  P12  1  0.311627  0.827306  0.000000  1
  P  P13  1  0.172694  0.484321  0.000000  1
  P  P14  1  0.483711  0.172018  0.000000  1
  P  P15  1  0.688308  0.516289  0.000000  1
  P  P16  1  0.827982  0.311692  0.000000  1
  P  P17  1  0.000094  0.176650  0.500000  1
  P  P18  1  0.823350  0.823444  0.500000  1
  P  P19  1  0.176556  0.999906  0.500000  1
  Ir  Ir20  1  0.507705  0.867057  0.000000  1
  Ir  Ir21  1  0.132943  0.640650  0.000000  1
  Ir  Ir22  1  0.359350  0.492295  0.000000  1
  Ir  Ir23  1  0.490856  0.359507  0.000000  1
  Ir  Ir24  1  0.868652  0.509144  0.000000  1
  Ir  Ir25  1  0.640493  0.131348  0.000000  1
  Ir  Ir26  1  0.000179  0.278568  0.000000  1
  Ir  Ir27  1  0.721432  0.721612  0.000000  1
  Ir  Ir28  1  0.278388  0.999821  0.000000  1
  Ir  Ir29  1  0.629008  0.807797  0.500000  1
  Ir  Ir30  1  0.192203  0.821211  0.500000  1
  Ir  Ir31  1  0.178789  0.370992  0.500000  1
  Ir  Ir32  1  0.370826  0.178482  0.500000  1
  Ir  Ir33  1  0.807656  0.629174  0.500000  1
  Ir  Ir34  1  0.821518  0.192344  0.500000  1
  Ir  Ir35  1  0.000000  0.000000  0.500000  1
