# generated using pymatgen
data_Nd16MgCd3Ni3Ru
_symmetry_space_group_name_H-M   'P 1'
_cell_length_a   9.89204314
_cell_length_b   9.89171243
_cell_length_c   9.89249515
_cell_angle_alpha   59.59668063
_cell_angle_beta   59.59812085
_cell_angle_gamma   59.59483209
_symmetry_Int_Tables_number   1
_chemical_formula_structural   Nd16MgCd3Ni3Ru
_chemical_formula_sum   'Nd16 Mg1 Cd3 Ni3 Ru1'
_cell_volume   678.18372220
_cell_formula_units_Z   1
loop_
 _symmetry_equiv_pos_site_id
 _symmetry_equiv_pos_as_xyz
  1  'x, y, z'
loop_
 _atom_site_type_symbol
 _atom_site_label
 _atom_site_symmetry_multiplicity
 _atom_site_fract_x
 _atom_site_fract_y
 _atom_site_fract_z
 _atom_site_occupancy
  Nd  Nd0  1  0.597879  0.597898  0.597840  1
  Nd  Nd1  1  0.598385  0.598405  0.207635  1
  Nd  Nd2  1  0.598411  0.207613  0.598376  1
  Nd  Nd3  1  0.207619  0.598421  0.598367  1
  Nd  Nd4  1  0.060626  0.438962  0.438959  1
  Nd  Nd5  1  0.436759  0.060293  0.060345  1
  Nd  Nd6  1  0.438961  0.060620  0.438957  1
  Nd  Nd7  1  0.060299  0.436758  0.060336  1
  Nd  Nd8  1  0.438963  0.438962  0.060642  1
  Nd  Nd9  1  0.060328  0.060312  0.436757  1
  Nd  Nd10  1  0.188701  0.815020  0.815026  1
  Nd  Nd11  1  0.806421  0.189043  0.189053  1
  Nd  Nd12  1  0.815020  0.188701  0.815026  1
  Nd  Nd13  1  0.189043  0.806422  0.189052  1
  Nd  Nd14  1  0.815024  0.815023  0.188706  1
  Nd  Nd15  1  0.189050  0.189049  0.806422  1
  Mg  Mg16  1  0.826749  0.826750  0.826752  1
  Cd  Cd17  1  0.829391  0.829392  0.509850  1
  Cd  Cd18  1  0.829390  0.509853  0.829392  1
  Cd  Cd19  1  0.509852  0.829392  0.829392  1
  Ni  Ni20  1  0.393164  0.393160  0.824523  1
  Ni  Ni21  1  0.393165  0.824520  0.393159  1
  Ni  Ni22  1  0.824533  0.393160  0.393154  1
  Ru  Ru23  1  0.392269  0.392271  0.392279  1
