# generated using pymatgen
data_Gd6Mn3WC12
_symmetry_space_group_name_H-M   'P 1'
_cell_length_a   8.18600900
_cell_length_b   8.18600933
_cell_length_c   5.09955000
_cell_angle_alpha   90.00000000
_cell_angle_beta   90.00000000
_cell_angle_gamma   119.99998653
_symmetry_Int_Tables_number   1
_chemical_formula_structural   Gd6Mn3WC12
_chemical_formula_sum   'Gd6 Mn3 W1 C12'
_cell_volume   295.94226828
_cell_formula_units_Z   1
loop_
 _symmetry_equiv_pos_site_id
 _symmetry_equiv_pos_as_xyz
  1  'x, y, z'
loop_
 _atom_site_type_symbol
 _atom_site_label
 _atom_site_symmetry_multiplicity
 _atom_site_fract_x
 _atom_site_fract_y
 _atom_site_fract_z
 _atom_site_occupancy
  Gd  Gd0  1  0.617306  0.681841  0.750801  1
  Gd  Gd1  1  0.935463  0.617306  0.249199  1
  Gd  Gd2  1  0.681841  0.064537  0.249199  1
  Gd  Gd3  1  0.318159  0.935463  0.750801  1
  Gd  Gd4  1  0.064537  0.382694  0.750801  1
  Gd  Gd5  1  0.382694  0.318159  0.249199  1
  Mn  Mn6  1  0.000000  0.000000  0.000000  1
  Mn  Mn7  1  0.666667  0.333333  0.753092  1
  Mn  Mn8  1  0.333333  0.666667  0.246908  1
  W  W9  1  0.000000  0.000000  0.500000  1
  C  C10  1  0.962070  0.767145  0.748794  1
  C  C11  1  0.194924  0.962070  0.251206  1
  C  C12  1  0.767145  0.805076  0.251206  1
  C  C13  1  0.232855  0.194924  0.748794  1
  C  C14  1  0.805076  0.037930  0.748794  1
  C  C15  1  0.037930  0.232855  0.251206  1
  C  C16  1  0.862109  0.573616  0.752694  1
  C  C17  1  0.288492  0.862109  0.247306  1
  C  C18  1  0.573616  0.711508  0.247306  1
  C  C19  1  0.426384  0.288492  0.752694  1
  C  C20  1  0.137891  0.426384  0.247306  1
  C  C21  1  0.711508  0.137891  0.752694  1
