# generated using pymatgen
data_Ho8Lu12Ga13Si3
_symmetry_space_group_name_H-M   'P 1'
_cell_length_a   7.39903423
_cell_length_b   7.72787951
_cell_length_c   14.89802300
_cell_angle_alpha   90.00000000
_cell_angle_beta   90.00000000
_cell_angle_gamma   90.12908844
_symmetry_Int_Tables_number   1
_chemical_formula_structural   Ho8Lu12Ga13Si3
_chemical_formula_sum   'Ho8 Lu12 Ga13 Si3'
_cell_volume   851.84958625
_cell_formula_units_Z   1
loop_
 _symmetry_equiv_pos_site_id
 _symmetry_equiv_pos_as_xyz
  1  'x, y, z'
loop_
 _atom_site_type_symbol
 _atom_site_label
 _atom_site_symmetry_multiplicity
 _atom_site_fract_x
 _atom_site_fract_y
 _atom_site_fract_z
 _atom_site_occupancy
  Ho  Ho0  1  0.015706  0.181165  0.096709  1
  Ho  Ho1  1  0.983824  0.818038  0.905434  1
  Ho  Ho2  1  0.484507  0.680197  0.904987  1
  Ho  Ho3  1  0.983824  0.818038  0.594566  1
  Ho  Ho4  1  0.515619  0.317815  0.096145  1
  Ho  Ho5  1  0.015706  0.181165  0.403291  1
  Ho  Ho6  1  0.515619  0.317815  0.403855  1
  Ho  Ho7  1  0.484507  0.680197  0.595013  1
  Lu  Lu8  1  0.161243  0.510343  0.750000  1
  Lu  Lu9  1  0.838868  0.488315  0.250000  1
  Lu  Lu10  1  0.339333  0.011440  0.250000  1
  Lu  Lu11  1  0.664721  0.987920  0.750000  1
  Lu  Lu12  1  0.328473  0.176052  0.620975  1
  Lu  Lu13  1  0.672247  0.825431  0.378894  1
  Lu  Lu14  1  0.172732  0.673268  0.378340  1
  Lu  Lu15  1  0.672247  0.825431  0.121106  1
  Lu  Lu16  1  0.825874  0.327340  0.621510  1
  Lu  Lu17  1  0.328473  0.176052  0.879025  1
  Lu  Lu18  1  0.825874  0.327340  0.878490  1
  Lu  Lu19  1  0.172732  0.673268  0.121660  1
  Ga  Ga20  1  0.032524  0.113362  0.750000  1
  Ga  Ga21  1  0.967208  0.893606  0.250000  1
  Ga  Ga22  1  0.468289  0.604159  0.250000  1
  Ga  Ga23  1  0.532537  0.395245  0.750000  1
  Ga  Ga24  1  0.277260  0.872659  0.750000  1
  Ga  Ga25  1  0.158676  0.470094  0.540554  1
  Ga  Ga26  1  0.840685  0.529524  0.457197  1
  Ga  Ga27  1  0.340312  0.969641  0.457721  1
  Ga  Ga28  1  0.840685  0.529524  0.042803  1
  Ga  Ga29  1  0.660534  0.031122  0.541361  1
  Ga  Ga30  1  0.158676  0.470094  0.959446  1
  Ga  Ga31  1  0.660534  0.031122  0.958639  1
  Ga  Ga32  1  0.340312  0.969641  0.042279  1
  Si  Si33  1  0.719998  0.125337  0.250000  1
  Si  Si34  1  0.219944  0.373120  0.250000  1
  Si  Si35  1  0.779698  0.625120  0.750000  1
