# generated using pymatgen
data_Tb7Er3Si5P
_symmetry_space_group_name_H-M   'P 1'
_cell_length_a   8.42588303
_cell_length_b   8.43132137
_cell_length_c   6.30733114
_cell_angle_alpha   90.02427400
_cell_angle_beta   89.98988329
_cell_angle_gamma   119.97893858
_symmetry_Int_Tables_number   1
_chemical_formula_structural   Tb7Er3Si5P
_chemical_formula_sum   'Tb7 Er3 Si5 P1'
_cell_volume   388.13197731
_cell_formula_units_Z   1
loop_
 _symmetry_equiv_pos_site_id
 _symmetry_equiv_pos_as_xyz
  1  'x, y, z'
loop_
 _atom_site_type_symbol
 _atom_site_label
 _atom_site_symmetry_multiplicity
 _atom_site_fract_x
 _atom_site_fract_y
 _atom_site_fract_z
 _atom_site_occupancy
  Tb  Tb0  1  0.000568  0.755700  0.750487  1
  Tb  Tb1  1  0.000725  0.245057  0.249623  1
  Tb  Tb2  1  0.755861  0.754696  0.249578  1
  Tb  Tb3  1  0.753986  0.000127  0.750373  1
  Tb  Tb4  1  0.244933  0.244017  0.750309  1
  Tb  Tb5  1  0.244862  0.000148  0.249635  1
  Tb  Tb6  1  0.333805  0.667667  0.500400  1
  Er  Er7  1  0.666361  0.332680  0.000085  1
  Er  Er8  1  0.666543  0.332892  0.499720  1
  Er  Er9  1  0.333746  0.667321  0.000021  1
  Si  Si10  1  0.395583  0.393879  0.248703  1
  Si  Si11  1  0.999453  0.604872  0.248539  1
  Si  Si12  1  0.998924  0.393638  0.751327  1
  Si  Si13  1  0.606307  0.604960  0.751299  1
  Si  Si14  1  0.606973  0.001175  0.248689  1
  P  P15  1  0.391372  0.001172  0.751213  1
