# generated using pymatgen
data_Yb19EuAu16
_symmetry_space_group_name_H-M   'P 1'
_cell_length_a   7.76063719
_cell_length_b   7.88660919
_cell_length_c   15.06598100
_cell_angle_alpha   89.96195348
_cell_angle_beta   89.79808546
_cell_angle_gamma   89.95466371
_symmetry_Int_Tables_number   1
_chemical_formula_structural   Yb19EuAu16
_chemical_formula_sum   'Yb19 Eu1 Au16'
_cell_volume   922.10884747
_cell_formula_units_Z   1
loop_
 _symmetry_equiv_pos_site_id
 _symmetry_equiv_pos_as_xyz
  1  'x, y, z'
loop_
 _atom_site_type_symbol
 _atom_site_label
 _atom_site_symmetry_multiplicity
 _atom_site_fract_x
 _atom_site_fract_y
 _atom_site_fract_z
 _atom_site_occupancy
  Yb  Yb0  1  0.841005  0.664389  0.378050  1
  Yb  Yb1  1  0.502294  0.320143  0.094570  1
  Yb  Yb2  1  0.161330  0.338337  0.623432  1
  Yb  Yb3  1  0.340364  0.836948  0.377034  1
  Yb  Yb4  1  0.158081  0.336037  0.878431  1
  Yb  Yb5  1  0.342768  0.836003  0.120576  1
  Yb  Yb6  1  0.177405  0.493743  0.248701  1
  Yb  Yb7  1  0.498167  0.321201  0.403680  1
  Yb  Yb8  1  0.822914  0.506808  0.750918  1
  Yb  Yb9  1  0.998547  0.820842  0.903944  1
  Yb  Yb10  1  0.000397  0.818847  0.597705  1
  Yb  Yb11  1  0.499475  0.680084  0.596418  1
  Yb  Yb12  1  0.659064  0.164592  0.622501  1
  Yb  Yb13  1  0.322858  0.993075  0.750603  1
  Yb  Yb14  1  0.658458  0.162861  0.877835  1
  Yb  Yb15  1  0.676906  0.006150  0.248674  1
  Yb  Yb16  1  0.841972  0.662982  0.120449  1
  Yb  Yb17  1  0.498462  0.678678  0.903809  1
  Yb  Yb18  1  0.002262  0.178567  0.095925  1
  Eu  Eu19  1  0.999856  0.176887  0.406466  1
  Au  Au20  1  0.803520  0.362004  0.246524  1
  Au  Au21  1  0.460007  0.382145  0.751289  1
  Au  Au22  1  0.693795  0.860439  0.750338  1
  Au  Au23  1  0.819576  0.472014  0.546098  1
  Au  Au24  1  0.682811  0.968172  0.043193  1
  Au  Au25  1  0.818112  0.467994  0.955604  1
  Au  Au26  1  0.182438  0.537888  0.458404  1
  Au  Au27  1  0.182491  0.530587  0.043510  1
  Au  Au28  1  0.193532  0.639854  0.751455  1
  Au  Au29  1  0.308867  0.139551  0.247595  1
  Au  Au30  1  0.540930  0.619769  0.249381  1
  Au  Au31  1  0.041418  0.879520  0.247566  1
  Au  Au32  1  0.318791  0.030901  0.955424  1
  Au  Au33  1  0.959665  0.118365  0.750216  1
  Au  Au34  1  0.671190  0.963351  0.458156  1
  Au  Au35  1  0.320269  0.030273  0.545527  1
