# generated using pymatgen
data_LaPr2Th(Al3Rh)6
_symmetry_space_group_name_H-M   'P 1'
_cell_length_a   7.65811104
_cell_length_b   7.65956773
_cell_length_c   9.60771200
_cell_angle_alpha   90.00000000
_cell_angle_beta   90.00000000
_cell_angle_gamma   119.28162698
_symmetry_Int_Tables_number   1
_chemical_formula_structural   LaPr2Th(Al3Rh)6
_chemical_formula_sum   'La1 Pr2 Th1 Al18 Rh6'
_cell_volume   491.55826541
_cell_formula_units_Z   1
loop_
 _symmetry_equiv_pos_site_id
 _symmetry_equiv_pos_as_xyz
  1  'x, y, z'
loop_
 _atom_site_type_symbol
 _atom_site_label
 _atom_site_symmetry_multiplicity
 _atom_site_fract_x
 _atom_site_fract_y
 _atom_site_fract_z
 _atom_site_occupancy
  La  La0  1  0.671282  0.994362  0.750000  1
  Pr  Pr1  1  0.004513  0.328585  0.250000  1
  Pr  Pr2  1  0.329475  0.004705  0.250000  1
  Th  Th3  1  0.995409  0.671613  0.750000  1
  Al  Al4  1  0.134457  0.133138  0.750000  1
  Al  Al5  1  0.870148  0.870658  0.250000  1
  Al  Al6  1  0.004246  0.334721  0.573010  1
  Al  Al7  1  0.996845  0.664325  0.422836  1
  Al  Al8  1  0.996845  0.664325  0.077164  1
  Al  Al9  1  0.336652  0.005148  0.927046  1
  Al  Al10  1  0.004246  0.334721  0.926990  1
  Al  Al11  1  0.664548  0.997241  0.075839  1
  Al  Al12  1  0.664548  0.997241  0.424161  1
  Al  Al13  1  0.336652  0.005148  0.572954  1
  Al  Al14  1  0.333753  0.333805  0.045938  1
  Al  Al15  1  0.664098  0.664655  0.957206  1
  Al  Al16  1  0.664098  0.664655  0.542794  1
  Al  Al17  1  0.333753  0.333805  0.454062  1
  Al  Al18  1  0.339005  0.544773  0.750000  1
  Al  Al19  1  0.658859  0.451840  0.250000  1
  Al  Al20  1  0.546006  0.342289  0.750000  1
  Al  Al21  1  0.451621  0.659607  0.250000  1
  Rh  Rh22  1  0.672341  0.330742  0.501640  1
  Rh  Rh23  1  0.327362  0.670691  0.501741  1
  Rh  Rh24  1  0.327362  0.670691  0.998259  1
  Rh  Rh25  1  0.672341  0.330742  0.998360  1
  Rh  Rh26  1  0.999769  0.997889  0.502387  1
  Rh  Rh27  1  0.999769  0.997889  0.997613  1
