# generated using pymatgen
data_Tb4CrGe3F28
_symmetry_space_group_name_H-M   'P 1'
_cell_length_a   5.45442061
_cell_length_b   8.76102094
_cell_length_c   11.71731862
_cell_angle_alpha   62.34468001
_cell_angle_beta   90.08492241
_cell_angle_gamma   90.01640566
_symmetry_Int_Tables_number   1
_chemical_formula_structural   Tb4CrGe3F28
_chemical_formula_sum   'Tb4 Cr1 Ge3 F28'
_cell_volume   495.95821597
_cell_formula_units_Z   1
loop_
 _symmetry_equiv_pos_site_id
 _symmetry_equiv_pos_as_xyz
  1  'x, y, z'
loop_
 _atom_site_type_symbol
 _atom_site_label
 _atom_site_symmetry_multiplicity
 _atom_site_fract_x
 _atom_site_fract_y
 _atom_site_fract_z
 _atom_site_occupancy
  Tb  Tb0  1  0.262715  0.810391  0.264002  1
  Tb  Tb1  1  0.739027  0.187871  0.736444  1
  Tb  Tb2  1  0.760190  0.191968  0.234169  1
  Tb  Tb3  1  0.237696  0.809326  0.764787  1
  Cr  Cr4  1  0.742428  0.725348  0.543133  1
  Ge  Ge5  1  0.757398  0.726065  0.042811  1
  Ge  Ge6  1  0.242998  0.274022  0.956955  1
  Ge  Ge7  1  0.257244  0.274016  0.457349  1
  F  F8  1  0.933255  0.707317  0.420896  1
  F  F9  1  0.065769  0.294118  0.577324  1
  F  F10  1  0.433555  0.293699  0.077558  1
  F  F11  1  0.566838  0.706217  0.922718  1
  F  F12  1  0.483449  0.728279  0.132137  1
  F  F13  1  0.517003  0.271978  0.867513  1
  F  F14  1  0.983216  0.271209  0.367680  1
  F  F15  1  0.026408  0.728171  0.634165  1
  F  F16  1  0.945474  0.740772  0.167870  1
  F  F17  1  0.054073  0.259208  0.832075  1
  F  F18  1  0.446203  0.258697  0.332366  1
  F  F19  1  0.554228  0.741600  0.669514  1
  F  F20  1  0.770614  0.491580  0.136564  1
  F  F21  1  0.230372  0.508064  0.864020  1
  F  F22  1  0.269521  0.508066  0.362959  1
  F  F23  1  0.729296  0.488635  0.638016  1
  F  F24  1  0.960127  0.282644  0.039915  1
  F  F25  1  0.040100  0.717341  0.960212  1
  F  F26  1  0.451680  0.718698  0.456744  1
  F  F27  1  0.540214  0.282654  0.540299  1
  F  F28  1  0.741231  0.961278  0.452943  1
  F  F29  1  0.261255  0.040024  0.546920  1
  F  F30  1  0.240097  0.040103  0.046844  1
  F  F31  1  0.760459  0.960454  0.953020  1
  F  F32  1  0.595877  0.969882  0.227136  1
  F  F33  1  0.404075  0.031729  0.772518  1
  F  F34  1  0.091995  0.030346  0.273259  1
  F  F35  1  0.903922  0.968231  0.727167  1
