# generated using pymatgen
data_Ho16CdHg3Ir3Pd
_symmetry_space_group_name_H-M   'P 1'
_cell_length_a   9.56263667
_cell_length_b   9.56259340
_cell_length_c   9.56259258
_cell_angle_alpha   60.26564460
_cell_angle_beta   60.26626662
_cell_angle_gamma   60.26626886
_symmetry_Int_Tables_number   1
_chemical_formula_structural   Ho16CdHg3Ir3Pd
_chemical_formula_sum   'Ho16 Cd1 Hg3 Ir3 Pd1'
_cell_volume   622.04456232
_cell_formula_units_Z   1
loop_
 _symmetry_equiv_pos_site_id
 _symmetry_equiv_pos_as_xyz
  1  'x, y, z'
loop_
 _atom_site_type_symbol
 _atom_site_label
 _atom_site_symmetry_multiplicity
 _atom_site_fract_x
 _atom_site_fract_y
 _atom_site_fract_z
 _atom_site_occupancy
  Ho  Ho0  1  0.597934  0.597880  0.597880  1
  Ho  Ho1  1  0.605974  0.605090  0.193003  1
  Ho  Ho2  1  0.605974  0.193003  0.605090  1
  Ho  Ho3  1  0.189641  0.606634  0.606634  1
  Ho  Ho4  1  0.054245  0.441276  0.441276  1
  Ho  Ho5  1  0.437802  0.060452  0.060452  1
  Ho  Ho6  1  0.439980  0.055274  0.440597  1
  Ho  Ho7  1  0.059673  0.438931  0.059845  1
  Ho  Ho8  1  0.439980  0.440597  0.055274  1
  Ho  Ho9  1  0.059673  0.059845  0.438931  1
  Ho  Ho10  1  0.187963  0.813281  0.813281  1
  Ho  Ho11  1  0.813727  0.187697  0.187697  1
  Ho  Ho12  1  0.812432  0.189027  0.813079  1
  Ho  Ho13  1  0.186746  0.814299  0.188387  1
  Ho  Ho14  1  0.812432  0.813079  0.189027  1
  Ho  Ho15  1  0.186746  0.188387  0.814299  1
  Cd  Cd16  1  0.508713  0.829374  0.829374  1
  Hg  Hg17  1  0.833949  0.835728  0.835728  1
  Hg  Hg18  1  0.833916  0.835799  0.493182  1
  Hg  Hg19  1  0.833916  0.493182  0.835799  1
  Ir  Ir20  1  0.390838  0.391769  0.823339  1
  Ir  Ir21  1  0.390838  0.823339  0.391769  1
  Ir  Ir22  1  0.823441  0.391571  0.391571  1
  Pd  Pd23  1  0.393470  0.394490  0.394490  1
