# generated using pymatgen
data_Lu12TlInFeTc2
_symmetry_space_group_name_H-M   'P 1'
_cell_length_a   8.25710470
_cell_length_b   8.25622675
_cell_length_c   8.25710540
_cell_angle_alpha   108.89380466
_cell_angle_beta   108.62756150
_cell_angle_gamma   110.90638287
_symmetry_Int_Tables_number   1
_chemical_formula_structural   Lu12TlInFeTc2
_chemical_formula_sum   'Lu12 Tl1 In1 Fe1 Tc2'
_cell_volume   433.09672382
_cell_formula_units_Z   1
loop_
 _symmetry_equiv_pos_site_id
 _symmetry_equiv_pos_as_xyz
  1  'x, y, z'
loop_
 _atom_site_type_symbol
 _atom_site_label
 _atom_site_symmetry_multiplicity
 _atom_site_fract_x
 _atom_site_fract_y
 _atom_site_fract_z
 _atom_site_occupancy
  Lu  Lu0  1  0.305335  0.304576  0.611909  1
  Lu  Lu1  1  0.692644  0.693443  0.388093  1
  Lu  Lu2  1  0.692667  0.304576  0.999241  1
  Lu  Lu3  1  0.305350  0.693443  0.000799  1
  Lu  Lu4  1  0.190143  0.430775  0.240632  1
  Lu  Lu5  1  0.807506  0.570019  0.762513  1
  Lu  Lu6  1  0.190171  0.949543  0.759373  1
  Lu  Lu7  1  0.949757  0.189758  0.759971  1
  Lu  Lu8  1  0.807517  0.044982  0.237464  1
  Lu  Lu9  1  0.044859  0.807976  0.236897  1
  Lu  Lu10  1  0.429787  0.189758  0.240000  1
  Lu  Lu11  1  0.571079  0.807976  0.763118  1
  Tl  Tl12  1  0.998018  0.498012  0.499994  1
  In  In13  1  0.498024  0.998021  0.499997  1
  Fe  Fe14  1  0.631703  0.631711  0.000008  1
  Tc  Tc15  1  0.384773  0.384760  0.999987  1
  Tc  Tc16  1  0.000666  0.000671  0.000005  1
