# generated using pymatgen
data_Cs4Na2ErAlAs4
_symmetry_space_group_name_H-M   'P 1'
_cell_length_a   9.77433271
_cell_length_b   9.77433356
_cell_length_c   9.77433302
_cell_angle_alpha   137.24558350
_cell_angle_beta   139.05199919
_cell_angle_gamma   60.68735672
_symmetry_Int_Tables_number   1
_chemical_formula_structural   Cs4Na2ErAlAs4
_chemical_formula_sum   'Cs4 Na2 Er1 Al1 As4'
_cell_volume   410.99879422
_cell_formula_units_Z   1
loop_
 _symmetry_equiv_pos_site_id
 _symmetry_equiv_pos_as_xyz
  1  'x, y, z'
loop_
 _atom_site_type_symbol
 _atom_site_label
 _atom_site_symmetry_multiplicity
 _atom_site_fract_x
 _atom_site_fract_y
 _atom_site_fract_z
 _atom_site_occupancy
  Cs  Cs0  1  0.671645  0.401412  0.718340  1
  Cs  Cs1  1  0.828355  0.046694  0.229767  1
  Cs  Cs2  1  0.183073  0.953306  0.781660  1
  Cs  Cs3  1  0.316927  0.598588  0.270233  1
  Na  Na4  1  0.750000  0.000000  0.750000  1
  Na  Na5  1  0.250000  0.000000  0.250000  1
  Er  Er6  1  0.750000  0.500000  0.250000  1
  Al  Al7  1  0.250000  0.500000  0.750000  1
  As  As8  1  0.392289  0.203811  0.771742  1
  As  As9  1  0.567931  0.796189  0.188478  1
  As  As10  1  0.107711  0.379454  0.311522  1
  As  As11  1  0.932069  0.620546  0.728258  1
