# generated using pymatgen
data_Li2Zr5Co16MoP12
_symmetry_space_group_name_H-M   'P 1'
_cell_length_a   11.84471190
_cell_length_b   11.90539467
_cell_length_c   3.62878700
_cell_angle_alpha   90.00000000
_cell_angle_beta   90.00000000
_cell_angle_gamma   120.16961084
_symmetry_Int_Tables_number   1
_chemical_formula_structural   Li2Zr5Co16MoP12
_chemical_formula_sum   'Li2 Zr5 Co16 Mo1 P12'
_cell_volume   442.40050101
_cell_formula_units_Z   1
loop_
 _symmetry_equiv_pos_site_id
 _symmetry_equiv_pos_as_xyz
  1  'x, y, z'
loop_
 _atom_site_type_symbol
 _atom_site_label
 _atom_site_symmetry_multiplicity
 _atom_site_fract_x
 _atom_site_fract_y
 _atom_site_fract_z
 _atom_site_occupancy
  Li  Li0  1  0.442224  0.441433  0.000000  1
  Li  Li1  1  0.557776  0.999209  0.000000  1
  Zr  Zr2  1  0.667785  0.331701  0.000000  1
  Zr  Zr3  1  0.332215  0.663917  0.000000  1
  Zr  Zr4  1  0.812946  0.813150  0.500000  1
  Zr  Zr5  1  0.187054  0.000204  0.500000  1
  Zr  Zr6  1  0.000000  0.184766  0.500000  1
  Co  Co7  1  0.199027  0.377981  0.000000  1
  Co  Co8  1  0.177067  0.804892  0.000000  1
  Co  Co9  1  0.822933  0.627824  0.000000  1
  Co  Co10  1  0.800973  0.178954  0.000000  1
  Co  Co11  1  0.375808  0.197974  0.000000  1
  Co  Co12  1  0.127412  0.481891  0.500000  1
  Co  Co13  1  0.353362  0.869584  0.500000  1
  Co  Co14  1  0.520808  0.647042  0.500000  1
  Co  Co15  1  0.646638  0.516222  0.500000  1
  Co  Co16  1  0.872588  0.354479  0.500000  1
  Co  Co17  1  0.479192  0.126234  0.500000  1
  Co  Co18  1  0.000000  0.001747  0.000000  1
  Co  Co19  1  0.717043  0.001320  0.500000  1
  Co  Co20  1  0.000000  0.720558  0.500000  1
  Co  Co21  1  0.624192  0.822166  0.000000  1
  Co  Co22  1  0.282957  0.284277  0.500000  1
  Mo  Mo23  1  0.000000  0.551763  0.000000  1
  P  P24  1  0.636062  0.637115  0.000000  1
  P  P25  1  0.363938  0.001053  0.000000  1
  P  P26  1  0.000000  0.355929  0.000000  1
  P  P27  1  0.482966  0.314467  0.500000  1
  P  P28  1  0.682594  0.167229  0.500000  1
  P  P29  1  0.831973  0.517882  0.500000  1
  P  P30  1  0.517034  0.831501  0.500000  1
  P  P31  1  0.168027  0.685909  0.500000  1
  P  P32  1  0.821436  0.000170  0.000000  1
  P  P33  1  0.000000  0.826084  0.000000  1
  P  P34  1  0.317406  0.484635  0.500000  1
  P  P35  1  0.178564  0.178734  0.000000  1
