# generated using pymatgen
data_DyEr5Si4(GeRh6)2
_symmetry_space_group_name_H-M   'P 1'
_cell_length_a   5.57177800
_cell_length_b   5.57177725
_cell_length_c   15.16850400
_cell_angle_alpha   90.00000000
_cell_angle_beta   90.00000000
_cell_angle_gamma   119.99999260
_symmetry_Int_Tables_number   1
_chemical_formula_structural   DyEr5Si4(GeRh6)2
_chemical_formula_sum   'Dy1 Er5 Si4 Ge2 Rh12'
_cell_volume   407.81290462
_cell_formula_units_Z   1
loop_
 _symmetry_equiv_pos_site_id
 _symmetry_equiv_pos_as_xyz
  1  'x, y, z'
loop_
 _atom_site_type_symbol
 _atom_site_label
 _atom_site_symmetry_multiplicity
 _atom_site_fract_x
 _atom_site_fract_y
 _atom_site_fract_z
 _atom_site_occupancy
  Dy  Dy0  1  0.333333  0.666667  0.750000  1
  Er  Er1  1  0.333333  0.666667  0.537579  1
  Er  Er2  1  0.666667  0.333333  0.462394  1
  Er  Er3  1  0.666667  0.333333  0.037606  1
  Er  Er4  1  0.333333  0.666667  0.962421  1
  Er  Er5  1  0.666667  0.333333  0.250000  1
  Si  Si6  1  0.000000  0.000000  0.250000  1
  Si  Si7  1  0.000000  0.000000  0.750000  1
  Si  Si8  1  0.333333  0.666667  0.250000  1
  Si  Si9  1  0.666667  0.333333  0.750000  1
  Ge  Ge10  1  0.000000  0.000000  0.999993  1
  Ge  Ge11  1  0.000000  0.000000  0.500007  1
  Rh  Rh12  1  0.167780  0.335560  0.132142  1
  Rh  Rh13  1  0.832230  0.664462  0.867900  1
  Rh  Rh14  1  0.664440  0.832220  0.132142  1
  Rh  Rh15  1  0.832230  0.664462  0.632100  1
  Rh  Rh16  1  0.335538  0.167770  0.867900  1
  Rh  Rh17  1  0.167780  0.335560  0.367858  1
  Rh  Rh18  1  0.167780  0.832220  0.132142  1
  Rh  Rh19  1  0.335538  0.167770  0.632100  1
  Rh  Rh20  1  0.832230  0.167770  0.867900  1
  Rh  Rh21  1  0.664440  0.832220  0.367858  1
  Rh  Rh22  1  0.832230  0.167770  0.632100  1
  Rh  Rh23  1  0.167780  0.832220  0.367858  1
