# generated using pymatgen
data_Dy9Er4Tm7(CoBi2)4
_symmetry_space_group_name_H-M   'P 1'
_cell_length_a   7.93051616
_cell_length_b   8.87607133
_cell_length_c   12.39152643
_cell_angle_alpha   89.98932398
_cell_angle_beta   89.99658167
_cell_angle_gamma   90.01003213
_symmetry_Int_Tables_number   1
_chemical_formula_structural   Dy9Er4Tm7(CoBi2)4
_chemical_formula_sum   'Dy9 Er4 Tm7 Co4 Bi8'
_cell_volume   872.26215568
_cell_formula_units_Z   1
loop_
 _symmetry_equiv_pos_site_id
 _symmetry_equiv_pos_as_xyz
  1  'x, y, z'
loop_
 _atom_site_type_symbol
 _atom_site_label
 _atom_site_symmetry_multiplicity
 _atom_site_fract_x
 _atom_site_fract_y
 _atom_site_fract_z
 _atom_site_occupancy
  Dy  Dy0  1  0.653337  0.749859  0.699062  1
  Dy  Dy1  1  0.346524  0.250072  0.300871  1
  Dy  Dy2  1  0.153230  0.249963  0.800685  1
  Dy  Dy3  1  0.846953  0.750066  0.199563  1
  Dy  Dy4  1  0.120459  0.750193  0.813716  1
  Dy  Dy5  1  0.879954  0.249867  0.186391  1
  Dy  Dy6  1  0.620645  0.250273  0.686227  1
  Dy  Dy7  1  0.380141  0.749649  0.313577  1
  Dy  Dy8  1  0.553376  0.749982  0.997088  1
  Er  Er9  1  0.446044  0.250107  0.002881  1
  Er  Er10  1  0.052947  0.250479  0.503042  1
  Er  Er11  1  0.945406  0.749649  0.496819  1
  Er  Er12  1  0.325680  0.963526  0.563693  1
  Tm  Tm13  1  0.827402  0.463103  0.936253  1
  Tm  Tm14  1  0.172875  0.536180  0.063766  1
  Tm  Tm15  1  0.327016  0.536523  0.563523  1
  Tm  Tm16  1  0.172900  0.963785  0.063780  1
  Tm  Tm17  1  0.672937  0.463222  0.436164  1
  Tm  Tm18  1  0.827351  0.036869  0.936275  1
  Tm  Tm19  1  0.672991  0.036552  0.436278  1
  Co  Co20  1  0.937999  0.750002  0.993240  1
  Co  Co21  1  0.062686  0.249970  0.006990  1
  Co  Co22  1  0.437499  0.250239  0.506920  1
  Co  Co23  1  0.563559  0.749654  0.492803  1
  Bi  Bi24  1  0.932607  0.007541  0.672532  1
  Bi  Bi25  1  0.067171  0.992571  0.327821  1
  Bi  Bi26  1  0.433018  0.993183  0.827056  1
  Bi  Bi27  1  0.066949  0.507407  0.327596  1
  Bi  Bi28  1  0.566997  0.007971  0.172979  1
  Bi  Bi29  1  0.933347  0.492687  0.672545  1
  Bi  Bi30  1  0.567192  0.491947  0.172856  1
  Bi  Bi31  1  0.432808  0.506907  0.827012  1
