# generated using pymatgen
data_Ti3NbZn2(Co5B2)2
_symmetry_space_group_name_H-M   'P 1'
_cell_length_a   8.50799384
_cell_length_b   8.50799384
_cell_length_c   2.98299800
_cell_angle_alpha   90.00000000
_cell_angle_beta   90.00000000
_cell_angle_gamma   89.53570594
_symmetry_Int_Tables_number   1
_chemical_formula_structural   Ti3NbZn2(Co5B2)2
_chemical_formula_sum   'Ti3 Nb1 Zn2 Co10 B4'
_cell_volume   215.92008174
_cell_formula_units_Z   1
loop_
 _symmetry_equiv_pos_site_id
 _symmetry_equiv_pos_as_xyz
  1  'x, y, z'
loop_
 _atom_site_type_symbol
 _atom_site_label
 _atom_site_symmetry_multiplicity
 _atom_site_fract_x
 _atom_site_fract_y
 _atom_site_fract_z
 _atom_site_occupancy
  Ti  Ti0  1  0.323519  0.174772  0.000000  1
  Ti  Ti1  1  0.674772  0.823519  0.000000  1
  Ti  Ti2  1  0.177408  0.677408  0.000000  1
  Nb  Nb3  1  0.823577  0.323577  0.000000  1
  Zn  Zn4  1  0.000201  0.000979  0.000000  1
  Zn  Zn5  1  0.500979  0.500201  0.000000  1
  Co  Co6  1  0.498400  0.998400  0.500000  1
  Co  Co7  1  0.004200  0.504200  0.500000  1
  Co  Co8  1  0.073024  0.221826  0.500000  1
  Co  Co9  1  0.220686  0.929342  0.500000  1
  Co  Co10  1  0.776397  0.065256  0.500000  1
  Co  Co11  1  0.928911  0.780639  0.500000  1
  Co  Co12  1  0.429342  0.720686  0.500000  1
  Co  Co13  1  0.565256  0.276397  0.500000  1
  Co  Co14  1  0.721826  0.573024  0.500000  1
  Co  Co15  1  0.280639  0.428911  0.500000  1
  B  B16  1  0.619868  0.119868  0.000000  1
  B  B17  1  0.124283  0.379275  0.000000  1
  B  B18  1  0.879275  0.624283  0.000000  1
  B  B19  1  0.377437  0.877437  0.000000  1
