# generated using pymatgen
data_YTm3(Ga3Rh)6
_symmetry_space_group_name_H-M   'P 1'
_cell_length_a   7.55662016
_cell_length_b   7.55571407
_cell_length_c   9.49709400
_cell_angle_alpha   90.00000000
_cell_angle_beta   90.00000000
_cell_angle_gamma   119.79833363
_symmetry_Int_Tables_number   1
_chemical_formula_structural   YTm3(Ga3Rh)6
_chemical_formula_sum   'Y1 Tm3 Ga18 Rh6'
_cell_volume   470.54746024
_cell_formula_units_Z   1
loop_
 _symmetry_equiv_pos_site_id
 _symmetry_equiv_pos_as_xyz
  1  'x, y, z'
loop_
 _atom_site_type_symbol
 _atom_site_label
 _atom_site_symmetry_multiplicity
 _atom_site_fract_x
 _atom_site_fract_y
 _atom_site_fract_z
 _atom_site_occupancy
  Y  Y0  1  0.330558  0.002239  0.750000  1
  Tm  Tm1  1  0.997813  0.669450  0.250000  1
  Tm  Tm2  1  0.002141  0.330552  0.750000  1
  Tm  Tm3  1  0.669462  0.997818  0.250000  1
  Ga  Ga4  1  0.339204  0.549567  0.250000  1
  Ga  Ga5  1  0.661205  0.450845  0.750000  1
  Ga  Ga6  1  0.549570  0.339204  0.250000  1
  Ga  Ga7  1  0.450495  0.660582  0.750000  1
  Ga  Ga8  1  0.000099  0.335057  0.080995  1
  Ga  Ga9  1  0.999505  0.664545  0.919212  1
  Ga  Ga10  1  0.999505  0.664545  0.580788  1
  Ga  Ga11  1  0.335073  0.000104  0.418745  1
  Ga  Ga12  1  0.000099  0.335057  0.419005  1
  Ga  Ga13  1  0.665340  0.999905  0.580773  1
  Ga  Ga14  1  0.665340  0.999905  0.919227  1
  Ga  Ga15  1  0.335073  0.000104  0.081255  1
  Ga  Ga16  1  0.332099  0.332452  0.566074  1
  Ga  Ga17  1  0.667883  0.667880  0.433688  1
  Ga  Ga18  1  0.667883  0.667880  0.066312  1
  Ga  Ga19  1  0.332099  0.332452  0.933926  1
  Ga  Ga20  1  0.125751  0.125745  0.250000  1
  Ga  Ga21  1  0.873895  0.874178  0.750000  1
  Rh  Rh22  1  0.671901  0.328355  0.000074  1
  Rh  Rh23  1  0.328247  0.671659  0.000089  1
  Rh  Rh24  1  0.328247  0.671659  0.499911  1
  Rh  Rh25  1  0.671901  0.328355  0.499926  1
  Rh  Rh26  1  0.999806  0.999955  0.000109  1
  Rh  Rh27  1  0.999806  0.999955  0.499891  1
