# generated using pymatgen
data_Ho6Lu4Si5Ge
_symmetry_space_group_name_H-M   'P 1'
_cell_length_a   8.35518000
_cell_length_b   8.35579527
_cell_length_c   6.23895500
_cell_angle_alpha   90.00000000
_cell_angle_beta   90.00000000
_cell_angle_gamma   119.99757216
_symmetry_Int_Tables_number   1
_chemical_formula_structural   Ho6Lu4Si5Ge
_chemical_formula_sum   'Ho6 Lu4 Si5 Ge1'
_cell_volume   377.22173680
_cell_formula_units_Z   1
loop_
 _symmetry_equiv_pos_site_id
 _symmetry_equiv_pos_as_xyz
  1  'x, y, z'
loop_
 _atom_site_type_symbol
 _atom_site_label
 _atom_site_symmetry_multiplicity
 _atom_site_fract_x
 _atom_site_fract_y
 _atom_site_fract_z
 _atom_site_occupancy
  Ho  Ho0  1  0.757560  0.000000  0.750000  1
  Ho  Ho1  1  0.756791  0.756832  0.250000  1
  Ho  Ho2  1  0.999958  0.243168  0.250000  1
  Ho  Ho3  1  0.999057  0.756136  0.750000  1
  Ho  Ho4  1  0.242921  0.243864  0.750000  1
  Ho  Ho5  1  0.242855  0.000000  0.250000  1
  Lu  Lu6  1  0.667273  0.334069  0.000596  1
  Lu  Lu7  1  0.333203  0.665931  0.499404  1
  Lu  Lu8  1  0.333203  0.665931  0.000596  1
  Lu  Lu9  1  0.667273  0.334069  0.499404  1
  Si  Si10  1  0.395582  0.395562  0.250000  1
  Si  Si11  1  0.000020  0.604438  0.250000  1
  Si  Si12  1  0.000001  0.395602  0.750000  1
  Si  Si13  1  0.604398  0.604398  0.750000  1
  Si  Si14  1  0.604579  0.000000  0.250000  1
  Ge  Ge15  1  0.395328  0.000000  0.750000  1
