# generated using pymatgen
data_Zr6Zn22SiPd
_symmetry_space_group_name_H-M   'P 1'
_cell_length_a   8.78948982
_cell_length_b   8.78948929
_cell_length_c   8.78949000
_cell_angle_alpha   60.00000487
_cell_angle_beta   60.00000686
_cell_angle_gamma   59.99999823
_symmetry_Int_Tables_number   1
_chemical_formula_structural   Zr6Zn22SiPd
_chemical_formula_sum   'Zr6 Zn22 Si1 Pd1'
_cell_volume   480.14899075
_cell_formula_units_Z   1
loop_
 _symmetry_equiv_pos_site_id
 _symmetry_equiv_pos_as_xyz
  1  'x, y, z'
loop_
 _atom_site_type_symbol
 _atom_site_label
 _atom_site_symmetry_multiplicity
 _atom_site_fract_x
 _atom_site_fract_y
 _atom_site_fract_z
 _atom_site_occupancy
  Zr  Zr0  1  0.711304  0.288696  0.288696  1
  Zr  Zr1  1  0.288696  0.711304  0.711304  1
  Zr  Zr2  1  0.288696  0.711304  0.288696  1
  Zr  Zr3  1  0.711304  0.288696  0.711304  1
  Zr  Zr4  1  0.288696  0.288696  0.711304  1
  Zr  Zr5  1  0.711304  0.711304  0.288696  1
  Zn  Zn6  1  0.122590  0.122590  0.122590  1
  Zn  Zn7  1  0.877410  0.877410  0.877410  1
  Zn  Zn8  1  0.122590  0.122590  0.632230  1
  Zn  Zn9  1  0.122590  0.632230  0.122590  1
  Zn  Zn10  1  0.877410  0.877410  0.367770  1
  Zn  Zn11  1  0.877410  0.367770  0.877410  1
  Zn  Zn12  1  0.632230  0.122590  0.122590  1
  Zn  Zn13  1  0.367770  0.877410  0.877410  1
  Zn  Zn14  1  0.500000  0.000000  0.000000  1
  Zn  Zn15  1  0.000000  0.500000  0.500000  1
  Zn  Zn16  1  0.000000  0.500000  0.000000  1
  Zn  Zn17  1  0.500000  0.000000  0.500000  1
  Zn  Zn18  1  0.000000  0.000000  0.500000  1
  Zn  Zn19  1  0.500000  0.500000  0.000000  1
  Zn  Zn20  1  0.336225  0.336225  0.336225  1
  Zn  Zn21  1  0.663775  0.663775  0.663775  1
  Zn  Zn22  1  0.336225  0.336225  0.991325  1
  Zn  Zn23  1  0.336225  0.991325  0.336225  1
  Zn  Zn24  1  0.663775  0.663775  0.008675  1
  Zn  Zn25  1  0.663775  0.008675  0.663775  1
  Zn  Zn26  1  0.991325  0.336225  0.336225  1
  Zn  Zn27  1  0.008675  0.663775  0.663775  1
  Si  Si28  1  0.500000  0.500000  0.500000  1
  Pd  Pd29  1  0.000000  0.000000  0.000000  1
