# generated using pymatgen
data_Pr4Ga10Cu5Pt
_symmetry_space_group_name_H-M   'P 1'
_cell_length_a   8.48117737
_cell_length_b   8.49392304
_cell_length_c   8.49392202
_cell_angle_alpha   138.12649016
_cell_angle_beta   105.53398322
_cell_angle_gamma   89.30978095
_symmetry_Int_Tables_number   1
_chemical_formula_structural   Pr4Ga10Cu5Pt
_chemical_formula_sum   'Pr4 Ga10 Cu5 Pt1'
_cell_volume   376.43761951
_cell_formula_units_Z   1
loop_
 _symmetry_equiv_pos_site_id
 _symmetry_equiv_pos_as_xyz
  1  'x, y, z'
loop_
 _atom_site_type_symbol
 _atom_site_label
 _atom_site_symmetry_multiplicity
 _atom_site_fract_x
 _atom_site_fract_y
 _atom_site_fract_z
 _atom_site_occupancy
  Pr  Pr0  1  0.867066  0.630962  0.236102  1
  Pr  Pr1  1  0.132158  0.370891  0.761268  1
  Pr  Pr2  1  0.394319  0.131326  0.262993  1
  Pr  Pr3  1  0.608853  0.868401  0.740452  1
  Ga  Ga4  1  0.497534  0.753204  0.261922  1
  Ga  Ga5  1  0.497534  0.235612  0.744330  1
  Ga  Ga6  1  0.234677  0.987512  0.750194  1
  Ga  Ga7  1  0.771516  0.514024  0.745609  1
  Ga  Ga8  1  0.771516  0.025907  0.257492  1
  Ga  Ga9  1  0.234677  0.484483  0.247165  1
  Ga  Ga10  1  0.041916  0.893024  0.148892  1
  Ga  Ga11  1  0.958636  0.109191  0.849446  1
  Ga  Ga12  1  0.744376  0.394455  0.349923  1
  Ga  Ga13  1  0.253667  0.608596  0.645070  1
  Cu  Cu14  1  0.998091  0.752689  0.751128  1
  Cu  Cu15  1  0.998091  0.246963  0.245402  1
  Cu  Cu16  1  0.245719  0.864275  0.381447  1
  Cu  Cu17  1  0.748001  0.132877  0.615122  1
  Cu  Cu18  1  0.482583  0.365997  0.116586  1
  Pt  Pt19  1  0.519070  0.629612  0.889457  1
