# generated using pymatgen
data_Li6Al5VRh12
_symmetry_space_group_name_H-M   'P 1'
_cell_length_a   4.18244800
_cell_length_b   5.93186900
_cell_length_c   12.52151800
_cell_angle_alpha   90.00000000
_cell_angle_beta   89.99682768
_cell_angle_gamma   90.00000000
_symmetry_Int_Tables_number   1
_chemical_formula_structural   Li6Al5VRh12
_chemical_formula_sum   'Li6 Al5 V1 Rh12'
_cell_volume   310.65552605
_cell_formula_units_Z   1
loop_
 _symmetry_equiv_pos_site_id
 _symmetry_equiv_pos_as_xyz
  1  'x, y, z'
loop_
 _atom_site_type_symbol
 _atom_site_label
 _atom_site_symmetry_multiplicity
 _atom_site_fract_x
 _atom_site_fract_y
 _atom_site_fract_z
 _atom_site_occupancy
  Li  Li0  1  0.000032  0.000000  0.000210  1
  Li  Li1  1  0.499411  0.500000  0.167032  1
  Li  Li2  1  0.999454  0.000000  0.333421  1
  Li  Li3  1  0.500000  0.500000  0.499703  1
  Li  Li4  1  0.000552  0.000000  0.666375  1
  Li  Li5  1  0.500532  0.500000  0.833265  1
  Al  Al6  1  0.000008  0.500000  0.001675  1
  Al  Al7  1  0.499585  0.000000  0.167664  1
  Al  Al8  1  0.999575  0.500000  0.333378  1
  Al  Al9  1  0.499998  0.000000  0.499050  1
  Al  Al10  1  0.000411  0.500000  0.664937  1
  V  V11  1  0.500425  0.000000  0.833481  1
  Rh  Rh12  1  0.500034  0.246873  0.997044  1
  Rh  Rh13  1  0.500034  0.753125  0.997044  1
  Rh  Rh14  1  0.999585  0.249058  0.165527  1
  Rh  Rh15  1  0.999585  0.750942  0.165527  1
  Rh  Rh16  1  0.499612  0.250255  0.333207  1
  Rh  Rh17  1  0.499612  0.749745  0.333207  1
  Rh  Rh18  1  0.999999  0.249093  0.500993  1
  Rh  Rh19  1  0.999999  0.750905  0.500993  1
  Rh  Rh20  1  0.500402  0.246990  0.669675  1
  Rh  Rh21  1  0.500402  0.753010  0.669675  1
  Rh  Rh22  1  0.000378  0.248095  0.833457  1
  Rh  Rh23  1  0.000378  0.751905  0.833457  1
