# generated using pymatgen
data_KRbP2Pd
_symmetry_space_group_name_H-M   'P 1'
_cell_length_a   7.68711026
_cell_length_b   7.68711090
_cell_length_c   6.08088100
_cell_angle_alpha   90.00000000
_cell_angle_beta   90.00000000
_cell_angle_gamma   128.36056531
_symmetry_Int_Tables_number   1
_chemical_formula_structural   KRbP2Pd
_chemical_formula_sum   'K2 Rb2 P4 Pd2'
_cell_volume   281.75765735
_cell_formula_units_Z   2
loop_
 _symmetry_equiv_pos_site_id
 _symmetry_equiv_pos_as_xyz
  1  'x, y, z'
loop_
 _atom_site_type_symbol
 _atom_site_label
 _atom_site_symmetry_multiplicity
 _atom_site_fract_x
 _atom_site_fract_y
 _atom_site_fract_z
 _atom_site_occupancy
  K  K0  1  0.788720  0.211280  0.250000  1
  K  K1  1  0.211280  0.788720  0.750000  1
  Rb  Rb2  1  0.413218  0.586782  0.250000  1
  Rb  Rb3  1  0.586782  0.413218  0.750000  1
  P  P4  1  0.949370  0.725219  0.250000  1
  P  P5  1  0.050630  0.274781  0.750000  1
  P  P6  1  0.274781  0.050630  0.250000  1
  P  P7  1  0.725219  0.949370  0.750000  1
  Pd  Pd8  1  0.000000  0.000000  0.000000  1
  Pd  Pd9  1  0.000000  0.000000  0.500000  1
