# generated using pymatgen
data_Y3Er17(Cd3Ni)2
_symmetry_space_group_name_H-M   'P 1'
_cell_length_a   9.54228800
_cell_length_b   9.54228852
_cell_length_c   9.67027600
_cell_angle_alpha   90.00000000
_cell_angle_beta   90.00000000
_cell_angle_gamma   119.99999125
_symmetry_Int_Tables_number   1
_chemical_formula_structural   Y3Er17(Cd3Ni)2
_chemical_formula_sum   'Y3 Er17 Cd6 Ni2'
_cell_volume   762.56102320
_cell_formula_units_Z   1
loop_
 _symmetry_equiv_pos_site_id
 _symmetry_equiv_pos_as_xyz
  1  'x, y, z'
loop_
 _atom_site_type_symbol
 _atom_site_label
 _atom_site_symmetry_multiplicity
 _atom_site_fract_x
 _atom_site_fract_y
 _atom_site_fract_z
 _atom_site_occupancy
  Y  Y0  1  0.456956  0.543044  0.750000  1
  Y  Y1  1  0.456956  0.913912  0.750000  1
  Y  Y2  1  0.086088  0.543044  0.750000  1
  Er  Er3  1  0.000000  0.000000  0.500066  1
  Er  Er4  1  0.000000  0.000000  0.999934  1
  Er  Er5  1  0.543451  0.456549  0.250000  1
  Er  Er6  1  0.543451  0.086902  0.250000  1
  Er  Er7  1  0.913098  0.456549  0.250000  1
  Er  Er8  1  0.210440  0.789560  0.436058  1
  Er  Er9  1  0.210440  0.420880  0.436058  1
  Er  Er10  1  0.579120  0.789560  0.436058  1
  Er  Er11  1  0.789422  0.210578  0.562142  1
  Er  Er12  1  0.789422  0.578843  0.562142  1
  Er  Er13  1  0.421157  0.210578  0.562142  1
  Er  Er14  1  0.789422  0.210578  0.937858  1
  Er  Er15  1  0.789422  0.578843  0.937858  1
  Er  Er16  1  0.421157  0.210578  0.937858  1
  Er  Er17  1  0.210440  0.789560  0.063942  1
  Er  Er18  1  0.210440  0.420880  0.063942  1
  Er  Er19  1  0.579120  0.789560  0.063942  1
  Cd  Cd20  1  0.884272  0.115728  0.250000  1
  Cd  Cd21  1  0.884272  0.768545  0.250000  1
  Cd  Cd22  1  0.231455  0.115728  0.250000  1
  Cd  Cd23  1  0.114767  0.885233  0.750000  1
  Cd  Cd24  1  0.114767  0.229535  0.750000  1
  Cd  Cd25  1  0.770465  0.885233  0.750000  1
  Ni  Ni26  1  0.333333  0.666667  0.250000  1
  Ni  Ni27  1  0.666667  0.333333  0.750000  1
