# generated using pymatgen
data_EuNbF7
_symmetry_space_group_name_H-M   'P 1'
_cell_length_a   5.00579343
_cell_length_b   7.35408936
_cell_length_c   6.82653311
_cell_angle_alpha   89.96362400
_cell_angle_beta   94.19422068
_cell_angle_gamma   90.00264480
_symmetry_Int_Tables_number   1
_chemical_formula_structural   EuNbF7
_chemical_formula_sum   'Eu2 Nb2 F14'
_cell_volume   250.63243803
_cell_formula_units_Z   2
loop_
 _symmetry_equiv_pos_site_id
 _symmetry_equiv_pos_as_xyz
  1  'x, y, z'
loop_
 _atom_site_type_symbol
 _atom_site_label
 _atom_site_symmetry_multiplicity
 _atom_site_fract_x
 _atom_site_fract_y
 _atom_site_fract_z
 _atom_site_occupancy
  Eu  Eu0  1  0.527865  0.749908  0.316829  1
  Eu  Eu1  1  0.472136  0.250092  0.683171  1
  Nb  Nb2  1  0.021624  0.250002  0.223806  1
  Nb  Nb3  1  0.978376  0.749998  0.776193  1
  F  F4  1  0.301529  0.250114  0.037301  1
  F  F5  1  0.184983  0.749942  0.041729  1
  F  F6  1  0.822634  0.019363  0.225057  1
  F  F7  1  0.822751  0.480679  0.224998  1
  F  F8  1  0.305423  0.078731  0.363813  1
  F  F9  1  0.305436  0.421336  0.363679  1
  F  F10  1  0.900720  0.249937  0.501999  1
  F  F11  1  0.099280  0.750063  0.498002  1
  F  F12  1  0.694564  0.578665  0.636320  1
  F  F13  1  0.694577  0.921269  0.636186  1
  F  F14  1  0.177249  0.519322  0.775003  1
  F  F15  1  0.177366  0.980637  0.774944  1
  F  F16  1  0.815016  0.250058  0.958271  1
  F  F17  1  0.698469  0.749886  0.962699  1
