# generated using pymatgen
data_Tb3Mg3Hg2Bi
_symmetry_space_group_name_H-M   'P 1'
_cell_length_a   7.59811500
_cell_length_b   7.59811509
_cell_length_c   4.58649700
_cell_angle_alpha   90.00000000
_cell_angle_beta   90.00000000
_cell_angle_gamma   119.99999527
_symmetry_Int_Tables_number   1
_chemical_formula_structural   Tb3Mg3Hg2Bi
_chemical_formula_sum   'Tb3 Mg3 Hg2 Bi1'
_cell_volume   229.31026492
_cell_formula_units_Z   1
loop_
 _symmetry_equiv_pos_site_id
 _symmetry_equiv_pos_as_xyz
  1  'x, y, z'
loop_
 _atom_site_type_symbol
 _atom_site_label
 _atom_site_symmetry_multiplicity
 _atom_site_fract_x
 _atom_site_fract_y
 _atom_site_fract_z
 _atom_site_occupancy
  Tb  Tb0  1  0.407746  0.983640  0.000000  1
  Tb  Tb1  1  0.016360  0.424106  0.000000  1
  Tb  Tb2  1  0.575894  0.592254  0.000000  1
  Mg  Mg3  1  0.753609  0.985761  0.500000  1
  Mg  Mg4  1  0.232153  0.246391  0.500000  1
  Mg  Mg5  1  0.014239  0.767847  0.500000  1
  Hg  Hg6  1  0.000000  0.000000  0.000000  1
  Hg  Hg7  1  0.333334  0.666667  0.500000  1
  Bi  Bi8  1  0.666666  0.333333  0.500000  1
