# generated using pymatgen
data_Sc8Ta3V8Si16Os
_symmetry_space_group_name_H-M   'P 1'
_cell_length_a   6.69175916
_cell_length_b   6.69175953
_cell_length_c   12.39208933
_cell_angle_alpha   90.12991989
_cell_angle_beta   89.87007823
_cell_angle_gamma   89.71448184
_symmetry_Int_Tables_number   1
_chemical_formula_structural   Sc8Ta3V8Si16Os
_chemical_formula_sum   'Sc8 Ta3 V8 Si16 Os1'
_cell_volume   554.90358031
_cell_formula_units_Z   1
loop_
 _symmetry_equiv_pos_site_id
 _symmetry_equiv_pos_as_xyz
  1  'x, y, z'
loop_
 _atom_site_type_symbol
 _atom_site_label
 _atom_site_symmetry_multiplicity
 _atom_site_fract_x
 _atom_site_fract_y
 _atom_site_fract_z
 _atom_site_occupancy
  Sc  Sc0  1  0.001497  0.663303  0.028905  1
  Sc  Sc1  1  0.837200  0.500047  0.278627  1
  Sc  Sc2  1  0.163359  0.497390  0.780448  1
  Sc  Sc3  1  0.500047  0.837200  0.721373  1
  Sc  Sc4  1  0.497390  0.163359  0.219552  1
  Sc  Sc5  1  0.999136  0.337068  0.529667  1
  Sc  Sc6  1  0.663303  0.001497  0.971095  1
  Sc  Sc7  1  0.337068  0.999136  0.470333  1
  Ta  Ta8  1  0.169794  0.833245  0.246908  1
  Ta  Ta9  1  0.833245  0.169794  0.753092  1
  Ta  Ta10  1  0.667624  0.667624  0.500000  1
  V  V11  1  0.000141  0.153356  0.128128  1
  V  V12  1  0.343564  0.505377  0.375050  1
  V  V13  1  0.665964  0.493749  0.876820  1
  V  V14  1  0.505377  0.343564  0.624950  1
  V  V15  1  0.493749  0.665964  0.123180  1
  V  V16  1  0.992915  0.842681  0.626453  1
  V  V17  1  0.153356  0.000141  0.871872  1
  V  V18  1  0.842681  0.992915  0.373547  1
  Si  Si19  1  0.292027  0.966204  0.058788  1
  Si  Si20  1  0.541401  0.796592  0.312964  1
  Si  Si21  1  0.454176  0.206564  0.817508  1
  Si  Si22  1  0.796592  0.541401  0.687036  1
  Si  Si23  1  0.206564  0.454176  0.182492  1
  Si  Si24  1  0.704343  0.042980  0.563750  1
  Si  Si25  1  0.966204  0.292027  0.941212  1
  Si  Si26  1  0.042980  0.704343  0.436250  1
  Si  Si27  1  0.701063  0.374030  0.070380  1
  Si  Si28  1  0.129606  0.207829  0.321022  1
  Si  Si29  1  0.870790  0.790958  0.820862  1
  Si  Si30  1  0.207829  0.129606  0.678978  1
  Si  Si31  1  0.790958  0.870790  0.179138  1
  Si  Si32  1  0.291855  0.628955  0.571269  1
  Si  Si33  1  0.374030  0.701063  0.929620  1
  Si  Si34  1  0.628955  0.291855  0.428731  1
  Os  Os35  1  0.333216  0.333216  0.000000  1
