# generated using pymatgen
data_Ba8Ho4AlFe3O20
_symmetry_space_group_name_H-M   'P 1'
_cell_length_a   6.12339706
_cell_length_b   7.90536634
_cell_length_c   12.72659490
_cell_angle_alpha   91.30224589
_cell_angle_beta   89.99248359
_cell_angle_gamma   90.01391209
_symmetry_Int_Tables_number   1
_chemical_formula_structural   Ba8Ho4AlFe3O20
_chemical_formula_sum   'Ba8 Ho4 Al1 Fe3 O20'
_cell_volume   615.90600909
_cell_formula_units_Z   1
loop_
 _symmetry_equiv_pos_site_id
 _symmetry_equiv_pos_as_xyz
  1  'x, y, z'
loop_
 _atom_site_type_symbol
 _atom_site_label
 _atom_site_symmetry_multiplicity
 _atom_site_fract_x
 _atom_site_fract_y
 _atom_site_fract_z
 _atom_site_occupancy
  Ba  Ba0  1  0.759189  0.489564  0.355374  1
  Ba  Ba1  1  0.739341  0.986842  0.852661  1
  Ba  Ba2  1  0.240907  0.513536  0.645155  1
  Ba  Ba3  1  0.260235  0.010854  0.146671  1
  Ba  Ba4  1  0.755697  0.994922  0.378565  1
  Ba  Ba5  1  0.742351  0.497115  0.875490  1
  Ba  Ba6  1  0.244444  0.002213  0.621985  1
  Ba  Ba7  1  0.256684  0.504769  0.123118  1
  Ho  Ho8  1  0.749058  0.261151  0.629864  1
  Ho  Ho9  1  0.750872  0.762107  0.131319  1
  Ho  Ho10  1  0.250612  0.737589  0.372285  1
  Ho  Ho11  1  0.248968  0.237832  0.869274  1
  Al  Al12  1  0.737498  0.745531  0.582162  1
  Fe  Fe13  1  0.763238  0.244742  0.084377  1
  Fe  Fe14  1  0.262856  0.254732  0.415764  1
  Fe  Fe15  1  0.236568  0.755464  0.915300  1
  O  O16  1  0.760769  0.958411  0.636115  1
  O  O17  1  0.736417  0.470222  0.139021  1
  O  O18  1  0.236335  0.028778  0.362537  1
  O  O19  1  0.263256  0.529986  0.860684  1
  O  O20  1  0.733954  0.054867  0.171646  1
  O  O21  1  0.762348  0.566595  0.665735  1
  O  O22  1  0.265267  0.945616  0.828323  1
  O  O23  1  0.233745  0.445737  0.329908  1
  O  O24  1  0.542683  0.747336  0.273443  1
  O  O25  1  0.953109  0.248141  0.772146  1
  O  O26  1  0.455517  0.252863  0.726431  1
  O  O27  1  0.044807  0.752367  0.228942  1
  O  O28  1  0.545230  0.229698  0.976795  1
  O  O29  1  0.951100  0.730443  0.483512  1
  O  O30  1  0.455329  0.770723  0.022395  1
  O  O31  1  0.044552  0.269915  0.522891  1
  O  O32  1  0.043237  0.236128  0.018788  1
  O  O33  1  0.473854  0.736526  0.518562  1
  O  O34  1  0.957341  0.763629  0.981458  1
  O  O35  1  0.542633  0.263054  0.481303  1
