# generated using pymatgen
data_Yb2Tm7Lu(In2Pt)4
_symmetry_space_group_name_H-M   'P 1'
_cell_length_a   3.61052200
_cell_length_b   8.07901163
_cell_length_c   18.13942742
_cell_angle_alpha   90.04540706
_cell_angle_beta   90.00000000
_cell_angle_gamma   90.00000000
_symmetry_Int_Tables_number   1
_chemical_formula_structural   Yb2Tm7Lu(In2Pt)4
_chemical_formula_sum   'Yb2 Tm7 Lu1 In8 Pt4'
_cell_volume   529.11694140
_cell_formula_units_Z   1
loop_
 _symmetry_equiv_pos_site_id
 _symmetry_equiv_pos_as_xyz
  1  'x, y, z'
loop_
 _atom_site_type_symbol
 _atom_site_label
 _atom_site_symmetry_multiplicity
 _atom_site_fract_x
 _atom_site_fract_y
 _atom_site_fract_z
 _atom_site_occupancy
  Yb  Yb0  1  0.000000  0.999995  0.000017  1
  Yb  Yb1  1  0.000000  0.499971  0.500005  1
  Tm  Tm2  1  0.000000  0.118361  0.413434  1
  Tm  Tm3  1  0.000000  0.881340  0.586268  1
  Tm  Tm4  1  0.000000  0.381355  0.913666  1
  Tm  Tm5  1  0.000000  0.618756  0.086562  1
  Tm  Tm6  1  0.000000  0.244013  0.221074  1
  Tm  Tm7  1  0.000000  0.756113  0.779010  1
  Tm  Tm8  1  0.000000  0.256099  0.720990  1
  Lu  Lu9  1  0.000000  0.744177  0.278771  1
  In  In10  1  0.500000  0.427362  0.351398  1
  In  In11  1  0.500000  0.573178  0.648536  1
  In  In12  1  0.500000  0.073349  0.851433  1
  In  In13  1  0.500000  0.926264  0.148731  1
  In  In14  1  0.500000  0.294281  0.066865  1
  In  In15  1  0.500000  0.705992  0.933200  1
  In  In16  1  0.500000  0.206012  0.566781  1
  In  In17  1  0.500000  0.793702  0.432870  1
  Pt  Pt18  1  0.500000  0.021983  0.303099  1
  Pt  Pt19  1  0.500000  0.976027  0.696759  1
  Pt  Pt20  1  0.500000  0.476146  0.803154  1
  Pt  Pt21  1  0.500000  0.525525  0.197380  1
