# generated using pymatgen
data_YbLu(FeB4)2
_symmetry_space_group_name_H-M   'P 1'
_cell_length_a   3.32781200
_cell_length_b   5.86200287
_cell_length_c   11.33295629
_cell_angle_alpha   89.82454118
_cell_angle_beta   90.00000000
_cell_angle_gamma   90.00000000
_symmetry_Int_Tables_number   1
_chemical_formula_structural   YbLu(FeB4)2
_chemical_formula_sum   'Yb2 Lu2 Fe4 B16'
_cell_volume   221.07823438
_cell_formula_units_Z   2
loop_
 _symmetry_equiv_pos_site_id
 _symmetry_equiv_pos_as_xyz
  1  'x, y, z'
loop_
 _atom_site_type_symbol
 _atom_site_label
 _atom_site_symmetry_multiplicity
 _atom_site_fract_x
 _atom_site_fract_y
 _atom_site_fract_z
 _atom_site_occupancy
  Yb  Yb0  1  0.000000  0.627466  0.349635  1
  Yb  Yb1  1  0.000000  0.372534  0.650365  1
  Lu  Lu2  1  0.000000  0.128147  0.150390  1
  Lu  Lu3  1  0.000000  0.871853  0.849610  1
  Fe  Fe4  1  0.000000  0.634497  0.086959  1
  Fe  Fe5  1  0.000000  0.365503  0.913041  1
  Fe  Fe6  1  0.000000  0.128714  0.414393  1
  Fe  Fe7  1  0.000000  0.871286  0.585607  1
  B  B8  1  0.500000  0.783567  0.183553  1
  B  B9  1  0.500000  0.216433  0.816447  1
  B  B10  1  0.500000  0.282939  0.316492  1
  B  B11  1  0.500000  0.717061  0.683508  1
  B  B12  1  0.500000  0.862258  0.031446  1
  B  B13  1  0.500000  0.137742  0.968554  1
  B  B14  1  0.500000  0.361349  0.467468  1
  B  B15  1  0.500000  0.638651  0.532532  1
  B  B16  1  0.500000  0.887581  0.453588  1
  B  B17  1  0.500000  0.112419  0.546412  1
  B  B18  1  0.500000  0.387823  0.046651  1
  B  B19  1  0.500000  0.612177  0.953349  1
  B  B20  1  0.500000  0.978368  0.308856  1
  B  B21  1  0.500000  0.021632  0.691144  1
  B  B22  1  0.500000  0.475982  0.190577  1
  B  B23  1  0.500000  0.524018  0.809423  1
