# generated using pymatgen
data_ZrAlCu3Pd
_symmetry_space_group_name_H-M   'P 1'
_cell_length_a   4.93903368
_cell_length_b   4.93903338
_cell_length_c   4.93903316
_cell_angle_alpha   60.46499515
_cell_angle_beta   60.46501576
_cell_angle_gamma   60.46500389
_symmetry_Int_Tables_number   1
_chemical_formula_structural   ZrAlCu3Pd
_chemical_formula_sum   'Zr1 Al1 Cu3 Pd1'
_cell_volume   86.08988665
_cell_formula_units_Z   1
loop_
 _symmetry_equiv_pos_site_id
 _symmetry_equiv_pos_as_xyz
  1  'x, y, z'
loop_
 _atom_site_type_symbol
 _atom_site_label
 _atom_site_symmetry_multiplicity
 _atom_site_fract_x
 _atom_site_fract_y
 _atom_site_fract_z
 _atom_site_occupancy
  Zr  Zr0  1  0.245862  0.245862  0.245862  1
  Al  Al1  1  0.629376  0.629376  0.629376  1
  Cu  Cu2  1  0.625507  0.625507  0.127081  1
  Cu  Cu3  1  0.625507  0.127081  0.625507  1
  Cu  Cu4  1  0.127081  0.625507  0.625507  1
  Pd  Pd5  1  0.996667  0.996667  0.996667  1
