# generated using pymatgen
data_V12Sn3Te
_symmetry_space_group_name_H-M   'P 1'
_cell_length_a   4.94101500
_cell_length_b   4.95130600
_cell_length_c   9.92173600
_cell_angle_alpha   90.00000000
_cell_angle_beta   90.00000000
_cell_angle_gamma   90.00000000
_symmetry_Int_Tables_number   1
_chemical_formula_structural   V12Sn3Te
_chemical_formula_sum   'V12 Sn3 Te1'
_cell_volume   242.73008431
_cell_formula_units_Z   1
loop_
 _symmetry_equiv_pos_site_id
 _symmetry_equiv_pos_as_xyz
  1  'x, y, z'
loop_
 _atom_site_type_symbol
 _atom_site_label
 _atom_site_symmetry_multiplicity
 _atom_site_fract_x
 _atom_site_fract_y
 _atom_site_fract_z
 _atom_site_occupancy
  V  V0  1  0.500000  0.000000  0.621839  1
  V  V1  1  0.500000  0.000000  0.121742  1
  V  V2  1  0.745406  0.500000  0.252959  1
  V  V3  1  0.745406  0.500000  0.747041  1
  V  V4  1  0.000000  0.746264  0.500000  1
  V  V5  1  0.000000  0.747924  0.000000  1
  V  V6  1  0.500000  0.000000  0.378161  1
  V  V7  1  0.500000  0.000000  0.878258  1
  V  V8  1  0.254594  0.500000  0.252959  1
  V  V9  1  0.254594  0.500000  0.747041  1
  V  V10  1  0.000000  0.253736  0.500000  1
  V  V11  1  0.000000  0.252076  0.000000  1
  Sn  Sn12  1  0.500000  0.500000  0.000000  1
  Sn  Sn13  1  0.000000  0.000000  0.250226  1
  Sn  Sn14  1  0.000000  0.000000  0.749774  1
  Te  Te15  1  0.500000  0.500000  0.500000  1
