# generated using pymatgen
data_Tb14DyHo5Sn16
_symmetry_space_group_name_H-M   'P 1'
_cell_length_a   8.04230502
_cell_length_b   8.19240941
_cell_length_c   15.49134503
_cell_angle_alpha   90.01298546
_cell_angle_beta   90.00218903
_cell_angle_gamma   90.01306211
_symmetry_Int_Tables_number   1
_chemical_formula_structural   Tb14DyHo5Sn16
_chemical_formula_sum   'Tb14 Dy1 Ho5 Sn16'
_cell_volume   1020.66046489
_cell_formula_units_Z   1
loop_
 _symmetry_equiv_pos_site_id
 _symmetry_equiv_pos_as_xyz
  1  'x, y, z'
loop_
 _atom_site_type_symbol
 _atom_site_label
 _atom_site_symmetry_multiplicity
 _atom_site_fract_x
 _atom_site_fract_y
 _atom_site_fract_z
 _atom_site_occupancy
  Tb  Tb0  1  0.632515  0.163829  0.378316  1
  Tb  Tb1  1  0.132665  0.336102  0.121442  1
  Tb  Tb2  1  0.632518  0.163930  0.121794  1
  Tb  Tb3  1  0.132505  0.336112  0.378221  1
  Tb  Tb4  1  0.367566  0.836165  0.621849  1
  Tb  Tb5  1  0.867638  0.663801  0.878298  1
  Tb  Tb6  1  0.519999  0.319963  0.902310  1
  Tb  Tb7  1  0.020063  0.179925  0.597780  1
  Tb  Tb8  1  0.479955  0.679997  0.402312  1
  Tb  Tb9  1  0.979817  0.819974  0.097722  1
  Tb  Tb10  1  0.479923  0.680034  0.097430  1
  Tb  Tb11  1  0.979955  0.820078  0.402375  1
  Tb  Tb12  1  0.520049  0.320161  0.597850  1
  Tb  Tb13  1  0.020122  0.179788  0.902203  1
  Dy  Dy14  1  0.867318  0.663836  0.622003  1
  Ho  Ho15  1  0.367359  0.836379  0.877891  1
  Ho  Ho16  1  0.198618  0.502601  0.750148  1
  Ho  Ho17  1  0.698481  0.997379  0.750047  1
  Ho  Ho18  1  0.801537  0.497664  0.250059  1
  Ho  Ho19  1  0.301529  0.002354  0.249894  1
  Sn  Sn20  1  0.292721  0.034376  0.041564  1
  Sn  Sn21  1  0.792772  0.465169  0.458053  1
  Sn  Sn22  1  0.707606  0.964488  0.542383  1
  Sn  Sn23  1  0.208115  0.536138  0.957522  1
  Sn  Sn24  1  0.706148  0.964538  0.957614  1
  Sn  Sn25  1  0.206828  0.535276  0.542364  1
  Sn  Sn26  1  0.292673  0.035135  0.457745  1
  Sn  Sn27  1  0.792671  0.464913  0.042284  1
  Sn  Sn28  1  0.564806  0.619047  0.750172  1
  Sn  Sn29  1  0.065207  0.881126  0.750259  1
  Sn  Sn30  1  0.435039  0.381455  0.249965  1
  Sn  Sn31  1  0.935118  0.118584  0.249972  1
  Sn  Sn32  1  0.328402  0.146513  0.750224  1
  Sn  Sn33  1  0.828271  0.353286  0.749952  1
  Sn  Sn34  1  0.671748  0.853075  0.249988  1
  Sn  Sn35  1  0.171743  0.646812  0.249999  1
