# generated using pymatgen
data_La16Mg4Tc3Au
_symmetry_space_group_name_H-M   'P 1'
_cell_length_a   10.26782755
_cell_length_b   10.18314322
_cell_length_c   10.28558801
_cell_angle_alpha   59.66413775
_cell_angle_beta   59.93838237
_cell_angle_gamma   59.61817803
_symmetry_Int_Tables_number   1
_chemical_formula_structural   La16Mg4Tc3Au
_chemical_formula_sum   'La16 Mg4 Tc3 Au1'
_cell_volume   755.95682643
_cell_formula_units_Z   1
loop_
 _symmetry_equiv_pos_site_id
 _symmetry_equiv_pos_as_xyz
  1  'x, y, z'
loop_
 _atom_site_type_symbol
 _atom_site_label
 _atom_site_symmetry_multiplicity
 _atom_site_fract_x
 _atom_site_fract_y
 _atom_site_fract_z
 _atom_site_occupancy
  La  La0  1  0.560525  0.938720  0.560600  1
  La  La1  1  0.184452  0.189584  0.812946  1
  La  La2  1  0.563179  0.557744  0.939565  1
  La  La3  1  0.960697  0.334524  0.352400  1
  La  La4  1  0.813364  0.189531  0.813139  1
  La  La5  1  0.188586  0.827443  0.188116  1
  La  La6  1  0.351905  0.334752  0.960915  1
  La  La7  1  0.342565  0.970743  0.343345  1
  La  La8  1  0.940663  0.939371  0.559988  1
  La  La9  1  0.940186  0.556554  0.563000  1
  La  La10  1  0.351873  0.334737  0.352437  1
  La  La11  1  0.795644  0.828376  0.188000  1
  La  La12  1  0.813372  0.189587  0.183917  1
  La  La13  1  0.560532  0.938685  0.940152  1
  La  La14  1  0.940189  0.556557  0.940300  1
  La  La15  1  0.188607  0.827464  0.795813  1
  Mg  Mg16  1  0.577910  0.578918  0.577796  1
  Mg  Mg17  1  0.578073  0.265011  0.578471  1
  Mg  Mg18  1  0.577902  0.578928  0.265374  1
  Mg  Mg19  1  0.265262  0.578908  0.577936  1
  Tc  Tc20  1  0.595496  0.134606  0.134943  1
  Tc  Tc21  1  0.134272  0.135758  0.594752  1
  Tc  Tc22  1  0.134249  0.135754  0.135227  1
  Au  Au23  1  0.140500  0.577747  0.140870  1
