# generated using pymatgen
data_Nd4Th(BN3)2
_symmetry_space_group_name_H-M   'P 1'
_cell_length_a   6.41795389
_cell_length_b   6.41795448
_cell_length_c   8.82090800
_cell_angle_alpha   74.51655227
_cell_angle_beta   74.51655082
_cell_angle_gamma   32.48663684
_symmetry_Int_Tables_number   1
_chemical_formula_structural   Nd4Th(BN3)2
_chemical_formula_sum   'Nd4 Th1 B2 N6'
_cell_volume   187.45207554
_cell_formula_units_Z   1
loop_
 _symmetry_equiv_pos_site_id
 _symmetry_equiv_pos_as_xyz
  1  'x, y, z'
loop_
 _atom_site_type_symbol
 _atom_site_label
 _atom_site_symmetry_multiplicity
 _atom_site_fract_x
 _atom_site_fract_y
 _atom_site_fract_z
 _atom_site_occupancy
  Nd  Nd0  1  0.623707  0.623707  0.620635  1
  Nd  Nd1  1  0.308560  0.308560  0.814124  1
  Nd  Nd2  1  0.691440  0.691440  0.185876  1
  Nd  Nd3  1  0.376293  0.376293  0.379365  1
  Th  Th4  1  0.000000  0.000000  0.000000  1
  B  B5  1  0.054169  0.054169  0.411166  1
  B  B6  1  0.945831  0.945831  0.588834  1
  N  N7  1  0.026274  0.026274  0.256848  1
  N  N8  1  0.352233  0.352233  0.077017  1
  N  N9  1  0.825493  0.825493  0.589170  1
  N  N10  1  0.973726  0.973726  0.743152  1
  N  N11  1  0.647767  0.647767  0.922983  1
  N  N12  1  0.174507  0.174507  0.410830  1
