# generated using pymatgen
data_Zr3(TiCo3)2
_symmetry_space_group_name_H-M   'P 1'
_cell_length_a   7.48634741
_cell_length_b   7.48617448
_cell_length_c   7.48674200
_cell_angle_alpha   109.47115980
_cell_angle_beta   109.47298917
_cell_angle_gamma   109.46933495
_symmetry_Int_Tables_number   1
_chemical_formula_structural   Zr3(TiCo3)2
_chemical_formula_sum   'Zr6 Ti4 Co12'
_cell_volume   322.99950177
_cell_formula_units_Z   2
loop_
 _symmetry_equiv_pos_site_id
 _symmetry_equiv_pos_as_xyz
  1  'x, y, z'
loop_
 _atom_site_type_symbol
 _atom_site_label
 _atom_site_symmetry_multiplicity
 _atom_site_fract_x
 _atom_site_fract_y
 _atom_site_fract_z
 _atom_site_occupancy
  Zr  Zr0  1  0.720761  0.720791  0.000045  1
  Zr  Zr1  1  0.279159  0.000097  0.279269  1
  Zr  Zr2  1  0.000064  0.279055  0.279193  1
  Zr  Zr3  1  0.279239  0.279209  0.999955  1
  Zr  Zr4  1  0.720841  0.999903  0.720731  1
  Zr  Zr5  1  0.999936  0.720945  0.720807  1
  Ti  Ti6  1  0.000000  0.000000  0.500000  1
  Ti  Ti7  1  0.000000  0.500000  0.000000  1
  Ti  Ti8  1  0.500000  0.000000  0.000000  1
  Ti  Ti9  1  0.500000  0.500000  0.500000  1
  Co  Co10  1  0.346902  0.346962  0.693912  1
  Co  Co11  1  0.653141  0.999849  0.346895  1
  Co  Co12  1  0.999792  0.653093  0.346971  1
  Co  Co13  1  0.652979  0.346994  0.000060  1
  Co  Co14  1  0.347082  0.693785  0.346931  1
  Co  Co15  1  0.000208  0.346907  0.653029  1
  Co  Co16  1  0.347021  0.653006  0.999940  1
  Co  Co17  1  0.346859  0.000151  0.653105  1
  Co  Co18  1  0.693869  0.347110  0.346901  1
  Co  Co19  1  0.653098  0.653038  0.306088  1
  Co  Co20  1  0.652918  0.306215  0.653069  1
  Co  Co21  1  0.306131  0.652890  0.653099  1
