# generated using pymatgen
data_Rb3Sc2Cl9
_symmetry_space_group_name_H-M   'P 1'
_cell_length_a   7.32818200
_cell_length_b   7.32818256
_cell_length_c   18.88409100
_cell_angle_alpha   90.00000000
_cell_angle_beta   90.00000000
_cell_angle_gamma   119.99998844
_symmetry_Int_Tables_number   1
_chemical_formula_structural   Rb3Sc2Cl9
_chemical_formula_sum   'Rb6 Sc4 Cl18'
_cell_volume   878.25229553
_cell_formula_units_Z   2
loop_
 _symmetry_equiv_pos_site_id
 _symmetry_equiv_pos_as_xyz
  1  'x, y, z'
loop_
 _atom_site_type_symbol
 _atom_site_label
 _atom_site_symmetry_multiplicity
 _atom_site_fract_x
 _atom_site_fract_y
 _atom_site_fract_z
 _atom_site_occupancy
  Rb  Rb0  1  0.333333  0.666667  0.071635  1
  Rb  Rb1  1  0.666667  0.333333  0.928365  1
  Rb  Rb2  1  0.666667  0.333333  0.571635  1
  Rb  Rb3  1  0.333333  0.666667  0.428365  1
  Rb  Rb4  1  0.000000  0.000000  0.250000  1
  Rb  Rb5  1  0.000000  0.000000  0.750000  1
  Sc  Sc6  1  0.333333  0.666667  0.656839  1
  Sc  Sc7  1  0.666667  0.333333  0.343161  1
  Sc  Sc8  1  0.666667  0.333333  0.156839  1
  Sc  Sc9  1  0.333333  0.666667  0.843161  1
  Cl  Cl10  1  0.171536  0.343072  0.591428  1
  Cl  Cl11  1  0.828464  0.656928  0.408572  1
  Cl  Cl12  1  0.656928  0.828464  0.591428  1
  Cl  Cl13  1  0.828464  0.656928  0.091428  1
  Cl  Cl14  1  0.343072  0.171536  0.408572  1
  Cl  Cl15  1  0.171536  0.343072  0.908572  1
  Cl  Cl16  1  0.171536  0.828464  0.591428  1
  Cl  Cl17  1  0.343072  0.171536  0.091428  1
  Cl  Cl18  1  0.828464  0.171536  0.408572  1
  Cl  Cl19  1  0.656928  0.828464  0.908572  1
  Cl  Cl20  1  0.828464  0.171536  0.091428  1
  Cl  Cl21  1  0.171536  0.828464  0.908572  1
  Cl  Cl22  1  0.513344  0.026688  0.250000  1
  Cl  Cl23  1  0.486656  0.973312  0.750000  1
  Cl  Cl24  1  0.973312  0.486656  0.250000  1
  Cl  Cl25  1  0.026688  0.513344  0.750000  1
  Cl  Cl26  1  0.513344  0.486656  0.250000  1
  Cl  Cl27  1  0.486656  0.513344  0.750000  1
