# generated using pymatgen
data_Tm8B24MoIr2Os
_symmetry_space_group_name_H-M   'P 1'
_cell_length_a   3.62281600
_cell_length_b   9.10380403
_cell_length_c   11.47836265
_cell_angle_alpha   90.24891529
_cell_angle_beta   90.00000000
_cell_angle_gamma   90.00000000
_symmetry_Int_Tables_number   1
_chemical_formula_structural   Tm8B24MoIr2Os
_chemical_formula_sum   'Tm8 B24 Mo1 Ir2 Os1'
_cell_volume   378.56897674
_cell_formula_units_Z   1
loop_
 _symmetry_equiv_pos_site_id
 _symmetry_equiv_pos_as_xyz
  1  'x, y, z'
loop_
 _atom_site_type_symbol
 _atom_site_label
 _atom_site_symmetry_multiplicity
 _atom_site_fract_x
 _atom_site_fract_y
 _atom_site_fract_z
 _atom_site_occupancy
  Tm  Tm0  1  0.000000  0.316006  0.409220  1
  Tm  Tm1  1  0.000000  0.681893  0.587018  1
  Tm  Tm2  1  0.000000  0.824316  0.084437  1
  Tm  Tm3  1  0.000000  0.176740  0.918043  1
  Tm  Tm4  1  0.000000  0.945915  0.373689  1
  Tm  Tm5  1  0.000000  0.054662  0.628017  1
  Tm  Tm6  1  0.000000  0.443157  0.125137  1
  Tm  Tm7  1  0.000000  0.558534  0.873778  1
  B  B8  1  0.500000  0.553296  0.434422  1
  B  B9  1  0.500000  0.445760  0.565590  1
  B  B10  1  0.500000  0.051288  0.064183  1
  B  B11  1  0.500000  0.946055  0.932516  1
  B  B12  1  0.500000  0.749596  0.421625  1
  B  B13  1  0.500000  0.249836  0.579017  1
  B  B14  1  0.500000  0.250454  0.077996  1
  B  B15  1  0.500000  0.752116  0.919455  1
  B  B16  1  0.500000  0.791381  0.265947  1
  B  B17  1  0.500000  0.208803  0.735595  1
  B  B18  1  0.500000  0.295069  0.236123  1
  B  B19  1  0.500000  0.707654  0.764837  1
  B  B20  1  0.500000  0.631788  0.183908  1
  B  B21  1  0.500000  0.369133  0.816714  1
  B  B22  1  0.500000  0.131493  0.317133  1
  B  B23  1  0.500000  0.868312  0.684389  1
  B  B24  1  0.500000  0.978651  0.213412  1
  B  B25  1  0.500000  0.017552  0.786938  1
  B  B26  1  0.500000  0.481482  0.287444  1
  B  B27  1  0.500000  0.518595  0.712616  1
  B  B28  1  0.500000  0.607276  0.029052  1
  B  B29  1  0.500000  0.395195  0.969373  1
  B  B30  1  0.500000  0.106498  0.472506  1
  B  B31  1  0.500000  0.892940  0.529804  1
  Mo  Mo32  1  0.000000  0.137179  0.179505  1
  Ir  Ir33  1  0.000000  0.636904  0.322659  1
  Ir  Ir34  1  0.000000  0.363443  0.678431  1
  Os  Os35  1  0.000000  0.861027  0.819466  1
