# generated using pymatgen
data_Lu10Al5PtC8
_symmetry_space_group_name_H-M   'P 1'
_cell_length_a   10.64388800
_cell_length_b   10.64388800
_cell_length_c   3.42102000
_cell_angle_alpha   90.00000000
_cell_angle_beta   90.00000000
_cell_angle_gamma   90.00000000
_symmetry_Int_Tables_number   1
_chemical_formula_structural   Lu10Al5PtC8
_chemical_formula_sum   'Lu10 Al5 Pt1 C8'
_cell_volume   387.57540121
_cell_formula_units_Z   1
loop_
 _symmetry_equiv_pos_site_id
 _symmetry_equiv_pos_as_xyz
  1  'x, y, z'
loop_
 _atom_site_type_symbol
 _atom_site_label
 _atom_site_symmetry_multiplicity
 _atom_site_fract_x
 _atom_site_fract_y
 _atom_site_fract_z
 _atom_site_occupancy
  Lu  Lu0  1  0.547554  0.726098  0.500000  1
  Lu  Lu1  1  0.452446  0.273902  0.500000  1
  Lu  Lu2  1  0.051136  0.766680  0.500000  1
  Lu  Lu3  1  0.948864  0.233320  0.500000  1
  Lu  Lu4  1  0.273902  0.547554  0.500000  1
  Lu  Lu5  1  0.726098  0.452446  0.500000  1
  Lu  Lu6  1  0.233320  0.051136  0.500000  1
  Lu  Lu7  1  0.766680  0.948864  0.500000  1
  Lu  Lu8  1  0.500000  0.000000  0.000000  1
  Lu  Lu9  1  0.000000  0.500000  0.000000  1
  Al  Al10  1  0.704847  0.201557  0.000000  1
  Al  Al11  1  0.295153  0.798443  0.000000  1
  Al  Al12  1  0.201557  0.295153  0.000000  1
  Al  Al13  1  0.798443  0.704847  0.000000  1
  Al  Al14  1  0.000000  0.000000  0.000000  1
  Pt  Pt15  1  0.500000  0.500000  0.000000  1
  C  C16  1  0.627946  0.128357  0.500000  1
  C  C17  1  0.372054  0.871643  0.500000  1
  C  C18  1  0.128357  0.372054  0.500000  1
  C  C19  1  0.871643  0.627946  0.500000  1
  C  C20  1  0.162419  0.660187  0.000000  1
  C  C21  1  0.837581  0.339813  0.000000  1
  C  C22  1  0.660187  0.837581  0.000000  1
  C  C23  1  0.339813  0.162419  0.000000  1
