# generated using pymatgen
data_ScTi(PRu)2
_symmetry_space_group_name_H-M   'P 1'
_cell_length_a   7.37260185
_cell_length_b   7.37461537
_cell_length_c   7.37260275
_cell_angle_alpha   128.16059812
_cell_angle_beta   121.30363468
_cell_angle_gamma   82.09260868
_symmetry_Int_Tables_number   1
_chemical_formula_structural   ScTi(PRu)2
_chemical_formula_sum   'Sc3 Ti3 P6 Ru6'
_cell_volume   259.06327599
_cell_formula_units_Z   3
loop_
 _symmetry_equiv_pos_site_id
 _symmetry_equiv_pos_as_xyz
  1  'x, y, z'
loop_
 _atom_site_type_symbol
 _atom_site_label
 _atom_site_symmetry_multiplicity
 _atom_site_fract_x
 _atom_site_fract_y
 _atom_site_fract_z
 _atom_site_occupancy
  Sc  Sc0  1  0.469007  0.244962  0.275955  1
  Sc  Sc1  1  0.531909  0.805941  0.774033  1
  Sc  Sc2  1  0.745173  0.665259  0.420085  1
  Ti  Ti3  1  0.252382  0.666839  0.914457  1
  Ti  Ti4  1  0.049633  0.844966  0.295334  1
  Ti  Ti5  1  0.949184  0.236572  0.787388  1
  P  P6  1  0.846446  0.578811  0.759631  1
  P  P7  1  0.159692  0.911505  0.739488  1
  P  P8  1  0.672019  0.911505  0.251814  1
  P  P9  1  0.319182  0.578811  0.232365  1
  P  P10  1  0.278723  0.301095  0.522371  1
  P  P11  1  0.730164  0.215800  0.985636  1
  Ru  Ru12  1  0.657251  0.494625  0.904238  1
  Ru  Ru13  1  0.343784  0.244191  0.837463  1
  Ru  Ru14  1  0.906729  0.244191  0.400407  1
  Ru  Ru15  1  0.090387  0.494625  0.337376  1
  Ru  Ru16  1  0.023531  0.000348  0.025543  1
  Ru  Ru17  1  0.474806  0.000348  0.476818  1
