# generated using pymatgen
data_DyEr(Co5As3)2
_symmetry_space_group_name_H-M   'P 1'
_cell_length_a   3.78147200
_cell_length_b   12.16194806
_cell_length_c   10.66524505
_cell_angle_alpha   90.01106515
_cell_angle_beta   90.00000000
_cell_angle_gamma   90.00000000
_symmetry_Int_Tables_number   1
_chemical_formula_structural   DyEr(Co5As3)2
_chemical_formula_sum   'Dy2 Er2 Co20 As12'
_cell_volume   490.49531505
_cell_formula_units_Z   2
loop_
 _symmetry_equiv_pos_site_id
 _symmetry_equiv_pos_as_xyz
  1  'x, y, z'
loop_
 _atom_site_type_symbol
 _atom_site_label
 _atom_site_symmetry_multiplicity
 _atom_site_fract_x
 _atom_site_fract_y
 _atom_site_fract_z
 _atom_site_occupancy
  Dy  Dy0  1  0.250000  0.798554  0.582356  1
  Dy  Dy1  1  0.750000  0.201446  0.417644  1
  Er  Er2  1  0.750000  0.700813  0.081785  1
  Er  Er3  1  0.250000  0.299187  0.918215  1
  Co  Co4  1  0.750000  0.696698  0.383794  1
  Co  Co5  1  0.250000  0.303302  0.616206  1
  Co  Co6  1  0.250000  0.802896  0.884830  1
  Co  Co7  1  0.750000  0.197104  0.115170  1
  Co  Co8  1  0.750000  0.991008  0.211918  1
  Co  Co9  1  0.250000  0.008992  0.788082  1
  Co  Co10  1  0.250000  0.509299  0.712381  1
  Co  Co11  1  0.750000  0.490701  0.287619  1
  Co  Co12  1  0.750000  0.677708  0.784526  1
  Co  Co13  1  0.250000  0.322292  0.215474  1
  Co  Co14  1  0.250000  0.822082  0.283990  1
  Co  Co15  1  0.750000  0.177918  0.716010  1
  Co  Co16  1  0.750000  0.932173  0.969960  1
  Co  Co17  1  0.250000  0.067827  0.030040  1
  Co  Co18  1  0.250000  0.567832  0.469457  1
  Co  Co19  1  0.750000  0.432168  0.530543  1
  Co  Co20  1  0.750000  0.988247  0.592980  1
  Co  Co21  1  0.250000  0.011753  0.407020  1
  Co  Co22  1  0.250000  0.512237  0.092962  1
  Co  Co23  1  0.750000  0.487762  0.907038  1
  As  As24  1  0.750000  0.614085  0.585099  1
  As  As25  1  0.250000  0.385915  0.414901  1
  As  As26  1  0.250000  0.885309  0.084862  1
  As  As27  1  0.750000  0.114691  0.915138  1
  As  As28  1  0.750000  0.890496  0.399418  1
  As  As29  1  0.250000  0.109504  0.600582  1
  As  As30  1  0.250000  0.609685  0.899945  1
  As  As31  1  0.750000  0.390315  0.100055  1
  As  As32  1  0.750000  0.870788  0.769659  1
  As  As33  1  0.250000  0.129212  0.230341  1
  As  As34  1  0.250000  0.629554  0.268777  1
  As  As35  1  0.750000  0.370446  0.731223  1
