# generated using pymatgen
data_Pr17Eu3Si15Ir
_symmetry_space_group_name_H-M   'P 1'
_cell_length_a   7.94951891
_cell_length_b   7.93717683
_cell_length_c   15.31164600
_cell_angle_alpha   89.96811518
_cell_angle_beta   89.73518284
_cell_angle_gamma   90.10193066
_symmetry_Int_Tables_number   1
_chemical_formula_structural   Pr17Eu3Si15Ir
_chemical_formula_sum   'Pr17 Eu3 Si15 Ir1'
_cell_volume   966.10290273
_cell_formula_units_Z   1
loop_
 _symmetry_equiv_pos_site_id
 _symmetry_equiv_pos_as_xyz
  1  'x, y, z'
loop_
 _atom_site_type_symbol
 _atom_site_label
 _atom_site_symmetry_multiplicity
 _atom_site_fract_x
 _atom_site_fract_y
 _atom_site_fract_z
 _atom_site_occupancy
  Pr  Pr0  1  0.693430  0.687952  0.501051  1
  Pr  Pr1  1  0.374820  0.010163  0.448538  1
  Pr  Pr2  1  0.489657  0.878054  0.697837  1
  Pr  Pr3  1  0.510028  0.123355  0.198123  1
  Pr  Pr4  1  0.874981  0.489258  0.299749  1
  Pr  Pr5  1  0.124843  0.505823  0.799990  1
  Pr  Pr6  1  0.625456  0.990570  0.948079  1
  Pr  Pr7  1  0.005957  0.375447  0.553742  1
  Pr  Pr8  1  0.989719  0.624646  0.051093  1
  Pr  Pr9  1  0.130712  0.988875  0.872824  1
  Pr  Pr10  1  0.514726  0.627868  0.126113  1
  Pr  Pr11  1  0.473766  0.361345  0.628937  1
  Pr  Pr12  1  0.627114  0.512886  0.874122  1
  Pr  Pr13  1  0.374284  0.482816  0.374317  1
  Pr  Pr14  1  0.873486  0.018939  0.375891  1
  Pr  Pr15  1  0.984675  0.126112  0.124651  1
  Pr  Pr16  1  0.025933  0.882914  0.625950  1
  Eu  Eu17  1  0.307193  0.307525  0.998291  1
  Eu  Eu18  1  0.190720  0.809159  0.250578  1
  Eu  Eu19  1  0.819677  0.190773  0.748066  1
  Si  Si20  1  0.333019  0.698423  0.949787  1
  Si  Si21  1  0.664518  0.301258  0.451654  1
  Si  Si22  1  0.700957  0.334474  0.051350  1
  Si  Si23  1  0.304514  0.669179  0.547680  1
  Si  Si24  1  0.800684  0.833533  0.201135  1
  Si  Si25  1  0.166924  0.201017  0.298314  1
  Si  Si26  1  0.835117  0.799002  0.800307  1
  Si  Si27  1  0.287799  0.918822  0.057675  1
  Si  Si28  1  0.581123  0.786884  0.309845  1
  Si  Si29  1  0.424873  0.206269  0.812223  1
  Si  Si30  1  0.782394  0.584177  0.690434  1
  Si  Si31  1  0.211837  0.421377  0.190837  1
  Si  Si32  1  0.703196  0.073011  0.557633  1
  Si  Si33  1  0.918623  0.288376  0.942405  1
  Si  Si34  1  0.078658  0.714659  0.442362  1
  Ir  Ir35  1  0.194591  0.175054  0.698421  1
