# generated using pymatgen
data_Ba2TcO5
_symmetry_space_group_name_H-M   'P 1'
_cell_length_a   5.76965900
_cell_length_b   7.42999700
_cell_length_c   11.65587800
_cell_angle_alpha   90.00000000
_cell_angle_beta   90.00000000
_cell_angle_gamma   90.00000000
_symmetry_Int_Tables_number   1
_chemical_formula_structural   Ba2TcO5
_chemical_formula_sum   'Ba8 Tc4 O20'
_cell_volume   499.67057789
_cell_formula_units_Z   4
loop_
 _symmetry_equiv_pos_site_id
 _symmetry_equiv_pos_as_xyz
  1  'x, y, z'
loop_
 _atom_site_type_symbol
 _atom_site_label
 _atom_site_symmetry_multiplicity
 _atom_site_fract_x
 _atom_site_fract_y
 _atom_site_fract_z
 _atom_site_occupancy
  Ba  Ba0  1  0.750000  0.173559  0.581327  1
  Ba  Ba1  1  0.250000  0.826441  0.418673  1
  Ba  Ba2  1  0.750000  0.673559  0.918673  1
  Ba  Ba3  1  0.250000  0.326441  0.081327  1
  Ba  Ba4  1  0.250000  0.028273  0.790755  1
  Ba  Ba5  1  0.750000  0.971727  0.209245  1
  Ba  Ba6  1  0.250000  0.528273  0.709245  1
  Ba  Ba7  1  0.750000  0.471727  0.290755  1
  Tc  Tc8  1  0.250000  0.324403  0.435969  1
  Tc  Tc9  1  0.750000  0.675597  0.564031  1
  Tc  Tc10  1  0.250000  0.824403  0.064031  1
  Tc  Tc11  1  0.750000  0.175597  0.935969  1
  O  O12  1  0.487287  0.672671  0.115656  1
  O  O13  1  0.987287  0.327329  0.884344  1
  O  O14  1  0.012713  0.172671  0.384344  1
  O  O15  1  0.512713  0.827329  0.615656  1
  O  O16  1  0.512713  0.327329  0.884344  1
  O  O17  1  0.012713  0.672671  0.115656  1
  O  O18  1  0.987287  0.827329  0.615656  1
  O  O19  1  0.487287  0.172671  0.384344  1
  O  O20  1  0.750000  0.276272  0.090967  1
  O  O21  1  0.250000  0.723728  0.909033  1
  O  O22  1  0.750000  0.776272  0.409033  1
  O  O23  1  0.250000  0.223728  0.590967  1
  O  O24  1  0.000000  0.500000  0.500000  1
  O  O25  1  0.500000  0.500000  0.500000  1
  O  O26  1  0.500000  0.000000  0.000000  1
  O  O27  1  0.000000  0.000000  0.000000  1
  O  O28  1  0.250000  0.475693  0.307757  1
  O  O29  1  0.750000  0.524307  0.692243  1
  O  O30  1  0.250000  0.975693  0.192243  1
  O  O31  1  0.750000  0.024307  0.807757  1
