# generated using pymatgen
data_La8Zn3Ga5Rh8
_symmetry_space_group_name_H-M   'P 1'
_cell_length_a   4.07998000
_cell_length_b   7.51575267
_cell_length_c   16.52904787
_cell_angle_alpha   89.85985380
_cell_angle_beta   90.00000000
_cell_angle_gamma   90.00000000
_symmetry_Int_Tables_number   1
_chemical_formula_structural   La8Zn3Ga5Rh8
_chemical_formula_sum   'La8 Zn3 Ga5 Rh8'
_cell_volume   506.84720064
_cell_formula_units_Z   1
loop_
 _symmetry_equiv_pos_site_id
 _symmetry_equiv_pos_as_xyz
  1  'x, y, z'
loop_
 _atom_site_type_symbol
 _atom_site_label
 _atom_site_symmetry_multiplicity
 _atom_site_fract_x
 _atom_site_fract_y
 _atom_site_fract_z
 _atom_site_occupancy
  La  La0  1  0.250000  0.534376  0.782035  1
  La  La1  1  0.750000  0.465067  0.218417  1
  La  La2  1  0.750000  0.965874  0.282796  1
  La  La3  1  0.250000  0.033532  0.717766  1
  La  La4  1  0.250000  0.669213  0.557752  1
  La  La5  1  0.750000  0.329505  0.442506  1
  La  La6  1  0.750000  0.829534  0.058043  1
  La  La7  1  0.250000  0.168481  0.941744  1
  Zn  Zn8  1  0.750000  0.495137  0.938352  1
  Zn  Zn9  1  0.750000  0.994375  0.559754  1
  Zn  Zn10  1  0.250000  0.006195  0.441311  1
  Ga  Ga11  1  0.250000  0.633907  0.349949  1
  Ga  Ga12  1  0.750000  0.366303  0.650145  1
  Ga  Ga13  1  0.750000  0.865292  0.849728  1
  Ga  Ga14  1  0.250000  0.131911  0.150683  1
  Ga  Ga15  1  0.250000  0.504869  0.060509  1
  Rh  Rh16  1  0.250000  0.763280  0.180704  1
  Rh  Rh17  1  0.750000  0.231740  0.816850  1
  Rh  Rh18  1  0.750000  0.731685  0.683775  1
  Rh  Rh19  1  0.250000  0.269827  0.317160  1
  Rh  Rh20  1  0.250000  0.734479  0.928674  1
  Rh  Rh21  1  0.750000  0.271650  0.071538  1
  Rh  Rh22  1  0.750000  0.764405  0.428322  1
  Rh  Rh23  1  0.250000  0.239362  0.571487  1
