# generated using pymatgen
data_Er8Zr5Si16W7
_symmetry_space_group_name_H-M   'P 1'
_cell_length_a   7.04256937
_cell_length_b   7.03891436
_cell_length_c   12.98783322
_cell_angle_alpha   89.78539261
_cell_angle_beta   90.06683155
_cell_angle_gamma   90.07420290
_symmetry_Int_Tables_number   1
_chemical_formula_structural   Er8Zr5Si16W7
_chemical_formula_sum   'Er8 Zr5 Si16 W7'
_cell_volume   643.82793185
_cell_formula_units_Z   1
loop_
 _symmetry_equiv_pos_site_id
 _symmetry_equiv_pos_as_xyz
  1  'x, y, z'
loop_
 _atom_site_type_symbol
 _atom_site_label
 _atom_site_symmetry_multiplicity
 _atom_site_fract_x
 _atom_site_fract_y
 _atom_site_fract_z
 _atom_site_occupancy
  Er  Er0  1  0.346641  0.997170  0.468389  1
  Er  Er1  1  0.501607  0.845879  0.720169  1
  Er  Er2  1  0.496285  0.153576  0.213893  1
  Er  Er3  1  0.839941  0.495165  0.282438  1
  Er  Er4  1  0.160330  0.502859  0.781625  1
  Er  Er5  1  0.654897  0.002655  0.967578  1
  Er  Er6  1  0.003954  0.340024  0.535726  1
  Er  Er7  1  0.998626  0.659256  0.030571  1
  Zr  Zr8  1  0.651957  0.499805  0.876016  1
  Zr  Zr9  1  0.347916  0.498258  0.376896  1
  Zr  Zr10  1  0.843184  0.992325  0.375984  1
  Zr  Zr11  1  0.000069  0.147656  0.125149  1
  Zr  Zr12  1  0.997042  0.848479  0.626497  1
  Si  Si13  1  0.211505  0.136650  0.683967  1
  Si  Si14  1  0.362041  0.711762  0.931766  1
  Si  Si15  1  0.640070  0.300353  0.440156  1
  Si  Si16  1  0.693884  0.371992  0.070644  1
  Si  Si17  1  0.310239  0.631761  0.571887  1
  Si  Si18  1  0.784048  0.857290  0.178140  1
  Si  Si19  1  0.140286  0.193738  0.316168  1
  Si  Si20  1  0.872121  0.810014  0.822015  1
  Si  Si21  1  0.295527  0.952036  0.062623  1
  Si  Si22  1  0.539054  0.792662  0.310387  1
  Si  Si23  1  0.452415  0.206234  0.815016  1
  Si  Si24  1  0.790299  0.541348  0.681272  1
  Si  Si25  1  0.206958  0.456753  0.180960  1
  Si  Si26  1  0.702710  0.053980  0.569780  1
  Si  Si27  1  0.959329  0.292187  0.930900  1
  Si  Si28  1  0.046714  0.699730  0.432361  1
  W  W29  1  0.327932  0.332108  0.997447  1
  W  W30  1  0.170993  0.821707  0.245524  1
  W  W31  1  0.831572  0.174568  0.750229  1
  W  W32  1  0.671440  0.669122  0.499231  1
  W  W33  1  0.157898  0.010476  0.876706  1
  W  W34  1  0.486035  0.653605  0.122971  1
  W  W35  1  0.504480  0.346819  0.628919  1
