# generated using pymatgen
data_DyY3Lu4(B6Ru)4
_symmetry_space_group_name_H-M   'P 1'
_cell_length_a   3.62248000
_cell_length_b   9.07368600
_cell_length_c   11.45995501
_cell_angle_alpha   89.99604888
_cell_angle_beta   90.00000000
_cell_angle_gamma   90.00000000
_symmetry_Int_Tables_number   1
_chemical_formula_structural   DyY3Lu4(B6Ru)4
_chemical_formula_sum   'Dy1 Y3 Lu4 B24 Ru4'
_cell_volume   376.68008034
_cell_formula_units_Z   1
loop_
 _symmetry_equiv_pos_site_id
 _symmetry_equiv_pos_as_xyz
  1  'x, y, z'
loop_
 _atom_site_type_symbol
 _atom_site_label
 _atom_site_symmetry_multiplicity
 _atom_site_fract_x
 _atom_site_fract_y
 _atom_site_fract_z
 _atom_site_occupancy
  Dy  Dy0  1  0.000000  0.178593  0.914327  1
  Y  Y1  1  0.000000  0.321254  0.414319  1
  Y  Y2  1  0.000000  0.678702  0.585828  1
  Y  Y3  1  0.000000  0.821332  0.085555  1
  Lu  Lu4  1  0.000000  0.943864  0.372190  1
  Lu  Lu5  1  0.000000  0.056194  0.627782  1
  Lu  Lu6  1  0.000000  0.443744  0.127329  1
  Lu  Lu7  1  0.000000  0.556196  0.872541  1
  B  B8  1  0.500000  0.554502  0.432731  1
  B  B9  1  0.500000  0.445167  0.567617  1
  B  B10  1  0.500000  0.054922  0.066810  1
  B  B11  1  0.500000  0.945793  0.932738  1
  B  B12  1  0.500000  0.749904  0.418937  1
  B  B13  1  0.500000  0.249961  0.581393  1
  B  B14  1  0.500000  0.249806  0.080420  1
  B  B15  1  0.500000  0.750383  0.919118  1
  B  B16  1  0.500000  0.791796  0.265499  1
  B  B17  1  0.500000  0.208003  0.734829  1
  B  B18  1  0.500000  0.291710  0.233778  1
  B  B19  1  0.500000  0.708361  0.765959  1
  B  B20  1  0.500000  0.630321  0.184015  1
  B  B21  1  0.500000  0.369265  0.816218  1
  B  B22  1  0.500000  0.130425  0.315514  1
  B  B23  1  0.500000  0.869895  0.684459  1
  B  B24  1  0.500000  0.982901  0.213158  1
  B  B25  1  0.500000  0.017521  0.786825  1
  B  B26  1  0.500000  0.482630  0.286211  1
  B  B27  1  0.500000  0.517018  0.713959  1
  B  B28  1  0.500000  0.603945  0.028361  1
  B  B29  1  0.500000  0.395756  0.971431  1
  B  B30  1  0.500000  0.103669  0.471622  1
  B  B31  1  0.500000  0.896480  0.528414  1
  Ru  Ru32  1  0.000000  0.638508  0.319861  1
  Ru  Ru33  1  0.000000  0.361151  0.680485  1
  Ru  Ru34  1  0.000000  0.138584  0.179605  1
  Ru  Ru35  1  0.000000  0.861742  0.820163  1
