# generated using pymatgen
data_Rb4Gd6SiBr18
_symmetry_space_group_name_H-M   'P 1'
_cell_length_a   11.31076877
_cell_length_b   11.52823889
_cell_length_c   11.63507500
_cell_angle_alpha   118.54680758
_cell_angle_beta   100.34938113
_cell_angle_gamma   104.03439051
_symmetry_Int_Tables_number   1
_chemical_formula_structural   Rb4Gd6SiBr18
_chemical_formula_sum   'Rb4 Gd6 Si1 Br18'
_cell_volume   1212.67725314
_cell_formula_units_Z   1
loop_
 _symmetry_equiv_pos_site_id
 _symmetry_equiv_pos_as_xyz
  1  'x, y, z'
loop_
 _atom_site_type_symbol
 _atom_site_label
 _atom_site_symmetry_multiplicity
 _atom_site_fract_x
 _atom_site_fract_y
 _atom_site_fract_z
 _atom_site_occupancy
  Rb  Rb0  1  0.656900  0.537463  0.229044  1
  Rb  Rb1  1  0.343100  0.462537  0.770956  1
  Rb  Rb2  1  0.694382  0.229595  0.566795  1
  Rb  Rb3  1  0.305618  0.770405  0.433205  1
  Gd  Gd4  1  0.173111  0.065448  0.262774  1
  Gd  Gd5  1  0.826889  0.934552  0.737226  1
  Gd  Gd6  1  0.841803  0.143549  0.150837  1
  Gd  Gd7  1  0.158197  0.856451  0.849163  1
  Gd  Gd8  1  0.165205  0.271133  0.050564  1
  Gd  Gd9  1  0.834795  0.728867  0.949436  1
  Si  Si10  1  0.000000  0.000000  0.000000  1
  Br  Br11  1  0.010473  0.407582  0.196676  1
  Br  Br12  1  0.989527  0.592418  0.803324  1
  Br  Br13  1  0.328578  0.332625  0.309271  1
  Br  Br14  1  0.671422  0.667375  0.690729  1
  Br  Br15  1  0.335516  0.531501  0.104643  1
  Br  Br16  1  0.664484  0.468499  0.895357  1
  Br  Br17  1  0.006136  0.797800  0.209036  1
  Br  Br18  1  0.993864  0.202200  0.790964  1
  Br  Br19  1  0.698004  0.282803  0.296791  1
  Br  Br20  1  0.301996  0.717197  0.703209  1
  Br  Br21  1  0.314632  0.127127  0.904116  1
  Br  Br22  1  0.685368  0.872873  0.095884  1
  Br  Br23  1  0.016778  0.203013  0.405247  1
  Br  Br24  1  0.983222  0.796987  0.594753  1
  Br  Br25  1  0.318146  0.922374  0.109259  1
  Br  Br26  1  0.681854  0.077626  0.890741  1
  Br  Br27  1  0.346269  0.125176  0.512068  1
  Br  Br28  1  0.653731  0.874824  0.487932  1
