# generated using pymatgen
data_Dy19ErBi12
_symmetry_space_group_name_H-M   'P 1'
_cell_length_a   8.26665725
_cell_length_b   9.52638202
_cell_length_c   12.05355336
_cell_angle_alpha   89.99783764
_cell_angle_beta   90.02779090
_cell_angle_gamma   90.00606036
_symmetry_Int_Tables_number   1
_chemical_formula_structural   Dy19ErBi12
_chemical_formula_sum   'Dy19 Er1 Bi12'
_cell_volume   949.23330062
_cell_formula_units_Z   1
loop_
 _symmetry_equiv_pos_site_id
 _symmetry_equiv_pos_as_xyz
  1  'x, y, z'
loop_
 _atom_site_type_symbol
 _atom_site_label
 _atom_site_symmetry_multiplicity
 _atom_site_fract_x
 _atom_site_fract_y
 _atom_site_fract_z
 _atom_site_occupancy
  Dy  Dy0  1  0.352706  0.749811  0.215128  1
  Dy  Dy1  1  0.852349  0.749831  0.284691  1
  Dy  Dy2  1  0.647369  0.249947  0.784739  1
  Dy  Dy3  1  0.147397  0.250002  0.715252  1
  Dy  Dy4  1  0.192591  0.936119  0.441527  1
  Dy  Dy5  1  0.307399  0.063898  0.941526  1
  Dy  Dy6  1  0.807364  0.436186  0.558481  1
  Dy  Dy7  1  0.307282  0.436199  0.941514  1
  Dy  Dy8  1  0.807390  0.063863  0.558478  1
  Dy  Dy9  1  0.692736  0.935828  0.058444  1
  Dy  Dy10  1  0.192620  0.563899  0.441544  1
  Dy  Dy11  1  0.475158  0.249873  0.488123  1
  Dy  Dy12  1  0.975029  0.250020  0.011840  1
  Dy  Dy13  1  0.524779  0.750057  0.511864  1
  Dy  Dy14  1  0.024452  0.749909  0.988225  1
  Dy  Dy15  1  0.312542  0.250017  0.218684  1
  Dy  Dy16  1  0.812613  0.249981  0.281335  1
  Dy  Dy17  1  0.687408  0.749909  0.781419  1
  Dy  Dy18  1  0.187428  0.750003  0.718701  1
  Er  Er19  1  0.692788  0.564243  0.058335  1
  Bi  Bi20  1  0.407629  0.749764  0.956881  1
  Bi  Bi21  1  0.907324  0.750015  0.543213  1
  Bi  Bi22  1  0.592878  0.250748  0.043324  1
  Bi  Bi23  1  0.092676  0.250016  0.456764  1
  Bi  Bi24  1  0.564822  0.995535  0.325192  1
  Bi  Bi25  1  0.064670  0.504444  0.174711  1
  Bi  Bi26  1  0.435266  0.495545  0.674882  1
  Bi  Bi27  1  0.935184  0.004395  0.825213  1
  Bi  Bi28  1  0.435240  0.004416  0.674821  1
  Bi  Bi29  1  0.935228  0.495527  0.825301  1
  Bi  Bi30  1  0.564891  0.504458  0.325083  1
  Bi  Bi31  1  0.064788  0.995543  0.174767  1
