# generated using pymatgen
data_Y2Mn3Fe9P7
_symmetry_space_group_name_H-M   'P 1'
_cell_length_a   9.07389800
_cell_length_b   9.07389871
_cell_length_c   3.63982700
_cell_angle_alpha   90.00000000
_cell_angle_beta   90.00000000
_cell_angle_gamma   119.99999741
_symmetry_Int_Tables_number   1
_chemical_formula_structural   Y2Mn3Fe9P7
_chemical_formula_sum   'Y2 Mn3 Fe9 P7'
_cell_volume   259.53695522
_cell_formula_units_Z   1
loop_
 _symmetry_equiv_pos_site_id
 _symmetry_equiv_pos_as_xyz
  1  'x, y, z'
loop_
 _atom_site_type_symbol
 _atom_site_label
 _atom_site_symmetry_multiplicity
 _atom_site_fract_x
 _atom_site_fract_y
 _atom_site_fract_z
 _atom_site_occupancy
  Y  Y0  1  0.666667  0.333333  0.000000  1
  Y  Y1  1  0.333333  0.666667  0.500000  1
  Mn  Mn2  1  0.101460  0.884838  0.500000  1
  Mn  Mn3  1  0.783377  0.898540  0.500000  1
  Mn  Mn4  1  0.115162  0.216623  0.500000  1
  Fe  Fe5  1  0.055182  0.630363  0.000000  1
  Fe  Fe6  1  0.575181  0.944818  0.000000  1
  Fe  Fe7  1  0.369637  0.424819  0.000000  1
  Fe  Fe8  1  0.275290  0.119641  0.000000  1
  Fe  Fe9  1  0.844350  0.724710  0.000000  1
  Fe  Fe10  1  0.880359  0.155650  0.000000  1
  Fe  Fe11  1  0.433291  0.048498  0.500000  1
  Fe  Fe12  1  0.615207  0.566709  0.500000  1
  Fe  Fe13  1  0.951502  0.384793  0.500000  1
  P  P14  1  0.301191  0.887908  0.000000  1
  P  P15  1  0.586718  0.698809  0.000000  1
  P  P16  1  0.112092  0.413282  0.000000  1
  P  P17  1  0.406441  0.289566  0.500000  1
  P  P18  1  0.883125  0.593559  0.500000  1
  P  P19  1  0.710434  0.116875  0.500000  1
  P  P20  1  0.000000  0.000000  0.000000  1
