# generated using pymatgen
data_Rb2Zr(WO4)3
_symmetry_space_group_name_H-M   'P 1'
_cell_length_a   7.43031876
_cell_length_b   7.43031908
_cell_length_c   7.53512130
_cell_angle_alpha   60.50442106
_cell_angle_beta   60.50441877
_cell_angle_gamma   59.99000941
_symmetry_Int_Tables_number   1
_chemical_formula_structural   Rb2Zr(WO4)3
_chemical_formula_sum   'Rb2 Zr1 W3 O12'
_cell_volume   296.36459753
_cell_formula_units_Z   1
loop_
 _symmetry_equiv_pos_site_id
 _symmetry_equiv_pos_as_xyz
  1  'x, y, z'
loop_
 _atom_site_type_symbol
 _atom_site_label
 _atom_site_symmetry_multiplicity
 _atom_site_fract_x
 _atom_site_fract_y
 _atom_site_fract_z
 _atom_site_occupancy
  Rb  Rb0  1  0.889247  0.838044  0.888280  1
  Rb  Rb1  1  0.161956  0.110753  0.111720  1
  Zr  Zr2  1  0.502412  0.497588  0.000000  1
  W  W3  1  0.502374  0.997399  0.499856  1
  W  W4  1  0.002601  0.497626  0.500144  1
  W  W5  1  0.501923  0.498077  0.500000  1
  O  O6  1  0.192131  0.190964  0.553571  1
  O  O7  1  0.564256  0.567308  0.199820  1
  O  O8  1  0.564076  0.167928  0.200265  1
  O  O9  1  0.192111  0.563475  0.553120  1
  O  O10  1  0.169670  0.564953  0.199819  1
  O  O11  1  0.563147  0.191278  0.553943  1
  O  O12  1  0.809036  0.807869  0.446429  1
  O  O13  1  0.432692  0.435744  0.800180  1
  O  O14  1  0.435047  0.830330  0.800181  1
  O  O15  1  0.808722  0.436853  0.446057  1
  O  O16  1  0.832072  0.435924  0.799735  1
  O  O17  1  0.436525  0.807889  0.446880  1
