# generated using pymatgen
data_La3Ho(ZnSi3)2
_symmetry_space_group_name_H-M   'P 1'
_cell_length_a   4.25576200
_cell_length_b   4.26028900
_cell_length_c   14.05725000
_cell_angle_alpha   90.00000000
_cell_angle_beta   90.00000000
_cell_angle_gamma   90.00000000
_symmetry_Int_Tables_number   1
_chemical_formula_structural   La3Ho(ZnSi3)2
_chemical_formula_sum   'La3 Ho1 Zn2 Si6'
_cell_volume   254.86885142
_cell_formula_units_Z   1
loop_
 _symmetry_equiv_pos_site_id
 _symmetry_equiv_pos_as_xyz
  1  'x, y, z'
loop_
 _atom_site_type_symbol
 _atom_site_label
 _atom_site_symmetry_multiplicity
 _atom_site_fract_x
 _atom_site_fract_y
 _atom_site_fract_z
 _atom_site_occupancy
  La  La0  1  0.000000  0.000000  0.505293  1
  La  La1  1  0.500000  0.000000  0.748855  1
  La  La2  1  0.000000  0.500000  0.243190  1
  Ho  Ho3  1  0.500000  0.500000  0.005008  1
  Zn  Zn4  1  0.000000  0.000000  0.917270  1
  Zn  Zn5  1  0.500000  0.500000  0.415036  1
  Si  Si6  1  0.000000  0.500000  0.836639  1
  Si  Si7  1  0.500000  0.000000  0.330454  1
  Si  Si8  1  0.000000  0.000000  0.081907  1
  Si  Si9  1  0.500000  0.500000  0.585885  1
  Si  Si10  1  0.500000  0.000000  0.162149  1
  Si  Si11  1  0.000000  0.500000  0.668314  1
