# generated using pymatgen
data_TmSn5SbRu4
_symmetry_space_group_name_H-M   'P 1'
_cell_length_a   6.96329515
_cell_length_b   6.96329502
_cell_length_c   6.96329586
_cell_angle_alpha   120.51915896
_cell_angle_beta   121.30514996
_cell_angle_gamma   88.42862264
_symmetry_Int_Tables_number   1
_chemical_formula_structural   TmSn5SbRu4
_chemical_formula_sum   'Tm1 Sn5 Sb1 Ru4'
_cell_volume   235.34036064
_cell_formula_units_Z   1
loop_
 _symmetry_equiv_pos_site_id
 _symmetry_equiv_pos_as_xyz
  1  'x, y, z'
loop_
 _atom_site_type_symbol
 _atom_site_label
 _atom_site_symmetry_multiplicity
 _atom_site_fract_x
 _atom_site_fract_y
 _atom_site_fract_z
 _atom_site_occupancy
  Tm  Tm0  1  0.000000  0.000000  0.000000  1
  Sn  Sn1  1  0.463363  0.465087  0.345418  1
  Sn  Sn2  1  0.536637  0.882056  0.001724  1
  Sn  Sn3  1  0.880331  0.534913  0.998276  1
  Sn  Sn4  1  0.119669  0.117944  0.654582  1
  Sn  Sn5  1  0.500000  0.000000  0.500000  1
  Sb  Sb6  1  0.000000  0.500000  0.500000  1
  Ru  Ru7  1  0.398122  0.401938  0.648128  1
  Ru  Ru8  1  0.753811  0.749995  0.351872  1
  Ru  Ru9  1  0.246189  0.598062  0.996184  1
  Ru  Ru10  1  0.601878  0.250005  0.003816  1
