# generated using pymatgen
data_HoEr2Lu4CoI12
_symmetry_space_group_name_H-M   'P 1'
_cell_length_a   9.64218429
_cell_length_b   9.69386492
_cell_length_c   9.67816612
_cell_angle_alpha   106.88077145
_cell_angle_beta   106.76178214
_cell_angle_gamma   106.94007434
_symmetry_Int_Tables_number   1
_chemical_formula_structural   HoEr2Lu4CoI12
_chemical_formula_sum   'Ho1 Er2 Lu4 Co1 I12'
_cell_volume   756.21442182
_cell_formula_units_Z   1
loop_
 _symmetry_equiv_pos_site_id
 _symmetry_equiv_pos_as_xyz
  1  'x, y, z'
loop_
 _atom_site_type_symbol
 _atom_site_label
 _atom_site_symmetry_multiplicity
 _atom_site_fract_x
 _atom_site_fract_y
 _atom_site_fract_z
 _atom_site_occupancy
  Ho  Ho0  1  0.978991  0.713339  0.909374  1
  Er  Er1  1  0.499900  0.500213  0.500217  1
  Er  Er2  1  0.909106  0.979409  0.714658  1
  Lu  Lu3  1  0.281899  0.090406  0.021621  1
  Lu  Lu4  1  0.020950  0.280852  0.089993  1
  Lu  Lu5  1  0.089327  0.021500  0.281056  1
  Lu  Lu6  1  0.718510  0.911374  0.979710  1
  Co  Co7  1  0.999915  0.999805  0.999721  1
  I  I8  1  0.461568  0.160775  0.385622  1
  I  I9  1  0.385719  0.461870  0.160917  1
  I  I10  1  0.160866  0.385977  0.462211  1
  I  I11  1  0.537319  0.839486  0.614896  1
  I  I12  1  0.612959  0.538511  0.839794  1
  I  I13  1  0.839088  0.613845  0.536512  1
  I  I14  1  0.325799  0.779052  0.930692  1
  I  I15  1  0.929895  0.323617  0.777852  1
  I  I16  1  0.777157  0.929973  0.322713  1
  I  I17  1  0.675956  0.222460  0.069971  1
  I  I18  1  0.070732  0.676868  0.225346  1
  I  I19  1  0.224344  0.070668  0.677123  1
