# generated using pymatgen
data_Pr4Hf3RhF28
_symmetry_space_group_name_H-M   'P 1'
_cell_length_a   5.79350911
_cell_length_b   9.30084597
_cell_length_c   12.48434600
_cell_angle_alpha   62.02179860
_cell_angle_beta   89.96452582
_cell_angle_gamma   89.93203037
_symmetry_Int_Tables_number   1
_chemical_formula_structural   Pr4Hf3RhF28
_chemical_formula_sum   'Pr4 Hf3 Rh1 F28'
_cell_volume   594.09018493
_cell_formula_units_Z   1
loop_
 _symmetry_equiv_pos_site_id
 _symmetry_equiv_pos_as_xyz
  1  'x, y, z'
loop_
 _atom_site_type_symbol
 _atom_site_label
 _atom_site_symmetry_multiplicity
 _atom_site_fract_x
 _atom_site_fract_y
 _atom_site_fract_z
 _atom_site_occupancy
  Pr  Pr0  1  0.758080  0.813041  0.764576  1
  Pr  Pr1  1  0.257339  0.188867  0.731398  1
  Pr  Pr2  1  0.240989  0.188310  0.239080  1
  Pr  Pr3  1  0.742768  0.810322  0.266180  1
  Hf  Hf4  1  0.754491  0.273576  0.957577  1
  Hf  Hf5  1  0.255122  0.725354  0.543199  1
  Hf  Hf6  1  0.245359  0.725869  0.042942  1
  Rh  Rh7  1  0.742336  0.273991  0.456266  1
  F  F8  1  0.452092  0.710406  0.920094  1
  F  F9  1  0.929539  0.291143  0.580099  1
  F  F10  1  0.545072  0.288178  0.079993  1
  F  F11  1  0.050195  0.711367  0.419578  1
  F  F12  1  0.458549  0.282031  0.539731  1
  F  F13  1  0.957381  0.718725  0.954633  1
  F  F14  1  0.543632  0.715989  0.456385  1
  F  F15  1  0.039867  0.280493  0.047700  1
  F  F16  1  0.769927  0.516948  0.862170  1
  F  F17  1  0.266866  0.482123  0.637338  1
  F  F18  1  0.228354  0.482916  0.139256  1
  F  F19  1  0.734322  0.509338  0.362639  1
  F  F20  1  0.760867  0.030209  0.055535  1
  F  F21  1  0.262448  0.968398  0.446993  1
  F  F22  1  0.238677  0.968762  0.943307  1
  F  F23  1  0.741427  0.038513  0.547601  1
  F  F24  1  0.978906  0.731049  0.638133  1
  F  F25  1  0.482494  0.268393  0.859932  1
  F  F26  1  0.021433  0.271281  0.368862  1
  F  F27  1  0.520362  0.730680  0.138705  1
  F  F28  1  0.048427  0.745022  0.168596  1
  F  F29  1  0.557443  0.259918  0.330242  1
  F  F30  1  0.956680  0.255775  0.832539  1
  F  F31  1  0.453851  0.743101  0.668951  1
  F  F32  1  0.411554  0.967681  0.232950  1
  F  F33  1  0.911425  0.031693  0.270056  1
  F  F34  1  0.589923  0.034379  0.767870  1
  F  F35  1  0.091802  0.966158  0.728897  1
