# generated using pymatgen
data_Dy7YTi3Si16W9
_symmetry_space_group_name_H-M   'P 1'
_cell_length_a   6.90889069
_cell_length_b   6.90911166
_cell_length_c   12.82012313
_cell_angle_alpha   90.04023406
_cell_angle_beta   89.96804512
_cell_angle_gamma   89.91447726
_symmetry_Int_Tables_number   1
_chemical_formula_structural   Dy7YTi3Si16W9
_chemical_formula_sum   'Dy7 Y1 Ti3 Si16 W9'
_cell_volume   611.95863954
_cell_formula_units_Z   1
loop_
 _symmetry_equiv_pos_site_id
 _symmetry_equiv_pos_as_xyz
  1  'x, y, z'
loop_
 _atom_site_type_symbol
 _atom_site_label
 _atom_site_symmetry_multiplicity
 _atom_site_fract_x
 _atom_site_fract_y
 _atom_site_fract_z
 _atom_site_occupancy
  Dy  Dy0  1  0.000501  0.339303  0.531247  1
  Dy  Dy1  1  0.661211  0.998534  0.968468  1
  Dy  Dy2  1  0.162653  0.502655  0.780908  1
  Dy  Dy3  1  0.837320  0.500837  0.282639  1
  Dy  Dy4  1  0.502805  0.162683  0.219082  1
  Dy  Dy5  1  0.500886  0.837427  0.717442  1
  Dy  Dy6  1  0.339373  0.000589  0.468856  1
  Y  Y7  1  0.998229  0.661503  0.031471  1
  Ti  Ti8  1  0.829839  0.167727  0.748420  1
  Ti  Ti9  1  0.167807  0.829981  0.251630  1
  Ti  Ti10  1  0.331652  0.331012  0.999950  1
  Si  Si11  1  0.036318  0.710932  0.437776  1
  Si  Si12  1  0.959367  0.290240  0.935990  1
  Si  Si13  1  0.710929  0.036383  0.562217  1
  Si  Si14  1  0.208617  0.460334  0.186319  1
  Si  Si15  1  0.790917  0.540351  0.685845  1
  Si  Si16  1  0.460720  0.208203  0.813862  1
  Si  Si17  1  0.540531  0.790927  0.314174  1
  Si  Si18  1  0.290789  0.959789  0.063919  1
  Si  Si19  1  0.799100  0.871948  0.183427  1
  Si  Si20  1  0.301541  0.625910  0.566558  1
  Si  Si21  1  0.700982  0.371575  0.066499  1
  Si  Si22  1  0.625926  0.301499  0.433485  1
  Si  Si23  1  0.372205  0.701428  0.933421  1
  Si  Si24  1  0.127245  0.203266  0.315955  1
  Si  Si25  1  0.203303  0.127278  0.684062  1
  Si  Si26  1  0.871501  0.799536  0.816671  1
  W  W27  1  0.334233  0.505866  0.374858  1
  W  W28  1  0.841142  0.997372  0.373408  1
  W  W29  1  0.006113  0.160875  0.125573  1
  W  W30  1  0.997264  0.841228  0.626591  1
  W  W31  1  0.505850  0.334217  0.625145  1
  W  W32  1  0.160999  0.006449  0.874277  1
  W  W33  1  0.667970  0.667858  0.499973  1
  W  W34  1  0.494131  0.660230  0.124927  1
  W  W35  1  0.660032  0.494057  0.874952  1
