# generated using pymatgen
data_Sr2LiInPt2
_symmetry_space_group_name_H-M   'P 1'
_cell_length_a   4.45472400
_cell_length_b   7.57709700
_cell_length_c   8.65667100
_cell_angle_alpha   90.00000000
_cell_angle_beta   90.00000000
_cell_angle_gamma   90.00000000
_symmetry_Int_Tables_number   1
_chemical_formula_structural   Sr2LiInPt2
_chemical_formula_sum   'Sr4 Li2 In2 Pt4'
_cell_volume   292.19619826
_cell_formula_units_Z   2
loop_
 _symmetry_equiv_pos_site_id
 _symmetry_equiv_pos_as_xyz
  1  'x, y, z'
loop_
 _atom_site_type_symbol
 _atom_site_label
 _atom_site_symmetry_multiplicity
 _atom_site_fract_x
 _atom_site_fract_y
 _atom_site_fract_z
 _atom_site_occupancy
  Sr  Sr0  1  0.750000  0.976226  0.681716  1
  Sr  Sr1  1  0.250000  0.035591  0.320320  1
  Sr  Sr2  1  0.750000  0.464409  0.820320  1
  Sr  Sr3  1  0.250000  0.523774  0.181716  1
  Li  Li4  1  0.750000  0.371365  0.440971  1
  Li  Li5  1  0.250000  0.128635  0.940971  1
  In  In6  1  0.250000  0.640963  0.564600  1
  In  In7  1  0.750000  0.859037  0.064600  1
  Pt  Pt8  1  0.250000  0.769267  0.877619  1
  Pt  Pt9  1  0.250000  0.278072  0.614774  1
  Pt  Pt10  1  0.750000  0.730733  0.377619  1
  Pt  Pt11  1  0.750000  0.221928  0.114774  1
