# generated using pymatgen
data_Er8Th4Tc3Ir
_symmetry_space_group_name_H-M   'P 1'
_cell_length_a   6.33750188
_cell_length_b   7.29958191
_cell_length_c   9.45247200
_cell_angle_alpha   90.00000000
_cell_angle_beta   90.00000000
_cell_angle_gamma   89.89657266
_symmetry_Int_Tables_number   1
_chemical_formula_structural   Er8Th4Tc3Ir
_chemical_formula_sum   'Er8 Th4 Tc3 Ir1'
_cell_volume   437.28117302
_cell_formula_units_Z   1
loop_
 _symmetry_equiv_pos_site_id
 _symmetry_equiv_pos_as_xyz
  1  'x, y, z'
loop_
 _atom_site_type_symbol
 _atom_site_label
 _atom_site_symmetry_multiplicity
 _atom_site_fract_x
 _atom_site_fract_y
 _atom_site_fract_z
 _atom_site_occupancy
  Er  Er0  1  0.329918  0.674469  0.067090  1
  Er  Er1  1  0.165366  0.175664  0.432680  1
  Er  Er2  1  0.662265  0.325907  0.565049  1
  Er  Er3  1  0.836435  0.824586  0.933818  1
  Er  Er4  1  0.662265  0.325907  0.934951  1
  Er  Er5  1  0.836435  0.824586  0.566182  1
  Er  Er6  1  0.329918  0.674469  0.432910  1
  Er  Er7  1  0.165366  0.175664  0.067320  1
  Th  Th8  1  0.855680  0.548348  0.250000  1
  Th  Th9  1  0.638844  0.045267  0.250000  1
  Th  Th10  1  0.143666  0.450471  0.750000  1
  Th  Th11  1  0.351093  0.958948  0.750000  1
  Tc  Tc12  1  0.019351  0.869314  0.250000  1
  Tc  Tc13  1  0.481066  0.370522  0.250000  1
  Tc  Tc14  1  0.975720  0.130641  0.750000  1
  Ir  Ir15  1  0.546612  0.625240  0.750000  1
