# generated using pymatgen
data_Ho2Pa2Tc7Os
_symmetry_space_group_name_H-M   'P 1'
_cell_length_a   5.23174200
_cell_length_b   5.23174109
_cell_length_c   9.29297800
_cell_angle_alpha   90.00000000
_cell_angle_beta   90.00000000
_cell_angle_gamma   119.99999313
_symmetry_Int_Tables_number   1
_chemical_formula_structural   Ho2Pa2Tc7Os
_chemical_formula_sum   'Ho2 Pa2 Tc7 Os1'
_cell_volume   220.28155454
_cell_formula_units_Z   1
loop_
 _symmetry_equiv_pos_site_id
 _symmetry_equiv_pos_as_xyz
  1  'x, y, z'
loop_
 _atom_site_type_symbol
 _atom_site_label
 _atom_site_symmetry_multiplicity
 _atom_site_fract_x
 _atom_site_fract_y
 _atom_site_fract_z
 _atom_site_occupancy
  Ho  Ho0  1  0.666667  0.333333  0.935773  1
  Ho  Ho1  1  0.333333  0.666667  0.064227  1
  Pa  Pa2  1  0.333333  0.666667  0.439695  1
  Pa  Pa3  1  0.666667  0.333333  0.560305  1
  Tc  Tc4  1  0.000000  0.000000  0.500000  1
  Tc  Tc5  1  0.829554  0.170446  0.246591  1
  Tc  Tc6  1  0.829554  0.659108  0.246591  1
  Tc  Tc7  1  0.340892  0.170446  0.246591  1
  Tc  Tc8  1  0.170446  0.829554  0.753409  1
  Tc  Tc9  1  0.170446  0.340892  0.753409  1
  Tc  Tc10  1  0.659108  0.829554  0.753409  1
  Os  Os11  1  0.000000  0.000000  0.000000  1
