# generated using pymatgen
data_Yb2Lu3Sb3C
_symmetry_space_group_name_H-M   'P 1'
_cell_length_a   8.82636300
_cell_length_b   8.82636361
_cell_length_c   6.49955600
_cell_angle_alpha   90.00000000
_cell_angle_beta   90.00000000
_cell_angle_gamma   120.00000145
_symmetry_Int_Tables_number   1
_chemical_formula_structural   Yb2Lu3Sb3C
_chemical_formula_sum   'Yb4 Lu6 Sb6 C2'
_cell_volume   438.50839763
_cell_formula_units_Z   2
loop_
 _symmetry_equiv_pos_site_id
 _symmetry_equiv_pos_as_xyz
  1  'x, y, z'
loop_
 _atom_site_type_symbol
 _atom_site_label
 _atom_site_symmetry_multiplicity
 _atom_site_fract_x
 _atom_site_fract_y
 _atom_site_fract_z
 _atom_site_occupancy
  Yb  Yb0  1  0.666667  0.333333  0.500000  1
  Yb  Yb1  1  0.333333  0.666667  0.500000  1
  Yb  Yb2  1  0.333333  0.666667  0.000000  1
  Yb  Yb3  1  0.666667  0.333333  0.000000  1
  Lu  Lu4  1  0.792191  0.792191  0.250000  1
  Lu  Lu5  1  0.207809  0.000000  0.250000  1
  Lu  Lu6  1  0.000000  0.207809  0.250000  1
  Lu  Lu7  1  0.207809  0.207809  0.750000  1
  Lu  Lu8  1  0.792191  0.000000  0.750000  1
  Lu  Lu9  1  0.000000  0.792191  0.750000  1
  Sb  Sb10  1  0.399329  0.399329  0.250000  1
  Sb  Sb11  1  0.600671  0.000000  0.250000  1
  Sb  Sb12  1  0.000000  0.600671  0.250000  1
  Sb  Sb13  1  0.600671  0.600671  0.750000  1
  Sb  Sb14  1  0.399329  0.000000  0.750000  1
  Sb  Sb15  1  0.000000  0.399329  0.750000  1
  C  C16  1  0.000000  0.000000  0.500000  1
  C  C17  1  0.000000  0.000000  0.000000  1
