# generated using pymatgen
data_TbTmMn4Co8P7
_symmetry_space_group_name_H-M   'P 1'
_cell_length_a   9.02867554
_cell_length_b   9.05764546
_cell_length_c   3.61106100
_cell_angle_alpha   90.00000000
_cell_angle_beta   90.00000000
_cell_angle_gamma   119.90141025
_symmetry_Int_Tables_number   1
_chemical_formula_structural   TbTmMn4Co8P7
_chemical_formula_sum   'Tb1 Tm1 Mn4 Co8 P7'
_cell_volume   255.99731837
_cell_formula_units_Z   1
loop_
 _symmetry_equiv_pos_site_id
 _symmetry_equiv_pos_as_xyz
  1  'x, y, z'
loop_
 _atom_site_type_symbol
 _atom_site_label
 _atom_site_symmetry_multiplicity
 _atom_site_fract_x
 _atom_site_fract_y
 _atom_site_fract_z
 _atom_site_occupancy
  Tb  Tb0  1  0.333025  0.667273  0.500000  1
  Tm  Tm1  1  0.667208  0.334520  0.000000  1
  Mn  Mn2  1  0.879725  0.154855  0.000000  1
  Mn  Mn3  1  0.099974  0.876228  0.500000  1
  Mn  Mn4  1  0.773946  0.895822  0.500000  1
  Mn  Mn5  1  0.120592  0.223874  0.500000  1
  Co  Co6  1  0.060224  0.630054  0.000000  1
  Co  Co7  1  0.569165  0.938746  0.000000  1
  Co  Co8  1  0.371920  0.431618  0.000000  1
  Co  Co9  1  0.277762  0.119572  0.000000  1
  Co  Co10  1  0.841387  0.722680  0.000000  1
  Co  Co11  1  0.438784  0.053233  0.500000  1
  Co  Co12  1  0.614930  0.561417  0.500000  1
  Co  Co13  1  0.948155  0.387202  0.500000  1
  P  P14  1  0.297654  0.888852  0.000000  1
  P  P15  1  0.588254  0.698920  0.000000  1
  P  P16  1  0.110946  0.410645  0.000000  1
  P  P17  1  0.406743  0.289423  0.500000  1
  P  P18  1  0.886663  0.597283  0.500000  1
  P  P19  1  0.711800  0.120174  0.500000  1
  P  P20  1  0.001144  0.997612  0.000000  1
