# generated using pymatgen
data_Nb3Co2MoN
_symmetry_space_group_name_H-M   'P 1'
_cell_length_a   8.15673100
_cell_length_b   8.15673064
_cell_length_c   8.15673100
_cell_angle_alpha   119.99999741
_cell_angle_beta   90.00000000
_cell_angle_gamma   119.99999741
_symmetry_Int_Tables_number   1
_chemical_formula_structural   Nb3Co2MoN
_chemical_formula_sum   'Nb12 Co8 Mo4 N4'
_cell_volume   383.73678885
_cell_formula_units_Z   4
loop_
 _symmetry_equiv_pos_site_id
 _symmetry_equiv_pos_as_xyz
  1  'x, y, z'
loop_
 _atom_site_type_symbol
 _atom_site_label
 _atom_site_symmetry_multiplicity
 _atom_site_fract_x
 _atom_site_fract_y
 _atom_site_fract_z
 _atom_site_occupancy
  Nb  Nb0  1  0.814963  0.129925  0.064963  1
  Nb  Nb1  1  0.435038  0.750000  0.064963  1
  Nb  Nb2  1  0.814963  0.750000  0.064963  1
  Nb  Nb3  1  0.185037  0.250000  0.314963  1
  Nb  Nb4  1  0.564963  0.250000  0.314963  1
  Nb  Nb5  1  0.564963  0.629926  0.314963  1
  Nb  Nb6  1  0.435038  0.370075  0.685038  1
  Nb  Nb7  1  0.435038  0.750000  0.685038  1
  Nb  Nb8  1  0.814963  0.750000  0.685038  1
  Nb  Nb9  1  0.185037  0.250000  0.935038  1
  Nb  Nb10  1  0.564963  0.250000  0.935038  1
  Nb  Nb11  1  0.185037  0.870075  0.935038  1
  Co  Co12  1  0.202020  0.904041  0.297978  1
  Co  Co13  1  0.202021  0.595958  0.297979  1
  Co  Co14  1  0.893937  0.595958  0.297979  1
  Co  Co15  1  0.797979  0.095958  0.393937  1
  Co  Co16  1  0.202020  0.904041  0.606063  1
  Co  Co17  1  0.797978  0.095958  0.702021  1
  Co  Co18  1  0.106063  0.404042  0.702022  1
  Co  Co19  1  0.797979  0.404042  0.702022  1
  Mo  Mo20  1  0.000000  0.500000  0.000000  1
  Mo  Mo21  1  0.000000  0.000000  0.500000  1
  Mo  Mo22  1  0.500000  0.000000  0.500000  1
  Mo  Mo23  1  0.000000  0.500000  0.500000  1
  N  N24  1  0.000000  0.000000  0.000000  1
  N  N25  1  0.500000  0.000000  0.000000  1
  N  N26  1  0.500000  0.500000  0.000000  1
  N  N27  1  0.500000  0.500000  0.500000  1
