# generated using pymatgen
data_Cu7GeSe8
_symmetry_space_group_name_H-M   'P 1'
_cell_length_a   5.47553489
_cell_length_b   6.74889876
_cell_length_c   10.39925437
_cell_angle_alpha   77.27482688
_cell_angle_beta   75.05803790
_cell_angle_gamma   66.87082466
_symmetry_Int_Tables_number   1
_chemical_formula_structural   Cu7GeSe8
_chemical_formula_sum   'Cu7 Ge1 Se8'
_cell_volume   338.37815176
_cell_formula_units_Z   1
loop_
 _symmetry_equiv_pos_site_id
 _symmetry_equiv_pos_as_xyz
  1  'x, y, z'
loop_
 _atom_site_type_symbol
 _atom_site_label
 _atom_site_symmetry_multiplicity
 _atom_site_fract_x
 _atom_site_fract_y
 _atom_site_fract_z
 _atom_site_occupancy
  Cu  Cu0  1  0.254167  0.873972  0.625533  1
  Cu  Cu1  1  0.509557  0.248552  0.749543  1
  Cu  Cu2  1  0.487622  0.749022  0.253246  1
  Cu  Cu3  1  0.749250  0.624883  0.872941  1
  Cu  Cu4  1  0.748781  0.120993  0.379229  1
  Cu  Cu5  1  0.988194  0.997671  0.998602  1
  Cu  Cu6  1  0.007097  0.498639  0.502202  1
  Ge  Ge7  1  0.246699  0.375078  0.125204  1
  Se  Se8  1  0.374242  0.695736  0.059689  1
  Se  Se9  1  0.378687  0.189271  0.563488  1
  Se  Se10  1  0.869252  0.440649  0.315997  1
  Se  Se11  1  0.878715  0.936368  0.808293  1
  Se  Se12  1  0.125576  0.310013  0.932961  1
  Se  Se13  1  0.124650  0.815825  0.439346  1
  Se  Se14  1  0.629394  0.565463  0.684024  1
  Se  Se15  1  0.628117  0.057869  0.189702  1
