# generated using pymatgen
data_Ho3Ga2Si3
_symmetry_space_group_name_H-M   'P 1'
_cell_length_a   5.90537918
_cell_length_b   5.90537912
_cell_length_c   9.34496400
_cell_angle_alpha   90.00000000
_cell_angle_beta   90.00000000
_cell_angle_gamma   102.95253382
_symmetry_Int_Tables_number   1
_chemical_formula_structural   Ho3Ga2Si3
_chemical_formula_sum   'Ho6 Ga4 Si6'
_cell_volume   317.59967164
_cell_formula_units_Z   2
loop_
 _symmetry_equiv_pos_site_id
 _symmetry_equiv_pos_as_xyz
  1  'x, y, z'
loop_
 _atom_site_type_symbol
 _atom_site_label
 _atom_site_symmetry_multiplicity
 _atom_site_fract_x
 _atom_site_fract_y
 _atom_site_fract_z
 _atom_site_occupancy
  Ho  Ho0  1  0.658568  0.658568  0.250000  1
  Ho  Ho1  1  0.341432  0.341432  0.750000  1
  Ho  Ho2  1  0.801687  0.198313  0.000000  1
  Ho  Ho3  1  0.198313  0.801687  0.000000  1
  Ho  Ho4  1  0.198313  0.801687  0.500000  1
  Ho  Ho5  1  0.801687  0.198313  0.500000  1
  Ga  Ga6  1  0.319781  0.319781  0.054390  1
  Ga  Ga7  1  0.680219  0.680219  0.945610  1
  Ga  Ga8  1  0.680219  0.680219  0.554390  1
  Ga  Ga9  1  0.319781  0.319781  0.445610  1
  Si  Si10  1  0.093818  0.487595  0.250000  1
  Si  Si11  1  0.906182  0.512405  0.750000  1
  Si  Si12  1  0.487595  0.093818  0.250000  1
  Si  Si13  1  0.512405  0.906182  0.750000  1
  Si  Si14  1  0.053698  0.053698  0.250000  1
  Si  Si15  1  0.946302  0.946302  0.750000  1
