# generated using pymatgen
data_Na6ZnCd32
_symmetry_space_group_name_H-M   'P 1'
_cell_length_a   9.76210400
_cell_length_b   9.76210400
_cell_length_c   9.76210400
_cell_angle_alpha   90.00000000
_cell_angle_beta   90.00000000
_cell_angle_gamma   90.00000000
_symmetry_Int_Tables_number   1
_chemical_formula_structural   Na6ZnCd32
_chemical_formula_sum   'Na6 Zn1 Cd32'
_cell_volume   930.31557160
_cell_formula_units_Z   1
loop_
 _symmetry_equiv_pos_site_id
 _symmetry_equiv_pos_as_xyz
  1  'x, y, z'
loop_
 _atom_site_type_symbol
 _atom_site_label
 _atom_site_symmetry_multiplicity
 _atom_site_fract_x
 _atom_site_fract_y
 _atom_site_fract_z
 _atom_site_occupancy
  Na  Na0  1  0.202248  0.000000  0.500000  1
  Na  Na1  1  0.797752  0.000000  0.500000  1
  Na  Na2  1  0.500000  0.202248  0.000000  1
  Na  Na3  1  0.500000  0.797752  0.000000  1
  Na  Na4  1  0.000000  0.500000  0.202248  1
  Na  Na5  1  0.000000  0.500000  0.797752  1
  Zn  Zn6  1  0.000000  0.000000  0.000000  1
  Cd  Cd7  1  0.332251  0.500000  0.000000  1
  Cd  Cd8  1  0.667749  0.500000  0.000000  1
  Cd  Cd9  1  0.000000  0.332251  0.500000  1
  Cd  Cd10  1  0.000000  0.667749  0.500000  1
  Cd  Cd11  1  0.500000  0.000000  0.332251  1
  Cd  Cd12  1  0.500000  0.000000  0.667749  1
  Cd  Cd13  1  0.281949  0.281949  0.281949  1
  Cd  Cd14  1  0.718051  0.718051  0.718051  1
  Cd  Cd15  1  0.718051  0.718051  0.281949  1
  Cd  Cd16  1  0.718051  0.281949  0.718051  1
  Cd  Cd17  1  0.281949  0.281949  0.718051  1
  Cd  Cd18  1  0.281949  0.718051  0.281949  1
  Cd  Cd19  1  0.281949  0.718051  0.718051  1
  Cd  Cd20  1  0.718051  0.281949  0.281949  1
  Cd  Cd21  1  0.268320  0.500000  0.500000  1
  Cd  Cd22  1  0.731680  0.500000  0.500000  1
  Cd  Cd23  1  0.500000  0.268320  0.500000  1
  Cd  Cd24  1  0.500000  0.731680  0.500000  1
  Cd  Cd25  1  0.500000  0.500000  0.268320  1
  Cd  Cd26  1  0.500000  0.500000  0.731680  1
  Cd  Cd27  1  0.000000  0.154962  0.260628  1
  Cd  Cd28  1  0.000000  0.845038  0.739372  1
  Cd  Cd29  1  0.000000  0.845038  0.260628  1
  Cd  Cd30  1  0.000000  0.154962  0.739372  1
  Cd  Cd31  1  0.260628  0.000000  0.154962  1
  Cd  Cd32  1  0.739372  0.000000  0.845038  1
  Cd  Cd33  1  0.260628  0.000000  0.845038  1
  Cd  Cd34  1  0.739372  0.000000  0.154962  1
  Cd  Cd35  1  0.154962  0.260628  0.000000  1
  Cd  Cd36  1  0.845038  0.739372  0.000000  1
  Cd  Cd37  1  0.154962  0.739372  0.000000  1
  Cd  Cd38  1  0.845038  0.260628  0.000000  1
