# generated using pymatgen
data_BaYb11(AgGe)12
_symmetry_space_group_name_H-M   'P 1'
_cell_length_a   4.60050100
_cell_length_b   7.88120728
_cell_length_c   21.65260959
_cell_angle_alpha   90.34981935
_cell_angle_beta   90.00000000
_cell_angle_gamma   90.00000000
_symmetry_Int_Tables_number   1
_chemical_formula_structural   BaYb11(AgGe)12
_chemical_formula_sum   'Ba1 Yb11 Ag12 Ge12'
_cell_volume   785.05490178
_cell_formula_units_Z   1
loop_
 _symmetry_equiv_pos_site_id
 _symmetry_equiv_pos_as_xyz
  1  'x, y, z'
loop_
 _atom_site_type_symbol
 _atom_site_label
 _atom_site_symmetry_multiplicity
 _atom_site_fract_x
 _atom_site_fract_y
 _atom_site_fract_z
 _atom_site_occupancy
  Ba  Ba0  1  0.750000  0.702504  0.832232  1
  Yb  Yb1  1  0.250000  0.222196  0.003760  1
  Yb  Yb2  1  0.250000  0.276519  0.498843  1
  Yb  Yb3  1  0.750000  0.777582  0.003388  1
  Yb  Yb4  1  0.750000  0.723837  0.498018  1
  Yb  Yb5  1  0.250000  0.210824  0.334068  1
  Yb  Yb6  1  0.250000  0.284494  0.835155  1
  Yb  Yb7  1  0.750000  0.790045  0.662039  1
  Yb  Yb8  1  0.750000  0.710755  0.167630  1
  Yb  Yb9  1  0.250000  0.214156  0.663661  1
  Yb  Yb10  1  0.250000  0.286914  0.168897  1
  Yb  Yb11  1  0.750000  0.788028  0.333002  1
  Ag  Ag12  1  0.250000  0.924962  0.753533  1
  Ag  Ag13  1  0.250000  0.587652  0.262468  1
  Ag  Ag14  1  0.750000  0.087030  0.238614  1
  Ag  Ag15  1  0.750000  0.405947  0.729923  1
  Ag  Ag16  1  0.250000  0.926200  0.913964  1
  Ag  Ag17  1  0.250000  0.581186  0.405525  1
  Ag  Ag18  1  0.750000  0.079487  0.095861  1
  Ag  Ag19  1  0.750000  0.419219  0.590540  1
  Ag  Ag20  1  0.250000  0.917896  0.563689  1
  Ag  Ag21  1  0.250000  0.580256  0.068274  1
  Ag  Ag22  1  0.750000  0.083070  0.434095  1
  Ag  Ag23  1  0.750000  0.410294  0.943479  1
  Ge  Ge24  1  0.250000  0.583161  0.719529  1
  Ge  Ge25  1  0.250000  0.918110  0.228876  1
  Ge  Ge26  1  0.750000  0.417445  0.272430  1
  Ge  Ge27  1  0.750000  0.090991  0.770494  1
  Ge  Ge28  1  0.250000  0.910530  0.104344  1
  Ge  Ge29  1  0.250000  0.587943  0.597390  1
  Ge  Ge30  1  0.750000  0.094156  0.898584  1
  Ge  Ge31  1  0.750000  0.412742  0.396927  1
  Ge  Ge32  1  0.250000  0.585848  0.936018  1
  Ge  Ge33  1  0.250000  0.910774  0.427186  1
  Ge  Ge34  1  0.750000  0.407994  0.076549  1
  Ge  Ge35  1  0.750000  0.089250  0.571016  1
