# generated using pymatgen
data_Y3As4Rh7
_symmetry_space_group_name_H-M   'P 1'
_cell_length_a   7.96482566
_cell_length_b   7.96482565
_cell_length_c   9.42398700
_cell_angle_alpha   56.62154059
_cell_angle_beta   56.62153991
_cell_angle_gamma   29.49767654
_symmetry_Int_Tables_number   1
_chemical_formula_structural   Y3As4Rh7
_chemical_formula_sum   'Y3 As4 Rh7'
_cell_volume   242.09021155
_cell_formula_units_Z   1
loop_
 _symmetry_equiv_pos_site_id
 _symmetry_equiv_pos_as_xyz
  1  'x, y, z'
loop_
 _atom_site_type_symbol
 _atom_site_label
 _atom_site_symmetry_multiplicity
 _atom_site_fract_x
 _atom_site_fract_y
 _atom_site_fract_z
 _atom_site_occupancy
  Y  Y0  1  0.500000  0.500000  0.500000  1
  Y  Y1  1  0.832093  0.832093  0.162656  1
  Y  Y2  1  0.167907  0.167907  0.837344  1
  As  As3  1  0.391069  0.391069  0.329532  1
  As  As4  1  0.608931  0.608931  0.670468  1
  As  As5  1  0.832746  0.832746  0.770724  1
  As  As6  1  0.167254  0.167254  0.229276  1
  Rh  Rh7  1  0.666619  0.666619  0.074909  1
  Rh  Rh8  1  0.009120  0.009120  0.221613  1
  Rh  Rh9  1  0.990880  0.990880  0.778387  1
  Rh  Rh10  1  0.500000  0.500000  0.000000  1
  Rh  Rh11  1  0.197856  0.197856  0.459942  1
  Rh  Rh12  1  0.802144  0.802144  0.540058  1
  Rh  Rh13  1  0.333381  0.333381  0.925091  1
