# generated using pymatgen
data_Re6Pb4O19
_symmetry_space_group_name_H-M   'P 1'
_cell_length_a   8.02480083
_cell_length_b   8.02480008
_cell_length_c   8.02480000
_cell_angle_alpha   109.47121790
_cell_angle_beta   109.47121600
_cell_angle_gamma   109.47122359
_symmetry_Int_Tables_number   1
_chemical_formula_structural   Re6Pb4O19
_chemical_formula_sum   'Re6 Pb4 O19'
_cell_volume   397.81470705
_cell_formula_units_Z   1
loop_
 _symmetry_equiv_pos_site_id
 _symmetry_equiv_pos_as_xyz
  1  'x, y, z'
loop_
 _atom_site_type_symbol
 _atom_site_label
 _atom_site_symmetry_multiplicity
 _atom_site_fract_x
 _atom_site_fract_y
 _atom_site_fract_z
 _atom_site_occupancy
  Re  Re0  1  0.500000  0.362067  0.862067  1
  Re  Re1  1  0.500000  0.637933  0.137933  1
  Re  Re2  1  0.362067  0.862067  0.500000  1
  Re  Re3  1  0.637933  0.137933  0.500000  1
  Re  Re4  1  0.862067  0.500000  0.362067  1
  Re  Re5  1  0.137933  0.500000  0.637933  1
  Pb  Pb6  1  0.000000  0.293709  0.000000  1
  Pb  Pb7  1  0.000000  0.000000  0.293709  1
  Pb  Pb8  1  0.706291  0.706291  0.706291  1
  Pb  Pb9  1  0.293709  0.000000  0.000000  1
  O  O10  1  0.702646  0.353613  0.066274  1
  O  O11  1  0.646387  0.349035  0.712661  1
  O  O12  1  0.287339  0.636373  0.933726  1
  O  O13  1  0.650965  0.297354  0.363627  1
  O  O14  1  0.349035  0.712661  0.646387  1
  O  O15  1  0.933726  0.287339  0.636373  1
  O  O16  1  0.066274  0.702646  0.353613  1
  O  O17  1  0.000000  0.669531  0.669531  1
  O  O18  1  0.669531  0.669531  0.000000  1
  O  O19  1  0.712661  0.646387  0.349035  1
  O  O20  1  0.353613  0.066274  0.702646  1
  O  O21  1  0.669531  0.000000  0.669531  1
  O  O22  1  0.000000  0.330469  0.330469  1
  O  O23  1  0.636373  0.933726  0.287339  1
  O  O24  1  0.363627  0.650965  0.297354  1
  O  O25  1  0.297354  0.363627  0.650965  1
  O  O26  1  0.330469  0.000000  0.330469  1
  O  O27  1  0.330469  0.330469  0.000000  1
  O  O28  1  0.000000  0.000000  0.000000  1
