# generated using pymatgen
data_Lu12AlFe3Au
_symmetry_space_group_name_H-M   'P 1'
_cell_length_a   8.09685555
_cell_length_b   8.09685512
_cell_length_c   8.09685500
_cell_angle_alpha   109.48127309
_cell_angle_beta   107.70384936
_cell_angle_gamma   111.24790187
_symmetry_Int_Tables_number   1
_chemical_formula_structural   Lu12AlFe3Au
_chemical_formula_sum   'Lu12 Al1 Fe3 Au1'
_cell_volume   408.23643575
_cell_formula_units_Z   1
loop_
 _symmetry_equiv_pos_site_id
 _symmetry_equiv_pos_as_xyz
  1  'x, y, z'
loop_
 _atom_site_type_symbol
 _atom_site_label
 _atom_site_symmetry_multiplicity
 _atom_site_fract_x
 _atom_site_fract_y
 _atom_site_fract_z
 _atom_site_occupancy
  Lu  Lu0  1  0.309172  0.308129  0.617419  1
  Lu  Lu1  1  0.690828  0.691871  0.382581  1
  Lu  Lu2  1  0.690710  0.308129  0.998957  1
  Lu  Lu3  1  0.309290  0.691871  0.001043  1
  Lu  Lu4  1  0.191395  0.444930  0.253535  1
  Lu  Lu5  1  0.808605  0.555070  0.746465  1
  Lu  Lu6  1  0.191467  0.937938  0.746471  1
  Lu  Lu7  1  0.957337  0.187035  0.770298  1
  Lu  Lu8  1  0.808533  0.062062  0.253529  1
  Lu  Lu9  1  0.042663  0.812965  0.229702  1
  Lu  Lu10  1  0.416736  0.187035  0.229695  1
  Lu  Lu11  1  0.583264  0.812965  0.770305  1
  Al  Al12  1  0.500000  0.000000  0.500000  1
  Fe  Fe13  1  0.381416  0.380869  0.999453  1
  Fe  Fe14  1  0.618584  0.619131  0.000547  1
  Fe  Fe15  1  0.000000  0.000000  0.000000  1
  Au  Au16  1  0.000000  0.500000  0.500000  1
