# generated using pymatgen
data_Y14Th2CdNi4Hg3
_symmetry_space_group_name_H-M   'P 1'
_cell_length_a   9.59914369
_cell_length_b   9.60822470
_cell_length_c   9.62530100
_cell_angle_alpha   59.94119477
_cell_angle_beta   59.90982139
_cell_angle_gamma   59.87668741
_symmetry_Int_Tables_number   1
_chemical_formula_structural   Y14Th2CdNi4Hg3
_chemical_formula_sum   'Y14 Th2 Cd1 Ni4 Hg3'
_cell_volume   626.44007424
_cell_formula_units_Z   1
loop_
 _symmetry_equiv_pos_site_id
 _symmetry_equiv_pos_as_xyz
  1  'x, y, z'
loop_
 _atom_site_type_symbol
 _atom_site_label
 _atom_site_symmetry_multiplicity
 _atom_site_fract_x
 _atom_site_fract_y
 _atom_site_fract_z
 _atom_site_occupancy
  Y  Y0  1  0.601873  0.195019  0.601553  1
  Y  Y1  1  0.191672  0.602085  0.603121  1
  Y  Y2  1  0.061140  0.440896  0.438112  1
  Y  Y3  1  0.439553  0.062082  0.060560  1
  Y  Y4  1  0.439553  0.062082  0.437806  1
  Y  Y5  1  0.061140  0.440896  0.059852  1
  Y  Y6  1  0.438014  0.438949  0.061518  1
  Y  Y7  1  0.061117  0.061557  0.438663  1
  Y  Y8  1  0.186870  0.814410  0.815241  1
  Y  Y9  1  0.813601  0.187205  0.183977  1
  Y  Y10  1  0.813601  0.187205  0.815218  1
  Y  Y11  1  0.186870  0.814410  0.183478  1
  Y  Y12  1  0.813168  0.813472  0.186680  1
  Y  Y13  1  0.185925  0.186519  0.813778  1
  Th  Th14  1  0.593971  0.594548  0.601023  1
  Th  Th15  1  0.593971  0.594548  0.210459  1
  Cd  Cd16  1  0.507183  0.831639  0.830589  1
  Ni  Ni17  1  0.394108  0.393858  0.391865  1
  Ni  Ni18  1  0.394108  0.393858  0.820169  1
  Ni  Ni19  1  0.397132  0.817708  0.392581  1
  Ni  Ni20  1  0.817954  0.399512  0.391268  1
  Hg  Hg21  1  0.835656  0.837658  0.835218  1
  Hg  Hg22  1  0.835656  0.837658  0.491465  1
  Hg  Hg23  1  0.836162  0.492225  0.835806  1
