# generated using pymatgen
data_Ca6Nb3Al13Os7
_symmetry_space_group_name_H-M   'P 1'
_cell_length_a   9.07902412
_cell_length_b   9.07902519
_cell_length_c   9.07902409
_cell_angle_alpha   59.73813786
_cell_angle_beta   59.73813318
_cell_angle_gamma   59.73813655
_symmetry_Int_Tables_number   1
_chemical_formula_structural   Ca6Nb3Al13Os7
_chemical_formula_sum   'Ca6 Nb3 Al13 Os7'
_cell_volume   526.03202103
_cell_formula_units_Z   1
loop_
 _symmetry_equiv_pos_site_id
 _symmetry_equiv_pos_as_xyz
  1  'x, y, z'
loop_
 _atom_site_type_symbol
 _atom_site_label
 _atom_site_symmetry_multiplicity
 _atom_site_fract_x
 _atom_site_fract_y
 _atom_site_fract_z
 _atom_site_occupancy
  Ca  Ca0  1  0.708924  0.708924  0.287068  1
  Ca  Ca1  1  0.294648  0.706551  0.294648  1
  Ca  Ca2  1  0.706551  0.294648  0.294648  1
  Ca  Ca3  1  0.294648  0.294648  0.706551  1
  Ca  Ca4  1  0.708924  0.287068  0.708924  1
  Ca  Ca5  1  0.287068  0.708924  0.708924  1
  Nb  Nb6  1  0.879235  0.879235  0.360289  1
  Nb  Nb7  1  0.879235  0.360289  0.879235  1
  Nb  Nb8  1  0.360289  0.879235  0.879235  1
  Al  Al9  1  0.881588  0.881588  0.881588  1
  Al  Al10  1  0.120756  0.120756  0.638207  1
  Al  Al11  1  0.120756  0.638207  0.120756  1
  Al  Al12  1  0.638207  0.120756  0.120756  1
  Al  Al13  1  0.119138  0.119138  0.119138  1
  Al  Al14  1  0.672175  0.672175  0.989168  1
  Al  Al15  1  0.672175  0.989168  0.672175  1
  Al  Al16  1  0.989168  0.672175  0.672175  1
  Al  Al17  1  0.669019  0.669019  0.669019  1
  Al  Al18  1  0.329307  0.329307  0.016291  1
  Al  Al19  1  0.329307  0.016291  0.329307  1
  Al  Al20  1  0.016291  0.329307  0.329307  1
  Al  Al21  1  0.328825  0.328825  0.328825  1
  Os  Os22  1  0.999938  0.999938  0.999938  1
  Os  Os23  1  0.998166  0.998166  0.494196  1
  Os  Os24  1  0.503497  0.996304  0.503497  1
  Os  Os25  1  0.996304  0.503497  0.503497  1
  Os  Os26  1  0.503497  0.503497  0.996304  1
  Os  Os27  1  0.998166  0.494196  0.998166  1
  Os  Os28  1  0.494196  0.998166  0.998166  1
