# generated using pymatgen
data_Tb4Ga18Ni2IrRh3
_symmetry_space_group_name_H-M   'P 1'
_cell_length_a   7.54741431
_cell_length_b   7.54741393
_cell_length_c   9.48334269
_cell_angle_alpha   90.02183018
_cell_angle_beta   90.02182694
_cell_angle_gamma   120.00471100
_symmetry_Int_Tables_number   1
_chemical_formula_structural   Tb4Ga18Ni2IrRh3
_chemical_formula_sum   'Tb4 Ga18 Ni2 Ir1 Rh3'
_cell_volume   467.80805063
_cell_formula_units_Z   1
loop_
 _symmetry_equiv_pos_site_id
 _symmetry_equiv_pos_as_xyz
  1  'x, y, z'
loop_
 _atom_site_type_symbol
 _atom_site_label
 _atom_site_symmetry_multiplicity
 _atom_site_fract_x
 _atom_site_fract_y
 _atom_site_fract_z
 _atom_site_occupancy
  Tb  Tb0  1  0.996015  0.664380  0.249963  1
  Tb  Tb1  1  0.003758  0.335399  0.750191  1
  Tb  Tb2  1  0.664601  0.996242  0.249809  1
  Tb  Tb3  1  0.335620  0.003985  0.750037  1
  Ga  Ga4  1  0.116500  0.116646  0.249883  1
  Ga  Ga5  1  0.883354  0.883500  0.750117  1
  Ga  Ga6  1  0.001155  0.329621  0.077909  1
  Ga  Ga7  1  0.001640  0.671695  0.922173  1
  Ga  Ga8  1  0.000653  0.670779  0.577429  1
  Ga  Ga9  1  0.329221  0.999347  0.422571  1
  Ga  Ga10  1  0.999744  0.329248  0.422437  1
  Ga  Ga11  1  0.670752  0.000256  0.577563  1
  Ga  Ga12  1  0.670379  0.998845  0.922091  1
  Ga  Ga13  1  0.328305  0.998360  0.077827  1
  Ga  Ga14  1  0.328698  0.328718  0.563337  1
  Ga  Ga15  1  0.671282  0.671302  0.436663  1
  Ga  Ga16  1  0.671456  0.672398  0.063531  1
  Ga  Ga17  1  0.327602  0.328544  0.936469  1
  Ga  Ga18  1  0.336989  0.543309  0.250074  1
  Ga  Ga19  1  0.662607  0.457560  0.748881  1
  Ga  Ga20  1  0.542440  0.337393  0.251119  1
  Ga  Ga21  1  0.456691  0.663011  0.749926  1
  Ni  Ni22  1  0.999875  0.000125  0.000000  1
  Ni  Ni23  1  0.000042  0.999958  0.500000  1
  Ir  Ir24  1  0.671741  0.328259  0.000000  1
  Rh  Rh25  1  0.328640  0.671360  0.000000  1
  Rh  Rh26  1  0.328898  0.671102  0.500000  1
  Rh  Rh27  1  0.671344  0.328656  0.500000  1
