# generated using pymatgen
data_Ta5NbV4Si6B
_symmetry_space_group_name_H-M   'P 1'
_cell_length_a   7.45449913
_cell_length_b   7.45687512
_cell_length_c   5.02484502
_cell_angle_alpha   89.99035753
_cell_angle_beta   90.00482012
_cell_angle_gamma   120.01054940
_symmetry_Int_Tables_number   1
_chemical_formula_structural   Ta5NbV4Si6B
_chemical_formula_sum   'Ta5 Nb1 V4 Si6 B1'
_cell_volume   241.87025295
_cell_formula_units_Z   1
loop_
 _symmetry_equiv_pos_site_id
 _symmetry_equiv_pos_as_xyz
  1  'x, y, z'
loop_
 _atom_site_type_symbol
 _atom_site_label
 _atom_site_symmetry_multiplicity
 _atom_site_fract_x
 _atom_site_fract_y
 _atom_site_fract_z
 _atom_site_occupancy
  Ta  Ta0  1  0.245400  0.245813  0.245294  1
  Ta  Ta1  1  0.754600  0.000414  0.245294  1
  Ta  Ta2  1  0.000000  0.245255  0.754982  1
  Ta  Ta3  1  0.754162  0.754786  0.754254  1
  Ta  Ta4  1  0.245838  0.000623  0.754254  1
  Nb  Nb5  1  0.000000  0.753926  0.245799  1
  V  V6  1  0.333743  0.666411  0.500309  1
  V  V7  1  0.666257  0.332668  0.500309  1
  V  V8  1  0.666452  0.332992  0.999716  1
  V  V9  1  0.333548  0.666542  0.999716  1
  Si  Si10  1  0.000000  0.404661  0.247071  1
  Si  Si11  1  0.595817  0.595746  0.247174  1
  Si  Si12  1  0.404183  0.999929  0.247174  1
  Si  Si13  1  0.000000  0.595647  0.752906  1
  Si  Si14  1  0.404525  0.404543  0.752874  1
  Si  Si15  1  0.595475  0.000018  0.752874  1
  B  B16  1  0.000000  0.000025  0.500001  1
