# generated using pymatgen
data_Zr3Ta2B4Ru10W
_symmetry_space_group_name_H-M   'P 1'
_cell_length_a   9.49838559
_cell_length_b   9.49641361
_cell_length_c   3.07837200
_cell_angle_alpha   90.00000000
_cell_angle_beta   90.00000000
_cell_angle_gamma   90.13358771
_symmetry_Int_Tables_number   1
_chemical_formula_structural   Zr3Ta2B4Ru10W
_chemical_formula_sum   'Zr3 Ta2 B4 Ru10 W1'
_cell_volume   277.67024114
_cell_formula_units_Z   1
loop_
 _symmetry_equiv_pos_site_id
 _symmetry_equiv_pos_as_xyz
  1  'x, y, z'
loop_
 _atom_site_type_symbol
 _atom_site_label
 _atom_site_symmetry_multiplicity
 _atom_site_fract_x
 _atom_site_fract_y
 _atom_site_fract_z
 _atom_site_occupancy
  Zr  Zr0  1  0.824363  0.677000  0.000000  1
  Zr  Zr1  1  0.176329  0.323628  0.000000  1
  Zr  Zr2  1  0.324178  0.824924  0.000000  1
  Ta  Ta3  1  0.677581  0.175955  0.000000  1
  Ta  Ta4  1  0.000211  0.999774  0.000000  1
  B  B5  1  0.621878  0.880790  0.000000  1
  B  B6  1  0.378764  0.120134  0.000000  1
  B  B7  1  0.119473  0.621381  0.000000  1
  B  B8  1  0.879162  0.377334  0.000000  1
  Ru  Ru9  1  0.569552  0.716982  0.500000  1
  Ru  Ru10  1  0.435046  0.283513  0.500000  1
  Ru  Ru11  1  0.071041  0.780923  0.500000  1
  Ru  Ru12  1  0.922037  0.216343  0.500000  1
  Ru  Ru13  1  0.283665  0.568022  0.500000  1
  Ru  Ru14  1  0.713757  0.425351  0.500000  1
  Ru  Ru15  1  0.219662  0.072365  0.500000  1
  Ru  Ru16  1  0.780657  0.932351  0.500000  1
  Ru  Ru17  1  0.504494  0.004869  0.500000  1
  Ru  Ru18  1  0.998420  0.498267  0.500000  1
  W  W19  1  0.499733  0.500098  0.000000  1
