# generated using pymatgen
data_Er4CoRe2Ru5
_symmetry_space_group_name_H-M   'P 1'
_cell_length_a   5.29318000
_cell_length_b   5.28296233
_cell_length_c   8.77558000
_cell_angle_alpha   90.00000000
_cell_angle_beta   90.00000000
_cell_angle_gamma   121.30930549
_symmetry_Int_Tables_number   1
_chemical_formula_structural   Er4CoRe2Ru5
_chemical_formula_sum   'Er4 Co1 Re2 Ru5'
_cell_volume   209.66129092
_cell_formula_units_Z   1
loop_
 _symmetry_equiv_pos_site_id
 _symmetry_equiv_pos_as_xyz
  1  'x, y, z'
loop_
 _atom_site_type_symbol
 _atom_site_label
 _atom_site_symmetry_multiplicity
 _atom_site_fract_x
 _atom_site_fract_y
 _atom_site_fract_z
 _atom_site_occupancy
  Er  Er0  1  0.340547  0.673837  0.437390  1
  Er  Er1  1  0.672829  0.341231  0.566001  1
  Er  Er2  1  0.672829  0.341231  0.933999  1
  Er  Er3  1  0.340547  0.673837  0.062610  1
  Co  Co4  1  0.163045  0.815783  0.750000  1
  Re  Re5  1  0.163692  0.321915  0.750000  1
  Re  Re6  1  0.323981  0.163663  0.250000  1
  Ru  Ru7  1  0.815027  0.647248  0.250000  1
  Ru  Ru8  1  0.638762  0.808437  0.750000  1
  Ru  Ru9  1  0.023676  0.023078  0.996097  1
  Ru  Ru10  1  0.821387  0.166661  0.250000  1
  Ru  Ru11  1  0.023676  0.023078  0.503903  1
