# generated using pymatgen
data_Th3Cu2S7
_symmetry_space_group_name_H-M   'P 1'
_cell_length_a   9.96468000
_cell_length_b   9.96467948
_cell_length_c   5.83002900
_cell_angle_alpha   90.00000000
_cell_angle_beta   90.00000000
_cell_angle_gamma   119.99999508
_symmetry_Int_Tables_number   1
_chemical_formula_structural   Th3Cu2S7
_chemical_formula_sum   'Th6 Cu4 S14'
_cell_volume   501.33503871
_cell_formula_units_Z   2
loop_
 _symmetry_equiv_pos_site_id
 _symmetry_equiv_pos_as_xyz
  1  'x, y, z'
loop_
 _atom_site_type_symbol
 _atom_site_label
 _atom_site_symmetry_multiplicity
 _atom_site_fract_x
 _atom_site_fract_y
 _atom_site_fract_z
 _atom_site_occupancy
  Th  Th0  1  0.229393  0.848098  0.030893  1
  Th  Th1  1  0.151902  0.381295  0.030893  1
  Th  Th2  1  0.848098  0.618705  0.530893  1
  Th  Th3  1  0.618705  0.770607  0.030893  1
  Th  Th4  1  0.770607  0.151902  0.530893  1
  Th  Th5  1  0.381295  0.229393  0.530893  1
  Cu  Cu6  1  0.666667  0.333333  0.150784  1
  Cu  Cu7  1  0.333333  0.666667  0.650784  1
  Cu  Cu8  1  0.000000  0.000000  0.502267  1
  Cu  Cu9  1  0.000000  0.000000  0.002267  1
  S  S10  1  0.666667  0.333333  0.756602  1
  S  S11  1  0.569271  0.485801  0.278887  1
  S  S12  1  0.151811  0.894418  0.514736  1
  S  S13  1  0.514199  0.083470  0.278887  1
  S  S14  1  0.430729  0.514199  0.778887  1
  S  S15  1  0.485801  0.916530  0.778887  1
  S  S16  1  0.848189  0.105582  0.014736  1
  S  S17  1  0.083470  0.569271  0.778887  1
  S  S18  1  0.742607  0.848189  0.514736  1
  S  S19  1  0.333333  0.666667  0.256602  1
  S  S20  1  0.916530  0.430729  0.278887  1
  S  S21  1  0.257393  0.151811  0.014736  1
  S  S22  1  0.105582  0.257393  0.514736  1
  S  S23  1  0.894418  0.742607  0.014736  1
