# generated using pymatgen
data_YHo3Co18(P6Ru)2
_symmetry_space_group_name_H-M   'P 1'
_cell_length_a   3.67263900
_cell_length_b   10.33221126
_cell_length_c   11.75743729
_cell_angle_alpha   90.02554970
_cell_angle_beta   90.00000000
_cell_angle_gamma   90.00000000
_symmetry_Int_Tables_number   1
_chemical_formula_structural   YHo3Co18(P6Ru)2
_chemical_formula_sum   'Y1 Ho3 Co18 P12 Ru2'
_cell_volume   446.15333843
_cell_formula_units_Z   1
loop_
 _symmetry_equiv_pos_site_id
 _symmetry_equiv_pos_as_xyz
  1  'x, y, z'
loop_
 _atom_site_type_symbol
 _atom_site_label
 _atom_site_symmetry_multiplicity
 _atom_site_fract_x
 _atom_site_fract_y
 _atom_site_fract_z
 _atom_site_occupancy
  Y  Y0  1  0.250000  0.582413  0.702330  1
  Ho  Ho1  1  0.250000  0.917720  0.202098  1
  Ho  Ho2  1  0.750000  0.413867  0.295527  1
  Ho  Ho3  1  0.750000  0.086077  0.795528  1
  Co  Co4  1  0.750000  0.283376  0.008453  1
  Co  Co5  1  0.750000  0.216432  0.508306  1
  Co  Co6  1  0.250000  0.405923  0.487527  1
  Co  Co7  1  0.250000  0.093811  0.987670  1
  Co  Co8  1  0.750000  0.590724  0.509837  1
  Co  Co9  1  0.750000  0.909252  0.010537  1
  Co  Co10  1  0.250000  0.220690  0.176759  1
  Co  Co11  1  0.250000  0.279107  0.676697  1
  Co  Co12  1  0.750000  0.778608  0.823164  1
  Co  Co13  1  0.750000  0.721783  0.322885  1
  Co  Co14  1  0.250000  0.886953  0.701854  1
  Co  Co15  1  0.250000  0.613301  0.201900  1
  Co  Co16  1  0.750000  0.116357  0.300819  1
  Co  Co17  1  0.750000  0.383187  0.801066  1
  Co  Co18  1  0.250000  0.464396  0.932604  1
  Co  Co19  1  0.250000  0.035523  0.432280  1
  Co  Co20  1  0.750000  0.532802  0.069261  1
  Co  Co21  1  0.750000  0.967442  0.568994  1
  P  P22  1  0.250000  0.417092  0.112299  1
  P  P23  1  0.250000  0.082910  0.612159  1
  P  P24  1  0.750000  0.578639  0.887372  1
  P  P25  1  0.750000  0.921400  0.386805  1
  P  P26  1  0.250000  0.270198  0.869213  1
  P  P27  1  0.250000  0.229747  0.369218  1
  P  P28  1  0.750000  0.729088  0.132799  1
  P  P29  1  0.750000  0.771594  0.632614  1
  P  P30  1  0.250000  0.594604  0.390329  1
  P  P31  1  0.250000  0.905381  0.890372  1
  P  P32  1  0.750000  0.396644  0.608449  1
  P  P33  1  0.750000  0.102764  0.108665  1
  Ru  Ru34  1  0.250000  0.715543  0.991928  1
  Ru  Ru35  1  0.250000  0.784652  0.491678  1
