# generated using pymatgen
data_Tb(TaBr3)6
_symmetry_space_group_name_H-M   'P 1'
_cell_length_a   10.70997075
_cell_length_b   10.70997102
_cell_length_c   10.70997002
_cell_angle_alpha   56.00110123
_cell_angle_beta   56.00109306
_cell_angle_gamma   56.00110135
_symmetry_Int_Tables_number   1
_chemical_formula_structural   Tb(TaBr3)6
_chemical_formula_sum   'Tb1 Ta6 Br18'
_cell_volume   788.18532341
_cell_formula_units_Z   1
loop_
 _symmetry_equiv_pos_site_id
 _symmetry_equiv_pos_as_xyz
  1  'x, y, z'
loop_
 _atom_site_type_symbol
 _atom_site_label
 _atom_site_symmetry_multiplicity
 _atom_site_fract_x
 _atom_site_fract_y
 _atom_site_fract_z
 _atom_site_occupancy
  Tb  Tb0  1  0.000000  0.000000  0.000000  1
  Ta  Ta1  1  0.413234  0.310025  0.642183  1
  Ta  Ta2  1  0.357817  0.586766  0.689975  1
  Ta  Ta3  1  0.689975  0.357817  0.586766  1
  Ta  Ta4  1  0.310025  0.642183  0.413234  1
  Ta  Ta5  1  0.642183  0.413234  0.310025  1
  Ta  Ta6  1  0.586766  0.689975  0.357817  1
  Br  Br7  1  0.568797  0.162077  0.441293  1
  Br  Br8  1  0.223943  0.370636  0.907685  1
  Br  Br9  1  0.907685  0.223943  0.370636  1
  Br  Br10  1  0.370636  0.907685  0.223943  1
  Br  Br11  1  0.776057  0.629364  0.092315  1
  Br  Br12  1  0.092315  0.776057  0.629364  1
  Br  Br13  1  0.699227  0.959077  0.161563  1
  Br  Br14  1  0.959077  0.161563  0.699227  1
  Br  Br15  1  0.161563  0.699227  0.959077  1
  Br  Br16  1  0.300773  0.040923  0.838437  1
  Br  Br17  1  0.040923  0.838437  0.300773  1
  Br  Br18  1  0.838437  0.300773  0.040923  1
  Br  Br19  1  0.558707  0.431203  0.837923  1
  Br  Br20  1  0.162077  0.441293  0.568797  1
  Br  Br21  1  0.441293  0.568797  0.162077  1
  Br  Br22  1  0.431203  0.837923  0.558707  1
  Br  Br23  1  0.837923  0.558707  0.431203  1
  Br  Br24  1  0.629364  0.092315  0.776057  1
