# generated using pymatgen
data_Tm12MgZr4In3Co4
_symmetry_space_group_name_H-M   'P 1'
_cell_length_a   9.29645168
_cell_length_b   9.27136317
_cell_length_c   9.27136300
_cell_angle_alpha   59.99999704
_cell_angle_beta   60.08922988
_cell_angle_gamma   60.08923658
_symmetry_Int_Tables_number   1
_chemical_formula_structural   Tm12MgZr4In3Co4
_chemical_formula_sum   'Tm12 Mg1 Zr4 In3 Co4'
_cell_volume   565.81418552
_cell_formula_units_Z   1
loop_
 _symmetry_equiv_pos_site_id
 _symmetry_equiv_pos_as_xyz
  1  'x, y, z'
loop_
 _atom_site_type_symbol
 _atom_site_label
 _atom_site_symmetry_multiplicity
 _atom_site_fract_x
 _atom_site_fract_y
 _atom_site_fract_z
 _atom_site_occupancy
  Tm  Tm0  1  0.808581  0.191200  0.191200  1
  Tm  Tm1  1  0.188506  0.810608  0.810608  1
  Tm  Tm2  1  0.188506  0.810608  0.190279  1
  Tm  Tm3  1  0.808581  0.191200  0.809019  1
  Tm  Tm4  1  0.188506  0.190279  0.810608  1
  Tm  Tm5  1  0.808581  0.809019  0.191200  1
  Tm  Tm6  1  0.942720  0.558134  0.558134  1
  Tm  Tm7  1  0.558571  0.941910  0.941910  1
  Tm  Tm8  1  0.558571  0.941910  0.557609  1
  Tm  Tm9  1  0.942720  0.558134  0.941012  1
  Tm  Tm10  1  0.558571  0.557609  0.941910  1
  Tm  Tm11  1  0.942720  0.941012  0.558134  1
  Mg  Mg12  1  0.268706  0.577098  0.577098  1
  Zr  Zr13  1  0.343472  0.342995  0.342995  1
  Zr  Zr14  1  0.343472  0.342995  0.970539  1
  Zr  Zr15  1  0.343472  0.970539  0.342995  1
  Zr  Zr16  1  0.965927  0.344692  0.344692  1
  In  In17  1  0.581286  0.582455  0.582455  1
  In  In18  1  0.581286  0.582455  0.253803  1
  In  In19  1  0.581286  0.253803  0.582455  1
  Co  Co20  1  0.144680  0.146660  0.146660  1
  Co  Co21  1  0.144680  0.146660  0.562000  1
  Co  Co22  1  0.144680  0.562000  0.146660  1
  Co  Co23  1  0.561909  0.146030  0.146030  1
