# generated using pymatgen
data_La4Nd12Cd4FeNi3
_symmetry_space_group_name_H-M   'P 1'
_cell_length_a   9.91119862
_cell_length_b   9.91119823
_cell_length_c   9.91119851
_cell_angle_alpha   59.68206587
_cell_angle_beta   59.68206864
_cell_angle_gamma   59.68206823
_symmetry_Int_Tables_number   1
_chemical_formula_structural   La4Nd12Cd4FeNi3
_chemical_formula_sum   'La4 Nd12 Cd4 Fe1 Ni3'
_cell_volume   683.46361829
_cell_formula_units_Z   1
loop_
 _symmetry_equiv_pos_site_id
 _symmetry_equiv_pos_as_xyz
  1  'x, y, z'
loop_
 _atom_site_type_symbol
 _atom_site_label
 _atom_site_symmetry_multiplicity
 _atom_site_fract_x
 _atom_site_fract_y
 _atom_site_fract_z
 _atom_site_occupancy
  La  La0  1  0.598304  0.598304  0.598304  1
  La  La1  1  0.594662  0.594662  0.209730  1
  La  La2  1  0.594662  0.209730  0.594662  1
  La  La3  1  0.209730  0.594662  0.594662  1
  Nd  Nd4  1  0.067815  0.437219  0.437219  1
  Nd  Nd5  1  0.437453  0.060116  0.060116  1
  Nd  Nd6  1  0.437219  0.067815  0.437219  1
  Nd  Nd7  1  0.060116  0.437453  0.060116  1
  Nd  Nd8  1  0.437219  0.437219  0.067815  1
  Nd  Nd9  1  0.060116  0.060116  0.437453  1
  Nd  Nd10  1  0.187066  0.813843  0.813843  1
  Nd  Nd11  1  0.808046  0.187454  0.187454  1
  Nd  Nd12  1  0.813843  0.187066  0.813843  1
  Nd  Nd13  1  0.187454  0.808046  0.187454  1
  Nd  Nd14  1  0.813843  0.813843  0.187066  1
  Nd  Nd15  1  0.187454  0.187454  0.808046  1
  Cd  Cd16  1  0.829461  0.829461  0.829461  1
  Cd  Cd17  1  0.830206  0.830206  0.508747  1
  Cd  Cd18  1  0.830206  0.508747  0.830206  1
  Cd  Cd19  1  0.508747  0.830206  0.830206  1
  Fe  Fe20  1  0.393456  0.393456  0.393456  1
  Ni  Ni21  1  0.393521  0.393521  0.825886  1
  Ni  Ni22  1  0.393521  0.825886  0.393521  1
  Ni  Ni23  1  0.825886  0.393521  0.393521  1
