# generated using pymatgen
data_Ti3(Zn2Pt)2
_symmetry_space_group_name_H-M   'P 1'
_cell_length_a   7.43974700
_cell_length_b   7.43974460
_cell_length_c   2.88038900
_cell_angle_alpha   90.00000000
_cell_angle_beta   90.00000000
_cell_angle_gamma   119.99999731
_symmetry_Int_Tables_number   1
_chemical_formula_structural   Ti3(Zn2Pt)2
_chemical_formula_sum   'Ti3 Zn4 Pt2'
_cell_volume   138.06957285
_cell_formula_units_Z   1
loop_
 _symmetry_equiv_pos_site_id
 _symmetry_equiv_pos_as_xyz
  1  'x, y, z'
loop_
 _atom_site_type_symbol
 _atom_site_label
 _atom_site_symmetry_multiplicity
 _atom_site_fract_x
 _atom_site_fract_y
 _atom_site_fract_z
 _atom_site_occupancy
  Ti  Ti0  1  0.381809  0.381809  0.000000  1
  Ti  Ti1  1  0.618191  0.000000  0.000000  1
  Ti  Ti2  1  0.000000  0.618191  0.000000  1
  Zn  Zn3  1  0.713345  0.713345  0.500000  1
  Zn  Zn4  1  0.286655  0.000000  0.500000  1
  Zn  Zn5  1  0.000000  0.286655  0.500000  1
  Zn  Zn6  1  0.000000  0.000000  0.000000  1
  Pt  Pt7  1  0.666667  0.333333  0.500000  1
  Pt  Pt8  1  0.333333  0.666667  0.500000  1
