# generated using pymatgen
data_ScFe3Co2P3
_symmetry_space_group_name_H-M   'P 1'
_cell_length_a   3.59128000
_cell_length_b   10.12585700
_cell_length_c   11.61276500
_cell_angle_alpha   90.00000000
_cell_angle_beta   90.00000000
_cell_angle_gamma   90.00000000
_symmetry_Int_Tables_number   1
_chemical_formula_structural   ScFe3Co2P3
_chemical_formula_sum   'Sc4 Fe12 Co8 P12'
_cell_volume   422.29573415
_cell_formula_units_Z   4
loop_
 _symmetry_equiv_pos_site_id
 _symmetry_equiv_pos_as_xyz
  1  'x, y, z'
loop_
 _atom_site_type_symbol
 _atom_site_label
 _atom_site_symmetry_multiplicity
 _atom_site_fract_x
 _atom_site_fract_y
 _atom_site_fract_z
 _atom_site_occupancy
  Sc  Sc0  1  0.250000  0.582518  0.703626  1
  Sc  Sc1  1  0.250000  0.917482  0.203626  1
  Sc  Sc2  1  0.750000  0.417482  0.296374  1
  Sc  Sc3  1  0.750000  0.082518  0.796374  1
  Fe  Fe4  1  0.250000  0.711522  0.988949  1
  Fe  Fe5  1  0.250000  0.788478  0.488949  1
  Fe  Fe6  1  0.750000  0.288478  0.011051  1
  Fe  Fe7  1  0.750000  0.211522  0.511051  1
  Fe  Fe8  1  0.250000  0.406579  0.487754  1
  Fe  Fe9  1  0.250000  0.093421  0.987754  1
  Fe  Fe10  1  0.750000  0.593421  0.512246  1
  Fe  Fe11  1  0.750000  0.906579  0.012246  1
  Fe  Fe12  1  0.250000  0.219939  0.175772  1
  Fe  Fe13  1  0.250000  0.280062  0.675772  1
  Fe  Fe14  1  0.750000  0.780062  0.824228  1
  Fe  Fe15  1  0.750000  0.719938  0.324228  1
  Co  Co16  1  0.250000  0.883511  0.699581  1
  Co  Co17  1  0.250000  0.616489  0.199581  1
  Co  Co18  1  0.750000  0.116489  0.300419  1
  Co  Co19  1  0.750000  0.383511  0.800419  1
  Co  Co20  1  0.250000  0.464958  0.932180  1
  Co  Co21  1  0.250000  0.035042  0.432180  1
  Co  Co22  1  0.750000  0.535042  0.067820  1
  Co  Co23  1  0.750000  0.964958  0.567820  1
  P  P24  1  0.250000  0.418107  0.115720  1
  P  P25  1  0.250000  0.081893  0.615720  1
  P  P26  1  0.750000  0.581893  0.884280  1
  P  P27  1  0.750000  0.918107  0.384280  1
  P  P28  1  0.250000  0.264083  0.867622  1
  P  P29  1  0.250000  0.235917  0.367622  1
  P  P30  1  0.750000  0.735917  0.132378  1
  P  P31  1  0.750000  0.764083  0.632378  1
  P  P32  1  0.250000  0.598409  0.390842  1
  P  P33  1  0.250000  0.901591  0.890842  1
  P  P34  1  0.750000  0.401591  0.609158  1
  P  P35  1  0.750000  0.098409  0.109158  1
