# generated using pymatgen
data_Sc6TiAl13Mo2Os7
_symmetry_space_group_name_H-M   'P 1'
_cell_length_a   8.81019064
_cell_length_b   8.81019127
_cell_length_c   8.81858036
_cell_angle_alpha   59.74814904
_cell_angle_beta   59.74814853
_cell_angle_gamma   59.88069099
_symmetry_Int_Tables_number   1
_chemical_formula_structural   Sc6TiAl13Mo2Os7
_chemical_formula_sum   'Sc6 Ti1 Al13 Mo2 Os7'
_cell_volume   481.72637923
_cell_formula_units_Z   1
loop_
 _symmetry_equiv_pos_site_id
 _symmetry_equiv_pos_as_xyz
  1  'x, y, z'
loop_
 _atom_site_type_symbol
 _atom_site_label
 _atom_site_symmetry_multiplicity
 _atom_site_fract_x
 _atom_site_fract_y
 _atom_site_fract_z
 _atom_site_occupancy
  Sc  Sc0  1  0.713637  0.713637  0.279489  1
  Sc  Sc1  1  0.286735  0.713001  0.288909  1
  Sc  Sc2  1  0.713001  0.286735  0.288909  1
  Sc  Sc3  1  0.288514  0.288514  0.713773  1
  Sc  Sc4  1  0.713334  0.277615  0.715595  1
  Sc  Sc5  1  0.277615  0.713334  0.715595  1
  Ti  Ti6  1  0.878101  0.878101  0.360015  1
  Al  Al7  1  0.880308  0.880308  0.881556  1
  Al  Al8  1  0.120893  0.120893  0.638047  1
  Al  Al9  1  0.119155  0.639373  0.123026  1
  Al  Al10  1  0.639373  0.119155  0.123026  1
  Al  Al11  1  0.120681  0.120681  0.124039  1
  Al  Al12  1  0.666327  0.666327  0.007698  1
  Al  Al13  1  0.667318  0.005282  0.664184  1
  Al  Al14  1  0.005282  0.667318  0.664184  1
  Al  Al15  1  0.662015  0.662015  0.656667  1
  Al  Al16  1  0.336147  0.336147  0.994325  1
  Al  Al17  1  0.336508  0.995058  0.335192  1
  Al  Al18  1  0.995058  0.336508  0.335192  1
  Al  Al19  1  0.336451  0.336451  0.335261  1
  Mo  Mo20  1  0.874445  0.364868  0.877857  1
  Mo  Mo21  1  0.364868  0.874445  0.877857  1
  Os  Os22  1  0.005865  0.005865  0.997761  1
  Os  Os23  1  0.999376  0.999376  0.500214  1
  Os  Os24  1  0.499414  0.998202  0.505105  1
  Os  Os25  1  0.998202  0.499414  0.505105  1
  Os  Os26  1  0.504225  0.504225  0.995556  1
  Os  Os27  1  0.999213  0.497936  0.997932  1
  Os  Os28  1  0.497936  0.999213  0.997932  1
