# generated using pymatgen
data_Sr3WBr2O5
_symmetry_space_group_name_H-M   'P 1'
_cell_length_a   7.23263341
_cell_length_b   7.23263365
_cell_length_c   11.54267400
_cell_angle_alpha   90.00000000
_cell_angle_beta   90.00000000
_cell_angle_gamma   132.70423377
_symmetry_Int_Tables_number   1
_chemical_formula_structural   Sr3WBr2O5
_chemical_formula_sum   'Sr6 W2 Br4 O10'
_cell_volume   443.71755157
_cell_formula_units_Z   2
loop_
 _symmetry_equiv_pos_site_id
 _symmetry_equiv_pos_as_xyz
  1  'x, y, z'
loop_
 _atom_site_type_symbol
 _atom_site_label
 _atom_site_symmetry_multiplicity
 _atom_site_fract_x
 _atom_site_fract_y
 _atom_site_fract_z
 _atom_site_occupancy
  Sr  Sr0  1  0.894936  0.105064  0.750000  1
  Sr  Sr1  1  0.660176  0.339824  0.533819  1
  Sr  Sr2  1  0.339824  0.660176  0.466181  1
  Sr  Sr3  1  0.660176  0.339824  0.966181  1
  Sr  Sr4  1  0.339824  0.660176  0.033819  1
  Sr  Sr5  1  0.105064  0.894936  0.250000  1
  W  W6  1  0.762362  0.237638  0.250000  1
  W  W7  1  0.237638  0.762362  0.750000  1
  Br  Br8  1  0.501318  0.498682  0.250000  1
  Br  Br9  1  0.498682  0.501318  0.750000  1
  Br  Br10  1  0.000000  0.000000  0.500000  1
  Br  Br11  1  0.000000  0.000000  0.000000  1
  O  O12  1  0.104153  0.895847  0.750000  1
  O  O13  1  0.045836  0.496421  0.634733  1
  O  O14  1  0.496421  0.045836  0.365267  1
  O  O15  1  0.503579  0.954164  0.634733  1
  O  O16  1  0.954164  0.503579  0.365267  1
  O  O17  1  0.895847  0.104153  0.250000  1
  O  O18  1  0.045836  0.496421  0.865267  1
  O  O19  1  0.503579  0.954164  0.865267  1
  O  O20  1  0.954164  0.503579  0.134733  1
  O  O21  1  0.496421  0.045836  0.134733  1
