# generated using pymatgen
data_TbAl7ZnCu4
_symmetry_space_group_name_H-M   'P 1'
_cell_length_a   6.71427475
_cell_length_b   6.71427376
_cell_length_c   6.71427441
_cell_angle_alpha   98.68069062
_cell_angle_beta   98.41213587
_cell_angle_gamma   134.65044811
_symmetry_Int_Tables_number   1
_chemical_formula_structural   TbAl7ZnCu4
_chemical_formula_sum   'Tb1 Al7 Zn1 Cu4'
_cell_volume   198.69106576
_cell_formula_units_Z   1
loop_
 _symmetry_equiv_pos_site_id
 _symmetry_equiv_pos_as_xyz
  1  'x, y, z'
loop_
 _atom_site_type_symbol
 _atom_site_label
 _atom_site_symmetry_multiplicity
 _atom_site_fract_x
 _atom_site_fract_y
 _atom_site_fract_z
 _atom_site_occupancy
  Tb  Tb0  1  0.000000  0.001149  0.001149  1
  Al  Al1  1  0.000000  0.650459  0.650459  1
  Al  Al2  1  0.651943  0.000336  0.652279  1
  Al  Al3  1  0.348057  0.000336  0.348393  1
  Al  Al4  1  0.500000  0.280353  0.780353  1
  Al  Al5  1  0.500000  0.720405  0.220405  1
  Al  Al6  1  0.721931  0.499447  0.221378  1
  Al  Al7  1  0.278069  0.499447  0.777517  1
  Zn  Zn8  1  0.000000  0.348933  0.348933  1
  Cu  Cu9  1  0.000196  0.998879  0.500884  1
  Cu  Cu10  1  0.502004  0.500688  0.500884  1
  Cu  Cu11  1  0.497996  0.998879  0.998684  1
  Cu  Cu12  1  0.999804  0.500688  0.998684  1
