# generated using pymatgen
data_Ho14ErTm5Bi12
_symmetry_space_group_name_H-M   'P 1'
_cell_length_a   8.21812902
_cell_length_b   9.47327401
_cell_length_c   11.98856003
_cell_angle_alpha   89.99739932
_cell_angle_beta   89.99343287
_cell_angle_gamma   89.99643096
_symmetry_Int_Tables_number   1
_chemical_formula_structural   Ho14ErTm5Bi12
_chemical_formula_sum   'Ho14 Er1 Tm5 Bi12'
_cell_volume   933.34041548
_cell_formula_units_Z   1
loop_
 _symmetry_equiv_pos_site_id
 _symmetry_equiv_pos_as_xyz
  1  'x, y, z'
loop_
 _atom_site_type_symbol
 _atom_site_label
 _atom_site_symmetry_multiplicity
 _atom_site_fract_x
 _atom_site_fract_y
 _atom_site_fract_z
 _atom_site_occupancy
  Ho  Ho0  1  0.353463  0.750069  0.216478  1
  Ho  Ho1  1  0.853551  0.750011  0.283580  1
  Ho  Ho2  1  0.646655  0.249956  0.783539  1
  Ho  Ho3  1  0.146630  0.250060  0.716470  1
  Ho  Ho4  1  0.691876  0.935614  0.058984  1
  Ho  Ho5  1  0.191901  0.564469  0.441022  1
  Ho  Ho6  1  0.476880  0.249921  0.488957  1
  Ho  Ho7  1  0.976898  0.250070  0.011042  1
  Ho  Ho8  1  0.523544  0.750138  0.511173  1
  Ho  Ho9  1  0.023634  0.749908  0.988813  1
  Ho  Ho10  1  0.314352  0.250004  0.217957  1
  Ho  Ho11  1  0.814332  0.249990  0.282042  1
  Ho  Ho12  1  0.685743  0.749925  0.781949  1
  Ho  Ho13  1  0.185728  0.750101  0.718022  1
  Er  Er14  1  0.691831  0.564779  0.059021  1
  Tm  Tm15  1  0.191895  0.935100  0.440982  1
  Tm  Tm16  1  0.308102  0.065048  0.941012  1
  Tm  Tm17  1  0.808120  0.434934  0.558989  1
  Tm  Tm18  1  0.307990  0.434964  0.940954  1
  Tm  Tm19  1  0.807976  0.065023  0.559043  1
  Bi  Bi20  1  0.405195  0.749801  0.957346  1
  Bi  Bi21  1  0.905258  0.750262  0.542633  1
  Bi  Bi22  1  0.594296  0.250615  0.042370  1
  Bi  Bi23  1  0.094349  0.249186  0.457609  1
  Bi  Bi24  1  0.566056  0.996122  0.325735  1
  Bi  Bi25  1  0.066088  0.503894  0.174285  1
  Bi  Bi26  1  0.433771  0.496115  0.674397  1
  Bi  Bi27  1  0.933801  0.003896  0.825588  1
  Bi  Bi28  1  0.433799  0.003939  0.674305  1
  Bi  Bi29  1  0.933798  0.496074  0.825670  1
  Bi  Bi30  1  0.566232  0.503899  0.325671  1
  Bi  Bi31  1  0.066253  0.996113  0.174358  1
