# generated using pymatgen
data_Li6CoAs5Rh12
_symmetry_space_group_name_H-M   'P 1'
_cell_length_a   4.19911779
_cell_length_b   5.90825100
_cell_length_c   12.68110664
_cell_angle_alpha   90.00000000
_cell_angle_beta   90.10697468
_cell_angle_gamma   90.00000000
_symmetry_Int_Tables_number   1
_chemical_formula_structural   Li6CoAs5Rh12
_chemical_formula_sum   'Li6 Co1 As5 Rh12'
_cell_volume   314.61063000
_cell_formula_units_Z   1
loop_
 _symmetry_equiv_pos_site_id
 _symmetry_equiv_pos_as_xyz
  1  'x, y, z'
loop_
 _atom_site_type_symbol
 _atom_site_label
 _atom_site_symmetry_multiplicity
 _atom_site_fract_x
 _atom_site_fract_y
 _atom_site_fract_z
 _atom_site_occupancy
  Li  Li0  1  0.000000  0.499999  0.000000  1
  Li  Li1  1  0.498802  0.000000  0.163014  1
  Li  Li2  1  0.999861  0.499999  0.334027  1
  Li  Li3  1  0.500001  0.000000  0.500000  1
  Li  Li4  1  0.000138  0.499999  0.665973  1
  Li  Li5  1  0.501197  0.000000  0.836986  1
  Co  Co6  1  0.000000  0.000000  0.000000  1
  As  As7  1  0.499103  0.499999  0.162162  1
  As  As8  1  0.999859  0.000000  0.330801  1
  As  As9  1  0.500001  0.499999  0.500000  1
  As  As10  1  0.000140  0.000000  0.669198  1
  As  As11  1  0.500898  0.499999  0.837837  1
  Rh  Rh12  1  0.500000  0.250896  0.000000  1
  Rh  Rh13  1  0.500000  0.749105  0.000000  1
  Rh  Rh14  1  0.999007  0.250702  0.170327  1
  Rh  Rh15  1  0.999007  0.749299  0.170327  1
  Rh  Rh16  1  0.499870  0.250329  0.334771  1
  Rh  Rh17  1  0.499870  0.749669  0.334771  1
  Rh  Rh18  1  0.000000  0.249191  0.500000  1
  Rh  Rh19  1  0.000000  0.750808  0.500000  1
  Rh  Rh20  1  0.500129  0.250329  0.665229  1
  Rh  Rh21  1  0.500129  0.749669  0.665229  1
  Rh  Rh22  1  0.000993  0.250702  0.829673  1
  Rh  Rh23  1  0.000993  0.749299  0.829673  1
