# generated using pymatgen
data_Tm12Al2Fe2Os
_symmetry_space_group_name_H-M   'P 1'
_cell_length_a   8.16755228
_cell_length_b   8.16755257
_cell_length_c   8.16755167
_cell_angle_alpha   108.87926826
_cell_angle_beta   108.87925732
_cell_angle_gamma   110.66173444
_symmetry_Int_Tables_number   1
_chemical_formula_structural   Tm12Al2Fe2Os
_chemical_formula_sum   'Tm12 Al2 Fe2 Os1'
_cell_volume   419.28843697
_cell_formula_units_Z   1
loop_
 _symmetry_equiv_pos_site_id
 _symmetry_equiv_pos_as_xyz
  1  'x, y, z'
loop_
 _atom_site_type_symbol
 _atom_site_label
 _atom_site_symmetry_multiplicity
 _atom_site_fract_x
 _atom_site_fract_y
 _atom_site_fract_z
 _atom_site_occupancy
  Tm  Tm0  1  0.191547  0.433179  0.241631  1
  Tm  Tm1  1  0.808453  0.566821  0.758369  1
  Tm  Tm2  1  0.191547  0.949916  0.758369  1
  Tm  Tm3  1  0.949916  0.191547  0.758369  1
  Tm  Tm4  1  0.808453  0.050084  0.241631  1
  Tm  Tm5  1  0.050084  0.808453  0.241631  1
  Tm  Tm6  1  0.433179  0.191547  0.241631  1
  Tm  Tm7  1  0.566821  0.808453  0.758369  1
  Tm  Tm8  1  0.307131  0.307131  0.614262  1
  Tm  Tm9  1  0.692869  0.692869  0.385738  1
  Tm  Tm10  1  0.692869  0.307131  0.000000  1
  Tm  Tm11  1  0.307131  0.692869  0.000000  1
  Al  Al12  1  0.000000  0.500000  0.500000  1
  Al  Al13  1  0.500000  0.000000  0.500000  1
  Fe  Fe14  1  0.384214  0.384214  0.000000  1
  Fe  Fe15  1  0.615786  0.615786  0.000000  1
  Os  Os16  1  0.000000  0.000000  0.000000  1
