# generated using pymatgen
data_Tm4Al4Ir3Pt
_symmetry_space_group_name_H-M   'P 1'
_cell_length_a   4.27700900
_cell_length_b   6.77285306
_cell_length_c   7.85414709
_cell_angle_alpha   89.98385300
_cell_angle_beta   90.00000000
_cell_angle_gamma   90.00000000
_symmetry_Int_Tables_number   1
_chemical_formula_structural   Tm4Al4Ir3Pt
_chemical_formula_sum   'Tm4 Al4 Ir3 Pt1'
_cell_volume   227.51541684
_cell_formula_units_Z   1
loop_
 _symmetry_equiv_pos_site_id
 _symmetry_equiv_pos_as_xyz
  1  'x, y, z'
loop_
 _atom_site_type_symbol
 _atom_site_label
 _atom_site_symmetry_multiplicity
 _atom_site_fract_x
 _atom_site_fract_y
 _atom_site_fract_z
 _atom_site_occupancy
  Tm  Tm0  1  0.250000  0.027826  0.676861  1
  Tm  Tm1  1  0.250000  0.534720  0.819355  1
  Tm  Tm2  1  0.750000  0.970143  0.321354  1
  Tm  Tm3  1  0.750000  0.471687  0.181884  1
  Al  Al4  1  0.250000  0.139699  0.063710  1
  Al  Al5  1  0.250000  0.640796  0.437983  1
  Al  Al6  1  0.750000  0.856082  0.938412  1
  Al  Al7  1  0.750000  0.360258  0.560047  1
  Ir  Ir8  1  0.250000  0.265984  0.379957  1
  Ir  Ir9  1  0.250000  0.765451  0.119303  1
  Ir  Ir10  1  0.750000  0.734598  0.621277  1
  Pt  Pt11  1  0.750000  0.232755  0.879856  1
