# generated using pymatgen
data_Ca3SmTi4O12
_symmetry_space_group_name_H-M   'P 1'
_cell_length_a   5.42715616
_cell_length_b   5.53962016
_cell_length_c   7.72489100
_cell_angle_alpha   90.00000000
_cell_angle_beta   90.00000000
_cell_angle_gamma   89.97258051
_symmetry_Int_Tables_number   1
_chemical_formula_structural   Ca3SmTi4O12
_chemical_formula_sum   'Ca3 Sm1 Ti4 O12'
_cell_volume   232.24406002
_cell_formula_units_Z   1
loop_
 _symmetry_equiv_pos_site_id
 _symmetry_equiv_pos_as_xyz
  1  'x, y, z'
loop_
 _atom_site_type_symbol
 _atom_site_label
 _atom_site_symmetry_multiplicity
 _atom_site_fract_x
 _atom_site_fract_y
 _atom_site_fract_z
 _atom_site_occupancy
  Ca  Ca0  1  0.491446  0.456409  0.250000  1
  Ca  Ca1  1  0.990494  0.044063  0.750000  1
  Ca  Ca2  1  0.009797  0.957147  0.250000  1
  Sm  Sm3  1  0.509793  0.550384  0.750000  1
  Ti  Ti4  1  0.001731  0.499194  0.497028  1
  Ti  Ti5  1  0.001731  0.499194  0.002972  1
  Ti  Ti6  1  0.498769  0.002178  0.497170  1
  Ti  Ti7  1  0.498769  0.002178  0.002830  1
  O  O8  1  0.083243  0.479422  0.750000  1
  O  O9  1  0.922769  0.521572  0.250000  1
  O  O10  1  0.420303  0.978595  0.750000  1
  O  O11  1  0.580154  0.020624  0.250000  1
  O  O12  1  0.787805  0.786463  0.954097  1
  O  O13  1  0.207644  0.208597  0.458698  1
  O  O14  1  0.207644  0.208597  0.041302  1
  O  O15  1  0.787805  0.786463  0.545903  1
  O  O16  1  0.705735  0.292809  0.956078  1
  O  O17  1  0.294317  0.706651  0.462134  1
  O  O18  1  0.294317  0.706651  0.037866  1
  O  O19  1  0.705735  0.292809  0.543922  1
