# generated using pymatgen
data_TbTm7Hg4
_symmetry_space_group_name_H-M   'P 1'
_cell_length_a   5.07019600
_cell_length_b   6.92521257
_cell_length_c   9.19175895
_cell_angle_alpha   89.99381951
_cell_angle_beta   90.00000000
_cell_angle_gamma   90.00000000
_symmetry_Int_Tables_number   1
_chemical_formula_structural   TbTm7Hg4
_chemical_formula_sum   'Tb1 Tm7 Hg4'
_cell_volume   322.74273964
_cell_formula_units_Z   1
loop_
 _symmetry_equiv_pos_site_id
 _symmetry_equiv_pos_as_xyz
  1  'x, y, z'
loop_
 _atom_site_type_symbol
 _atom_site_label
 _atom_site_symmetry_multiplicity
 _atom_site_fract_x
 _atom_site_fract_y
 _atom_site_fract_z
 _atom_site_occupancy
  Tb  Tb0  1  0.750000  0.330431  0.925294  1
  Tm  Tm1  1  0.250000  0.016637  0.804809  1
  Tm  Tm2  1  0.250000  0.518786  0.692068  1
  Tm  Tm3  1  0.750000  0.980515  0.196974  1
  Tm  Tm4  1  0.750000  0.482558  0.305970  1
  Tm  Tm5  1  0.250000  0.166145  0.426891  1
  Tm  Tm6  1  0.250000  0.668694  0.073543  1
  Tm  Tm7  1  0.750000  0.832722  0.574977  1
  Hg  Hg8  1  0.250000  0.733064  0.396352  1
  Hg  Hg9  1  0.250000  0.231467  0.105808  1
  Hg  Hg10  1  0.750000  0.267026  0.599155  1
  Hg  Hg11  1  0.750000  0.771956  0.898160  1
