# generated using pymatgen
data_Pr12Ga5Ge3Ir8
_symmetry_space_group_name_H-M   'P 1'
_cell_length_a   5.78540873
_cell_length_b   8.22828942
_cell_length_c   13.67303900
_cell_angle_alpha   90.00000000
_cell_angle_beta   90.00000000
_cell_angle_gamma   90.08831982
_symmetry_Int_Tables_number   1
_chemical_formula_structural   Pr12Ga5Ge3Ir8
_chemical_formula_sum   'Pr12 Ga5 Ge3 Ir8'
_cell_volume   650.89081435
_cell_formula_units_Z   1
loop_
 _symmetry_equiv_pos_site_id
 _symmetry_equiv_pos_as_xyz
  1  'x, y, z'
loop_
 _atom_site_type_symbol
 _atom_site_label
 _atom_site_symmetry_multiplicity
 _atom_site_fract_x
 _atom_site_fract_y
 _atom_site_fract_z
 _atom_site_occupancy
  Pr  Pr0  1  0.147191  0.894243  0.599842  1
  Pr  Pr1  1  0.852830  0.105044  0.100192  1
  Pr  Pr2  1  0.147403  0.604691  0.399815  1
  Pr  Pr3  1  0.852504  0.396158  0.900685  1
  Pr  Pr4  1  0.852830  0.105044  0.399808  1
  Pr  Pr5  1  0.147191  0.894243  0.900158  1
  Pr  Pr6  1  0.852504  0.396158  0.599315  1
  Pr  Pr7  1  0.147403  0.604691  0.100185  1
  Pr  Pr8  1  0.368827  0.251388  0.750000  1
  Pr  Pr9  1  0.631885  0.747854  0.250000  1
  Pr  Pr10  1  0.366795  0.248150  0.250000  1
  Pr  Pr11  1  0.630814  0.753188  0.750000  1
  Ga  Ga12  1  0.136445  0.603862  0.750000  1
  Ga  Ga13  1  0.380239  0.249488  0.499698  1
  Ga  Ga14  1  0.619682  0.750716  0.000295  1
  Ga  Ga15  1  0.619682  0.750716  0.499705  1
  Ga  Ga16  1  0.380239  0.249488  0.000302  1
  Ge  Ge17  1  0.864881  0.105806  0.750000  1
  Ge  Ge18  1  0.137187  0.893426  0.250000  1
  Ge  Ge19  1  0.862374  0.393526  0.250000  1
  Ir  Ir20  1  0.640934  0.027254  0.592411  1
  Ir  Ir21  1  0.359752  0.973662  0.092788  1
  Ir  Ir22  1  0.641281  0.474168  0.406781  1
  Ir  Ir23  1  0.358582  0.525975  0.908609  1
  Ir  Ir24  1  0.359752  0.973662  0.407212  1
  Ir  Ir25  1  0.640934  0.027254  0.907589  1
  Ir  Ir26  1  0.358582  0.525975  0.591391  1
  Ir  Ir27  1  0.641281  0.474168  0.093219  1
