# generated using pymatgen
data_Li2Er4Co17P12Ru
_symmetry_space_group_name_H-M   'P 1'
_cell_length_a   3.66731200
_cell_length_b   10.25815150
_cell_length_c   11.79199541
_cell_angle_alpha   90.16072574
_cell_angle_beta   90.00000000
_cell_angle_gamma   90.00000000
_symmetry_Int_Tables_number   1
_chemical_formula_structural   Li2Er4Co17P12Ru
_chemical_formula_sum   'Li2 Er4 Co17 P12 Ru1'
_cell_volume   443.61126011
_cell_formula_units_Z   1
loop_
 _symmetry_equiv_pos_site_id
 _symmetry_equiv_pos_as_xyz
  1  'x, y, z'
loop_
 _atom_site_type_symbol
 _atom_site_label
 _atom_site_symmetry_multiplicity
 _atom_site_fract_x
 _atom_site_fract_y
 _atom_site_fract_z
 _atom_site_occupancy
  Li  Li0  1  0.250000  0.703860  0.990995  1
  Li  Li1  1  0.250000  0.796213  0.490577  1
  Er  Er2  1  0.250000  0.580894  0.702370  1
  Er  Er3  1  0.250000  0.917351  0.204323  1
  Er  Er4  1  0.750000  0.418074  0.296619  1
  Er  Er5  1  0.750000  0.080005  0.798558  1
  Co  Co6  1  0.750000  0.212203  0.508663  1
  Co  Co7  1  0.250000  0.403904  0.487047  1
  Co  Co8  1  0.250000  0.093695  0.988590  1
  Co  Co9  1  0.750000  0.591003  0.514271  1
  Co  Co10  1  0.750000  0.908323  0.015549  1
  Co  Co11  1  0.250000  0.222641  0.175624  1
  Co  Co12  1  0.250000  0.275917  0.675150  1
  Co  Co13  1  0.750000  0.781987  0.824749  1
  Co  Co14  1  0.750000  0.719365  0.325993  1
  Co  Co15  1  0.250000  0.883000  0.698223  1
  Co  Co16  1  0.250000  0.617577  0.199897  1
  Co  Co17  1  0.750000  0.118949  0.300268  1
  Co  Co18  1  0.750000  0.383465  0.796709  1
  Co  Co19  1  0.250000  0.464879  0.929882  1
  Co  Co20  1  0.250000  0.035923  0.431513  1
  Co  Co21  1  0.750000  0.536338  0.066243  1
  Co  Co22  1  0.750000  0.967634  0.566581  1
  P  P23  1  0.250000  0.423494  0.112693  1
  P  P24  1  0.250000  0.078434  0.612274  1
  P  P25  1  0.750000  0.580631  0.883829  1
  P  P26  1  0.750000  0.921399  0.384538  1
  P  P27  1  0.250000  0.268316  0.865087  1
  P  P28  1  0.250000  0.231617  0.367600  1
  P  P29  1  0.750000  0.730572  0.137802  1
  P  P30  1  0.750000  0.770686  0.637411  1
  P  P31  1  0.250000  0.599509  0.392810  1
  P  P32  1  0.250000  0.898748  0.892612  1
  P  P33  1  0.750000  0.397735  0.606153  1
  P  P34  1  0.750000  0.097221  0.110386  1
  Ru  Ru35  1  0.750000  0.288440  0.008411  1
