# generated using pymatgen
data_Zn22Ir3Pd
_symmetry_space_group_name_H-M   'P 1'
_cell_length_a   7.91228632
_cell_length_b   7.93724584
_cell_length_c   7.93724590
_cell_angle_alpha   109.53483379
_cell_angle_beta   109.40753269
_cell_angle_gamma   109.40753227
_symmetry_Int_Tables_number   1
_chemical_formula_structural   Zn22Ir3Pd
_chemical_formula_sum   'Zn22 Ir3 Pd1'
_cell_volume   384.02590460
_cell_formula_units_Z   1
loop_
 _symmetry_equiv_pos_site_id
 _symmetry_equiv_pos_as_xyz
  1  'x, y, z'
loop_
 _atom_site_type_symbol
 _atom_site_label
 _atom_site_symmetry_multiplicity
 _atom_site_fract_x
 _atom_site_fract_y
 _atom_site_fract_z
 _atom_site_occupancy
  Zn  Zn0  1  0.792960  0.000000  0.000000  1
  Zn  Zn1  1  0.650348  0.268754  0.000000  1
  Zn  Zn2  1  0.357316  0.355498  0.000000  1
  Zn  Zn3  1  0.636121  0.649167  0.000000  1
  Zn  Zn4  1  0.268279  0.649298  0.000000  1
  Zn  Zn5  1  0.996840  0.784614  0.000000  1
  Zn  Zn6  1  0.212227  0.215387  0.215387  1
  Zn  Zn7  1  0.650348  0.000000  0.268754  1
  Zn  Zn8  1  0.002852  0.650783  0.265992  1
  Zn  Zn9  1  0.618980  0.350701  0.350701  1
  Zn  Zn10  1  0.352068  0.615208  0.349216  1
  Zn  Zn11  1  0.357316  0.000000  0.355498  1
  Zn  Zn12  1  0.986954  0.350833  0.350833  1
  Zn  Zn13  1  0.736860  0.734008  0.384790  1
  Zn  Zn14  1  0.352068  0.349216  0.615208  1
  Zn  Zn15  1  0.636121  0.000000  0.649167  1
  Zn  Zn16  1  0.001818  0.644502  0.644502  1
  Zn  Zn17  1  0.268279  0.000000  0.649298  1
  Zn  Zn18  1  0.002852  0.265992  0.650783  1
  Zn  Zn19  1  0.736860  0.384790  0.734008  1
  Zn  Zn20  1  0.381593  0.731246  0.731246  1
  Zn  Zn21  1  0.996840  0.000000  0.784614  1
  Ir  Ir22  1  0.001918  0.347327  0.000000  1
  Ir  Ir23  1  0.001918  0.000000  0.347327  1
  Ir  Ir24  1  0.654593  0.652674  0.652674  1
  Pd  Pd25  1  0.345665  0.000000  0.000000  1
