# generated using pymatgen
data_LiHf(Nb2B5)4
_symmetry_space_group_name_H-M   'P 1'
_cell_length_a   6.21550996
_cell_length_b   7.05532115
_cell_length_c   7.36885573
_cell_angle_alpha   93.54928871
_cell_angle_beta   102.13656250
_cell_angle_gamma   116.16667302
_symmetry_Int_Tables_number   1
_chemical_formula_structural   LiHf(Nb2B5)4
_chemical_formula_sum   'Li1 Hf1 Nb8 B20'
_cell_volume   279.10570608
_cell_formula_units_Z   1
loop_
 _symmetry_equiv_pos_site_id
 _symmetry_equiv_pos_as_xyz
  1  'x, y, z'
loop_
 _atom_site_type_symbol
 _atom_site_label
 _atom_site_symmetry_multiplicity
 _atom_site_fract_x
 _atom_site_fract_y
 _atom_site_fract_z
 _atom_site_occupancy
  Li  Li0  1  0.999962  0.999943  0.999955  1
  Hf  Hf1  1  0.500227  0.800341  0.399643  1
  Nb  Nb2  1  0.500597  0.002062  0.998879  1
  Nb  Nb3  1  0.000035  0.396714  0.199622  1
  Nb  Nb4  1  0.501114  0.199743  0.600613  1
  Nb  Nb5  1  0.998522  0.795429  0.399970  1
  Nb  Nb6  1  0.502486  0.599522  0.800490  1
  Nb  Nb7  1  0.496656  0.399057  0.198877  1
  Nb  Nb8  1  0.001381  0.204959  0.601523  1
  Nb  Nb9  1  0.999290  0.602874  0.799896  1
  B  B10  1  0.329046  0.229837  0.868963  1
  B  B11  1  0.333149  0.632998  0.066288  1
  B  B12  1  0.164937  0.362182  0.936002  1
  B  B13  1  0.329561  0.033481  0.263511  1
  B  B14  1  0.164373  0.768842  0.129802  1
  B  B15  1  0.835226  0.230544  0.869199  1
  B  B16  1  0.164758  0.164229  0.328538  1
  B  B17  1  0.835337  0.638095  0.064195  1
  B  B18  1  0.332961  0.432170  0.465354  1
  B  B19  1  0.666717  0.366979  0.933178  1
  B  B20  1  0.835121  0.033262  0.262863  1
  B  B21  1  0.670179  0.769155  0.130191  1
  B  B22  1  0.334397  0.835090  0.668161  1
  B  B23  1  0.167583  0.567460  0.534063  1
  B  B24  1  0.665387  0.165085  0.332262  1
  B  B25  1  0.832325  0.432281  0.466742  1
  B  B26  1  0.165252  0.967312  0.737617  1
  B  B27  1  0.835642  0.835375  0.671428  1
  B  B28  1  0.667189  0.567398  0.534714  1
  B  B29  1  0.670592  0.967578  0.737461  1
