# generated using pymatgen
data_Eu2ZnGa3
_symmetry_space_group_name_H-M   'P 1'
_cell_length_a   5.88896545
_cell_length_b   5.88896491
_cell_length_c   7.58449648
_cell_angle_alpha   49.66559877
_cell_angle_beta   49.66560325
_cell_angle_gamma   46.14620835
_symmetry_Int_Tables_number   1
_chemical_formula_structural   Eu2ZnGa3
_chemical_formula_sum   'Eu2 Zn1 Ga3'
_cell_volume   134.79512380
_cell_formula_units_Z   1
loop_
 _symmetry_equiv_pos_site_id
 _symmetry_equiv_pos_as_xyz
  1  'x, y, z'
loop_
 _atom_site_type_symbol
 _atom_site_label
 _atom_site_symmetry_multiplicity
 _atom_site_fract_x
 _atom_site_fract_y
 _atom_site_fract_z
 _atom_site_occupancy
  Eu  Eu0  1  0.956764  0.956764  0.792371  1
  Eu  Eu1  1  0.045039  0.045039  0.206559  1
  Zn  Zn2  1  0.334456  0.334456  0.601921  1
  Ga  Ga3  1  0.659910  0.659910  0.399825  1
  Ga  Ga4  1  0.664842  0.664842  0.776137  1
  Ga  Ga5  1  0.338988  0.338988  0.223188  1
