# generated using pymatgen
data_Y11Tl9Rh4
_symmetry_space_group_name_H-M   'P 1'
_cell_length_a   13.25604579
_cell_length_b   13.25604611
_cell_length_c   3.70042000
_cell_angle_alpha   90.00000000
_cell_angle_beta   90.00000000
_cell_angle_gamma   111.09010774
_symmetry_Int_Tables_number   1
_chemical_formula_structural   Y11Tl9Rh4
_chemical_formula_sum   'Y11 Tl9 Rh4'
_cell_volume   606.69157132
_cell_formula_units_Z   1
loop_
 _symmetry_equiv_pos_site_id
 _symmetry_equiv_pos_as_xyz
  1  'x, y, z'
loop_
 _atom_site_type_symbol
 _atom_site_label
 _atom_site_symmetry_multiplicity
 _atom_site_fract_x
 _atom_site_fract_y
 _atom_site_fract_z
 _atom_site_occupancy
  Y  Y0  1  0.081845  0.418560  0.000000  1
  Y  Y1  1  0.918155  0.581440  0.000000  1
  Y  Y2  1  0.418560  0.081845  0.000000  1
  Y  Y3  1  0.581440  0.918155  0.000000  1
  Y  Y4  1  0.624013  0.375987  0.000000  1
  Y  Y5  1  0.375987  0.624013  0.000000  1
  Y  Y6  1  0.839145  0.160855  0.000000  1
  Y  Y7  1  0.160855  0.839145  0.000000  1
  Y  Y8  1  0.000000  0.000000  0.000000  1
  Y  Y9  1  0.313060  0.313060  0.000000  1
  Y  Y10  1  0.686940  0.686940  0.000000  1
  Tl  Tl11  1  0.842926  0.369918  0.500000  1
  Tl  Tl12  1  0.157074  0.630082  0.500000  1
  Tl  Tl13  1  0.369918  0.842926  0.500000  1
  Tl  Tl14  1  0.630082  0.157074  0.500000  1
  Tl  Tl15  1  0.072964  0.217913  0.500000  1
  Tl  Tl16  1  0.927036  0.782087  0.500000  1
  Tl  Tl17  1  0.217913  0.072964  0.500000  1
  Tl  Tl18  1  0.782087  0.927036  0.500000  1
  Tl  Tl19  1  0.500000  0.500000  0.500000  1
  Rh  Rh20  1  0.245859  0.448180  0.500000  1
  Rh  Rh21  1  0.754141  0.551820  0.500000  1
  Rh  Rh22  1  0.448180  0.245859  0.500000  1
  Rh  Rh23  1  0.551820  0.754141  0.500000  1
