# generated using pymatgen
data_Th2Mg2Si2IrRh3
_symmetry_space_group_name_H-M   'P 1'
_cell_length_a   4.05508900
_cell_length_b   4.05508900
_cell_length_c   11.52958600
_cell_angle_alpha   90.00000000
_cell_angle_beta   90.00000000
_cell_angle_gamma   90.00000000
_symmetry_Int_Tables_number   1
_chemical_formula_structural   Th2Mg2Si2IrRh3
_chemical_formula_sum   'Th2 Mg2 Si2 Ir1 Rh3'
_cell_volume   189.58959287
_cell_formula_units_Z   1
loop_
 _symmetry_equiv_pos_site_id
 _symmetry_equiv_pos_as_xyz
  1  'x, y, z'
loop_
 _atom_site_type_symbol
 _atom_site_label
 _atom_site_symmetry_multiplicity
 _atom_site_fract_x
 _atom_site_fract_y
 _atom_site_fract_z
 _atom_site_occupancy
  Th  Th0  1  0.000000  0.500000  0.236926  1
  Th  Th1  1  0.500000  0.000000  0.764303  1
  Mg  Mg2  1  0.000000  0.000000  0.499653  1
  Mg  Mg3  1  0.500000  0.500000  0.499653  1
  Si  Si4  1  0.000000  0.500000  0.887356  1
  Si  Si5  1  0.500000  0.000000  0.112249  1
  Ir  Ir6  1  0.500000  0.000000  0.322909  1
  Rh  Rh7  1  0.000000  0.000000  0.000169  1
  Rh  Rh8  1  0.500000  0.500000  0.000169  1
  Rh  Rh9  1  0.000000  0.500000  0.676614  1
