# generated using pymatgen
data_Tb6Fe3Co14MoP12
_symmetry_space_group_name_H-M   'P 1'
_cell_length_a   3.71804800
_cell_length_b   10.57645600
_cell_length_c   12.17647200
_cell_angle_alpha   90.00000000
_cell_angle_beta   90.00000000
_cell_angle_gamma   90.00000000
_symmetry_Int_Tables_number   1
_chemical_formula_structural   Tb6Fe3Co14MoP12
_chemical_formula_sum   'Tb6 Fe3 Co14 Mo1 P12'
_cell_volume   478.82479746
_cell_formula_units_Z   1
loop_
 _symmetry_equiv_pos_site_id
 _symmetry_equiv_pos_as_xyz
  1  'x, y, z'
loop_
 _atom_site_type_symbol
 _atom_site_label
 _atom_site_symmetry_multiplicity
 _atom_site_fract_x
 _atom_site_fract_y
 _atom_site_fract_z
 _atom_site_occupancy
  Tb  Tb0  1  0.000000  0.500000  0.524994  1
  Tb  Tb1  1  0.500000  0.000000  0.477715  1
  Tb  Tb2  1  0.500000  0.819030  0.204722  1
  Tb  Tb3  1  0.500000  0.180970  0.204722  1
  Tb  Tb4  1  0.000000  0.681657  0.796623  1
  Tb  Tb5  1  0.000000  0.318343  0.796623  1
  Fe  Fe6  1  0.000000  0.000000  0.843862  1
  Fe  Fe7  1  0.000000  0.500000  0.985862  1
  Fe  Fe8  1  0.500000  0.000000  0.011462  1
  Co  Co9  1  0.500000  0.500000  0.699667  1
  Co  Co10  1  0.000000  0.000000  0.299086  1
  Co  Co11  1  0.500000  0.329845  0.991114  1
  Co  Co12  1  0.500000  0.670155  0.991114  1
  Co  Co13  1  0.000000  0.166670  0.005378  1
  Co  Co14  1  0.000000  0.833330  0.005378  1
  Co  Co15  1  0.500000  0.295632  0.431867  1
  Co  Co16  1  0.500000  0.704368  0.431867  1
  Co  Co17  1  0.000000  0.203110  0.569893  1
  Co  Co18  1  0.000000  0.796890  0.569893  1
  Co  Co19  1  0.500000  0.879667  0.708707  1
  Co  Co20  1  0.500000  0.120333  0.708707  1
  Co  Co21  1  0.000000  0.621731  0.292581  1
  Co  Co22  1  0.000000  0.378269  0.292581  1
  Mo  Mo23  1  0.500000  0.500000  0.155007  1
  P  P24  1  0.500000  0.500000  0.883238  1
  P  P25  1  0.000000  0.000000  0.115386  1
  P  P26  1  0.500000  0.500000  0.348684  1
  P  P27  1  0.000000  0.000000  0.658479  1
  P  P28  1  0.500000  0.308699  0.616969  1
  P  P29  1  0.500000  0.691301  0.616969  1
  P  P30  1  0.000000  0.189979  0.384772  1
  P  P31  1  0.000000  0.810021  0.384772  1
  P  P32  1  0.500000  0.849287  0.892090  1
  P  P33  1  0.500000  0.150713  0.892090  1
  P  P34  1  0.000000  0.655428  0.103563  1
  P  P35  1  0.000000  0.344572  0.103563  1
