# generated using pymatgen
data_Dy12In2Si3Ru
_symmetry_space_group_name_H-M   'P 1'
_cell_length_a   8.51378816
_cell_length_b   8.51378831
_cell_length_c   8.51378850
_cell_angle_alpha   111.39268875
_cell_angle_beta   111.50943833
_cell_angle_gamma   105.58023432
_symmetry_Int_Tables_number   1
_chemical_formula_structural   Dy12In2Si3Ru
_chemical_formula_sum   'Dy12 In2 Si3 Ru1'
_cell_volume   473.42880663
_cell_formula_units_Z   1
loop_
 _symmetry_equiv_pos_site_id
 _symmetry_equiv_pos_as_xyz
  1  'x, y, z'
loop_
 _atom_site_type_symbol
 _atom_site_label
 _atom_site_symmetry_multiplicity
 _atom_site_fract_x
 _atom_site_fract_y
 _atom_site_fract_z
 _atom_site_occupancy
  Dy  Dy0  1  0.450338  0.240485  0.209854  1
  Dy  Dy1  1  0.561031  0.762716  0.798314  1
  Dy  Dy2  1  0.035598  0.237284  0.798314  1
  Dy  Dy3  1  0.969370  0.759515  0.209854  1
  Dy  Dy4  1  0.185913  0.275066  0.460980  1
  Dy  Dy5  1  0.817637  0.725459  0.543096  1
  Dy  Dy6  1  0.185913  0.724934  0.910847  1
  Dy  Dy7  1  0.817637  0.274541  0.092177  1
  Dy  Dy8  1  0.322939  0.622095  0.296420  1
  Dy  Dy9  1  0.674326  0.377905  0.700844  1
  Dy  Dy10  1  0.322939  0.026520  0.700844  1
  Dy  Dy11  1  0.674326  0.973480  0.296420  1
  In  In12  1  0.499769  0.500000  0.999769  1
  In  In13  1  0.011460  0.000000  0.011460  1
  Si  Si14  1  0.623404  0.000000  0.623404  1
  Si  Si15  1  0.118085  0.615513  0.502572  1
  Si  Si16  1  0.887060  0.384487  0.502572  1
  Ru  Ru17  1  0.342257  0.000000  0.342257  1
