# generated using pymatgen
data_Nd5(RuO6)2
_symmetry_space_group_name_H-M   'P 1'
_cell_length_a   7.07762779
_cell_length_b   7.07762759
_cell_length_c   7.68943813
_cell_angle_alpha   74.21679665
_cell_angle_beta   74.21679475
_cell_angle_gamma   50.12546853
_symmetry_Int_Tables_number   1
_chemical_formula_structural   Nd5(RuO6)2
_chemical_formula_sum   'Nd5 Ru2 O12'
_cell_volume   281.96955677
_cell_formula_units_Z   1
loop_
 _symmetry_equiv_pos_site_id
 _symmetry_equiv_pos_as_xyz
  1  'x, y, z'
loop_
 _atom_site_type_symbol
 _atom_site_label
 _atom_site_symmetry_multiplicity
 _atom_site_fract_x
 _atom_site_fract_y
 _atom_site_fract_z
 _atom_site_occupancy
  Nd  Nd0  1  0.306012  0.306012  0.358098  1
  Nd  Nd1  1  0.693988  0.693988  0.641902  1
  Nd  Nd2  1  0.690543  0.690543  0.168039  1
  Nd  Nd3  1  0.309457  0.309457  0.831961  1
  Nd  Nd4  1  0.000000  0.000000  0.500000  1
  Ru  Ru5  1  0.764678  0.235322  0.000000  1
  Ru  Ru6  1  0.235322  0.764678  0.000000  1
  O  O7  1  0.095733  0.594764  0.577530  1
  O  O8  1  0.999118  0.999118  0.186934  1
  O  O9  1  0.405236  0.904267  0.422470  1
  O  O10  1  0.499836  0.499836  0.173288  1
  O  O11  1  0.095621  0.584712  0.079041  1
  O  O12  1  0.904267  0.405236  0.422470  1
  O  O13  1  0.000882  0.000882  0.813066  1
  O  O14  1  0.594764  0.095732  0.577530  1
  O  O15  1  0.500164  0.500164  0.826712  1
  O  O16  1  0.584712  0.095621  0.079041  1
  O  O17  1  0.415288  0.904379  0.920959  1
  O  O18  1  0.904379  0.415288  0.920959  1
