# generated using pymatgen
data_Sm3U(B4Ru)4
_symmetry_space_group_name_H-M   'P 1'
_cell_length_a   3.59658800
_cell_length_b   6.00047154
_cell_length_c   11.62951860
_cell_angle_alpha   89.92788924
_cell_angle_beta   90.00000000
_cell_angle_gamma   90.00000000
_symmetry_Int_Tables_number   1
_chemical_formula_structural   Sm3U(B4Ru)4
_chemical_formula_sum   'Sm3 U1 B16 Ru4'
_cell_volume   250.97904659
_cell_formula_units_Z   1
loop_
 _symmetry_equiv_pos_site_id
 _symmetry_equiv_pos_as_xyz
  1  'x, y, z'
loop_
 _atom_site_type_symbol
 _atom_site_label
 _atom_site_symmetry_multiplicity
 _atom_site_fract_x
 _atom_site_fract_y
 _atom_site_fract_z
 _atom_site_occupancy
  Sm  Sm0  1  0.000000  0.627903  0.350173  1
  Sm  Sm1  1  0.000000  0.371943  0.648704  1
  Sm  Sm2  1  0.000000  0.129020  0.150477  1
  U  U3  1  0.000000  0.871690  0.849729  1
  B  B4  1  0.500000  0.784796  0.184822  1
  B  B5  1  0.500000  0.208785  0.814779  1
  B  B6  1  0.500000  0.285630  0.315669  1
  B  B7  1  0.500000  0.714986  0.688660  1
  B  B8  1  0.500000  0.864517  0.029291  1
  B  B9  1  0.500000  0.134261  0.966703  1
  B  B10  1  0.500000  0.362223  0.469393  1
  B  B11  1  0.500000  0.639022  0.532238  1
  B  B12  1  0.500000  0.888626  0.454856  1
  B  B13  1  0.500000  0.111232  0.546443  1
  B  B14  1  0.500000  0.389737  0.045122  1
  B  B15  1  0.500000  0.614732  0.952450  1
  B  B16  1  0.500000  0.974596  0.309838  1
  B  B17  1  0.500000  0.024484  0.693039  1
  B  B18  1  0.500000  0.475611  0.189406  1
  B  B19  1  0.500000  0.527688  0.809199  1
  Ru  Ru20  1  0.000000  0.641905  0.088041  1
  Ru  Ru21  1  0.000000  0.359559  0.905050  1
  Ru  Ru22  1  0.000000  0.136083  0.408739  1
  Ru  Ru23  1  0.000000  0.860972  0.597178  1
