# generated using pymatgen
data_ErLu2Co9(SiB2)2
_symmetry_space_group_name_H-M   'P 1'
_cell_length_a   5.06929700
_cell_length_b   5.07007864
_cell_length_c   9.31722300
_cell_angle_alpha   89.99991102
_cell_angle_beta   90.00008626
_cell_angle_gamma   119.99284339
_symmetry_Int_Tables_number   1
_chemical_formula_structural   ErLu2Co9(SiB2)2
_chemical_formula_sum   'Er1 Lu2 Co9 Si2 B4'
_cell_volume   207.40101065
_cell_formula_units_Z   1
loop_
 _symmetry_equiv_pos_site_id
 _symmetry_equiv_pos_as_xyz
  1  'x, y, z'
loop_
 _atom_site_type_symbol
 _atom_site_label
 _atom_site_symmetry_multiplicity
 _atom_site_fract_x
 _atom_site_fract_y
 _atom_site_fract_z
 _atom_site_occupancy
  Er  Er0  1  0.999983  0.000003  0.000004  1
  Lu  Lu1  1  0.999993  0.000002  0.338659  1
  Lu  Lu2  1  0.000004  0.000004  0.661260  1
  Co  Co3  1  0.499999  0.999999  0.499975  1
  Co  Co4  1  0.500001  0.500002  0.499974  1
  Co  Co5  1  0.999997  0.499995  0.499990  1
  Co  Co6  1  0.499993  0.000004  0.197088  1
  Co  Co7  1  0.499987  0.499997  0.197052  1
  Co  Co8  1  0.999990  0.500000  0.197050  1
  Co  Co9  1  0.499999  0.999999  0.802941  1
  Co  Co10  1  0.499997  0.500000  0.802971  1
  Co  Co11  1  0.999997  0.499997  0.802968  1
  Si  Si12  1  0.333354  0.666700  0.000071  1
  Si  Si13  1  0.666619  0.333301  0.000073  1
  B  B14  1  0.333314  0.666596  0.346131  1
  B  B15  1  0.666672  0.333401  0.346130  1
  B  B16  1  0.666676  0.333380  0.653832  1
  B  B17  1  0.333324  0.666622  0.653833  1
