# generated using pymatgen
data_Ho7InCo4Si11Ge
_symmetry_space_group_name_H-M   'P 1'
_cell_length_a   10.10407385
_cell_length_b   10.12254079
_cell_length_c   4.07225200
_cell_angle_alpha   90.00000000
_cell_angle_beta   90.00000000
_cell_angle_gamma   89.75129482
_symmetry_Int_Tables_number   1
_chemical_formula_structural   Ho7InCo4Si11Ge
_chemical_formula_sum   'Ho7 In1 Co4 Si11 Ge1'
_cell_volume   416.50152989
_cell_formula_units_Z   1
loop_
 _symmetry_equiv_pos_site_id
 _symmetry_equiv_pos_as_xyz
  1  'x, y, z'
loop_
 _atom_site_type_symbol
 _atom_site_label
 _atom_site_symmetry_multiplicity
 _atom_site_fract_x
 _atom_site_fract_y
 _atom_site_fract_z
 _atom_site_occupancy
  Ho  Ho0  1  0.999693  0.997594  0.000000  1
  Ho  Ho1  1  0.500670  0.000456  0.500001  1
  Ho  Ho2  1  0.679235  0.318753  0.500001  1
  Ho  Ho3  1  0.323574  0.325993  0.500001  1
  Ho  Ho4  1  0.999675  0.498091  0.500001  1
  Ho  Ho5  1  0.682433  0.677188  0.500001  1
  Ho  Ho6  1  0.322025  0.678367  0.500001  1
  In  In7  1  0.502679  0.500364  0.000000  1
  Co  Co8  1  0.277541  0.123460  0.000000  1
  Co  Co9  1  0.883210  0.275749  0.000000  1
  Co  Co10  1  0.115425  0.717964  0.000000  1
  Co  Co11  1  0.722874  0.881912  0.000000  1
  Si  Si12  1  0.716522  0.109614  0.000000  1
  Si  Si13  1  0.490773  0.207632  0.000000  1
  Si  Si14  1  0.110648  0.284515  0.000000  1
  Si  Si15  1  0.793049  0.488004  0.000000  1
  Si  Si16  1  0.206833  0.509642  0.000000  1
  Si  Si17  1  0.889060  0.714192  0.000000  1
  Si  Si18  1  0.514815  0.790273  0.000000  1
  Si  Si19  1  0.192707  0.070962  0.500001  1
  Si  Si20  1  0.947792  0.199344  0.500001  1
  Si  Si21  1  0.045567  0.792147  0.500001  1
  Si  Si22  1  0.797827  0.948651  0.500001  1
  Ge  Ge23  1  0.285369  0.889129  0.000000  1
