# generated using pymatgen
data_Tb4Er4Hf9Si16Mo3
_symmetry_space_group_name_H-M   'P 1'
_cell_length_a   7.18713185
_cell_length_b   7.18515067
_cell_length_c   13.13802787
_cell_angle_alpha   90.08866386
_cell_angle_beta   90.08320449
_cell_angle_gamma   90.07717073
_symmetry_Int_Tables_number   1
_chemical_formula_structural   Tb4Er4Hf9Si16Mo3
_chemical_formula_sum   'Tb4 Er4 Hf9 Si16 Mo3'
_cell_volume   678.45382884
_cell_formula_units_Z   1
loop_
 _symmetry_equiv_pos_site_id
 _symmetry_equiv_pos_as_xyz
  1  'x, y, z'
loop_
 _atom_site_type_symbol
 _atom_site_label
 _atom_site_symmetry_multiplicity
 _atom_site_fract_x
 _atom_site_fract_y
 _atom_site_fract_z
 _atom_site_occupancy
  Tb  Tb0  1  0.846255  0.501786  0.967797  1
  Tb  Tb1  1  0.498235  0.153977  0.532219  1
  Tb  Tb2  1  0.343160  0.996213  0.785464  1
  Tb  Tb3  1  0.655890  0.000751  0.284589  1
  Er  Er4  1  0.000155  0.344511  0.215190  1
  Er  Er5  1  0.002940  0.656459  0.714297  1
  Er  Er6  1  0.154488  0.500836  0.463818  1
  Er  Er7  1  0.499169  0.845315  0.036145  1
  Hf  Hf8  1  0.675758  0.324781  0.749992  1
  Hf  Hf9  1  0.146308  0.992846  0.373506  1
  Hf  Hf10  1  0.854976  0.004679  0.876762  1
  Hf  Hf11  1  0.505921  0.649119  0.621492  1
  Hf  Hf12  1  0.350672  0.494303  0.878497  1
  Hf  Hf13  1  0.492648  0.353010  0.125592  1
  Hf  Hf14  1  0.647147  0.507137  0.374343  1
  Hf  Hf15  1  0.995444  0.145017  0.623189  1
  Hf  Hf16  1  0.007043  0.853668  0.126429  1
  Si  Si17  1  0.359534  0.297679  0.317229  1
  Si  Si18  1  0.638630  0.705353  0.817386  1
  Si  Si19  1  0.203436  0.860144  0.566254  1
  Si  Si20  1  0.138936  0.795513  0.934116  1
  Si  Si21  1  0.796135  0.138138  0.068015  1
  Si  Si22  1  0.862874  0.205001  0.432359  1
  Si  Si23  1  0.293721  0.362975  0.682344  1
  Si  Si24  1  0.703301  0.638786  0.182461  1
  Si  Si25  1  0.295605  0.051480  0.183943  1
  Si  Si26  1  0.705517  0.946874  0.682580  1
  Si  Si27  1  0.447417  0.794478  0.432545  1
  Si  Si28  1  0.204703  0.551630  0.067855  1
  Si  Si29  1  0.548058  0.202305  0.936415  1
  Si  Si30  1  0.798403  0.452830  0.563942  1
  Si  Si31  1  0.052378  0.295972  0.817130  1
  Si  Si32  1  0.949492  0.702774  0.315760  1
  Mo  Mo33  1  0.176575  0.175303  0.001583  1
  Mo  Mo34  1  0.825080  0.823035  0.498769  1
  Mo  Mo35  1  0.323998  0.675319  0.249994  1
