# generated using pymatgen
data_Zr10AlSnBi5Au
_symmetry_space_group_name_H-M   'P 1'
_cell_length_a   8.90925694
_cell_length_b   8.90925651
_cell_length_c   5.96875264
_cell_angle_alpha   89.88557389
_cell_angle_beta   89.88557100
_cell_angle_gamma   120.20460097
_symmetry_Int_Tables_number   1
_chemical_formula_structural   Zr10AlSnBi5Au
_chemical_formula_sum   'Zr10 Al1 Sn1 Bi5 Au1'
_cell_volume   409.44407799
_cell_formula_units_Z   1
loop_
 _symmetry_equiv_pos_site_id
 _symmetry_equiv_pos_as_xyz
  1  'x, y, z'
loop_
 _atom_site_type_symbol
 _atom_site_label
 _atom_site_symmetry_multiplicity
 _atom_site_fract_x
 _atom_site_fract_y
 _atom_site_fract_z
 _atom_site_occupancy
  Zr  Zr0  1  0.000819  0.268723  0.261792  1
  Zr  Zr1  1  0.726230  0.994326  0.738641  1
  Zr  Zr2  1  0.730676  0.730676  0.259474  1
  Zr  Zr3  1  0.665673  0.336625  0.501965  1
  Zr  Zr4  1  0.994326  0.726230  0.738641  1
  Zr  Zr5  1  0.274556  0.274556  0.740013  1
  Zr  Zr6  1  0.336683  0.665299  0.998274  1
  Zr  Zr7  1  0.665299  0.336683  0.998274  1
  Zr  Zr8  1  0.336625  0.665673  0.501965  1
  Zr  Zr9  1  0.268723  0.000819  0.261792  1
  Al  Al10  1  0.000164  0.000164  0.504440  1
  Sn  Sn11  1  0.616361  0.616361  0.752104  1
  Bi  Bi12  1  0.614061  0.000444  0.246821  1
  Bi  Bi13  1  0.383681  0.999499  0.753402  1
  Bi  Bi14  1  0.386407  0.386407  0.246546  1
  Bi  Bi15  1  0.000444  0.614061  0.246821  1
  Bi  Bi16  1  0.999499  0.383681  0.753402  1
  Au  Au17  1  0.999770  0.999770  0.995637  1
