# generated using pymatgen
data_Tm2Lu8Cd3Ir
_symmetry_space_group_name_H-M   'P 1'
_cell_length_a   9.52525500
_cell_length_b   9.53258901
_cell_length_c   9.58011200
_cell_angle_alpha   90.00000000
_cell_angle_beta   90.00000000
_cell_angle_gamma   120.02547777
_symmetry_Int_Tables_number   1
_chemical_formula_structural   Tm2Lu8Cd3Ir
_chemical_formula_sum   'Tm4 Lu16 Cd6 Ir2'
_cell_volume   753.14248033
_cell_formula_units_Z   2
loop_
 _symmetry_equiv_pos_site_id
 _symmetry_equiv_pos_as_xyz
  1  'x, y, z'
loop_
 _atom_site_type_symbol
 _atom_site_label
 _atom_site_symmetry_multiplicity
 _atom_site_fract_x
 _atom_site_fract_y
 _atom_site_fract_z
 _atom_site_occupancy
  Tm  Tm0  1  0.915561  0.457781  0.250000  1
  Tm  Tm1  1  0.459443  0.540375  0.750000  1
  Tm  Tm2  1  0.459443  0.919067  0.750000  1
  Tm  Tm3  1  0.080329  0.540164  0.750000  1
  Lu  Lu4  1  0.000832  0.000416  0.499097  1
  Lu  Lu5  1  0.000832  0.000416  0.000903  1
  Lu  Lu6  1  0.210078  0.791230  0.439732  1
  Lu  Lu7  1  0.210078  0.418849  0.439732  1
  Lu  Lu8  1  0.582278  0.791139  0.440061  1
  Lu  Lu9  1  0.789653  0.208817  0.558535  1
  Lu  Lu10  1  0.789653  0.580837  0.558535  1
  Lu  Lu11  1  0.419760  0.209880  0.557916  1
  Lu  Lu12  1  0.789653  0.208817  0.941465  1
  Lu  Lu13  1  0.789653  0.580837  0.941465  1
  Lu  Lu14  1  0.419760  0.209880  0.942084  1
  Lu  Lu15  1  0.210078  0.791230  0.060268  1
  Lu  Lu16  1  0.210078  0.418849  0.060268  1
  Lu  Lu17  1  0.582278  0.791139  0.059939  1
  Lu  Lu18  1  0.539571  0.458844  0.250000  1
  Lu  Lu19  1  0.539571  0.080728  0.250000  1
  Cd  Cd20  1  0.884100  0.113357  0.250000  1
  Cd  Cd21  1  0.884100  0.770742  0.250000  1
  Cd  Cd22  1  0.229805  0.114902  0.250000  1
  Cd  Cd23  1  0.114337  0.886670  0.750000  1
  Cd  Cd24  1  0.114337  0.227667  0.750000  1
  Cd  Cd25  1  0.772813  0.886407  0.750000  1
  Ir  Ir26  1  0.334662  0.667331  0.250000  1
  Ir  Ir27  1  0.667261  0.333630  0.750000  1
