# generated using pymatgen
data_K2HfZr(AgTe3)2
_symmetry_space_group_name_H-M   'P 1'
_cell_length_a   8.89672257
_cell_length_b   4.22362600
_cell_length_c   10.91649602
_cell_angle_alpha   90.00000000
_cell_angle_beta   110.70122540
_cell_angle_gamma   90.00000000
_symmetry_Int_Tables_number   1
_chemical_formula_structural   K2HfZr(AgTe3)2
_chemical_formula_sum   'K2 Hf1 Zr1 Ag2 Te6'
_cell_volume   383.71878585
_cell_formula_units_Z   1
loop_
 _symmetry_equiv_pos_site_id
 _symmetry_equiv_pos_as_xyz
  1  'x, y, z'
loop_
 _atom_site_type_symbol
 _atom_site_label
 _atom_site_symmetry_multiplicity
 _atom_site_fract_x
 _atom_site_fract_y
 _atom_site_fract_z
 _atom_site_occupancy
  K  K0  1  0.253331  0.250000  0.288026  1
  K  K1  1  0.746633  0.750000  0.711999  1
  Hf  Hf2  1  0.305870  0.750000  0.831613  1
  Zr  Zr3  1  0.696514  0.250000  0.170361  1
  Ag  Ag4  1  0.924198  0.750000  0.397838  1
  Ag  Ag5  1  0.075709  0.250000  0.601758  1
  Te  Te6  1  0.444806  0.750000  0.123922  1
  Te  Te7  1  0.907833  0.750000  0.137452  1
  Te  Te8  1  0.729863  0.250000  0.439661  1
  Te  Te9  1  0.269655  0.750000  0.562009  1
  Te  Te10  1  0.094791  0.250000  0.861990  1
  Te  Te11  1  0.550797  0.250000  0.873369  1
