# generated using pymatgen
data_CaYPu2(SnPd)4
_symmetry_space_group_name_H-M   'P 1'
_cell_length_a   4.69875000
_cell_length_b   7.29027844
_cell_length_c   8.04155731
_cell_angle_alpha   90.12998204
_cell_angle_beta   90.00000000
_cell_angle_gamma   90.00000000
_symmetry_Int_Tables_number   1
_chemical_formula_structural   CaYPu2(SnPd)4
_chemical_formula_sum   'Ca1 Y1 Pu2 Sn4 Pd4'
_cell_volume   275.46441147
_cell_formula_units_Z   1
loop_
 _symmetry_equiv_pos_site_id
 _symmetry_equiv_pos_as_xyz
  1  'x, y, z'
loop_
 _atom_site_type_symbol
 _atom_site_label
 _atom_site_symmetry_multiplicity
 _atom_site_fract_x
 _atom_site_fract_y
 _atom_site_fract_z
 _atom_site_occupancy
  Ca  Ca0  1  0.750000  0.012325  0.700304  1
  Y  Y1  1  0.750000  0.512366  0.800579  1
  Pu  Pu2  1  0.250000  0.986441  0.298626  1
  Pu  Pu3  1  0.250000  0.487277  0.198531  1
  Sn  Sn4  1  0.250000  0.314096  0.584067  1
  Sn  Sn5  1  0.250000  0.812070  0.914416  1
  Sn  Sn6  1  0.750000  0.685727  0.417257  1
  Sn  Sn7  1  0.750000  0.186871  0.084272  1
  Pd  Pd8  1  0.250000  0.216054  0.911062  1
  Pd  Pd9  1  0.250000  0.704132  0.591852  1
  Pd  Pd10  1  0.750000  0.788366  0.086381  1
  Pd  Pd11  1  0.750000  0.294273  0.412653  1
