# generated using pymatgen
data_HoTm2Cr(Co4P3)2
_symmetry_space_group_name_H-M   'P 1'
_cell_length_a   3.67532400
_cell_length_b   10.50045000
_cell_length_c   12.14300800
_cell_angle_alpha   90.00000000
_cell_angle_beta   90.00000000
_cell_angle_gamma   90.00000000
_symmetry_Int_Tables_number   1
_chemical_formula_structural   HoTm2Cr(Co4P3)2
_chemical_formula_sum   'Ho2 Tm4 Cr2 Co16 P12'
_cell_volume   468.62971498
_cell_formula_units_Z   2
loop_
 _symmetry_equiv_pos_site_id
 _symmetry_equiv_pos_as_xyz
  1  'x, y, z'
loop_
 _atom_site_type_symbol
 _atom_site_label
 _atom_site_symmetry_multiplicity
 _atom_site_fract_x
 _atom_site_fract_y
 _atom_site_fract_z
 _atom_site_occupancy
  Ho  Ho0  1  0.000000  0.500000  0.523230  1
  Ho  Ho1  1  0.500000  0.000000  0.476770  1
  Tm  Tm2  1  0.500000  0.818205  0.204389  1
  Tm  Tm3  1  0.500000  0.181795  0.204389  1
  Tm  Tm4  1  0.000000  0.681795  0.795611  1
  Tm  Tm5  1  0.000000  0.318205  0.795611  1
  Cr  Cr6  1  0.500000  0.500000  0.156123  1
  Cr  Cr7  1  0.000000  0.000000  0.843877  1
  Co  Co8  1  0.500000  0.500000  0.702497  1
  Co  Co9  1  0.000000  0.000000  0.297503  1
  Co  Co10  1  0.000000  0.500000  0.987063  1
  Co  Co11  1  0.500000  0.000000  0.012937  1
  Co  Co12  1  0.500000  0.332636  0.992287  1
  Co  Co13  1  0.500000  0.667364  0.992287  1
  Co  Co14  1  0.000000  0.167364  0.007713  1
  Co  Co15  1  0.000000  0.832636  0.007713  1
  Co  Co16  1  0.500000  0.296141  0.430716  1
  Co  Co17  1  0.500000  0.703859  0.430716  1
  Co  Co18  1  0.000000  0.203859  0.569284  1
  Co  Co19  1  0.000000  0.796141  0.569284  1
  Co  Co20  1  0.500000  0.878611  0.708736  1
  Co  Co21  1  0.500000  0.121389  0.708736  1
  Co  Co22  1  0.000000  0.621389  0.291264  1
  Co  Co23  1  0.000000  0.378611  0.291264  1
  P  P24  1  0.500000  0.500000  0.881415  1
  P  P25  1  0.000000  0.000000  0.118585  1
  P  P26  1  0.500000  0.500000  0.344424  1
  P  P27  1  0.000000  0.000000  0.655576  1
  P  P28  1  0.500000  0.311852  0.616904  1
  P  P29  1  0.500000  0.688148  0.616904  1
  P  P30  1  0.000000  0.188148  0.383096  1
  P  P31  1  0.000000  0.811852  0.383096  1
  P  P32  1  0.500000  0.847437  0.891349  1
  P  P33  1  0.500000  0.152563  0.891349  1
  P  P34  1  0.000000  0.652563  0.108651  1
  P  P35  1  0.000000  0.347437  0.108651  1
