# generated using pymatgen
data_Tm8MgSc11Si15Rh
_symmetry_space_group_name_H-M   'P 1'
_cell_length_a   7.02421731
_cell_length_b   7.30583985
_cell_length_c   13.99453493
_cell_angle_alpha   89.85835282
_cell_angle_beta   89.75714927
_cell_angle_gamma   90.32338500
_symmetry_Int_Tables_number   1
_chemical_formula_structural   Tm8MgSc11Si15Rh
_chemical_formula_sum   'Tm8 Mg1 Sc11 Si15 Rh1'
_cell_volume   718.14871110
_cell_formula_units_Z   1
loop_
 _symmetry_equiv_pos_site_id
 _symmetry_equiv_pos_as_xyz
  1  'x, y, z'
loop_
 _atom_site_type_symbol
 _atom_site_label
 _atom_site_symmetry_multiplicity
 _atom_site_fract_x
 _atom_site_fract_y
 _atom_site_fract_z
 _atom_site_occupancy
  Tm  Tm0  1  0.012975  0.176944  0.096000  1
  Tm  Tm1  1  0.988390  0.820078  0.902977  1
  Tm  Tm2  1  0.486223  0.676049  0.903643  1
  Tm  Tm3  1  0.991553  0.815402  0.596977  1
  Tm  Tm4  1  0.510692  0.324024  0.095133  1
  Tm  Tm5  1  0.011124  0.182896  0.404475  1
  Tm  Tm6  1  0.506557  0.324579  0.404447  1
  Tm  Tm7  1  0.482786  0.668044  0.598300  1
  Mg  Mg8  1  0.160905  0.508335  0.747499  1
  Sc  Sc9  1  0.837991  0.496527  0.251444  1
  Sc  Sc10  1  0.339966  0.000997  0.250486  1
  Sc  Sc11  1  0.659957  0.997587  0.748892  1
  Sc  Sc12  1  0.326222  0.191940  0.621476  1
  Sc  Sc13  1  0.668071  0.823775  0.374029  1
  Sc  Sc14  1  0.171015  0.663404  0.377697  1
  Sc  Sc15  1  0.671816  0.824491  0.126223  1
  Sc  Sc16  1  0.841847  0.330326  0.623591  1
  Sc  Sc17  1  0.326563  0.180430  0.875682  1
  Sc  Sc18  1  0.833877  0.322646  0.875394  1
  Sc  Sc19  1  0.171275  0.677119  0.125050  1
  Si  Si20  1  0.030265  0.102945  0.749740  1
  Si  Si21  1  0.970673  0.885768  0.251326  1
  Si  Si22  1  0.466949  0.612086  0.248166  1
  Si  Si23  1  0.541253  0.383243  0.752288  1
  Si  Si24  1  0.287894  0.880181  0.750807  1
  Si  Si25  1  0.714909  0.131108  0.249728  1
  Si  Si26  1  0.216148  0.367420  0.247412  1
  Si  Si27  1  0.776087  0.631646  0.752047  1
  Si  Si28  1  0.832086  0.536358  0.461117  1
  Si  Si29  1  0.342470  0.962955  0.462362  1
  Si  Si30  1  0.842065  0.536333  0.037915  1
  Si  Si31  1  0.656780  0.032814  0.538781  1
  Si  Si32  1  0.159959  0.463678  0.965262  1
  Si  Si33  1  0.658456  0.033285  0.961546  1
  Si  Si34  1  0.344921  0.966674  0.038721  1
  Rh  Rh35  1  0.159275  0.467914  0.533365  1
