# generated using pymatgen
data_Sm5Co19(Si3P)3
_symmetry_space_group_name_H-M   'P 1'
_cell_length_a   12.20407800
_cell_length_b   12.20407787
_cell_length_c   3.73249000
_cell_angle_alpha   90.00000000
_cell_angle_beta   90.00000000
_cell_angle_gamma   119.99999494
_symmetry_Int_Tables_number   1
_chemical_formula_structural   Sm5Co19(Si3P)3
_chemical_formula_sum   'Sm5 Co19 Si9 P3'
_cell_volume   481.43676399
_cell_formula_units_Z   1
loop_
 _symmetry_equiv_pos_site_id
 _symmetry_equiv_pos_as_xyz
  1  'x, y, z'
loop_
 _atom_site_type_symbol
 _atom_site_label
 _atom_site_symmetry_multiplicity
 _atom_site_fract_x
 _atom_site_fract_y
 _atom_site_fract_z
 _atom_site_occupancy
  Sm  Sm0  1  0.333333  0.666667  0.500000  1
  Sm  Sm1  1  0.666667  0.333333  0.500000  1
  Sm  Sm2  1  0.000000  0.184603  0.000000  1
  Sm  Sm3  1  0.815397  0.815397  0.000000  1
  Sm  Sm4  1  0.184603  0.000000  0.000000  1
  Co  Co5  1  0.626551  0.824355  0.500000  1
  Co  Co6  1  0.175645  0.802196  0.500000  1
  Co  Co7  1  0.197804  0.373449  0.500000  1
  Co  Co8  1  0.373449  0.197804  0.500000  1
  Co  Co9  1  0.824355  0.626551  0.500000  1
  Co  Co10  1  0.802196  0.175645  0.500000  1
  Co  Co11  1  0.000000  0.558565  0.500000  1
  Co  Co12  1  0.441435  0.441435  0.500000  1
  Co  Co13  1  0.558565  0.000000  0.500000  1
  Co  Co14  1  0.521459  0.644143  0.000000  1
  Co  Co15  1  0.355857  0.877316  0.000000  1
  Co  Co16  1  0.122684  0.478541  0.000000  1
  Co  Co17  1  0.478541  0.122684  0.000000  1
  Co  Co18  1  0.644143  0.521459  0.000000  1
  Co  Co19  1  0.877316  0.355857  0.000000  1
  Co  Co20  1  0.000000  0.721559  0.000000  1
  Co  Co21  1  0.278441  0.278441  0.000000  1
  Co  Co22  1  0.721559  0.000000  0.000000  1
  Co  Co23  1  0.000000  0.000000  0.500000  1
  Si  Si24  1  0.000000  0.371890  0.500000  1
  Si  Si25  1  0.628110  0.628110  0.500000  1
  Si  Si26  1  0.371890  0.000000  0.500000  1
  Si  Si27  1  0.523605  0.841365  0.000000  1
  Si  Si28  1  0.158635  0.682239  0.000000  1
  Si  Si29  1  0.317761  0.476395  0.000000  1
  Si  Si30  1  0.476395  0.317761  0.000000  1
  Si  Si31  1  0.841365  0.523605  0.000000  1
  Si  Si32  1  0.682239  0.158635  0.000000  1
  P  P33  1  0.000000  0.816623  0.500000  1
  P  P34  1  0.183377  0.183377  0.500000  1
  P  P35  1  0.816623  0.000000  0.500000  1
