# generated using pymatgen
data_Sc2ReOs3
_symmetry_space_group_name_H-M   'P 1'
_cell_length_a   5.22858484
_cell_length_b   5.15392750
_cell_length_c   8.71266100
_cell_angle_alpha   90.00000000
_cell_angle_beta   90.00000000
_cell_angle_gamma   119.52877419
_symmetry_Int_Tables_number   1
_chemical_formula_structural   Sc2ReOs3
_chemical_formula_sum   'Sc4 Re2 Os6'
_cell_volume   204.28975445
_cell_formula_units_Z   2
loop_
 _symmetry_equiv_pos_site_id
 _symmetry_equiv_pos_as_xyz
  1  'x, y, z'
loop_
 _atom_site_type_symbol
 _atom_site_label
 _atom_site_symmetry_multiplicity
 _atom_site_fract_x
 _atom_site_fract_y
 _atom_site_fract_z
 _atom_site_occupancy
  Sc  Sc0  1  0.330925  0.663615  0.434398  1
  Sc  Sc1  1  0.669075  0.332689  0.934398  1
  Sc  Sc2  1  0.669075  0.332689  0.565602  1
  Sc  Sc3  1  0.330925  0.663615  0.065602  1
  Re  Re4  1  0.169278  0.832885  0.750000  1
  Re  Re5  1  0.830722  0.663608  0.250000  1
  Os  Os6  1  0.654787  0.832998  0.750000  1
  Os  Os7  1  0.345213  0.178212  0.250000  1
  Os  Os8  1  0.828144  0.179830  0.250000  1
  Os  Os9  1  0.171856  0.351686  0.750000  1
  Os  Os10  1  0.000000  0.984087  0.500000  1
  Os  Os11  1  0.000000  0.984087  0.000000  1
