# generated using pymatgen
data_Nd3TiCuS7
_symmetry_space_group_name_H-M   'P 1'
_cell_length_a   10.20426200
_cell_length_b   10.20427667
_cell_length_c   5.90416200
_cell_angle_alpha   90.00000000
_cell_angle_beta   90.00000000
_cell_angle_gamma   120.00011027
_symmetry_Int_Tables_number   1
_chemical_formula_structural   Nd3TiCuS7
_chemical_formula_sum   'Nd6 Ti2 Cu2 S14'
_cell_volume   532.41739994
_cell_formula_units_Z   2
loop_
 _symmetry_equiv_pos_site_id
 _symmetry_equiv_pos_as_xyz
  1  'x, y, z'
loop_
 _atom_site_type_symbol
 _atom_site_label
 _atom_site_symmetry_multiplicity
 _atom_site_fract_x
 _atom_site_fract_y
 _atom_site_fract_z
 _atom_site_occupancy
  Nd  Nd0  1  0.642144  0.772858  0.249686  1
  Nd  Nd1  1  0.130715  0.357858  0.249690  1
  Nd  Nd2  1  0.227142  0.869285  0.249688  1
  Nd  Nd3  1  0.357856  0.227142  0.749686  1
  Nd  Nd4  1  0.772858  0.130716  0.749687  1
  Nd  Nd5  1  0.869285  0.642142  0.749690  1
  Ti  Ti6  1  0.666665  0.333332  0.163318  1
  Ti  Ti7  1  0.333335  0.666668  0.663319  1
  Cu  Cu8  1  0.000002  0.000002  0.280971  1
  Cu  Cu9  1  0.999998  0.999998  0.780970  1
  S  S10  1  0.518843  0.099602  0.014990  1
  S  S11  1  0.580758  0.481154  0.014991  1
  S  S12  1  0.900394  0.419241  0.014997  1
  S  S13  1  0.333334  0.666667  0.046218  1
  S  S14  1  0.839983  0.092464  0.269817  1
  S  S15  1  0.252481  0.160017  0.269816  1
  S  S16  1  0.907538  0.747521  0.269819  1
  S  S17  1  0.419242  0.518846  0.514991  1
  S  S18  1  0.481157  0.900397  0.514990  1
  S  S19  1  0.099607  0.580760  0.514998  1
  S  S20  1  0.666667  0.333333  0.546219  1
  S  S21  1  0.092463  0.252479  0.769817  1
  S  S22  1  0.747520  0.839983  0.769816  1
  S  S23  1  0.160016  0.907536  0.769817  1
