# generated using pymatgen
data_La7PaAl4(GaRh2)4
_symmetry_space_group_name_H-M   'P 1'
_cell_length_a   4.23012300
_cell_length_b   7.32356397
_cell_length_c   16.24485385
_cell_angle_alpha   89.30870981
_cell_angle_beta   90.00000000
_cell_angle_gamma   90.00000000
_symmetry_Int_Tables_number   1
_chemical_formula_structural   La7PaAl4(GaRh2)4
_chemical_formula_sum   'La7 Pa1 Al4 Ga4 Rh8'
_cell_volume   503.22206111
_cell_formula_units_Z   1
loop_
 _symmetry_equiv_pos_site_id
 _symmetry_equiv_pos_as_xyz
  1  'x, y, z'
loop_
 _atom_site_type_symbol
 _atom_site_label
 _atom_site_symmetry_multiplicity
 _atom_site_fract_x
 _atom_site_fract_y
 _atom_site_fract_z
 _atom_site_occupancy
  La  La0  1  0.750000  0.475989  0.220205  1
  La  La1  1  0.750000  0.973946  0.279801  1
  La  La2  1  0.250000  0.028091  0.721994  1
  La  La3  1  0.250000  0.651611  0.560476  1
  La  La4  1  0.750000  0.338003  0.440945  1
  La  La5  1  0.750000  0.847749  0.058135  1
  La  La6  1  0.250000  0.165564  0.938031  1
  Pa  Pa7  1  0.250000  0.530274  0.780187  1
  Al  Al8  1  0.250000  0.506593  0.059717  1
  Al  Al9  1  0.750000  0.498927  0.940057  1
  Al  Al10  1  0.750000  0.989315  0.562263  1
  Al  Al11  1  0.250000  0.999616  0.440059  1
  Ga  Ga12  1  0.250000  0.646034  0.351660  1
  Ga  Ga13  1  0.750000  0.351386  0.649394  1
  Ga  Ga14  1  0.750000  0.849434  0.850042  1
  Ga  Ga15  1  0.250000  0.145247  0.147270  1
  Rh  Rh16  1  0.250000  0.762889  0.176926  1
  Rh  Rh17  1  0.750000  0.281385  0.814555  1
  Rh  Rh18  1  0.750000  0.711566  0.692857  1
  Rh  Rh19  1  0.250000  0.264456  0.322305  1
  Rh  Rh20  1  0.250000  0.705275  0.920612  1
  Rh  Rh21  1  0.750000  0.286226  0.070922  1
  Rh  Rh22  1  0.750000  0.785220  0.430682  1
  Rh  Rh23  1  0.250000  0.205204  0.570904  1
