# generated using pymatgen
data_Y4Al17GaIr5Au
_symmetry_space_group_name_H-M   'P 1'
_cell_length_a   7.58433587
_cell_length_b   7.58433513
_cell_length_c   9.49432003
_cell_angle_alpha   89.97670149
_cell_angle_beta   89.97669841
_cell_angle_gamma   119.45406564
_symmetry_Int_Tables_number   1
_chemical_formula_structural   Y4Al17GaIr5Au
_chemical_formula_sum   'Y4 Al17 Ga1 Ir5 Au1'
_cell_volume   475.54583075
_cell_formula_units_Z   1
loop_
 _symmetry_equiv_pos_site_id
 _symmetry_equiv_pos_as_xyz
  1  'x, y, z'
loop_
 _atom_site_type_symbol
 _atom_site_label
 _atom_site_symmetry_multiplicity
 _atom_site_fract_x
 _atom_site_fract_y
 _atom_site_fract_z
 _atom_site_occupancy
  Y  Y0  1  0.995278  0.676330  0.250969  1
  Y  Y1  1  0.004227  0.325977  0.749028  1
  Y  Y2  1  0.676330  0.995278  0.250969  1
  Y  Y3  1  0.325977  0.004227  0.749028  1
  Al  Al4  1  0.862559  0.862559  0.743529  1
  Al  Al5  1  0.001746  0.344615  0.078408  1
  Al  Al6  1  0.997726  0.655061  0.921362  1
  Al  Al7  1  0.999650  0.663909  0.573558  1
  Al  Al8  1  0.336091  0.000229  0.426745  1
  Al  Al9  1  0.000229  0.336091  0.426745  1
  Al  Al10  1  0.663909  0.999650  0.573558  1
  Al  Al11  1  0.655061  0.997726  0.921362  1
  Al  Al12  1  0.344615  0.001746  0.078408  1
  Al  Al13  1  0.333050  0.333050  0.553897  1
  Al  Al14  1  0.666243  0.666243  0.448448  1
  Al  Al15  1  0.657207  0.657207  0.058576  1
  Al  Al16  1  0.342008  0.342008  0.939841  1
  Al  Al17  1  0.338239  0.552152  0.251244  1
  Al  Al18  1  0.660801  0.449218  0.748839  1
  Al  Al19  1  0.552152  0.338239  0.251244  1
  Al  Al20  1  0.449218  0.660801  0.748839  1
  Ga  Ga21  1  0.141621  0.141621  0.255882  1
  Ir  Ir22  1  0.670956  0.327652  0.000104  1
  Ir  Ir23  1  0.327652  0.670956  0.000104  1
  Ir  Ir24  1  0.327883  0.671152  0.499968  1
  Ir  Ir25  1  0.671152  0.327883  0.499968  1
  Ir  Ir26  1  0.999028  0.999028  0.502398  1
  Au  Au27  1  0.999391  0.999391  0.996981  1
