# generated using pymatgen
data_Tb8Si12PdRh3
_symmetry_space_group_name_H-M   'P 1'
_cell_length_a   8.19259500
_cell_length_b   8.19259404
_cell_length_c   7.98214000
_cell_angle_alpha   90.00000000
_cell_angle_beta   90.00000000
_cell_angle_gamma   120.00000790
_symmetry_Int_Tables_number   1
_chemical_formula_structural   Tb8Si12PdRh3
_chemical_formula_sum   'Tb8 Si12 Pd1 Rh3'
_cell_volume   463.97316123
_cell_formula_units_Z   1
loop_
 _symmetry_equiv_pos_site_id
 _symmetry_equiv_pos_as_xyz
  1  'x, y, z'
loop_
 _atom_site_type_symbol
 _atom_site_label
 _atom_site_symmetry_multiplicity
 _atom_site_fract_x
 _atom_site_fract_y
 _atom_site_fract_z
 _atom_site_occupancy
  Tb  Tb0  1  0.510291  0.020581  0.247230  1
  Tb  Tb1  1  0.492405  0.984812  0.751985  1
  Tb  Tb2  1  0.979419  0.489709  0.247230  1
  Tb  Tb3  1  0.015188  0.507595  0.751985  1
  Tb  Tb4  1  0.510291  0.489709  0.247230  1
  Tb  Tb5  1  0.492405  0.507595  0.751985  1
  Tb  Tb6  1  0.000000  0.000000  0.250816  1
  Tb  Tb7  1  0.000000  0.000000  0.750937  1
  Si  Si8  1  0.166994  0.333989  0.001497  1
  Si  Si9  1  0.833410  0.666821  0.999181  1
  Si  Si10  1  0.666011  0.833006  0.001497  1
  Si  Si11  1  0.832255  0.664511  0.499129  1
  Si  Si12  1  0.333179  0.166590  0.999181  1
  Si  Si13  1  0.164498  0.328996  0.501609  1
  Si  Si14  1  0.166994  0.833006  0.001497  1
  Si  Si15  1  0.335489  0.167745  0.499129  1
  Si  Si16  1  0.833410  0.166590  0.999181  1
  Si  Si17  1  0.671004  0.835502  0.501609  1
  Si  Si18  1  0.832255  0.167745  0.499129  1
  Si  Si19  1  0.164498  0.835502  0.501609  1
  Pd  Pd20  1  0.333333  0.666667  0.463643  1
  Rh  Rh21  1  0.333333  0.666667  0.030539  1
  Rh  Rh22  1  0.666667  0.333333  0.965256  1
  Rh  Rh23  1  0.666667  0.333333  0.536911  1
