# generated using pymatgen
data_Li2Nd3ZrRh3
_symmetry_space_group_name_H-M   'P 1'
_cell_length_a   7.52292165
_cell_length_b   7.46946619
_cell_length_c   4.06535900
_cell_angle_alpha   90.00000000
_cell_angle_beta   90.00000000
_cell_angle_gamma   119.76606504
_symmetry_Int_Tables_number   1
_chemical_formula_structural   Li2Nd3ZrRh3
_chemical_formula_sum   'Li2 Nd3 Zr1 Rh3'
_cell_volume   198.30084997
_cell_formula_units_Z   1
loop_
 _symmetry_equiv_pos_site_id
 _symmetry_equiv_pos_as_xyz
  1  'x, y, z'
loop_
 _atom_site_type_symbol
 _atom_site_label
 _atom_site_symmetry_multiplicity
 _atom_site_fract_x
 _atom_site_fract_y
 _atom_site_fract_z
 _atom_site_occupancy
  Li  Li0  1  0.241060  0.006536  0.000000  1
  Li  Li1  1  0.759006  0.765491  0.000000  1
  Nd  Nd2  1  0.999968  0.608858  0.500000  1
  Nd  Nd3  1  0.430818  0.417506  0.500000  1
  Nd  Nd4  1  0.569132  0.986590  0.500000  1
  Zr  Zr5  1  0.999979  0.242172  0.000000  1
  Rh  Rh6  1  0.311869  0.631381  0.000000  1
  Rh  Rh7  1  0.000008  0.021955  0.500000  1
  Rh  Rh8  1  0.688161  0.319512  0.000000  1
