# generated using pymatgen
data_Tm10SiBi4Sb
_symmetry_space_group_name_H-M   'P 1'
_cell_length_a   8.04558800
_cell_length_b   9.24969900
_cell_length_c   11.79180300
_cell_angle_alpha   90.00000000
_cell_angle_beta   90.00000000
_cell_angle_gamma   90.00000000
_symmetry_Int_Tables_number   1
_chemical_formula_structural   Tm10SiBi4Sb
_chemical_formula_sum   'Tm20 Si2 Bi8 Sb2'
_cell_volume   877.53733915
_cell_formula_units_Z   2
loop_
 _symmetry_equiv_pos_site_id
 _symmetry_equiv_pos_as_xyz
  1  'x, y, z'
loop_
 _atom_site_type_symbol
 _atom_site_label
 _atom_site_symmetry_multiplicity
 _atom_site_fract_x
 _atom_site_fract_y
 _atom_site_fract_z
 _atom_site_occupancy
  Tm  Tm0  1  0.814750  0.950811  0.062771  1
  Tm  Tm1  1  0.314750  0.049189  0.437229  1
  Tm  Tm2  1  0.178200  0.431363  0.941147  1
  Tm  Tm3  1  0.678200  0.568637  0.558853  1
  Tm  Tm4  1  0.178200  0.068637  0.941147  1
  Tm  Tm5  1  0.678200  0.931363  0.558853  1
  Tm  Tm6  1  0.814750  0.549189  0.062771  1
  Tm  Tm7  1  0.314750  0.450811  0.437229  1
  Tm  Tm8  1  0.535020  0.250000  0.995981  1
  Tm  Tm9  1  0.035020  0.750000  0.504019  1
  Tm  Tm10  1  0.477190  0.750000  0.004489  1
  Tm  Tm11  1  0.977190  0.250000  0.495511  1
  Tm  Tm12  1  0.182004  0.750000  0.228052  1
  Tm  Tm13  1  0.682004  0.250000  0.271948  1
  Tm  Tm14  1  0.833415  0.250000  0.787126  1
  Tm  Tm15  1  0.333415  0.750000  0.712874  1
  Tm  Tm16  1  0.643427  0.750000  0.294640  1
  Tm  Tm17  1  0.143427  0.250000  0.205360  1
  Tm  Tm18  1  0.342988  0.250000  0.710718  1
  Tm  Tm19  1  0.842988  0.750000  0.789282  1
  Si  Si20  1  0.902823  0.250000  0.026770  1
  Si  Si21  1  0.402823  0.750000  0.473230  1
  Bi  Bi22  1  0.935773  0.988094  0.324801  1
  Bi  Bi23  1  0.435773  0.011906  0.175199  1
  Bi  Bi24  1  0.063033  0.491466  0.676431  1
  Bi  Bi25  1  0.563033  0.508534  0.823569  1
  Bi  Bi26  1  0.063033  0.008534  0.676431  1
  Bi  Bi27  1  0.563033  0.991466  0.823569  1
  Bi  Bi28  1  0.935773  0.511906  0.324801  1
  Bi  Bi29  1  0.435773  0.488094  0.175199  1
  Sb  Sb30  1  0.099620  0.750000  0.973816  1
  Sb  Sb31  1  0.599620  0.250000  0.526184  1
