# generated using pymatgen
data_Zr4Ni3Pt8Rh
_symmetry_space_group_name_H-M   'P 1'
_cell_length_a   5.63479700
_cell_length_b   5.65320557
_cell_length_c   9.18018300
_cell_angle_alpha   90.00000000
_cell_angle_beta   90.00000000
_cell_angle_gamma   119.89227366
_symmetry_Int_Tables_number   1
_chemical_formula_structural   Zr4Ni3Pt8Rh
_chemical_formula_sum   'Zr4 Ni3 Pt8 Rh1'
_cell_volume   253.52771177
_cell_formula_units_Z   1
loop_
 _symmetry_equiv_pos_site_id
 _symmetry_equiv_pos_as_xyz
  1  'x, y, z'
loop_
 _atom_site_type_symbol
 _atom_site_label
 _atom_site_symmetry_multiplicity
 _atom_site_fract_x
 _atom_site_fract_y
 _atom_site_fract_z
 _atom_site_occupancy
  Zr  Zr0  1  0.000545  0.001089  0.500432  1
  Zr  Zr1  1  0.000545  0.001089  0.999568  1
  Zr  Zr2  1  0.335103  0.670206  0.250000  1
  Zr  Zr3  1  0.664641  0.329282  0.750000  1
  Ni  Ni4  1  0.500135  0.000269  0.498967  1
  Ni  Ni5  1  0.500135  0.000269  0.001033  1
  Ni  Ni6  1  0.823217  0.646433  0.250000  1
  Pt  Pt7  1  0.502966  0.502701  0.496506  1
  Pt  Pt8  1  0.999735  0.502701  0.496506  1
  Pt  Pt9  1  0.502966  0.502701  0.003494  1
  Pt  Pt10  1  0.999735  0.502701  0.003494  1
  Pt  Pt11  1  0.341154  0.162931  0.250000  1
  Pt  Pt12  1  0.821777  0.162930  0.250000  1
  Pt  Pt13  1  0.658176  0.834870  0.750000  1
  Pt  Pt14  1  0.176694  0.834870  0.750000  1
  Rh  Rh15  1  0.172478  0.344956  0.750000  1
