# generated using pymatgen
data_CaPdBr6
_symmetry_space_group_name_H-M   'P 1'
_cell_length_a   6.99528168
_cell_length_b   7.00278323
_cell_length_c   7.71162698
_cell_angle_alpha   89.95989621
_cell_angle_beta   116.33820436
_cell_angle_gamma   119.88287114
_symmetry_Int_Tables_number   1
_chemical_formula_structural   CaPdBr6
_chemical_formula_sum   'Ca1 Pd1 Br6'
_cell_volume   281.48833365
_cell_formula_units_Z   1
loop_
 _symmetry_equiv_pos_site_id
 _symmetry_equiv_pos_as_xyz
  1  'x, y, z'
loop_
 _atom_site_type_symbol
 _atom_site_label
 _atom_site_symmetry_multiplicity
 _atom_site_fract_x
 _atom_site_fract_y
 _atom_site_fract_z
 _atom_site_occupancy
  Ca  Ca0  1  0.239084  0.620597  0.859243  1
  Pd  Pd1  1  0.580001  0.289775  0.869905  1
  Br  Br2  1  0.443930  0.070241  0.096608  1
  Br  Br3  1  0.138838  0.208310  0.645554  1
  Br  Br4  1  0.716348  0.508221  0.642472  1
  Br  Br5  1  0.442258  0.931604  0.644725  1
  Br  Br6  1  0.717538  0.648045  0.094361  1
  Br  Br7  1  0.021005  0.372708  0.095631  1
