# generated using pymatgen
data_Ho8Al(Si5W4)3
_symmetry_space_group_name_H-M   'P 1'
_cell_length_a   6.76613075
_cell_length_b   6.92569624
_cell_length_c   12.93449666
_cell_angle_alpha   89.83850781
_cell_angle_beta   89.95787578
_cell_angle_gamma   89.92887326
_symmetry_Int_Tables_number   1
_chemical_formula_structural   Ho8Al(Si5W4)3
_chemical_formula_sum   'Ho8 Al1 Si15 W12'
_cell_volume   606.10962819
_cell_formula_units_Z   1
loop_
 _symmetry_equiv_pos_site_id
 _symmetry_equiv_pos_as_xyz
  1  'x, y, z'
loop_
 _atom_site_type_symbol
 _atom_site_label
 _atom_site_symmetry_multiplicity
 _atom_site_fract_x
 _atom_site_fract_y
 _atom_site_fract_z
 _atom_site_occupancy
  Ho  Ho0  1  0.495615  0.331406  0.093638  1
  Ho  Ho1  1  0.998146  0.167688  0.405272  1
  Ho  Ho2  1  0.504536  0.665293  0.593215  1
  Ho  Ho3  1  0.004132  0.831665  0.906668  1
  Ho  Ho4  1  0.504724  0.668087  0.906882  1
  Ho  Ho5  1  0.008433  0.831168  0.594045  1
  Ho  Ho6  1  0.493283  0.334416  0.404931  1
  Ho  Ho7  1  0.994767  0.168092  0.093424  1
  Al  Al8  1  0.664051  0.043248  0.544645  1
  Si  Si9  1  0.802761  0.636118  0.750351  1
  Si  Si10  1  0.305411  0.866220  0.750114  1
  Si  Si11  1  0.196021  0.366398  0.249397  1
  Si  Si12  1  0.696255  0.133050  0.250461  1
  Si  Si13  1  0.537020  0.369303  0.749544  1
  Si  Si14  1  0.033624  0.128358  0.750621  1
  Si  Si15  1  0.462723  0.628225  0.248382  1
  Si  Si16  1  0.964075  0.870128  0.249398  1
  Si  Si17  1  0.162732  0.458037  0.953958  1
  Si  Si18  1  0.336814  0.957505  0.046000  1
  Si  Si19  1  0.837184  0.542164  0.454173  1
  Si  Si20  1  0.339331  0.957039  0.454124  1
  Si  Si21  1  0.836901  0.542598  0.046323  1
  Si  Si22  1  0.663125  0.043416  0.955017  1
  Si  Si23  1  0.162661  0.458048  0.545803  1
  W  W24  1  0.665107  0.002303  0.753275  1
  W  W25  1  0.167406  0.499592  0.750715  1
  W  W26  1  0.333879  0.998176  0.249392  1
  W  W27  1  0.833219  0.499765  0.249496  1
  W  W28  1  0.836714  0.342258  0.627989  1
  W  W29  1  0.331058  0.163364  0.874999  1
  W  W30  1  0.167071  0.663146  0.125360  1
  W  W31  1  0.666431  0.831637  0.370801  1
  W  W32  1  0.168317  0.663289  0.373984  1
  W  W33  1  0.668016  0.837238  0.124830  1
  W  W34  1  0.832683  0.338067  0.875688  1
  W  W35  1  0.325773  0.163493  0.627083  1
