# generated using pymatgen
data_Nb4SiB4AsRu10
_symmetry_space_group_name_H-M   'P 1'
_cell_length_a   9.34569700
_cell_length_b   9.34569700
_cell_length_c   2.95454400
_cell_angle_alpha   90.00000000
_cell_angle_beta   90.00000000
_cell_angle_gamma   90.00000000
_symmetry_Int_Tables_number   1
_chemical_formula_structural   Nb4SiB4AsRu10
_chemical_formula_sum   'Nb4 Si1 B4 As1 Ru10'
_cell_volume   258.05593691
_cell_formula_units_Z   1
loop_
 _symmetry_equiv_pos_site_id
 _symmetry_equiv_pos_as_xyz
  1  'x, y, z'
loop_
 _atom_site_type_symbol
 _atom_site_label
 _atom_site_symmetry_multiplicity
 _atom_site_fract_x
 _atom_site_fract_y
 _atom_site_fract_z
 _atom_site_occupancy
  Nb  Nb0  1  0.825321  0.679265  0.000000  1
  Nb  Nb1  1  0.174679  0.320735  0.000000  1
  Nb  Nb2  1  0.320735  0.825321  0.000000  1
  Nb  Nb3  1  0.679265  0.174679  0.000000  1
  Si  Si4  1  0.000000  0.000000  0.000000  1
  B  B5  1  0.625938  0.877732  0.000000  1
  B  B6  1  0.374062  0.122268  0.000000  1
  B  B7  1  0.122268  0.625938  0.000000  1
  B  B8  1  0.877732  0.374062  0.000000  1
  As  As9  1  0.500000  0.500000  0.000000  1
  Ru  Ru10  1  0.567599  0.713432  0.500000  1
  Ru  Ru11  1  0.432401  0.286568  0.500000  1
  Ru  Ru12  1  0.066559  0.788748  0.500000  1
  Ru  Ru13  1  0.933441  0.211252  0.500000  1
  Ru  Ru14  1  0.286568  0.567599  0.500000  1
  Ru  Ru15  1  0.713432  0.432401  0.500000  1
  Ru  Ru16  1  0.211252  0.066559  0.500000  1
  Ru  Ru17  1  0.788748  0.933441  0.500000  1
  Ru  Ru18  1  0.500000  0.000000  0.500000  1
  Ru  Ru19  1  0.000000  0.500000  0.500000  1
