# generated using pymatgen
data_LiEr9Se10
_symmetry_space_group_name_H-M   'P 1'
_cell_length_a   6.93745438
_cell_length_b   8.04993673
_cell_length_c   9.05055178
_cell_angle_alpha   103.47294000
_cell_angle_beta   97.10062545
_cell_angle_gamma   106.68206486
_symmetry_Int_Tables_number   1
_chemical_formula_structural   LiEr9Se10
_chemical_formula_sum   'Li1 Er9 Se10'
_cell_volume   460.89131370
_cell_formula_units_Z   1
loop_
 _symmetry_equiv_pos_site_id
 _symmetry_equiv_pos_as_xyz
  1  'x, y, z'
loop_
 _atom_site_type_symbol
 _atom_site_label
 _atom_site_symmetry_multiplicity
 _atom_site_fract_x
 _atom_site_fract_y
 _atom_site_fract_z
 _atom_site_occupancy
  Li  Li0  1  0.000000  0.500000  0.000000  1
  Er  Er1  1  0.799489  0.600514  0.599205  1
  Er  Er2  1  0.600579  0.200021  0.203442  1
  Er  Er3  1  0.399421  0.799979  0.796558  1
  Er  Er4  1  0.600257  0.703157  0.203677  1
  Er  Er5  1  0.200511  0.399486  0.400795  1
  Er  Er6  1  0.399743  0.296843  0.796323  1
  Er  Er7  1  0.000000  0.000000  0.000000  1
  Er  Er8  1  0.201360  0.901564  0.403404  1
  Er  Er9  1  0.798640  0.098436  0.596596  1
  Se  Se10  1  0.704761  0.646903  0.903232  1
  Se  Se11  1  0.500604  0.251014  0.499816  1
  Se  Se12  1  0.705440  0.156929  0.903360  1
  Se  Se13  1  0.294560  0.843071  0.096640  1
  Se  Se14  1  0.499396  0.748986  0.500184  1
  Se  Se15  1  0.096934  0.450974  0.706804  1
  Se  Se16  1  0.295239  0.353097  0.096768  1
  Se  Se17  1  0.902241  0.050112  0.299089  1
  Se  Se18  1  0.097759  0.949888  0.700911  1
  Se  Se19  1  0.903066  0.549026  0.293196  1
