# generated using pymatgen
data_CaEr6FeBr12
_symmetry_space_group_name_H-M   'P 1'
_cell_length_a   9.06383431
_cell_length_b   9.18321790
_cell_length_c   9.08424160
_cell_angle_alpha   106.81377599
_cell_angle_beta   106.38443689
_cell_angle_gamma   106.72353965
_symmetry_Int_Tables_number   1
_chemical_formula_structural   CaEr6FeBr12
_chemical_formula_sum   'Ca1 Er6 Fe1 Br12'
_cell_volume   635.77617057
_cell_formula_units_Z   1
loop_
 _symmetry_equiv_pos_site_id
 _symmetry_equiv_pos_as_xyz
  1  'x, y, z'
loop_
 _atom_site_type_symbol
 _atom_site_label
 _atom_site_symmetry_multiplicity
 _atom_site_fract_x
 _atom_site_fract_y
 _atom_site_fract_z
 _atom_site_occupancy
  Ca  Ca0  1  0.499787  0.500296  0.499887  1
  Er  Er1  1  0.022757  0.097667  0.298906  1
  Er  Er2  1  0.298452  0.023352  0.097722  1
  Er  Er3  1  0.898460  0.690052  0.978003  1
  Er  Er4  1  0.977561  0.902331  0.701262  1
  Er  Er5  1  0.701975  0.976718  0.902591  1
  Er  Er6  1  0.101645  0.309622  0.021944  1
  Fe  Fe7  1  0.999675  0.999694  0.000051  1
  Br  Br8  1  0.454549  0.373568  0.150294  1
  Br  Br9  1  0.149753  0.451879  0.373289  1
  Br  Br10  1  0.373821  0.152282  0.452147  1
  Br  Br11  1  0.545337  0.626266  0.849699  1
  Br  Br12  1  0.849700  0.547759  0.626268  1
  Br  Br13  1  0.626413  0.848362  0.547889  1
  Br  Br14  1  0.777471  0.318452  0.925323  1
  Br  Br15  1  0.927436  0.780818  0.322314  1
  Br  Br16  1  0.319354  0.926924  0.779294  1
  Br  Br17  1  0.222665  0.681380  0.074553  1
  Br  Br18  1  0.072387  0.219115  0.677618  1
  Br  Br19  1  0.680799  0.073463  0.220946  1
