# generated using pymatgen
data_Ho3Zn3Hg2Rh
_symmetry_space_group_name_H-M   'P 1'
_cell_length_a   7.66562200
_cell_length_b   7.66562303
_cell_length_c   3.77566700
_cell_angle_alpha   90.00000000
_cell_angle_beta   90.00000000
_cell_angle_gamma   119.99999671
_symmetry_Int_Tables_number   1
_chemical_formula_structural   Ho3Zn3Hg2Rh
_chemical_formula_sum   'Ho3 Zn3 Hg2 Rh1'
_cell_volume   192.14062030
_cell_formula_units_Z   1
loop_
 _symmetry_equiv_pos_site_id
 _symmetry_equiv_pos_as_xyz
  1  'x, y, z'
loop_
 _atom_site_type_symbol
 _atom_site_label
 _atom_site_symmetry_multiplicity
 _atom_site_fract_x
 _atom_site_fract_y
 _atom_site_fract_z
 _atom_site_occupancy
  Ho  Ho0  1  0.419879  0.391628  0.000000  1
  Ho  Ho1  1  0.608372  0.028251  0.000000  1
  Ho  Ho2  1  0.971749  0.580121  0.000000  1
  Zn  Zn3  1  0.730076  0.720053  0.500000  1
  Zn  Zn4  1  0.279947  0.010024  0.500000  1
  Zn  Zn5  1  0.989976  0.269924  0.500000  1
  Hg  Hg6  1  0.000000  0.000000  0.000000  1
  Hg  Hg7  1  0.333333  0.666667  0.500000  1
  Rh  Rh8  1  0.666667  0.333333  0.500000  1
