# generated using pymatgen
data_Tb3Ho5Tc2(B12Os)2
_symmetry_space_group_name_H-M   'P 1'
_cell_length_a   3.66676300
_cell_length_b   9.14680088
_cell_length_c   11.53764602
_cell_angle_alpha   89.92333696
_cell_angle_beta   90.00000000
_cell_angle_gamma   90.00000000
_symmetry_Int_Tables_number   1
_chemical_formula_structural   Tb3Ho5Tc2(B12Os)2
_chemical_formula_sum   'Tb3 Ho5 Tc2 B24 Os2'
_cell_volume   386.96250602
_cell_formula_units_Z   1
loop_
 _symmetry_equiv_pos_site_id
 _symmetry_equiv_pos_as_xyz
  1  'x, y, z'
loop_
 _atom_site_type_symbol
 _atom_site_label
 _atom_site_symmetry_multiplicity
 _atom_site_fract_x
 _atom_site_fract_y
 _atom_site_fract_z
 _atom_site_occupancy
  Tb  Tb0  1  0.000000  0.324578  0.415272  1
  Tb  Tb1  1  0.000000  0.675399  0.584773  1
  Tb  Tb2  1  0.000000  0.820963  0.087234  1
  Ho  Ho3  1  0.000000  0.179170  0.912696  1
  Ho  Ho4  1  0.000000  0.941669  0.370901  1
  Ho  Ho5  1  0.000000  0.058461  0.629167  1
  Ho  Ho6  1  0.000000  0.443444  0.129835  1
  Ho  Ho7  1  0.000000  0.556275  0.870052  1
  Tc  Tc8  1  0.000000  0.638429  0.320114  1
  Tc  Tc9  1  0.000000  0.361397  0.680089  1
  B  B10  1  0.500000  0.553277  0.432706  1
  B  B11  1  0.500000  0.446684  0.567336  1
  B  B12  1  0.500000  0.053942  0.066942  1
  B  B13  1  0.500000  0.946473  0.932827  1
  B  B14  1  0.500000  0.748344  0.418541  1
  B  B15  1  0.500000  0.251662  0.581520  1
  B  B16  1  0.500000  0.248685  0.081229  1
  B  B17  1  0.500000  0.751317  0.918370  1
  B  B18  1  0.500000  0.791064  0.265524  1
  B  B19  1  0.500000  0.208751  0.734799  1
  B  B20  1  0.500000  0.290335  0.234065  1
  B  B21  1  0.500000  0.709676  0.765881  1
  B  B22  1  0.500000  0.630894  0.185408  1
  B  B23  1  0.500000  0.368800  0.814822  1
  B  B24  1  0.500000  0.130442  0.313813  1
  B  B25  1  0.500000  0.869631  0.686201  1
  B  B26  1  0.500000  0.982948  0.212061  1
  B  B27  1  0.500000  0.017492  0.788070  1
  B  B28  1  0.500000  0.482796  0.287451  1
  B  B29  1  0.500000  0.517129  0.712565  1
  B  B30  1  0.500000  0.602830  0.028298  1
  B  B31  1  0.500000  0.396661  0.971566  1
  B  B32  1  0.500000  0.102811  0.471236  1
  B  B33  1  0.500000  0.897216  0.528794  1
  Os  Os34  1  0.000000  0.137423  0.178086  1
  Os  Os35  1  0.000000  0.862931  0.821754  1
