# generated using pymatgen
data_Lu7Sc3(Si3H)2
_symmetry_space_group_name_H-M   'P 1'
_cell_length_a   8.17620500
_cell_length_b   8.17620555
_cell_length_c   5.91231700
_cell_angle_alpha   90.00000000
_cell_angle_beta   90.00000000
_cell_angle_gamma   120.00000993
_symmetry_Int_Tables_number   1
_chemical_formula_structural   Lu7Sc3(Si3H)2
_chemical_formula_sum   'Lu7 Sc3 Si6 H2'
_cell_volume   342.28815658
_cell_formula_units_Z   1
loop_
 _symmetry_equiv_pos_site_id
 _symmetry_equiv_pos_as_xyz
  1  'x, y, z'
loop_
 _atom_site_type_symbol
 _atom_site_label
 _atom_site_symmetry_multiplicity
 _atom_site_fract_x
 _atom_site_fract_y
 _atom_site_fract_z
 _atom_site_occupancy
  Lu  Lu0  1  0.666667  0.333333  0.500000  1
  Lu  Lu1  1  0.748137  0.748154  0.751661  1
  Lu  Lu2  1  0.251846  0.999984  0.751661  1
  Lu  Lu3  1  0.000016  0.251863  0.751661  1
  Lu  Lu4  1  0.251846  0.251863  0.248339  1
  Lu  Lu5  1  0.748137  0.999984  0.248339  1
  Lu  Lu6  1  0.000016  0.748154  0.248339  1
  Sc  Sc7  1  0.666667  0.333333  0.000000  1
  Sc  Sc8  1  0.333333  0.666667  0.000000  1
  Sc  Sc9  1  0.333333  0.666667  0.500000  1
  Si  Si10  1  0.390385  0.393525  0.755050  1
  Si  Si11  1  0.606475  0.996860  0.755050  1
  Si  Si12  1  0.003140  0.609615  0.755050  1
  Si  Si13  1  0.606475  0.609615  0.244950  1
  Si  Si14  1  0.390385  0.996860  0.244950  1
  Si  Si15  1  0.003140  0.393525  0.244950  1
  H  H16  1  0.000000  0.000000  0.500000  1
  H  H17  1  0.000000  0.000000  0.000000  1
