# generated using pymatgen
data_Ce4Hg2Ir3Au
_symmetry_space_group_name_H-M   'P 1'
_cell_length_a   7.85913198
_cell_length_b   7.85913198
_cell_length_c   3.70426100
_cell_angle_alpha   90.00000000
_cell_angle_beta   90.00000000
_cell_angle_gamma   89.25974785
_symmetry_Int_Tables_number   1
_chemical_formula_structural   Ce4Hg2Ir3Au
_chemical_formula_sum   'Ce4 Hg2 Ir3 Au1'
_cell_volume   228.77812475
_cell_formula_units_Z   1
loop_
 _symmetry_equiv_pos_site_id
 _symmetry_equiv_pos_as_xyz
  1  'x, y, z'
loop_
 _atom_site_type_symbol
 _atom_site_label
 _atom_site_symmetry_multiplicity
 _atom_site_fract_x
 _atom_site_fract_y
 _atom_site_fract_z
 _atom_site_occupancy
  Ce  Ce0  1  0.335252  0.189347  0.500000  1
  Ce  Ce1  1  0.825042  0.325042  0.500000  1
  Ce  Ce2  1  0.152069  0.652069  0.500000  1
  Ce  Ce3  1  0.689347  0.835252  0.500000  1
  Hg  Hg4  1  0.003009  0.002381  0.000000  1
  Hg  Hg5  1  0.502381  0.503009  0.000000  1
  Ir  Ir6  1  0.628868  0.128868  0.000000  1
  Ir  Ir7  1  0.130218  0.365022  0.000000  1
  Ir  Ir8  1  0.865022  0.630218  0.000000  1
  Au  Au9  1  0.368792  0.868792  0.000000  1
