# generated using pymatgen
data_LiTc12Br25
_symmetry_space_group_name_H-M   'P 1'
_cell_length_a   9.79393848
_cell_length_b   10.94723243
_cell_length_c   11.61724179
_cell_angle_alpha   84.78019641
_cell_angle_beta   76.25369005
_cell_angle_gamma   88.65420604
_symmetry_Int_Tables_number   1
_chemical_formula_structural   LiTc12Br25
_chemical_formula_sum   'Li1 Tc12 Br25'
_cell_volume   1204.86451325
_cell_formula_units_Z   1
loop_
 _symmetry_equiv_pos_site_id
 _symmetry_equiv_pos_as_xyz
  1  'x, y, z'
loop_
 _atom_site_type_symbol
 _atom_site_label
 _atom_site_symmetry_multiplicity
 _atom_site_fract_x
 _atom_site_fract_y
 _atom_site_fract_z
 _atom_site_occupancy
  Li  Li0  1  0.500000  0.000000  0.000000  1
  Tc  Tc1  1  0.822720  0.251346  0.121485  1
  Tc  Tc2  1  0.177280  0.748654  0.878515  1
  Tc  Tc3  1  0.750570  0.118703  0.275553  1
  Tc  Tc4  1  0.249430  0.881297  0.724447  1
  Tc  Tc5  1  0.064392  0.273089  0.192248  1
  Tc  Tc6  1  0.935608  0.726911  0.807752  1
  Tc  Tc7  1  0.847155  0.426261  0.264151  1
  Tc  Tc8  1  0.152845  0.573739  0.735849  1
  Tc  Tc9  1  0.771791  0.294795  0.421264  1
  Tc  Tc10  1  0.228209  0.705205  0.578736  1
  Tc  Tc11  1  0.989501  0.142937  0.349873  1
  Tc  Tc12  1  0.010499  0.857063  0.650127  1
  Br  Br13  1  0.936338  0.957602  0.259145  1
  Br  Br14  1  0.063662  0.042398  0.740855  1
  Br  Br15  1  0.973768  0.275121  0.516407  1
  Br  Br16  1  0.026232  0.724879  0.483593  1
  Br  Br17  1  0.646891  0.420990  0.164462  1
  Br  Br18  1  0.353109  0.579010  0.835538  1
  Br  Br19  1  0.092690  0.466635  0.281750  1
  Br  Br20  1  0.907310  0.533365  0.718250  1
  Br  Br21  1  0.000000  0.500000  0.000000  1
  Br  Br22  1  0.591771  0.966170  0.219258  1
  Br  Br23  1  0.408229  0.033830  0.780742  1
  Br  Br24  1  0.198581  0.033507  0.405380  1
  Br  Br25  1  0.801419  0.966493  0.594620  1
  Br  Br26  1  0.542820  0.216598  0.400404  1
  Br  Br27  1  0.457180  0.783402  0.599596  1
  Br  Br28  1  0.050489  0.158334  0.020915  1
  Br  Br29  1  0.949511  0.841666  0.979085  1
  Br  Br30  1  0.777013  0.638900  0.315057  1
  Br  Br31  1  0.222987  0.361100  0.684943  1
  Br  Br32  1  0.716435  0.196295  0.953182  1
  Br  Br33  1  0.283565  0.803705  0.046818  1
  Br  Br34  1  0.326938  0.255622  0.121680  1
  Br  Br35  1  0.673062  0.744378  0.878320  1
  Br  Br36  1  0.641741  0.404325  0.592156  1
  Br  Br37  1  0.358259  0.595675  0.407844  1
