# generated using pymatgen
data_Ho2Lu6Tc3B24Ru
_symmetry_space_group_name_H-M   'P 1'
_cell_length_a   3.62108200
_cell_length_b   9.06209901
_cell_length_c   11.43330300
_cell_angle_alpha   89.92455704
_cell_angle_beta   90.00000000
_cell_angle_gamma   90.00000000
_symmetry_Int_Tables_number   1
_chemical_formula_structural   Ho2Lu6Tc3B24Ru
_chemical_formula_sum   'Ho2 Lu6 Tc3 B24 Ru1'
_cell_volume   375.17898084
_cell_formula_units_Z   1
loop_
 _symmetry_equiv_pos_site_id
 _symmetry_equiv_pos_as_xyz
  1  'x, y, z'
loop_
 _atom_site_type_symbol
 _atom_site_label
 _atom_site_symmetry_multiplicity
 _atom_site_fract_x
 _atom_site_fract_y
 _atom_site_fract_z
 _atom_site_occupancy
  Ho  Ho0  1  0.000000  0.322908  0.413722  1
  Ho  Ho1  1  0.000000  0.675902  0.584229  1
  Lu  Lu2  1  0.000000  0.822401  0.087402  1
  Lu  Lu3  1  0.000000  0.178605  0.914606  1
  Lu  Lu4  1  0.000000  0.942775  0.370140  1
  Lu  Lu5  1  0.000000  0.057580  0.630427  1
  Lu  Lu6  1  0.000000  0.443319  0.129441  1
  Lu  Lu7  1  0.000000  0.557475  0.869972  1
  Tc  Tc8  1  0.000000  0.639098  0.319570  1
  Tc  Tc9  1  0.000000  0.360752  0.681096  1
  Tc  Tc10  1  0.000000  0.137667  0.177922  1
  B  B11  1  0.500000  0.553321  0.432892  1
  B  B12  1  0.500000  0.446402  0.566929  1
  B  B13  1  0.500000  0.052801  0.065883  1
  B  B14  1  0.500000  0.946214  0.933543  1
  B  B15  1  0.500000  0.750198  0.418835  1
  B  B16  1  0.500000  0.249352  0.581355  1
  B  B17  1  0.500000  0.250505  0.080206  1
  B  B18  1  0.500000  0.750419  0.919388  1
  B  B19  1  0.500000  0.792927  0.264810  1
  B  B20  1  0.500000  0.207069  0.736084  1
  B  B21  1  0.500000  0.292449  0.234444  1
  B  B22  1  0.500000  0.708515  0.765302  1
  B  B23  1  0.500000  0.630882  0.184283  1
  B  B24  1  0.500000  0.369302  0.816298  1
  B  B25  1  0.500000  0.129728  0.314643  1
  B  B26  1  0.500000  0.869608  0.685127  1
  B  B27  1  0.500000  0.980454  0.211764  1
  B  B28  1  0.500000  0.018066  0.788305  1
  B  B29  1  0.500000  0.481415  0.287222  1
  B  B30  1  0.500000  0.518478  0.712526  1
  B  B31  1  0.500000  0.601415  0.027777  1
  B  B32  1  0.500000  0.400349  0.972025  1
  B  B33  1  0.500000  0.099694  0.472555  1
  B  B34  1  0.500000  0.900018  0.528150  1
  Ru  Ru35  1  0.000000  0.861938  0.821129  1
