# generated using pymatgen
data_Cs6SmUCl12
_symmetry_space_group_name_H-M   'P 1'
_cell_length_a   9.61239500
_cell_length_b   9.63856100
_cell_length_c   8.02112000
_cell_angle_alpha   90.00000000
_cell_angle_beta   90.00000000
_cell_angle_gamma   89.99944122
_symmetry_Int_Tables_number   1
_chemical_formula_structural   Cs6SmUCl12
_chemical_formula_sum   'Cs6 Sm1 U1 Cl12'
_cell_volume   743.15400523
_cell_formula_units_Z   1
loop_
 _symmetry_equiv_pos_site_id
 _symmetry_equiv_pos_as_xyz
  1  'x, y, z'
loop_
 _atom_site_type_symbol
 _atom_site_label
 _atom_site_symmetry_multiplicity
 _atom_site_fract_x
 _atom_site_fract_y
 _atom_site_fract_z
 _atom_site_occupancy
  Cs  Cs0  1  0.000000  0.000000  0.500000  1
  Cs  Cs1  1  0.000000  0.000000  0.000000  1
  Cs  Cs2  1  0.235136  0.583272  0.500000  1
  Cs  Cs3  1  0.764864  0.416728  0.500000  1
  Cs  Cs4  1  0.416436  0.235816  0.000000  1
  Cs  Cs5  1  0.583564  0.764184  0.000000  1
  Sm  Sm6  1  0.000000  0.500000  0.000000  1
  U  U7  1  0.500000  0.000000  0.500000  1
  Cl  Cl8  1  0.695743  0.058458  0.743721  1
  Cl  Cl9  1  0.304257  0.941542  0.743721  1
  Cl  Cl10  1  0.942763  0.692392  0.239995  1
  Cl  Cl11  1  0.057237  0.307608  0.239995  1
  Cl  Cl12  1  0.304257  0.941542  0.256279  1
  Cl  Cl13  1  0.695743  0.058458  0.256279  1
  Cl  Cl14  1  0.057237  0.307608  0.760005  1
  Cl  Cl15  1  0.942763  0.692392  0.760005  1
  Cl  Cl16  1  0.569269  0.723299  0.500000  1
  Cl  Cl17  1  0.430731  0.276701  0.500000  1
  Cl  Cl18  1  0.272767  0.569053  0.000000  1
  Cl  Cl19  1  0.727233  0.430947  0.000000  1
