# generated using pymatgen
data_Ca2Er4Si3(GeRh4)3
_symmetry_space_group_name_H-M   'P 1'
_cell_length_a   5.59061800
_cell_length_b   5.59061732
_cell_length_c   15.19548500
_cell_angle_alpha   90.00000000
_cell_angle_beta   90.00000000
_cell_angle_gamma   119.99999220
_symmetry_Int_Tables_number   1
_chemical_formula_structural   Ca2Er4Si3(GeRh4)3
_chemical_formula_sum   'Ca2 Er4 Si3 Ge3 Rh12'
_cell_volume   411.30578311
_cell_formula_units_Z   1
loop_
 _symmetry_equiv_pos_site_id
 _symmetry_equiv_pos_as_xyz
  1  'x, y, z'
loop_
 _atom_site_type_symbol
 _atom_site_label
 _atom_site_symmetry_multiplicity
 _atom_site_fract_x
 _atom_site_fract_y
 _atom_site_fract_z
 _atom_site_occupancy
  Ca  Ca0  1  0.333333  0.666667  0.750000  1
  Ca  Ca1  1  0.666667  0.333333  0.250000  1
  Er  Er2  1  0.333333  0.666667  0.542305  1
  Er  Er3  1  0.666667  0.333333  0.460700  1
  Er  Er4  1  0.666667  0.333333  0.039300  1
  Er  Er5  1  0.333333  0.666667  0.957695  1
  Si  Si6  1  0.000000  0.000000  0.750000  1
  Si  Si7  1  0.333333  0.666667  0.250000  1
  Si  Si8  1  0.666667  0.333333  0.750000  1
  Ge  Ge9  1  0.000000  0.000000  0.250000  1
  Ge  Ge10  1  0.000000  0.000000  0.998399  1
  Ge  Ge11  1  0.000000  0.000000  0.501601  1
  Rh  Rh12  1  0.169873  0.339747  0.127206  1
  Rh  Rh13  1  0.832052  0.664103  0.867947  1
  Rh  Rh14  1  0.660253  0.830127  0.127206  1
  Rh  Rh15  1  0.832052  0.664103  0.632053  1
  Rh  Rh16  1  0.335897  0.167948  0.867947  1
  Rh  Rh17  1  0.169873  0.339747  0.372794  1
  Rh  Rh18  1  0.169873  0.830127  0.127206  1
  Rh  Rh19  1  0.335897  0.167948  0.632053  1
  Rh  Rh20  1  0.832052  0.167948  0.867947  1
  Rh  Rh21  1  0.660253  0.830127  0.372794  1
  Rh  Rh22  1  0.832052  0.167948  0.632053  1
  Rh  Rh23  1  0.169873  0.830127  0.372794  1
