# generated using pymatgen
data_CaTb3(SiPd)4
_symmetry_space_group_name_H-M   'P 1'
_cell_length_a   4.34166100
_cell_length_b   7.46412557
_cell_length_c   21.28676960
_cell_angle_alpha   89.95542856
_cell_angle_beta   90.00000000
_cell_angle_gamma   90.00000000
_symmetry_Int_Tables_number   1
_chemical_formula_structural   CaTb3(SiPd)4
_chemical_formula_sum   'Ca3 Tb9 Si12 Pd12'
_cell_volume   689.83380894
_cell_formula_units_Z   3
loop_
 _symmetry_equiv_pos_site_id
 _symmetry_equiv_pos_as_xyz
  1  'x, y, z'
loop_
 _atom_site_type_symbol
 _atom_site_label
 _atom_site_symmetry_multiplicity
 _atom_site_fract_x
 _atom_site_fract_y
 _atom_site_fract_z
 _atom_site_occupancy
  Ca  Ca0  1  0.250000  0.703522  0.332599  1
  Ca  Ca1  1  0.750000  0.295392  0.667389  1
  Ca  Ca2  1  0.750000  0.203253  0.167187  1
  Tb  Tb3  1  0.250000  0.796997  0.832821  1
  Tb  Tb4  1  0.250000  0.796650  0.166043  1
  Tb  Tb5  1  0.750000  0.205003  0.833684  1
  Tb  Tb6  1  0.750000  0.295470  0.333744  1
  Tb  Tb7  1  0.250000  0.704804  0.665881  1
  Tb  Tb8  1  0.250000  0.709319  0.001031  1
  Tb  Tb9  1  0.750000  0.290460  0.999634  1
  Tb  Tb10  1  0.750000  0.207910  0.499128  1
  Tb  Tb11  1  0.250000  0.793028  0.500344  1
  Si  Si12  1  0.250000  0.088658  0.066105  1
  Si  Si13  1  0.750000  0.910264  0.928837  1
  Si  Si14  1  0.750000  0.587263  0.434039  1
  Si  Si15  1  0.250000  0.412466  0.566447  1
  Si  Si16  1  0.250000  0.086173  0.274344  1
  Si  Si17  1  0.750000  0.911411  0.728000  1
  Si  Si18  1  0.750000  0.586868  0.225712  1
  Si  Si19  1  0.250000  0.414782  0.774135  1
  Si  Si20  1  0.250000  0.089768  0.395058  1
  Si  Si21  1  0.750000  0.910244  0.605687  1
  Si  Si22  1  0.750000  0.589178  0.104684  1
  Si  Si23  1  0.250000  0.411281  0.895412  1
  Pd  Pd24  1  0.250000  0.415316  0.236765  1
  Pd  Pd25  1  0.750000  0.585256  0.764604  1
  Pd  Pd26  1  0.750000  0.915274  0.263108  1
  Pd  Pd27  1  0.250000  0.083215  0.737832  1
  Pd  Pd28  1  0.250000  0.416134  0.437334  1
  Pd  Pd29  1  0.750000  0.584008  0.562672  1
  Pd  Pd30  1  0.750000  0.915841  0.062836  1
  Pd  Pd31  1  0.250000  0.083565  0.937577  1
  Pd  Pd32  1  0.250000  0.420130  0.092982  1
  Pd  Pd33  1  0.750000  0.580824  0.906102  1
  Pd  Pd34  1  0.750000  0.919056  0.407333  1
  Pd  Pd35  1  0.250000  0.081217  0.592909  1
