# generated using pymatgen
data_TbEr2Th3(Al3Ru)8
_symmetry_space_group_name_H-M   'P 1'
_cell_length_a   8.87609000
_cell_length_b   8.88199138
_cell_length_c   9.58386300
_cell_angle_alpha   90.00000000
_cell_angle_beta   90.00000000
_cell_angle_gamma   119.97802356
_symmetry_Int_Tables_number   1
_chemical_formula_structural   TbEr2Th3(Al3Ru)8
_chemical_formula_sum   'Tb1 Er2 Th3 Al24 Ru8'
_cell_volume   654.48455879
_cell_formula_units_Z   1
loop_
 _symmetry_equiv_pos_site_id
 _symmetry_equiv_pos_as_xyz
  1  'x, y, z'
loop_
 _atom_site_type_symbol
 _atom_site_label
 _atom_site_symmetry_multiplicity
 _atom_site_fract_x
 _atom_site_fract_y
 _atom_site_fract_z
 _atom_site_occupancy
  Tb  Tb0  1  0.192591  0.385181  0.750000  1
  Er  Er1  1  0.613005  0.807068  0.750000  1
  Er  Er2  1  0.194063  0.807068  0.750000  1
  Th  Th3  1  0.390627  0.194400  0.250000  1
  Th  Th4  1  0.803773  0.194400  0.250000  1
  Th  Th5  1  0.805099  0.610198  0.250000  1
  Al  Al6  1  0.434939  0.869877  0.250000  1
  Al  Al7  1  0.129613  0.564597  0.250000  1
  Al  Al8  1  0.434984  0.564597  0.250000  1
  Al  Al9  1  0.558714  0.117429  0.750000  1
  Al  Al10  1  0.881519  0.441834  0.750000  1
  Al  Al11  1  0.560314  0.441834  0.750000  1
  Al  Al12  1  0.163668  0.836315  0.427103  1
  Al  Al13  1  0.163694  0.327390  0.426668  1
  Al  Al14  1  0.672646  0.836315  0.427103  1
  Al  Al15  1  0.837696  0.161676  0.582279  1
  Al  Al16  1  0.838244  0.676486  0.582408  1
  Al  Al17  1  0.323980  0.161676  0.582279  1
  Al  Al18  1  0.837696  0.161676  0.917721  1
  Al  Al19  1  0.838244  0.676486  0.917592  1
  Al  Al20  1  0.323980  0.161676  0.917721  1
  Al  Al21  1  0.163668  0.836315  0.072897  1
  Al  Al22  1  0.163694  0.327390  0.073332  1
  Al  Al23  1  0.672646  0.836315  0.072897  1
  Al  Al24  1  0.333645  0.667290  0.522719  1
  Al  Al25  1  0.666782  0.333563  0.494100  1
  Al  Al26  1  0.666782  0.333563  0.005900  1
  Al  Al27  1  0.333645  0.667290  0.977281  1
  Al  Al28  1  0.999981  0.999961  0.250000  1
  Al  Al29  1  0.999448  0.998896  0.750000  1
  Ru  Ru30  1  0.999903  0.999806  0.501488  1
  Ru  Ru31  1  0.999903  0.999806  0.998512  1
  Ru  Ru32  1  0.499969  0.999937  0.498663  1
  Ru  Ru33  1  0.000167  0.500438  0.498515  1
  Ru  Ru34  1  0.500271  0.500438  0.498515  1
  Ru  Ru35  1  0.499969  0.999937  0.001337  1
  Ru  Ru36  1  0.000167  0.500438  0.001485  1
  Ru  Ru37  1  0.500271  0.500438  0.001485  1
