# generated using pymatgen
data_V(WF4)3
_symmetry_space_group_name_H-M   'P 1'
_cell_length_a   5.43230480
_cell_length_b   5.74202295
_cell_length_c   7.92771019
_cell_angle_alpha   90.59092606
_cell_angle_beta   89.88492399
_cell_angle_gamma   90.06572752
_symmetry_Int_Tables_number   1
_chemical_formula_structural   V(WF4)3
_chemical_formula_sum   'V1 W3 F12'
_cell_volume   247.27064942
_cell_formula_units_Z   1
loop_
 _symmetry_equiv_pos_site_id
 _symmetry_equiv_pos_as_xyz
  1  'x, y, z'
loop_
 _atom_site_type_symbol
 _atom_site_label
 _atom_site_symmetry_multiplicity
 _atom_site_fract_x
 _atom_site_fract_y
 _atom_site_fract_z
 _atom_site_occupancy
  V  V0  1  0.500000  0.000000  0.500000  1
  W  W1  1  0.000000  0.500000  0.000000  1
  W  W2  1  0.000000  0.500000  0.500000  1
  W  W3  1  0.500000  0.000000  0.000000  1
  F  F4  1  0.129052  0.531115  0.750153  1
  F  F5  1  0.687720  0.711648  0.550246  1
  F  F6  1  0.677056  0.683736  0.937214  1
  F  F7  1  0.175320  0.817389  0.063201  1
  F  F8  1  0.206128  0.806531  0.448721  1
  F  F9  1  0.602141  0.974289  0.258741  1
  F  F10  1  0.397859  0.025711  0.741259  1
  F  F11  1  0.824680  0.182611  0.936799  1
  F  F12  1  0.793872  0.193469  0.551279  1
  F  F13  1  0.322944  0.316264  0.062786  1
  F  F14  1  0.312280  0.288352  0.449754  1
  F  F15  1  0.870948  0.468885  0.249847  1
