# generated using pymatgen
data_HfZrSc(Cu2Si)2
_symmetry_space_group_name_H-M   'P 1'
_cell_length_a   6.37912238
_cell_length_b   6.38134476
_cell_length_c   3.95205300
_cell_angle_alpha   90.00000000
_cell_angle_beta   90.00000000
_cell_angle_gamma   120.16177757
_symmetry_Int_Tables_number   1
_chemical_formula_structural   HfZrSc(Cu2Si)2
_chemical_formula_sum   'Hf1 Zr1 Sc1 Cu4 Si2'
_cell_volume   139.09651423
_cell_formula_units_Z   1
loop_
 _symmetry_equiv_pos_site_id
 _symmetry_equiv_pos_as_xyz
  1  'x, y, z'
loop_
 _atom_site_type_symbol
 _atom_site_label
 _atom_site_symmetry_multiplicity
 _atom_site_fract_x
 _atom_site_fract_y
 _atom_site_fract_z
 _atom_site_occupancy
  Hf  Hf0  1  0.588465  0.999808  0.500000  1
  Zr  Zr1  1  0.412009  0.411306  0.500000  1
  Sc  Sc2  1  0.000573  0.590274  0.500000  1
  Cu  Cu3  1  0.247728  0.998815  0.000000  1
  Cu  Cu4  1  0.998818  0.247556  0.000000  1
  Cu  Cu5  1  0.997883  0.997840  0.500000  1
  Cu  Cu6  1  0.753112  0.753097  0.000000  1
  Si  Si7  1  0.665602  0.332211  0.000000  1
  Si  Si8  1  0.335810  0.669092  0.000000  1
