# generated using pymatgen
data_TbHo3Ni13C4
_symmetry_space_group_name_H-M   'P 1'
_cell_length_a   3.85526600
_cell_length_b   8.38660822
_cell_length_c   8.38660853
_cell_angle_alpha   88.87022994
_cell_angle_beta   90.00000000
_cell_angle_gamma   90.00000000
_symmetry_Int_Tables_number   1
_chemical_formula_structural   TbHo3Ni13C4
_chemical_formula_sum   'Tb1 Ho3 Ni13 C4'
_cell_volume   271.10819239
_cell_formula_units_Z   1
loop_
 _symmetry_equiv_pos_site_id
 _symmetry_equiv_pos_as_xyz
  1  'x, y, z'
loop_
 _atom_site_type_symbol
 _atom_site_label
 _atom_site_symmetry_multiplicity
 _atom_site_fract_x
 _atom_site_fract_y
 _atom_site_fract_z
 _atom_site_occupancy
  Tb  Tb0  1  0.500001  0.652217  0.347783  1
  Ho  Ho1  1  0.500001  0.187849  0.187730  1
  Ho  Ho2  1  0.500001  0.347674  0.652326  1
  Ho  Ho3  1  0.500001  0.812269  0.812150  1
  Ni  Ni4  1  0.000000  0.000424  0.999576  1
  Ni  Ni5  1  0.500001  0.498908  0.998450  1
  Ni  Ni6  1  0.000000  0.709416  0.072502  1
  Ni  Ni7  1  0.500001  0.877881  0.122118  1
  Ni  Ni8  1  0.000000  0.429936  0.215957  1
  Ni  Ni9  1  0.000000  0.927499  0.290584  1
  Ni  Ni10  1  0.000000  0.215298  0.430758  1
  Ni  Ni11  1  0.500001  0.001550  0.501094  1
  Ni  Ni12  1  0.000000  0.784043  0.570063  1
  Ni  Ni13  1  0.000000  0.073869  0.708864  1
  Ni  Ni14  1  0.000000  0.569241  0.784702  1
  Ni  Ni15  1  0.500001  0.123243  0.876756  1
  Ni  Ni16  1  0.000000  0.291136  0.926132  1
  C  C17  1  0.000000  0.499940  0.000646  1
  C  C18  1  0.000000  0.442233  0.443980  1
  C  C19  1  0.000000  0.999354  0.500062  1
  C  C20  1  0.000000  0.556020  0.557767  1
