# generated using pymatgen
data_K(LaB8)3
_symmetry_space_group_name_H-M   'P 1'
_cell_length_a   7.19529464
_cell_length_b   7.19529483
_cell_length_c   5.91676600
_cell_angle_alpha   90.00000000
_cell_angle_beta   90.00000000
_cell_angle_gamma   109.23592832
_symmetry_Int_Tables_number   1
_chemical_formula_structural   K(LaB8)3
_chemical_formula_sum   'K1 La3 B24'
_cell_volume   289.22228367
_cell_formula_units_Z   1
loop_
 _symmetry_equiv_pos_site_id
 _symmetry_equiv_pos_as_xyz
  1  'x, y, z'
loop_
 _atom_site_type_symbol
 _atom_site_label
 _atom_site_symmetry_multiplicity
 _atom_site_fract_x
 _atom_site_fract_y
 _atom_site_fract_z
 _atom_site_occupancy
  K  K0  1  0.000000  0.000000  0.000000  1
  La  La1  1  0.751501  0.248499  0.500000  1
  La  La2  1  0.500000  0.500000  0.000000  1
  La  La3  1  0.248499  0.751501  0.500000  1
  B  B4  1  0.175532  0.325245  0.649099  1
  B  B5  1  0.924601  0.574884  0.148495  1
  B  B6  1  0.674755  0.824468  0.649099  1
  B  B7  1  0.425116  0.075399  0.148495  1
  B  B8  1  0.175532  0.325245  0.350901  1
  B  B9  1  0.924601  0.574884  0.851505  1
  B  B10  1  0.674755  0.824468  0.350901  1
  B  B11  1  0.425116  0.075399  0.851505  1
  B  B12  1  0.399810  0.399810  0.500000  1
  B  B13  1  0.148555  0.650291  0.000000  1
  B  B14  1  0.899025  0.899025  0.500000  1
  B  B15  1  0.650291  0.148555  0.000000  1
  B  B16  1  0.325245  0.175532  0.649099  1
  B  B17  1  0.075399  0.425116  0.148495  1
  B  B18  1  0.824468  0.674755  0.649099  1
  B  B19  1  0.574884  0.924601  0.148495  1
  B  B20  1  0.100975  0.100975  0.500000  1
  B  B21  1  0.851445  0.349709  0.000000  1
  B  B22  1  0.600190  0.600190  0.500000  1
  B  B23  1  0.349709  0.851445  0.000000  1
  B  B24  1  0.325245  0.175532  0.350901  1
  B  B25  1  0.075399  0.425116  0.851505  1
  B  B26  1  0.824468  0.674755  0.350901  1
  B  B27  1  0.574884  0.924601  0.851505  1
