# generated using pymatgen
data_Rb2MgV2O7
_symmetry_space_group_name_H-M   'P 1'
_cell_length_a   5.98204201
_cell_length_b   8.67104801
_cell_length_c   8.67103700
_cell_angle_alpha   90.00018501
_cell_angle_beta   90.00342764
_cell_angle_gamma   90.00339665
_symmetry_Int_Tables_number   1
_chemical_formula_structural   Rb2MgV2O7
_chemical_formula_sum   'Rb4 Mg2 V4 O14'
_cell_volume   449.77166036
_cell_formula_units_Z   2
loop_
 _symmetry_equiv_pos_site_id
 _symmetry_equiv_pos_as_xyz
  1  'x, y, z'
loop_
 _atom_site_type_symbol
 _atom_site_label
 _atom_site_symmetry_multiplicity
 _atom_site_fract_x
 _atom_site_fract_y
 _atom_site_fract_z
 _atom_site_occupancy
  Rb  Rb0  1  0.509426  0.160943  0.660945  1
  Rb  Rb1  1  0.490522  0.339044  0.160956  1
  Rb  Rb2  1  0.509543  0.839036  0.339036  1
  Rb  Rb3  1  0.490521  0.660956  0.839045  1
  Mg  Mg4  1  0.999999  0.499976  0.500031  1
  Mg  Mg5  1  0.999999  0.000031  0.999974  1
  V  V6  1  0.952060  0.641622  0.141620  1
  V  V7  1  0.048012  0.141602  0.358367  1
  V  V8  1  0.951872  0.358423  0.858423  1
  V  V9  1  0.048015  0.858366  0.641605  1
  O  O10  1  0.145733  0.999938  0.499933  1
  O  O11  1  0.854266  0.500071  0.000072  1
  O  O12  1  0.767072  0.145575  0.354411  1
  O  O13  1  0.232902  0.354396  0.854397  1
  O  O14  1  0.767070  0.854411  0.645575  1
  O  O15  1  0.232983  0.645555  0.145554  1
  O  O16  1  0.160826  0.318655  0.412922  1
  O  O17  1  0.839101  0.181307  0.912883  1
  O  O18  1  0.160827  0.681276  0.587181  1
  O  O19  1  0.839244  0.818694  0.087134  1
  O  O20  1  0.839248  0.587137  0.318690  1
  O  O21  1  0.160830  0.912925  0.818660  1
  O  O22  1  0.839101  0.412883  0.681309  1
  O  O23  1  0.160827  0.087183  0.181276  1
