# generated using pymatgen
data_Ca4YbBi2Pb
_symmetry_space_group_name_H-M   'P 1'
_cell_length_a   9.31207185
_cell_length_b   9.36794168
_cell_length_c   7.06233204
_cell_angle_alpha   89.93143402
_cell_angle_beta   90.13795483
_cell_angle_gamma   119.80290628
_symmetry_Int_Tables_number   1
_chemical_formula_structural   Ca4YbBi2Pb
_chemical_formula_sum   'Ca8 Yb2 Bi4 Pb2'
_cell_volume   534.59772934
_cell_formula_units_Z   2
loop_
 _symmetry_equiv_pos_site_id
 _symmetry_equiv_pos_as_xyz
  1  'x, y, z'
loop_
 _atom_site_type_symbol
 _atom_site_label
 _atom_site_symmetry_multiplicity
 _atom_site_fract_x
 _atom_site_fract_y
 _atom_site_fract_z
 _atom_site_occupancy
  Ca  Ca0  1  0.004679  0.735026  0.749980  1
  Ca  Ca1  1  0.730345  0.735026  0.250020  1
  Ca  Ca2  1  0.269655  0.264974  0.749980  1
  Ca  Ca3  1  0.733594  0.000000  0.749950  1
  Ca  Ca4  1  0.334466  0.668934  0.500000  1
  Ca  Ca5  1  0.266406  0.000000  0.250050  1
  Ca  Ca6  1  0.995321  0.264974  0.250020  1
  Ca  Ca7  1  0.665534  0.331066  0.500000  1
  Yb  Yb8  1  0.335012  0.670025  0.000000  1
  Yb  Yb9  1  0.664988  0.329975  0.000000  1
  Bi  Bi10  1  0.378583  0.381279  0.249555  1
  Bi  Bi11  1  0.002695  0.381279  0.750445  1
  Bi  Bi12  1  0.621417  0.618721  0.750445  1
  Bi  Bi13  1  0.997305  0.618721  0.249555  1
  Pb  Pb14  1  0.614727  0.000000  0.247846  1
  Pb  Pb15  1  0.385273  0.000000  0.752154  1
