# generated using pymatgen
data_Nd8Cd(Pd11Au)2
_symmetry_space_group_name_H-M   'P 1'
_cell_length_a   8.57092200
_cell_length_b   8.58862000
_cell_length_c   8.58862000
_cell_angle_alpha   90.00000000
_cell_angle_beta   90.00000000
_cell_angle_gamma   90.00000000
_symmetry_Int_Tables_number   1
_chemical_formula_structural   Nd8Cd(Pd11Au)2
_chemical_formula_sum   'Nd8 Cd1 Pd22 Au2'
_cell_volume   632.22886310
_cell_formula_units_Z   1
loop_
 _symmetry_equiv_pos_site_id
 _symmetry_equiv_pos_as_xyz
  1  'x, y, z'
loop_
 _atom_site_type_symbol
 _atom_site_label
 _atom_site_symmetry_multiplicity
 _atom_site_fract_x
 _atom_site_fract_y
 _atom_site_fract_z
 _atom_site_occupancy
  Nd  Nd0  1  0.247919  0.248715  0.248715  1
  Nd  Nd1  1  0.749902  0.749079  0.749079  1
  Nd  Nd2  1  0.749902  0.749079  0.250921  1
  Nd  Nd3  1  0.749902  0.250921  0.749079  1
  Nd  Nd4  1  0.247919  0.248715  0.751285  1
  Nd  Nd5  1  0.247919  0.751285  0.248715  1
  Nd  Nd6  1  0.247919  0.751285  0.751285  1
  Nd  Nd7  1  0.749902  0.250921  0.250921  1
  Cd  Cd8  1  0.999366  0.000000  0.000000  1
  Pd  Pd9  1  0.265663  0.500000  0.000000  1
  Pd  Pd10  1  0.732670  0.500000  0.000000  1
  Pd  Pd11  1  0.000818  0.266575  0.500000  1
  Pd  Pd12  1  0.501180  0.270746  0.000000  1
  Pd  Pd13  1  0.000818  0.733425  0.500000  1
  Pd  Pd14  1  0.501180  0.729254  0.000000  1
  Pd  Pd15  1  0.501180  0.000000  0.270746  1
  Pd  Pd16  1  0.265663  0.000000  0.500000  1
  Pd  Pd17  1  0.501180  0.000000  0.729254  1
  Pd  Pd18  1  0.732670  0.000000  0.500000  1
  Pd  Pd19  1  0.000818  0.500000  0.266575  1
  Pd  Pd20  1  0.000818  0.500000  0.733425  1
  Pd  Pd21  1  0.744883  0.500000  0.500000  1
  Pd  Pd22  1  0.498698  0.253855  0.500000  1
  Pd  Pd23  1  0.498698  0.746145  0.500000  1
  Pd  Pd24  1  0.498698  0.500000  0.253855  1
  Pd  Pd25  1  0.498698  0.500000  0.746145  1
  Pd  Pd26  1  0.685586  0.000000  0.000000  1
  Pd  Pd27  1  0.998919  0.315920  0.000000  1
  Pd  Pd28  1  0.998919  0.684080  0.000000  1
  Pd  Pd29  1  0.998919  0.000000  0.315920  1
  Pd  Pd30  1  0.998919  0.000000  0.684080  1
  Au  Au31  1  0.258088  0.500000  0.500000  1
  Au  Au32  1  0.325670  0.000000  0.000000  1
