# generated using pymatgen
data_RbUCuSe3
_symmetry_space_group_name_H-M   'P 1'
_cell_length_a   7.96890822
_cell_length_b   7.96890876
_cell_length_c   10.73684951
_cell_angle_alpha   89.94495745
_cell_angle_beta   89.94495746
_cell_angle_gamma   29.96850013
_symmetry_Int_Tables_number   1
_chemical_formula_structural   RbUCuSe3
_chemical_formula_sum   'Rb2 U2 Cu2 Se6'
_cell_volume   340.58892297
_cell_formula_units_Z   2
loop_
 _symmetry_equiv_pos_site_id
 _symmetry_equiv_pos_as_xyz
  1  'x, y, z'
loop_
 _atom_site_type_symbol
 _atom_site_label
 _atom_site_symmetry_multiplicity
 _atom_site_fract_x
 _atom_site_fract_y
 _atom_site_fract_z
 _atom_site_occupancy
  Rb  Rb0  1  0.255582  0.255582  0.250674  1
  Rb  Rb1  1  0.744418  0.744418  0.749326  1
  U  U2  1  0.000000  0.000000  0.000000  1
  U  U3  1  0.000000  0.000000  0.500000  1
  Cu  Cu4  1  0.533454  0.533454  0.250428  1
  Cu  Cu5  1  0.466546  0.466546  0.749572  1
  Se  Se6  1  0.620803  0.620803  0.440234  1
  Se  Se7  1  0.379197  0.379197  0.559766  1
  Se  Se8  1  0.621164  0.621164  0.060894  1
  Se  Se9  1  0.939509  0.939509  0.250510  1
  Se  Se10  1  0.060490  0.060490  0.749491  1
  Se  Se11  1  0.378837  0.378837  0.939107  1
