# generated using pymatgen
data_Dy2TiFe8MoP6
_symmetry_space_group_name_H-M   'P 1'
_cell_length_a   3.68703100
_cell_length_b   10.39939400
_cell_length_c   12.19162400
_cell_angle_alpha   90.00000000
_cell_angle_beta   90.00000000
_cell_angle_gamma   90.00000000
_symmetry_Int_Tables_number   1
_chemical_formula_structural   Dy2TiFe8MoP6
_chemical_formula_sum   'Dy4 Ti2 Fe16 Mo2 P12'
_cell_volume   467.46207429
_cell_formula_units_Z   2
loop_
 _symmetry_equiv_pos_site_id
 _symmetry_equiv_pos_as_xyz
  1  'x, y, z'
loop_
 _atom_site_type_symbol
 _atom_site_label
 _atom_site_symmetry_multiplicity
 _atom_site_fract_x
 _atom_site_fract_y
 _atom_site_fract_z
 _atom_site_occupancy
  Dy  Dy0  1  0.250000  0.583501  0.711224  1
  Dy  Dy1  1  0.250000  0.916499  0.211224  1
  Dy  Dy2  1  0.750000  0.418664  0.288980  1
  Dy  Dy3  1  0.750000  0.081336  0.788980  1
  Ti  Ti4  1  0.750000  0.299935  0.008269  1
  Ti  Ti5  1  0.750000  0.200065  0.508269  1
  Fe  Fe6  1  0.250000  0.416311  0.491956  1
  Fe  Fe7  1  0.250000  0.083689  0.991956  1
  Fe  Fe8  1  0.750000  0.585645  0.507798  1
  Fe  Fe9  1  0.750000  0.914355  0.007798  1
  Fe  Fe10  1  0.250000  0.216372  0.172835  1
  Fe  Fe11  1  0.250000  0.283628  0.672835  1
  Fe  Fe12  1  0.750000  0.780735  0.825086  1
  Fe  Fe13  1  0.750000  0.719265  0.325086  1
  Fe  Fe14  1  0.250000  0.878528  0.698828  1
  Fe  Fe15  1  0.250000  0.621472  0.198828  1
  Fe  Fe16  1  0.750000  0.123273  0.301422  1
  Fe  Fe17  1  0.750000  0.376727  0.801422  1
  Fe  Fe18  1  0.250000  0.463849  0.934132  1
  Fe  Fe19  1  0.250000  0.036151  0.434132  1
  Fe  Fe20  1  0.750000  0.536584  0.067120  1
  Fe  Fe21  1  0.750000  0.963416  0.567120  1
  Mo  Mo22  1  0.250000  0.706336  0.991591  1
  Mo  Mo23  1  0.250000  0.793664  0.491591  1
  P  P24  1  0.250000  0.425130  0.113227  1
  P  P25  1  0.250000  0.074870  0.613227  1
  P  P26  1  0.750000  0.574120  0.888457  1
  P  P27  1  0.750000  0.925880  0.388457  1
  P  P28  1  0.250000  0.270000  0.859859  1
  P  P29  1  0.250000  0.230000  0.359859  1
  P  P30  1  0.750000  0.730189  0.138544  1
  P  P31  1  0.750000  0.769811  0.638544  1
  P  P32  1  0.250000  0.600750  0.381225  1
  P  P33  1  0.250000  0.899250  0.881225  1
  P  P34  1  0.750000  0.401464  0.619447  1
  P  P35  1  0.750000  0.098536  0.119447  1
