# generated using pymatgen
data_Pa3BiF20
_symmetry_space_group_name_H-M   'P 1'
_cell_length_a   9.42177584
_cell_length_b   9.42177574
_cell_length_c   5.52537716
_cell_angle_alpha   85.34400951
_cell_angle_beta   85.34401206
_cell_angle_gamma   111.83550273
_symmetry_Int_Tables_number   1
_chemical_formula_structural   Pa3BiF20
_chemical_formula_sum   'Pa3 Bi1 F20'
_cell_volume   450.49530919
_cell_formula_units_Z   1
loop_
 _symmetry_equiv_pos_site_id
 _symmetry_equiv_pos_as_xyz
  1  'x, y, z'
loop_
 _atom_site_type_symbol
 _atom_site_label
 _atom_site_symmetry_multiplicity
 _atom_site_fract_x
 _atom_site_fract_y
 _atom_site_fract_z
 _atom_site_occupancy
  Pa  Pa0  1  0.208563  0.791437  0.000000  1
  Pa  Pa1  1  0.252544  0.258291  0.244146  1
  Pa  Pa2  1  0.741709  0.747456  0.755854  1
  Bi  Bi3  1  0.794432  0.205568  0.000000  1
  F  F4  1  0.262845  0.466271  0.345681  1
  F  F5  1  0.460677  0.271027  0.345567  1
  F  F6  1  0.728973  0.539323  0.654433  1
  F  F7  1  0.533729  0.737155  0.654319  1
  F  F8  1  0.352446  0.355625  0.896243  1
  F  F9  1  0.644375  0.647554  0.103757  1
  F  F10  1  0.834437  0.411586  0.120904  1
  F  F11  1  0.420612  0.831021  0.115228  1
  F  F12  1  0.168979  0.579388  0.884772  1
  F  F13  1  0.588414  0.165563  0.879096  1
  F  F14  1  0.013223  0.213232  0.114004  1
  F  F15  1  0.218655  0.024210  0.116326  1
  F  F16  1  0.975790  0.781345  0.883674  1
  F  F17  1  0.786768  0.986777  0.885996  1
  F  F18  1  0.138634  0.138247  0.576904  1
  F  F19  1  0.861753  0.861366  0.423096  1
  F  F20  1  0.916575  0.295883  0.670196  1
  F  F21  1  0.301353  0.909606  0.659793  1
  F  F22  1  0.090394  0.698647  0.340207  1
  F  F23  1  0.704117  0.083425  0.329804  1
