# generated using pymatgen
data_TbPr5U4O20
_symmetry_space_group_name_H-M   'P 1'
_cell_length_a   6.78431280
_cell_length_b   7.73017309
_cell_length_c   8.64579008
_cell_angle_alpha   101.66035810
_cell_angle_beta   97.68571158
_cell_angle_gamma   107.13983021
_symmetry_Int_Tables_number   1
_chemical_formula_structural   TbPr5U4O20
_chemical_formula_sum   'Tb1 Pr5 U4 O20'
_cell_volume   415.19000117
_cell_formula_units_Z   1
loop_
 _symmetry_equiv_pos_site_id
 _symmetry_equiv_pos_as_xyz
  1  'x, y, z'
loop_
 _atom_site_type_symbol
 _atom_site_label
 _atom_site_symmetry_multiplicity
 _atom_site_fract_x
 _atom_site_fract_y
 _atom_site_fract_z
 _atom_site_occupancy
  Tb  Tb0  1  0.000000  0.000000  0.500000  1
  Pr  Pr1  1  0.612463  0.703691  0.699841  1
  Pr  Pr2  1  0.387537  0.296309  0.300159  1
  Pr  Pr3  1  0.199003  0.897719  0.892857  1
  Pr  Pr4  1  0.000000  0.500000  0.500000  1
  Pr  Pr5  1  0.800997  0.102281  0.107143  1
  U  U6  1  0.401809  0.804685  0.302077  1
  U  U7  1  0.198178  0.401247  0.901228  1
  U  U8  1  0.801822  0.598753  0.098772  1
  U  U9  1  0.598191  0.195315  0.697923  1
  O  O10  1  0.437224  0.534583  0.132204  1
  O  O11  1  0.557492  0.994493  0.837119  1
  O  O12  1  0.274192  0.152049  0.741829  1
  O  O13  1  0.360499  0.600842  0.437445  1
  O  O14  1  0.054754  0.733682  0.325786  1
  O  O15  1  0.442508  0.005507  0.162881  1
  O  O16  1  0.150447  0.189901  0.028373  1
  O  O17  1  0.562776  0.465417  0.867796  1
  O  O18  1  0.856102  0.342087  0.949437  1
  O  O19  1  0.255205  0.600516  0.763917  1
  O  O20  1  0.954906  0.779052  0.646876  1
  O  O21  1  0.353613  0.056434  0.455359  1
  O  O22  1  0.646387  0.943566  0.544641  1
  O  O23  1  0.045094  0.220948  0.353124  1
  O  O24  1  0.744795  0.399484  0.236083  1
  O  O25  1  0.143898  0.657913  0.050563  1
  O  O26  1  0.849553  0.810099  0.971627  1
  O  O27  1  0.945246  0.266318  0.674214  1
  O  O28  1  0.639501  0.399158  0.562555  1
  O  O29  1  0.725808  0.847951  0.258171  1
