# generated using pymatgen
data_Ac2Ga7Cu
_symmetry_space_group_name_H-M   'P 1'
_cell_length_a   6.38559540
_cell_length_b   6.38286951
_cell_length_c   11.32682827
_cell_angle_alpha   73.63479666
_cell_angle_beta   73.62760284
_cell_angle_gamma   89.99999663
_symmetry_Int_Tables_number   1
_chemical_formula_structural   Ac2Ga7Cu
_chemical_formula_sum   'Ac4 Ga14 Cu2'
_cell_volume   423.41278898
_cell_formula_units_Z   2
loop_
 _symmetry_equiv_pos_site_id
 _symmetry_equiv_pos_as_xyz
  1  'x, y, z'
loop_
 _atom_site_type_symbol
 _atom_site_label
 _atom_site_symmetry_multiplicity
 _atom_site_fract_x
 _atom_site_fract_y
 _atom_site_fract_z
 _atom_site_occupancy
  Ac  Ac0  1  0.997973  0.997973  0.004056  1
  Ac  Ac1  1  0.501571  0.501571  0.996857  1
  Ac  Ac2  1  0.751634  0.251634  0.496734  1
  Ac  Ac3  1  0.248068  0.748068  0.503866  1
  Ga  Ga4  1  0.196377  0.196377  0.607247  1
  Ga  Ga5  1  0.813326  0.813326  0.373350  1
  Ga  Ga6  1  0.610652  0.129138  0.252105  1
  Ga  Ga7  1  0.137242  0.618756  0.252105  1
  Ga  Ga8  1  0.610652  0.618756  0.252105  1
  Ga  Ga9  1  0.137242  0.129138  0.252105  1
  Ga  Ga10  1  0.868893  0.360254  0.752118  1
  Ga  Ga11  1  0.378989  0.887627  0.752118  1
  Ga  Ga12  1  0.868893  0.887627  0.752118  1
  Ga  Ga13  1  0.378989  0.360254  0.752118  1
  Ga  Ga14  1  0.689237  0.689237  0.621525  1
  Ga  Ga15  1  0.063445  0.563445  0.873110  1
  Ga  Ga16  1  0.446201  0.946201  0.107596  1
  Ga  Ga17  1  0.939410  0.439410  0.121180  1
  Cu  Cu18  1  0.313097  0.313097  0.373806  1
  Cu  Cu19  1  0.562939  0.062939  0.874122  1
