# generated using pymatgen
data_Sr3(InPt)2
_symmetry_space_group_name_H-M   'P 1'
_cell_length_a   6.26944900
_cell_length_b   8.52638500
_cell_length_c   14.95782900
_cell_angle_alpha   90.00000000
_cell_angle_beta   90.00000000
_cell_angle_gamma   90.00000000
_symmetry_Int_Tables_number   1
_chemical_formula_structural   Sr3(InPt)2
_chemical_formula_sum   'Sr12 In8 Pt8'
_cell_volume   799.58175684
_cell_formula_units_Z   4
loop_
 _symmetry_equiv_pos_site_id
 _symmetry_equiv_pos_as_xyz
  1  'x, y, z'
loop_
 _atom_site_type_symbol
 _atom_site_label
 _atom_site_symmetry_multiplicity
 _atom_site_fract_x
 _atom_site_fract_y
 _atom_site_fract_z
 _atom_site_occupancy
  Sr  Sr0  1  0.155432  0.601144  0.093249  1
  Sr  Sr1  1  0.155432  0.898856  0.906751  1
  Sr  Sr2  1  0.844568  0.101144  0.406751  1
  Sr  Sr3  1  0.844568  0.398856  0.593249  1
  Sr  Sr4  1  0.844568  0.398856  0.906751  1
  Sr  Sr5  1  0.844568  0.101144  0.093249  1
  Sr  Sr6  1  0.155432  0.898856  0.593249  1
  Sr  Sr7  1  0.155432  0.601144  0.406751  1
  Sr  Sr8  1  0.375863  0.250443  0.250000  1
  Sr  Sr9  1  0.375863  0.249557  0.750000  1
  Sr  Sr10  1  0.624137  0.750443  0.250000  1
  Sr  Sr11  1  0.624137  0.749557  0.750000  1
  In  In12  1  0.368871  0.250000  0.000000  1
  In  In13  1  0.631129  0.750000  0.500000  1
  In  In14  1  0.631129  0.750000  0.000000  1
  In  In15  1  0.368871  0.250000  0.500000  1
  In  In16  1  0.868204  0.400882  0.250000  1
  In  In17  1  0.868204  0.099118  0.750000  1
  In  In18  1  0.131796  0.900882  0.250000  1
  In  In19  1  0.131796  0.599118  0.750000  1
  Pt  Pt20  1  0.637307  0.464174  0.096024  1
  Pt  Pt21  1  0.637307  0.035826  0.903976  1
  Pt  Pt22  1  0.362693  0.964174  0.403976  1
  Pt  Pt23  1  0.362693  0.535826  0.596024  1
  Pt  Pt24  1  0.362693  0.535826  0.903976  1
  Pt  Pt25  1  0.362693  0.964174  0.096024  1
  Pt  Pt26  1  0.637307  0.035826  0.596024  1
  Pt  Pt27  1  0.637307  0.464174  0.403976  1
