# generated using pymatgen
data_Cs2TiTc6Mo5Se14
_symmetry_space_group_name_H-M   'P 1'
_cell_length_a   9.93185635
_cell_length_b   9.94371135
_cell_length_c   9.90413591
_cell_angle_alpha   60.85769842
_cell_angle_beta   61.14313678
_cell_angle_gamma   60.91400065
_symmetry_Int_Tables_number   1
_chemical_formula_structural   Cs2TiTc6Mo5Se14
_chemical_formula_sum   'Cs2 Ti1 Tc6 Mo5 Se14'
_cell_volume   706.77087370
_cell_formula_units_Z   1
loop_
 _symmetry_equiv_pos_site_id
 _symmetry_equiv_pos_as_xyz
  1  'x, y, z'
loop_
 _atom_site_type_symbol
 _atom_site_label
 _atom_site_symmetry_multiplicity
 _atom_site_fract_x
 _atom_site_fract_y
 _atom_site_fract_z
 _atom_site_occupancy
  Cs  Cs0  1  0.381076  0.376567  0.380479  1
  Cs  Cs1  1  0.619137  0.620832  0.622540  1
  Ti  Ti2  1  0.999514  0.301598  0.125074  1
  Tc  Tc3  1  0.295152  0.124958  0.995615  1
  Tc  Tc4  1  0.193990  0.889024  0.062083  1
  Tc  Tc5  1  0.888968  0.057727  0.194079  1
  Tc  Tc6  1  0.936053  0.809329  0.112917  1
  Tc  Tc7  1  0.804811  0.113141  0.939595  1
  Tc  Tc8  1  0.110435  0.941089  0.806883  1
  Mo  Mo9  1  0.874552  0.002964  0.702947  1
  Mo  Mo10  1  0.121546  0.999914  0.296279  1
  Mo  Mo11  1  0.003610  0.702799  0.878055  1
  Mo  Mo12  1  0.703011  0.877115  0.002537  1
  Mo  Mo13  1  0.062046  0.189415  0.888867  1
  Se  Se14  1  0.977988  0.233868  0.646724  1
  Se  Se15  1  0.232867  0.652434  0.984109  1
  Se  Se16  1  0.646302  0.984068  0.232702  1
  Se  Se17  1  0.021072  0.761857  0.349461  1
  Se  Se18  1  0.763374  0.346603  0.019251  1
  Se  Se19  1  0.357700  0.009636  0.768466  1
  Se  Se20  1  0.172656  0.414453  0.812807  1
  Se  Se21  1  0.414189  0.822381  0.166450  1
  Se  Se22  1  0.818020  0.167307  0.415285  1
  Se  Se23  1  0.829986  0.587901  0.183528  1
  Se  Se24  1  0.582981  0.185145  0.829366  1
  Se  Se25  1  0.182195  0.833133  0.585306  1
  Se  Se26  1  0.778392  0.773483  0.777588  1
  Se  Se27  1  0.228377  0.221258  0.221006  1
