# generated using pymatgen
data_CrRe2As7
_symmetry_space_group_name_H-M   'P 1'
_cell_length_a   7.58039862
_cell_length_b   7.58039886
_cell_length_c   7.57990153
_cell_angle_alpha   109.63801050
_cell_angle_beta   109.63800914
_cell_angle_gamma   109.14081156
_symmetry_Int_Tables_number   1
_chemical_formula_structural   CrRe2As7
_chemical_formula_sum   'Cr2 Re4 As14'
_cell_volume   335.27457613
_cell_formula_units_Z   2
loop_
 _symmetry_equiv_pos_site_id
 _symmetry_equiv_pos_as_xyz
  1  'x, y, z'
loop_
 _atom_site_type_symbol
 _atom_site_label
 _atom_site_symmetry_multiplicity
 _atom_site_fract_x
 _atom_site_fract_y
 _atom_site_fract_z
 _atom_site_occupancy
  Cr  Cr0  1  0.339795  0.001116  0.340911  1
  Cr  Cr1  1  0.001116  0.339795  0.340911  1
  Re  Re2  1  0.000861  0.658969  0.659830  1
  Re  Re3  1  0.339983  0.339983  0.001610  1
  Re  Re4  1  0.661627  0.661627  0.001610  1
  Re  Re5  1  0.658969  0.000861  0.659830  1
  As  As6  1  0.752497  0.494930  0.247426  1
  As  As7  1  0.494930  0.752497  0.247426  1
  As  As8  1  0.494873  0.247611  0.742484  1
  As  As9  1  0.745733  0.245733  0.491466  1
  As  As10  1  0.245733  0.745733  0.491466  1
  As  As11  1  0.247611  0.494873  0.742484  1
  As  As12  1  0.007239  0.007239  0.332913  1
  As  As13  1  0.675292  0.007759  0.007808  1
  As  As14  1  0.007759  0.675292  0.007808  1
  As  As15  1  0.325674  0.325674  0.332913  1
  As  As16  1  0.000049  0.332516  0.007808  1
  As  As17  1  0.667916  0.667916  0.667743  1
  As  As18  1  0.332516  0.000049  0.007808  1
  As  As19  1  0.999827  0.999827  0.667743  1
