# generated using pymatgen
data_Er4Lu4B24MoOs3
_symmetry_space_group_name_H-M   'P 1'
_cell_length_a   3.61325200
_cell_length_b   9.09178360
_cell_length_c   11.47809500
_cell_angle_alpha   89.90713663
_cell_angle_beta   90.00000000
_cell_angle_gamma   90.00000000
_symmetry_Int_Tables_number   1
_chemical_formula_structural   Er4Lu4B24MoOs3
_chemical_formula_sum   'Er4 Lu4 B24 Mo1 Os3'
_cell_volume   377.06531655
_cell_formula_units_Z   1
loop_
 _symmetry_equiv_pos_site_id
 _symmetry_equiv_pos_as_xyz
  1  'x, y, z'
loop_
 _atom_site_type_symbol
 _atom_site_label
 _atom_site_symmetry_multiplicity
 _atom_site_fract_x
 _atom_site_fract_y
 _atom_site_fract_z
 _atom_site_occupancy
  Er  Er0  1  0.000000  0.321478  0.413258  1
  Er  Er1  1  0.000000  0.678045  0.584723  1
  Er  Er2  1  0.000000  0.819860  0.087182  1
  Er  Er3  1  0.000000  0.178190  0.914589  1
  Lu  Lu4  1  0.000000  0.945045  0.372858  1
  Lu  Lu5  1  0.000000  0.057441  0.628067  1
  Lu  Lu6  1  0.000000  0.443478  0.126848  1
  Lu  Lu7  1  0.000000  0.556658  0.871631  1
  B  B8  1  0.500000  0.551198  0.435645  1
  B  B9  1  0.500000  0.446043  0.567920  1
  B  B10  1  0.500000  0.053599  0.066804  1
  B  B11  1  0.500000  0.946129  0.933293  1
  B  B12  1  0.500000  0.752062  0.421577  1
  B  B13  1  0.500000  0.250909  0.581116  1
  B  B14  1  0.500000  0.249588  0.080252  1
  B  B15  1  0.500000  0.750203  0.919025  1
  B  B16  1  0.500000  0.795066  0.264475  1
  B  B17  1  0.500000  0.207823  0.734738  1
  B  B18  1  0.500000  0.291429  0.233254  1
  B  B19  1  0.500000  0.708465  0.765497  1
  B  B20  1  0.500000  0.630900  0.182522  1
  B  B21  1  0.500000  0.368935  0.815715  1
  B  B22  1  0.500000  0.130641  0.314528  1
  B  B23  1  0.500000  0.870087  0.684901  1
  B  B24  1  0.500000  0.982456  0.213028  1
  B  B25  1  0.500000  0.018125  0.787624  1
  B  B26  1  0.500000  0.477768  0.286154  1
  B  B27  1  0.500000  0.517416  0.713392  1
  B  B28  1  0.500000  0.603197  0.027119  1
  B  B29  1  0.500000  0.396268  0.970708  1
  B  B30  1  0.500000  0.104292  0.471753  1
  B  B31  1  0.500000  0.898574  0.529564  1
  Mo  Mo32  1  0.000000  0.637849  0.320921  1
  Os  Os33  1  0.000000  0.360630  0.680958  1
  Os  Os34  1  0.000000  0.138088  0.177851  1
  Os  Os35  1  0.000000  0.862065  0.820509  1
