# generated using pymatgen
data_CdAgRu2O7
_symmetry_space_group_name_H-M   'P 1'
_cell_length_a   7.25119878
_cell_length_b   7.23396740
_cell_length_c   7.23396790
_cell_angle_alpha   59.78621208
_cell_angle_beta   59.92116803
_cell_angle_gamma   59.92117061
_symmetry_Int_Tables_number   1
_chemical_formula_structural   CdAgRu2O7
_chemical_formula_sum   'Cd2 Ag2 Ru4 O14'
_cell_volume   267.56204075
_cell_formula_units_Z   2
loop_
 _symmetry_equiv_pos_site_id
 _symmetry_equiv_pos_as_xyz
  1  'x, y, z'
loop_
 _atom_site_type_symbol
 _atom_site_label
 _atom_site_symmetry_multiplicity
 _atom_site_fract_x
 _atom_site_fract_y
 _atom_site_fract_z
 _atom_site_occupancy
  Cd  Cd0  1  0.625000  0.125000  0.125000  1
  Cd  Cd1  1  0.125000  0.125000  0.125000  1
  Ag  Ag2  1  0.125000  0.625000  0.125000  1
  Ag  Ag3  1  0.125000  0.125000  0.625000  1
  Ru  Ru4  1  0.625000  0.125000  0.625000  1
  Ru  Ru5  1  0.625000  0.625000  0.125000  1
  Ru  Ru6  1  0.125000  0.625000  0.625000  1
  Ru  Ru7  1  0.625000  0.625000  0.625000  1
  O  O8  1  0.691727  0.694538  0.306427  1
  O  O9  1  0.941652  0.558348  0.558348  1
  O  O10  1  0.555895  0.944105  0.944105  1
  O  O11  1  0.942692  0.943573  0.555462  1
  O  O12  1  0.942692  0.555462  0.943573  1
  O  O13  1  0.558273  0.943573  0.555462  1
  O  O14  1  0.307308  0.694538  0.306427  1
  O  O15  1  0.308348  0.691652  0.691652  1
  O  O16  1  0.694105  0.305895  0.305895  1
  O  O17  1  0.691727  0.306427  0.694538  1
  O  O18  1  0.558273  0.555462  0.943573  1
  O  O19  1  0.307308  0.306427  0.694538  1
  O  O20  1  0.246806  0.253194  0.253194  1
  O  O21  1  0.003194  0.996806  0.996806  1
