# generated using pymatgen
data_HoU3(Si5Pt3)2
_symmetry_space_group_name_H-M   'P 1'
_cell_length_a   8.14480616
_cell_length_b   8.16714867
_cell_length_c   8.16714883
_cell_angle_alpha   136.08498748
_cell_angle_beta   104.51427632
_cell_angle_gamma   91.70631104
_symmetry_Int_Tables_number   1
_chemical_formula_structural   HoU3(Si5Pt3)2
_chemical_formula_sum   'Ho1 U3 Si10 Pt6'
_cell_volume   346.42987316
_cell_formula_units_Z   1
loop_
 _symmetry_equiv_pos_site_id
 _symmetry_equiv_pos_as_xyz
  1  'x, y, z'
loop_
 _atom_site_type_symbol
 _atom_site_label
 _atom_site_symmetry_multiplicity
 _atom_site_fract_x
 _atom_site_fract_y
 _atom_site_fract_z
 _atom_site_occupancy
  Ho  Ho0  1  0.855959  0.128611  0.727348  1
  U  U1  1  0.599001  0.368593  0.230409  1
  U  U2  1  0.400683  0.630941  0.769742  1
  U  U3  1  0.141436  0.870125  0.271311  1
  Si  Si4  1  0.497541  0.251605  0.751629  1
  Si  Si5  1  0.497541  0.745911  0.245936  1
  Si  Si6  1  0.228310  0.478303  0.250810  1
  Si  Si7  1  0.773695  0.021601  0.248313  1
  Si  Si8  1  0.773695  0.525382  0.752095  1
  Si  Si9  1  0.228310  0.977500  0.750008  1
  Si  Si10  1  0.962640  0.612721  0.349919  1
  Si  Si11  1  0.039856  0.389143  0.650713  1
  Si  Si12  1  0.264196  0.112486  0.151712  1
  Si  Si13  1  0.735907  0.886605  0.849301  1
  Pt  Pt14  1  0.999611  0.751392  0.749213  1
  Pt  Pt15  1  0.999611  0.250398  0.248219  1
  Pt  Pt16  1  0.529120  0.137571  0.391547  1
  Pt  Pt17  1  0.476215  0.864352  0.611864  1
  Pt  Pt18  1  0.750127  0.637478  0.112649  1
  Pt  Pt19  1  0.246545  0.359283  0.887261  1
