# generated using pymatgen
data_Tb2Gd5Se8
_symmetry_space_group_name_H-M   'P 1'
_cell_length_a   8.28904600
_cell_length_b   8.32636618
_cell_length_c   8.36109100
_cell_angle_alpha   120.13805801
_cell_angle_beta   90.00000000
_cell_angle_gamma   119.85184147
_symmetry_Int_Tables_number   1
_chemical_formula_structural   Tb2Gd5Se8
_chemical_formula_sum   'Tb2 Gd5 Se8'
_cell_volume   408.10469334
_cell_formula_units_Z   1
loop_
 _symmetry_equiv_pos_site_id
 _symmetry_equiv_pos_as_xyz
  1  'x, y, z'
loop_
 _atom_site_type_symbol
 _atom_site_label
 _atom_site_symmetry_multiplicity
 _atom_site_fract_x
 _atom_site_fract_y
 _atom_site_fract_z
 _atom_site_occupancy
  Tb  Tb0  1  0.249999  0.499996  0.749999  1
  Tb  Tb1  1  0.750001  0.499999  0.750001  1
  Gd  Gd2  1  0.250001  0.000003  0.250002  1
  Gd  Gd3  1  0.250008  0.500007  0.250004  1
  Gd  Gd4  1  0.750002  0.000000  0.250003  1
  Gd  Gd5  1  0.249989  0.999987  0.749995  1
  Gd  Gd6  1  0.750002  0.000003  0.750002  1
  Se  Se7  1  0.999565  0.999253  0.999714  1
  Se  Se8  1  0.500432  0.000745  0.500288  1
  Se  Se9  1  0.001075  0.002267  0.501057  1
  Se  Se10  1  0.999962  0.499849  0.501301  1
  Se  Se11  1  0.499967  0.499967  0.501365  1
  Se  Se12  1  0.000037  0.500034  0.998637  1
  Se  Se13  1  0.500043  0.500164  0.998702  1
  Se  Se14  1  0.498921  0.997725  0.998939  1
