# generated using pymatgen
data_LuZrAlTc3
_symmetry_space_group_name_H-M   'P 1'
_cell_length_a   5.28297200
_cell_length_b   5.28297017
_cell_length_c   8.75637000
_cell_angle_alpha   90.00000000
_cell_angle_beta   90.00000000
_cell_angle_gamma   119.99998642
_symmetry_Int_Tables_number   1
_chemical_formula_structural   LuZrAlTc3
_chemical_formula_sum   'Lu2 Zr2 Al2 Tc6'
_cell_volume   211.64658376
_cell_formula_units_Z   2
loop_
 _symmetry_equiv_pos_site_id
 _symmetry_equiv_pos_as_xyz
  1  'x, y, z'
loop_
 _atom_site_type_symbol
 _atom_site_label
 _atom_site_symmetry_multiplicity
 _atom_site_fract_x
 _atom_site_fract_y
 _atom_site_fract_z
 _atom_site_occupancy
  Lu  Lu0  1  0.333333  0.666667  0.434234  1
  Lu  Lu1  1  0.666667  0.333333  0.934234  1
  Zr  Zr2  1  0.666667  0.333333  0.567790  1
  Zr  Zr3  1  0.333333  0.666667  0.067790  1
  Al  Al4  1  0.000000  0.000000  0.999043  1
  Al  Al5  1  0.000000  0.000000  0.499043  1
  Tc  Tc6  1  0.170303  0.340604  0.749644  1
  Tc  Tc7  1  0.829697  0.170303  0.249644  1
  Tc  Tc8  1  0.340604  0.170303  0.249644  1
  Tc  Tc9  1  0.659396  0.829697  0.749644  1
  Tc  Tc10  1  0.829697  0.659396  0.249644  1
  Tc  Tc11  1  0.170303  0.829697  0.749644  1
