# generated using pymatgen
data_Nd4InIr
_symmetry_space_group_name_H-M   'P 1'
_cell_length_a   9.99928500
_cell_length_b   9.99922459
_cell_length_c   9.99916300
_cell_angle_alpha   119.99979956
_cell_angle_beta   90.00000000
_cell_angle_gamma   120.00005553
_symmetry_Int_Tables_number   1
_chemical_formula_structural   Nd4InIr
_chemical_formula_sum   'Nd16 In4 Ir4'
_cell_volume   706.94376953
_cell_formula_units_Z   4
loop_
 _symmetry_equiv_pos_site_id
 _symmetry_equiv_pos_as_xyz
  1  'x, y, z'
loop_
 _atom_site_type_symbol
 _atom_site_label
 _atom_site_symmetry_multiplicity
 _atom_site_fract_x
 _atom_site_fract_y
 _atom_site_fract_z
 _atom_site_occupancy
  Nd  Nd0  1  0.348339  0.696665  0.045012  1
  Nd  Nd1  1  0.940410  0.500007  0.059596  1
  Nd  Nd2  1  0.559592  0.119187  0.059593  1
  Nd  Nd3  1  0.559595  0.500004  0.059596  1
  Nd  Nd4  1  0.807714  0.000002  0.192296  1
  Nd  Nd5  1  0.192292  0.000011  0.192304  1
  Nd  Nd6  1  0.192290  0.384581  0.192291  1
  Nd  Nd7  1  0.559595  0.500004  0.440407  1
  Nd  Nd8  1  0.940410  0.500007  0.440410  1
  Nd  Nd9  1  0.940407  0.880813  0.440406  1
  Nd  Nd10  1  0.348327  0.303321  0.651660  1
  Nd  Nd11  1  0.348339  0.696665  0.651654  1
  Nd  Nd12  1  0.954992  0.303316  0.651659  1
  Nd  Nd13  1  0.192291  0.000011  0.807707  1
  Nd  Nd14  1  0.807714  0.000002  0.807705  1
  Nd  Nd15  1  0.807702  0.615416  0.807708  1
  In  In16  1  0.581091  0.162181  0.418915  1
  In  In17  1  0.256729  0.837823  0.418911  1
  In  In18  1  0.581092  0.837820  0.418910  1
  In  In19  1  0.581089  0.162181  0.743265  1
  Ir  Ir20  1  0.141509  0.283015  0.424529  1
  Ir  Ir21  1  0.141509  0.283015  0.858487  1
  Ir  Ir22  1  0.141505  0.716985  0.858494  1
  Ir  Ir23  1  0.575474  0.716976  0.858489  1
