# generated using pymatgen
data_TmLu(ZrPb)3
_symmetry_space_group_name_H-M   'P 1'
_cell_length_a   8.80024106
_cell_length_b   8.78949140
_cell_length_c   6.03631700
_cell_angle_alpha   90.00000000
_cell_angle_beta   90.00000000
_cell_angle_gamma   119.70884805
_symmetry_Int_Tables_number   1
_chemical_formula_structural   TmLu(ZrPb)3
_chemical_formula_sum   'Tm2 Lu2 Zr6 Pb6'
_cell_volume   405.53437571
_cell_formula_units_Z   2
loop_
 _symmetry_equiv_pos_site_id
 _symmetry_equiv_pos_as_xyz
  1  'x, y, z'
loop_
 _atom_site_type_symbol
 _atom_site_label
 _atom_site_symmetry_multiplicity
 _atom_site_fract_x
 _atom_site_fract_y
 _atom_site_fract_z
 _atom_site_occupancy
  Tm  Tm0  1  0.761533  0.002882  0.750000  1
  Tm  Tm1  1  0.002986  0.764873  0.750000  1
  Lu  Lu2  1  0.758370  0.756228  0.250000  1
  Lu  Lu3  1  0.002272  0.236727  0.250000  1
  Zr  Zr4  1  0.331317  0.666095  0.500409  1
  Zr  Zr5  1  0.245208  0.000774  0.250000  1
  Zr  Zr6  1  0.661275  0.330332  0.500537  1
  Zr  Zr7  1  0.331317  0.666095  0.999591  1
  Zr  Zr8  1  0.249123  0.247858  0.750000  1
  Zr  Zr9  1  0.661275  0.330332  0.999463  1
  Pb  Pb10  1  0.604365  0.605141  0.750000  1
  Pb  Pb11  1  0.393364  0.000988  0.750000  1
  Pb  Pb12  1  0.603040  0.998826  0.250000  1
  Pb  Pb13  1  0.001843  0.395136  0.750000  1
  Pb  Pb14  1  0.392110  0.391939  0.250000  1
  Pb  Pb15  1  0.000603  0.605775  0.250000  1
