# generated using pymatgen
data_Nb8V2SiB4Se
_symmetry_space_group_name_H-M   'P 1'
_cell_length_a   7.27553095
_cell_length_b   7.27553148
_cell_length_c   7.27553187
_cell_angle_alpha   129.97311707
_cell_angle_beta   129.97311249
_cell_angle_gamma   73.44974507
_symmetry_Int_Tables_number   1
_chemical_formula_structural   Nb8V2SiB4Se
_chemical_formula_sum   'Nb8 V2 Si1 B4 Se1'
_cell_volume   220.74955213
_cell_formula_units_Z   1
loop_
 _symmetry_equiv_pos_site_id
 _symmetry_equiv_pos_as_xyz
  1  'x, y, z'
loop_
 _atom_site_type_symbol
 _atom_site_label
 _atom_site_symmetry_multiplicity
 _atom_site_fract_x
 _atom_site_fract_y
 _atom_site_fract_z
 _atom_site_occupancy
  Nb  Nb0  1  0.803574  0.307693  0.839841  1
  Nb  Nb1  1  0.192307  0.696426  0.160159  1
  Nb  Nb2  1  0.467852  0.963733  0.160159  1
  Nb  Nb3  1  0.307693  0.467852  0.504119  1
  Nb  Nb4  1  0.032148  0.192307  0.495881  1
  Nb  Nb5  1  0.536267  0.032148  0.839841  1
  Nb  Nb6  1  0.696426  0.536267  0.504119  1
  Nb  Nb7  1  0.963733  0.803574  0.495881  1
  V  V8  1  0.997855  0.997855  0.000000  1
  V  V9  1  0.502145  0.502145  0.000000  1
  Si  Si10  1  0.750000  0.750000  0.000000  1
  B  B11  1  0.117206  0.617206  0.734410  1
  B  B12  1  0.882794  0.382794  0.265590  1
  B  B13  1  0.617206  0.882794  0.500000  1
  B  B14  1  0.382794  0.117206  0.500000  1
  Se  Se15  1  0.250000  0.250000  0.000000  1
