# generated using pymatgen
data_Er3CdIn2Ga2Ag
_symmetry_space_group_name_H-M   'P 1'
_cell_length_a   4.45952400
_cell_length_b   7.23918125
_cell_length_c   7.23918109
_cell_angle_alpha   119.92355739
_cell_angle_beta   90.00000000
_cell_angle_gamma   90.00000000
_symmetry_Int_Tables_number   1
_chemical_formula_structural   Er3CdIn2Ga2Ag
_chemical_formula_sum   'Er3 Cd1 In2 Ga2 Ag1'
_cell_volume   202.54990531
_cell_formula_units_Z   1
loop_
 _symmetry_equiv_pos_site_id
 _symmetry_equiv_pos_as_xyz
  1  'x, y, z'
loop_
 _atom_site_type_symbol
 _atom_site_label
 _atom_site_symmetry_multiplicity
 _atom_site_fract_x
 _atom_site_fract_y
 _atom_site_fract_z
 _atom_site_occupancy
  Er  Er0  1  0.000000  0.425907  0.425907  1
  Er  Er1  1  0.000000  0.999230  0.575812  1
  Er  Er2  1  0.000000  0.575812  0.999230  1
  Cd  Cd3  1  0.500000  0.746893  0.746893  1
  In  In4  1  0.500000  0.998513  0.250805  1
  In  In5  1  0.500000  0.250805  0.998513  1
  Ga  Ga6  1  0.500000  0.666044  0.334387  1
  Ga  Ga7  1  0.500000  0.334387  0.666044  1
  Ag  Ag8  1  0.000000  0.002410  0.002410  1
