# generated using pymatgen
data_Eu10BiRh5
_symmetry_space_group_name_H-M   'P 1'
_cell_length_a   7.76933224
_cell_length_b   7.76933236
_cell_length_c   9.12789900
_cell_angle_alpha   115.18749134
_cell_angle_beta   115.18749175
_cell_angle_gamma   89.99999585
_symmetry_Int_Tables_number   1
_chemical_formula_structural   Eu10BiRh5
_chemical_formula_sum   'Eu10 Bi1 Rh5'
_cell_volume   440.01450043
_cell_formula_units_Z   1
loop_
 _symmetry_equiv_pos_site_id
 _symmetry_equiv_pos_as_xyz
  1  'x, y, z'
loop_
 _atom_site_type_symbol
 _atom_site_label
 _atom_site_symmetry_multiplicity
 _atom_site_fract_x
 _atom_site_fract_y
 _atom_site_fract_z
 _atom_site_occupancy
  Eu  Eu0  1  0.512867  0.512867  0.025736  1
  Eu  Eu1  1  0.987133  0.987133  0.974264  1
  Eu  Eu2  1  0.980904  0.824233  0.276656  1
  Eu  Eu3  1  0.295752  0.452424  0.276656  1
  Eu  Eu4  1  0.824233  0.295752  0.276656  1
  Eu  Eu5  1  0.452424  0.980904  0.276656  1
  Eu  Eu6  1  0.047576  0.204248  0.723344  1
  Eu  Eu7  1  0.675767  0.519096  0.723344  1
  Eu  Eu8  1  0.204248  0.675767  0.723344  1
  Eu  Eu9  1  0.519096  0.047576  0.723344  1
  Bi  Bi10  1  0.750000  0.750000  0.500000  1
  Rh  Rh11  1  0.250000  0.250000  0.500000  1
  Rh  Rh12  1  0.625060  0.874940  0.000000  1
  Rh  Rh13  1  0.374940  0.125060  0.000000  1
  Rh  Rh14  1  0.874940  0.374940  0.000000  1
  Rh  Rh15  1  0.125060  0.625060  0.000000  1
