# generated using pymatgen
data_Tb3YAl12(GaIr)6
_symmetry_space_group_name_H-M   'P 1'
_cell_length_a   7.53903800
_cell_length_b   7.53914967
_cell_length_c   9.59887600
_cell_angle_alpha   90.00000000
_cell_angle_beta   90.00000000
_cell_angle_gamma   119.61284116
_symmetry_Int_Tables_number   1
_chemical_formula_structural   Tb3YAl12(GaIr)6
_chemical_formula_sum   'Tb3 Y1 Al12 Ga6 Ir6'
_cell_volume   474.31889422
_cell_formula_units_Z   1
loop_
 _symmetry_equiv_pos_site_id
 _symmetry_equiv_pos_as_xyz
  1  'x, y, z'
loop_
 _atom_site_type_symbol
 _atom_site_label
 _atom_site_symmetry_multiplicity
 _atom_site_fract_x
 _atom_site_fract_y
 _atom_site_fract_z
 _atom_site_occupancy
  Tb  Tb0  1  0.996233  0.670243  0.250000  1
  Tb  Tb1  1  0.003775  0.329757  0.750000  1
  Tb  Tb2  1  0.670243  0.996227  0.250000  1
  Y  Y3  1  0.329755  0.003767  0.750000  1
  Al  Al4  1  0.001725  0.334657  0.072180  1
  Al  Al5  1  0.998304  0.665376  0.927824  1
  Al  Al6  1  0.998304  0.665376  0.572176  1
  Al  Al7  1  0.334655  0.001719  0.427835  1
  Al  Al8  1  0.001725  0.334657  0.427820  1
  Al  Al9  1  0.665312  0.998274  0.572177  1
  Al  Al10  1  0.665312  0.998274  0.927823  1
  Al  Al11  1  0.334655  0.001719  0.072165  1
  Al  Al12  1  0.333981  0.333955  0.554049  1
  Al  Al13  1  0.666020  0.666021  0.445949  1
  Al  Al14  1  0.666020  0.666021  0.054051  1
  Al  Al15  1  0.333981  0.333955  0.945951  1
  Ga  Ga16  1  0.129061  0.129056  0.250000  1
  Ga  Ga17  1  0.870953  0.870983  0.750000  1
  Ga  Ga18  1  0.339406  0.547553  0.250000  1
  Ga  Ga19  1  0.660620  0.452446  0.750000  1
  Ga  Ga20  1  0.547539  0.339398  0.250000  1
  Ga  Ga21  1  0.452429  0.660583  0.750000  1
  Ir  Ir22  1  0.671537  0.328434  0.999982  1
  Ir  Ir23  1  0.328444  0.671556  0.999988  1
  Ir  Ir24  1  0.328444  0.671556  0.500012  1
  Ir  Ir25  1  0.671537  0.328434  0.500018  1
  Ir  Ir26  1  0.000014  0.000002  0.999989  1
  Ir  Ir27  1  0.000014  0.000002  0.500011  1
