# generated using pymatgen
data_Ca7La3(V2N7)2
_symmetry_space_group_name_H-M   'P 1'
_cell_length_a   6.07655289
_cell_length_b   8.70867208
_cell_length_c   8.87292100
_cell_angle_alpha   115.98851136
_cell_angle_beta   96.61648130
_cell_angle_gamma   89.64844361
_symmetry_Int_Tables_number   1
_chemical_formula_structural   Ca7La3(V2N7)2
_chemical_formula_sum   'Ca7 La3 V4 N14'
_cell_volume   418.73550028
_cell_formula_units_Z   1
loop_
 _symmetry_equiv_pos_site_id
 _symmetry_equiv_pos_as_xyz
  1  'x, y, z'
loop_
 _atom_site_type_symbol
 _atom_site_label
 _atom_site_symmetry_multiplicity
 _atom_site_fract_x
 _atom_site_fract_y
 _atom_site_fract_z
 _atom_site_occupancy
  Ca  Ca0  1  0.828523  0.575525  0.316948  1
  Ca  Ca1  1  0.262749  0.991584  0.568835  1
  Ca  Ca2  1  0.711920  0.422213  0.858246  1
  Ca  Ca3  1  0.288407  0.577175  0.145201  1
  Ca  Ca4  1  0.408979  0.791442  0.943375  1
  Ca  Ca5  1  0.591774  0.205306  0.058270  1
  Ca  Ca6  1  0.168961  0.407052  0.681765  1
  La  La7  1  0.887130  0.834346  0.756969  1
  La  La8  1  0.117085  0.165206  0.240877  1
  La  La9  1  0.726581  0.999434  0.424759  1
  V  V10  1  0.587597  0.366861  0.484420  1
  V  V11  1  0.403442  0.643078  0.521462  1
  V  V12  1  0.118485  0.212812  0.907023  1
  V  V13  1  0.890562  0.784457  0.088391  1
  N  N14  1  0.529549  0.567166  0.682413  1
  N  N15  1  0.462007  0.438822  0.322813  1
  N  N16  1  0.125974  0.703274  0.535842  1
  N  N17  1  0.862542  0.300551  0.456519  1
  N  N18  1  0.422034  0.195195  0.478126  1
  N  N19  1  0.578120  0.813681  0.533884  1
  N  N20  1  0.938362  0.121028  0.707080  1
  N  N21  1  0.079163  0.886140  0.281394  1
  N  N22  1  0.230939  0.042323  0.954067  1
  N  N23  1  0.770434  0.955811  0.045020  1
  N  N24  1  0.358487  0.324714  0.892730  1
  N  N25  1  0.963566  0.346502  0.080473  1
  N  N26  1  0.035098  0.646828  0.912574  1
  N  N27  1  0.651530  0.681476  0.120522  1
