# generated using pymatgen
data_Y3Er9(TcPd)2
_symmetry_space_group_name_H-M   'P 1'
_cell_length_a   6.36374188
_cell_length_b   7.35968732
_cell_length_c   9.15616200
_cell_angle_alpha   90.00000000
_cell_angle_beta   90.00000000
_cell_angle_gamma   90.03516842
_symmetry_Int_Tables_number   1
_chemical_formula_structural   Y3Er9(TcPd)2
_chemical_formula_sum   'Y3 Er9 Tc2 Pd2'
_cell_volume   428.83014380
_cell_formula_units_Z   1
loop_
 _symmetry_equiv_pos_site_id
 _symmetry_equiv_pos_as_xyz
  1  'x, y, z'
loop_
 _atom_site_type_symbol
 _atom_site_label
 _atom_site_symmetry_multiplicity
 _atom_site_fract_x
 _atom_site_fract_y
 _atom_site_fract_z
 _atom_site_occupancy
  Y  Y0  1  0.372855  0.962807  0.750000  1
  Y  Y1  1  0.122089  0.469090  0.750000  1
  Y  Y2  1  0.877668  0.529996  0.250000  1
  Er  Er3  1  0.627885  0.038345  0.250000  1
  Er  Er4  1  0.177942  0.185838  0.065156  1
  Er  Er5  1  0.822495  0.814662  0.935874  1
  Er  Er6  1  0.660626  0.326717  0.940682  1
  Er  Er7  1  0.822495  0.814662  0.564126  1
  Er  Er8  1  0.339990  0.673244  0.059763  1
  Er  Er9  1  0.177942  0.185838  0.434844  1
  Er  Er10  1  0.339990  0.673244  0.440237  1
  Er  Er11  1  0.660626  0.326717  0.559318  1
  Tc  Tc12  1  0.463641  0.381261  0.250000  1
  Tc  Tc13  1  0.537505  0.616585  0.750000  1
  Pd  Pd14  1  0.945060  0.111196  0.750000  1
  Pd  Pd15  1  0.051192  0.889800  0.250000  1
