# generated using pymatgen
data_TbSm2Dy3Ta2O14
_symmetry_space_group_name_H-M   'P 1'
_cell_length_a   6.49085811
_cell_length_b   6.49084479
_cell_length_c   7.58947700
_cell_angle_alpha   90.00000000
_cell_angle_beta   90.00000000
_cell_angle_gamma   109.45813398
_symmetry_Int_Tables_number   1
_chemical_formula_structural   TbSm2Dy3Ta2O14
_chemical_formula_sum   'Tb1 Sm2 Dy3 Ta2 O14'
_cell_volume   301.49074574
_cell_formula_units_Z   1
loop_
 _symmetry_equiv_pos_site_id
 _symmetry_equiv_pos_as_xyz
  1  'x, y, z'
loop_
 _atom_site_type_symbol
 _atom_site_label
 _atom_site_symmetry_multiplicity
 _atom_site_fract_x
 _atom_site_fract_y
 _atom_site_fract_z
 _atom_site_occupancy
  Tb  Tb0  1  0.999608  0.465216  0.750000  1
  Sm  Sm1  1  0.500160  0.500072  0.499872  1
  Sm  Sm2  1  0.500160  0.500072  0.000128  1
  Dy  Dy3  1  0.534239  0.000677  0.750000  1
  Dy  Dy4  1  0.000693  0.534411  0.250000  1
  Dy  Dy5  1  0.465693  0.999264  0.250000  1
  Ta  Ta6  1  0.999999  0.000011  0.499808  1
  Ta  Ta7  1  0.999999  0.000011  0.000192  1
  O  O8  1  0.679072  0.929692  0.468165  1
  O  O9  1  0.929125  0.679216  0.531115  1
  O  O10  1  0.679072  0.929692  0.031835  1
  O  O11  1  0.929125  0.679216  0.968885  1
  O  O12  1  0.320821  0.070354  0.531825  1
  O  O13  1  0.070612  0.320790  0.467630  1
  O  O14  1  0.320821  0.070354  0.968175  1
  O  O15  1  0.070612  0.320790  0.032370  1
  O  O16  1  0.935304  0.064237  0.750000  1
  O  O17  1  0.064793  0.935388  0.250000  1
  O  O18  1  0.367912  0.634204  0.750000  1
  O  O19  1  0.633575  0.366446  0.250000  1
  O  O20  1  0.638524  0.359964  0.750000  1
  O  O21  1  0.360079  0.639920  0.250000  1
