# generated using pymatgen
data_NdHo2Tm(MoN3)4
_symmetry_space_group_name_H-M   'P 1'
_cell_length_a   7.26403477
_cell_length_b   7.26404240
_cell_length_c   6.22744063
_cell_angle_alpha   74.76415592
_cell_angle_beta   74.76386262
_cell_angle_gamma   82.18967131
_symmetry_Int_Tables_number   1
_chemical_formula_structural   NdHo2Tm(MoN3)4
_chemical_formula_sum   'Nd1 Ho2 Tm1 Mo4 N12'
_cell_volume   305.11592714
_cell_formula_units_Z   1
loop_
 _symmetry_equiv_pos_site_id
 _symmetry_equiv_pos_as_xyz
  1  'x, y, z'
loop_
 _atom_site_type_symbol
 _atom_site_label
 _atom_site_symmetry_multiplicity
 _atom_site_fract_x
 _atom_site_fract_y
 _atom_site_fract_z
 _atom_site_occupancy
  Nd  Nd0  1  0.696350  0.303647  0.250001  1
  Ho  Ho1  1  0.088318  0.911680  0.250000  1
  Ho  Ho2  1  0.298859  0.701143  0.750000  1
  Tm  Tm3  1  0.916924  0.083078  0.749999  1
  Mo  Mo4  1  0.801926  0.619278  0.755608  1
  Mo  Mo5  1  0.197618  0.382436  0.241520  1
  Mo  Mo6  1  0.617565  0.802380  0.258478  1
  Mo  Mo7  1  0.380723  0.198074  0.744396  1
  N  N8  1  0.219635  0.996335  0.849863  1
  N  N9  1  0.351134  0.362885  0.461606  1
  N  N10  1  0.641866  0.637978  0.543089  1
  N  N11  1  0.623393  0.108192  0.667849  1
  N  N12  1  0.003664  0.780365  0.650137  1
  N  N13  1  0.786289  0.995958  0.144833  1
  N  N14  1  0.104275  0.623533  0.156697  1
  N  N15  1  0.891809  0.376607  0.832151  1
  N  N16  1  0.004042  0.213713  0.355166  1
  N  N17  1  0.362021  0.358133  0.956912  1
  N  N18  1  0.637116  0.648865  0.038394  1
  N  N19  1  0.376470  0.895722  0.343302  1
