# generated using pymatgen
data_Ce3Al12FeOs3
_symmetry_space_group_name_H-M   'P 1'
_cell_length_a   8.86775000
_cell_length_b   8.86774933
_cell_length_c   9.46755900
_cell_angle_alpha   90.00000000
_cell_angle_beta   90.00000000
_cell_angle_gamma   120.00000250
_symmetry_Int_Tables_number   1
_chemical_formula_structural   Ce3Al12FeOs3
_chemical_formula_sum   'Ce6 Al24 Fe2 Os6'
_cell_volume   644.75614515
_cell_formula_units_Z   2
loop_
 _symmetry_equiv_pos_site_id
 _symmetry_equiv_pos_as_xyz
  1  'x, y, z'
loop_
 _atom_site_type_symbol
 _atom_site_label
 _atom_site_symmetry_multiplicity
 _atom_site_fract_x
 _atom_site_fract_y
 _atom_site_fract_z
 _atom_site_occupancy
  Ce  Ce0  1  0.194471  0.388941  0.250000  1
  Ce  Ce1  1  0.805529  0.611059  0.750000  1
  Ce  Ce2  1  0.611059  0.805529  0.250000  1
  Ce  Ce3  1  0.388941  0.194471  0.750000  1
  Ce  Ce4  1  0.194471  0.805529  0.250000  1
  Ce  Ce5  1  0.805529  0.194471  0.750000  1
  Al  Al6  1  0.333333  0.666667  0.006536  1
  Al  Al7  1  0.666667  0.333333  0.993464  1
  Al  Al8  1  0.666667  0.333333  0.506536  1
  Al  Al9  1  0.333333  0.666667  0.493464  1
  Al  Al10  1  0.158686  0.317371  0.576917  1
  Al  Al11  1  0.841314  0.682629  0.423083  1
  Al  Al12  1  0.682629  0.841314  0.576917  1
  Al  Al13  1  0.841314  0.682629  0.076917  1
  Al  Al14  1  0.317371  0.158686  0.423083  1
  Al  Al15  1  0.158686  0.317371  0.923083  1
  Al  Al16  1  0.158686  0.841314  0.576917  1
  Al  Al17  1  0.317371  0.158686  0.076917  1
  Al  Al18  1  0.841314  0.158686  0.423083  1
  Al  Al19  1  0.682629  0.841314  0.923083  1
  Al  Al20  1  0.841314  0.158686  0.076917  1
  Al  Al21  1  0.158686  0.841314  0.923083  1
  Al  Al22  1  0.562107  0.124213  0.250000  1
  Al  Al23  1  0.437893  0.875787  0.750000  1
  Al  Al24  1  0.875787  0.437893  0.250000  1
  Al  Al25  1  0.124213  0.562107  0.750000  1
  Al  Al26  1  0.562107  0.437893  0.250000  1
  Al  Al27  1  0.437893  0.562107  0.750000  1
  Al  Al28  1  0.000000  0.000000  0.250000  1
  Al  Al29  1  0.000000  0.000000  0.750000  1
  Fe  Fe30  1  0.000000  0.000000  0.000000  1
  Fe  Fe31  1  0.000000  0.000000  0.500000  1
  Os  Os32  1  0.500000  0.000000  0.000000  1
  Os  Os33  1  0.000000  0.500000  0.000000  1
  Os  Os34  1  0.500000  0.000000  0.500000  1
  Os  Os35  1  0.500000  0.500000  0.000000  1
  Os  Os36  1  0.000000  0.500000  0.500000  1
  Os  Os37  1  0.500000  0.500000  0.500000  1
