# generated using pymatgen
data_Er9Th3Tc3Ir
_symmetry_space_group_name_H-M   'P 1'
_cell_length_a   6.36632637
_cell_length_b   7.29571731
_cell_length_c   9.33297000
_cell_angle_alpha   90.00000000
_cell_angle_beta   90.00000000
_cell_angle_gamma   90.16825579
_symmetry_Int_Tables_number   1
_chemical_formula_structural   Er9Th3Tc3Ir
_chemical_formula_sum   'Er9 Th3 Tc3 Ir1'
_cell_volume   433.48581808
_cell_formula_units_Z   1
loop_
 _symmetry_equiv_pos_site_id
 _symmetry_equiv_pos_as_xyz
  1  'x, y, z'
loop_
 _atom_site_type_symbol
 _atom_site_label
 _atom_site_symmetry_multiplicity
 _atom_site_fract_x
 _atom_site_fract_y
 _atom_site_fract_z
 _atom_site_occupancy
  Er  Er0  1  0.330474  0.677750  0.064688  1
  Er  Er1  1  0.165606  0.173696  0.435700  1
  Er  Er2  1  0.664022  0.323642  0.566113  1
  Er  Er3  1  0.832281  0.823819  0.931890  1
  Er  Er4  1  0.664022  0.323642  0.933887  1
  Er  Er5  1  0.832281  0.823819  0.568110  1
  Er  Er6  1  0.330474  0.677750  0.435312  1
  Er  Er7  1  0.165606  0.173696  0.064300  1
  Er  Er8  1  0.370773  0.963354  0.750000  1
  Th  Th9  1  0.859333  0.549075  0.250000  1
  Th  Th10  1  0.636074  0.047495  0.250000  1
  Th  Th11  1  0.140710  0.448661  0.750000  1
  Tc  Tc12  1  0.016357  0.872127  0.250000  1
  Tc  Tc13  1  0.478586  0.371673  0.250000  1
  Tc  Tc14  1  0.971501  0.130590  0.750000  1
  Ir  Ir15  1  0.541901  0.619214  0.750000  1
