# generated using pymatgen
data_La8Gd9Si16Ag3
_symmetry_space_group_name_H-M   'P 1'
_cell_length_a   7.29762900
_cell_length_b   7.84731155
_cell_length_c   14.95661800
_cell_angle_alpha   90.00000000
_cell_angle_beta   90.00000000
_cell_angle_gamma   89.82275273
_symmetry_Int_Tables_number   1
_chemical_formula_structural   La8Gd9Si16Ag3
_chemical_formula_sum   'La8 Gd9 Si16 Ag3'
_cell_volume   856.51307964
_cell_formula_units_Z   1
loop_
 _symmetry_equiv_pos_site_id
 _symmetry_equiv_pos_as_xyz
  1  'x, y, z'
loop_
 _atom_site_type_symbol
 _atom_site_label
 _atom_site_symmetry_multiplicity
 _atom_site_fract_x
 _atom_site_fract_y
 _atom_site_fract_z
 _atom_site_occupancy
  La  La0  1  0.023685  0.183949  0.395387  1
  La  La1  1  0.522495  0.313345  0.397344  1
  La  La2  1  0.473515  0.674780  0.900026  1
  La  La3  1  0.473515  0.674780  0.599974  1
  La  La4  1  0.983662  0.811148  0.599200  1
  La  La5  1  0.983662  0.811148  0.900800  1
  La  La6  1  0.522495  0.313345  0.102656  1
  La  La7  1  0.023685  0.183949  0.104613  1
  Gd  Gd8  1  0.315959  0.190282  0.625239  1
  Gd  Gd9  1  0.673435  0.820805  0.372326  1
  Gd  Gd10  1  0.649913  0.993456  0.750000  1
  Gd  Gd11  1  0.176531  0.683900  0.370750  1
  Gd  Gd12  1  0.832729  0.324838  0.874533  1
  Gd  Gd13  1  0.832729  0.324838  0.625467  1
  Gd  Gd14  1  0.315959  0.190282  0.874761  1
  Gd  Gd15  1  0.176531  0.683900  0.129250  1
  Gd  Gd16  1  0.673435  0.820805  0.127674  1
  Si  Si17  1  0.272313  0.885557  0.750000  1
  Si  Si18  1  0.480646  0.588052  0.250000  1
  Si  Si19  1  0.025667  0.089340  0.750000  1
  Si  Si20  1  0.531589  0.394387  0.750000  1
  Si  Si21  1  0.147636  0.464277  0.526944  1
  Si  Si22  1  0.976827  0.911603  0.250000  1
  Si  Si23  1  0.729984  0.114676  0.250000  1
  Si  Si24  1  0.849542  0.534923  0.036112  1
  Si  Si25  1  0.349187  0.964584  0.031099  1
  Si  Si26  1  0.147636  0.464277  0.973056  1
  Si  Si27  1  0.645299  0.027876  0.539456  1
  Si  Si28  1  0.349187  0.964584  0.468901  1
  Si  Si29  1  0.849542  0.534923  0.463888  1
  Si  Si30  1  0.768091  0.619299  0.750000  1
  Si  Si31  1  0.232530  0.386117  0.250000  1
  Si  Si32  1  0.645299  0.027876  0.960544  1
  Ag  Ag33  1  0.845311  0.479386  0.250000  1
  Ag  Ag34  1  0.344672  0.024128  0.250000  1
  Ag  Ag35  1  0.155102  0.524586  0.750000  1
