# generated using pymatgen
data_LaTh3(B4Ir)4
_symmetry_space_group_name_H-M   'P 1'
_cell_length_a   7.09599787
_cell_length_b   7.09599826
_cell_length_c   7.09599800
_cell_angle_alpha   111.72388841
_cell_angle_beta   111.72387230
_cell_angle_gamma   105.05415683
_symmetry_Int_Tables_number   1
_chemical_formula_structural   LaTh3(B4Ir)4
_chemical_formula_sum   'La1 Th3 B16 Ir4'
_cell_volume   273.84079443
_cell_formula_units_Z   1
loop_
 _symmetry_equiv_pos_site_id
 _symmetry_equiv_pos_as_xyz
  1  'x, y, z'
loop_
 _atom_site_type_symbol
 _atom_site_label
 _atom_site_symmetry_multiplicity
 _atom_site_fract_x
 _atom_site_fract_y
 _atom_site_fract_z
 _atom_site_occupancy
  La  La0  1  0.210483  0.210483  0.000000  1
  Th  Th1  1  0.249513  0.749513  0.500000  1
  Th  Th2  1  0.749513  0.249513  0.500000  1
  Th  Th3  1  0.787448  0.787448  0.000000  1
  B  B4  1  0.112031  0.112031  0.526456  1
  B  B5  1  0.585575  0.585575  0.473544  1
  B  B6  1  0.887559  0.887559  0.472546  1
  B  B7  1  0.585575  0.112031  0.000000  1
  B  B8  1  0.112031  0.585575  0.000000  1
  B  B9  1  0.887559  0.415013  0.000000  1
  B  B10  1  0.415013  0.887559  0.000000  1
  B  B11  1  0.415013  0.415013  0.527454  1
  B  B12  1  0.107092  0.263951  0.371577  1
  B  B13  1  0.263951  0.892373  0.156858  1
  B  B14  1  0.735515  0.107092  0.843142  1
  B  B15  1  0.107092  0.735515  0.843142  1
  B  B16  1  0.892373  0.263951  0.156858  1
  B  B17  1  0.892373  0.735515  0.628423  1
  B  B18  1  0.735515  0.892373  0.628423  1
  B  B19  1  0.263951  0.107092  0.371577  1
  Ir  Ir20  1  0.501206  0.740401  0.239195  1
  Ir  Ir21  1  0.740401  0.501206  0.239195  1
  Ir  Ir22  1  0.262013  0.501206  0.760805  1
  Ir  Ir23  1  0.501206  0.262013  0.760805  1
