# generated using pymatgen
data_Ga5Cu7(Mo3C)4
_symmetry_space_group_name_H-M   'P 1'
_cell_length_a   7.99803433
_cell_length_b   8.00061139
_cell_length_c   7.99803400
_cell_angle_alpha   60.01065604
_cell_angle_beta   60.00000135
_cell_angle_gamma   60.01066037
_symmetry_Int_Tables_number   1
_chemical_formula_structural   Ga5Cu7(Mo3C)4
_chemical_formula_sum   'Ga5 Cu7 Mo12 C4'
_cell_volume   361.94671389
_cell_formula_units_Z   1
loop_
 _symmetry_equiv_pos_site_id
 _symmetry_equiv_pos_as_xyz
  1  'x, y, z'
loop_
 _atom_site_type_symbol
 _atom_site_label
 _atom_site_symmetry_multiplicity
 _atom_site_fract_x
 _atom_site_fract_y
 _atom_site_fract_z
 _atom_site_occupancy
  Ga  Ga0  1  0.914632  0.256106  0.914632  1
  Ga  Ga1  1  0.124767  0.625699  0.124767  1
  Ga  Ga2  1  0.616819  0.118062  0.132559  1
  Ga  Ga3  1  0.132559  0.118062  0.132559  1
  Ga  Ga4  1  0.132559  0.118062  0.616819  1
  Cu  Cu5  1  0.333620  0.334081  0.998678  1
  Cu  Cu6  1  0.336086  0.991741  0.336086  1
  Cu  Cu7  1  0.915408  0.920118  0.249066  1
  Cu  Cu8  1  0.333620  0.334081  0.333620  1
  Cu  Cu9  1  0.915408  0.920118  0.915408  1
  Cu  Cu10  1  0.998678  0.334081  0.333620  1
  Cu  Cu11  1  0.249066  0.920118  0.915408  1
  Mo  Mo12  1  0.562780  0.937792  0.562780  1
  Mo  Mo13  1  0.936647  0.937792  0.562780  1
  Mo  Mo14  1  0.310494  0.687365  0.310494  1
  Mo  Mo15  1  0.562780  0.937792  0.936647  1
  Mo  Mo16  1  0.689075  0.312606  0.689075  1
  Mo  Mo17  1  0.691647  0.687365  0.310494  1
  Mo  Mo18  1  0.940389  0.563432  0.555790  1
  Mo  Mo19  1  0.309244  0.312606  0.689075  1
  Mo  Mo20  1  0.555790  0.563432  0.940389  1
  Mo  Mo21  1  0.940389  0.563432  0.940389  1
  Mo  Mo22  1  0.689075  0.312606  0.309244  1
  Mo  Mo23  1  0.310494  0.687365  0.691647  1
  C  C24  1  0.624310  0.127068  0.624310  1
  C  C25  1  0.624417  0.626340  0.124825  1
  C  C26  1  0.124825  0.626340  0.624417  1
  C  C27  1  0.624417  0.626340  0.624417  1
