# generated using pymatgen
data_Ta4TiSe8
_symmetry_space_group_name_H-M   'P 1'
_cell_length_a   6.94480000
_cell_length_b   6.94481559
_cell_length_c   13.07084300
_cell_angle_alpha   90.00000000
_cell_angle_beta   90.00000000
_cell_angle_gamma   119.99973972
_symmetry_Int_Tables_number   1
_chemical_formula_structural   Ta4TiSe8
_chemical_formula_sum   'Ta8 Ti2 Se16'
_cell_volume   545.95372096
_cell_formula_units_Z   2
loop_
 _symmetry_equiv_pos_site_id
 _symmetry_equiv_pos_as_xyz
  1  'x, y, z'
loop_
 _atom_site_type_symbol
 _atom_site_label
 _atom_site_symmetry_multiplicity
 _atom_site_fract_x
 _atom_site_fract_y
 _atom_site_fract_z
 _atom_site_occupancy
  Ta  Ta0  1  0.000003  0.999992  0.250000  1
  Ta  Ta1  1  0.999997  0.000008  0.750000  1
  Ta  Ta2  1  0.507013  0.014041  0.250000  1
  Ta  Ta3  1  0.492987  0.985959  0.750000  1
  Ta  Ta4  1  0.985953  0.492987  0.250000  1
  Ta  Ta5  1  0.014047  0.507013  0.750000  1
  Ta  Ta6  1  0.507035  0.492971  0.250000  1
  Ta  Ta7  1  0.492965  0.507029  0.750000  1
  Ti  Ti8  1  0.000000  0.000000  0.000000  1
  Ti  Ti9  1  0.000000  0.000000  0.500000  1
  Se  Se10  1  0.333328  0.666673  0.617782  1
  Se  Se11  1  0.666672  0.333327  0.382218  1
  Se  Se12  1  0.666672  0.333327  0.117782  1
  Se  Se13  1  0.333328  0.666673  0.882218  1
  Se  Se14  1  0.168523  0.337049  0.121937  1
  Se  Se15  1  0.831477  0.662951  0.878063  1
  Se  Se16  1  0.662950  0.831477  0.121938  1
  Se  Se17  1  0.831477  0.662951  0.621937  1
  Se  Se18  1  0.337050  0.168523  0.878062  1
  Se  Se19  1  0.168523  0.337049  0.378063  1
  Se  Se20  1  0.168529  0.831474  0.121943  1
  Se  Se21  1  0.337050  0.168523  0.621938  1
  Se  Se22  1  0.831471  0.168526  0.878057  1
  Se  Se23  1  0.662950  0.831477  0.378062  1
  Se  Se24  1  0.831471  0.168526  0.621943  1
  Se  Se25  1  0.168529  0.831474  0.378057  1
