# generated using pymatgen
data_LiTb8(Si4Pd)3
_symmetry_space_group_name_H-M   'P 1'
_cell_length_a   8.17437300
_cell_length_b   8.17434416
_cell_length_c   8.13384300
_cell_angle_alpha   90.00038896
_cell_angle_beta   89.99962056
_cell_angle_gamma   119.99921082
_symmetry_Int_Tables_number   1
_chemical_formula_structural   LiTb8(Si4Pd)3
_chemical_formula_sum   'Li1 Tb8 Si12 Pd3'
_cell_volume   470.69245877
_cell_formula_units_Z   1
loop_
 _symmetry_equiv_pos_site_id
 _symmetry_equiv_pos_as_xyz
  1  'x, y, z'
loop_
 _atom_site_type_symbol
 _atom_site_label
 _atom_site_symmetry_multiplicity
 _atom_site_fract_x
 _atom_site_fract_y
 _atom_site_fract_z
 _atom_site_occupancy
  Li  Li0  1  0.333333  0.666667  0.998602  1
  Tb  Tb1  1  0.500693  0.001382  0.249956  1
  Tb  Tb2  1  0.500956  0.001914  0.749968  1
  Tb  Tb3  1  0.998618  0.499307  0.249956  1
  Tb  Tb4  1  0.998086  0.499044  0.749968  1
  Tb  Tb5  1  0.500689  0.499310  0.249953  1
  Tb  Tb6  1  0.500958  0.499042  0.749965  1
  Tb  Tb7  1  0.999999  0.000001  0.248654  1
  Tb  Tb8  1  0.000001  0.999999  0.751439  1
  Si  Si9  1  0.167103  0.334207  0.000374  1
  Si  Si10  1  0.834216  0.668428  0.999758  1
  Si  Si11  1  0.665793  0.832897  0.000374  1
  Si  Si12  1  0.834074  0.668146  0.499411  1
  Si  Si13  1  0.331572  0.165785  0.999758  1
  Si  Si14  1  0.165712  0.331429  0.500745  1
  Si  Si15  1  0.167101  0.832898  0.000372  1
  Si  Si16  1  0.331854  0.165927  0.499411  1
  Si  Si17  1  0.834215  0.165786  0.999760  1
  Si  Si18  1  0.668570  0.834287  0.500745  1
  Si  Si19  1  0.834074  0.165927  0.499413  1
  Si  Si20  1  0.165715  0.834285  0.500746  1
  Pd  Pd21  1  0.666664  0.333335  0.999468  1
  Pd  Pd22  1  0.666665  0.333334  0.499892  1
  Pd  Pd23  1  0.333336  0.666665  0.501314  1
