# generated using pymatgen
data_Nd12Ga4Ge4IrRh7
_symmetry_space_group_name_H-M   'P 1'
_cell_length_a   5.75453962
_cell_length_b   8.16554735
_cell_length_c   13.50291638
_cell_angle_alpha   90.04909795
_cell_angle_beta   89.95279645
_cell_angle_gamma   90.07183843
_symmetry_Int_Tables_number   1
_chemical_formula_structural   Nd12Ga4Ge4IrRh7
_chemical_formula_sum   'Nd12 Ga4 Ge4 Ir1 Rh7'
_cell_volume   634.48712902
_cell_formula_units_Z   1
loop_
 _symmetry_equiv_pos_site_id
 _symmetry_equiv_pos_as_xyz
  1  'x, y, z'
loop_
 _atom_site_type_symbol
 _atom_site_label
 _atom_site_symmetry_multiplicity
 _atom_site_fract_x
 _atom_site_fract_y
 _atom_site_fract_z
 _atom_site_occupancy
  Nd  Nd0  1  0.637384  0.250512  0.249009  1
  Nd  Nd1  1  0.361933  0.747475  0.749800  1
  Nd  Nd2  1  0.362661  0.752633  0.248940  1
  Nd  Nd3  1  0.638194  0.247944  0.750220  1
  Nd  Nd4  1  0.151122  0.394339  0.099852  1
  Nd  Nd5  1  0.849111  0.604009  0.899896  1
  Nd  Nd6  1  0.850010  0.603960  0.599904  1
  Nd  Nd7  1  0.848803  0.895637  0.400329  1
  Nd  Nd8  1  0.150627  0.396523  0.399819  1
  Nd  Nd9  1  0.150444  0.103733  0.599852  1
  Nd  Nd10  1  0.150535  0.104592  0.899516  1
  Nd  Nd11  1  0.852411  0.896209  0.100026  1
  Ga  Ga12  1  0.634794  0.250310  0.000219  1
  Ga  Ga13  1  0.364322  0.750377  0.000986  1
  Ga  Ga14  1  0.364004  0.750111  0.499913  1
  Ga  Ga15  1  0.635793  0.250014  0.499838  1
  Ge  Ge16  1  0.138314  0.108442  0.251022  1
  Ge  Ge17  1  0.861293  0.890745  0.750010  1
  Ge  Ge18  1  0.861324  0.608067  0.250108  1
  Ge  Ge19  1  0.138645  0.391121  0.749901  1
  Ir  Ir20  1  0.367482  0.031554  0.093222  1
  Rh  Rh21  1  0.628776  0.969417  0.906416  1
  Rh  Rh22  1  0.630281  0.970062  0.593770  1
  Rh  Rh23  1  0.630173  0.530528  0.407022  1
  Rh  Rh24  1  0.369922  0.030130  0.406944  1
  Rh  Rh25  1  0.370688  0.469986  0.593657  1
  Rh  Rh26  1  0.369881  0.471349  0.906382  1
  Rh  Rh27  1  0.631074  0.530223  0.093429  1
