# generated using pymatgen
data_La12Nd2TcPd5
_symmetry_space_group_name_H-M   'P 1'
_cell_length_a   10.35703984
_cell_length_b   10.35703900
_cell_length_c   6.57050473
_cell_angle_alpha   89.65586786
_cell_angle_beta   90.34412910
_cell_angle_gamma   120.31581848
_symmetry_Int_Tables_number   1
_chemical_formula_structural   La12Nd2TcPd5
_chemical_formula_sum   'La12 Nd2 Tc1 Pd5'
_cell_volume   608.41413834
_cell_formula_units_Z   1
loop_
 _symmetry_equiv_pos_site_id
 _symmetry_equiv_pos_as_xyz
  1  'x, y, z'
loop_
 _atom_site_type_symbol
 _atom_site_label
 _atom_site_symmetry_multiplicity
 _atom_site_fract_x
 _atom_site_fract_y
 _atom_site_fract_z
 _atom_site_occupancy
  La  La0  1  0.127073  0.872927  0.243690  1
  La  La1  1  0.752784  0.887408  0.241915  1
  La  La2  1  0.112592  0.247216  0.241915  1
  La  La3  1  0.873395  0.126605  0.754176  1
  La  La4  1  0.254255  0.125889  0.743643  1
  La  La5  1  0.874111  0.745745  0.743643  1
  La  La6  1  0.537102  0.462898  0.445906  1
  La  La7  1  0.918020  0.451954  0.436681  1
  La  La8  1  0.548046  0.081980  0.436681  1
  La  La9  1  0.463333  0.536667  0.946179  1
  La  La10  1  0.074839  0.534163  0.943981  1
  La  La11  1  0.465837  0.925161  0.943981  1
  Nd  Nd12  1  0.334297  0.665703  0.453798  1
  Nd  Nd13  1  0.668145  0.331855  0.962192  1
  Tc  Tc14  1  0.811300  0.188700  0.191086  1
  Pd  Pd15  1  0.372883  0.189441  0.191733  1
  Pd  Pd16  1  0.810559  0.627117  0.191733  1
  Pd  Pd17  1  0.188827  0.811173  0.690845  1
  Pd  Pd18  1  0.622036  0.809433  0.691004  1
  Pd  Pd19  1  0.190567  0.377964  0.691004  1
