# generated using pymatgen
data_HoEr2Cu4Si3Ge
_symmetry_space_group_name_H-M   'P 1'
_cell_length_a   7.84685474
_cell_length_b   7.84685467
_cell_length_c   7.84685473
_cell_angle_alpha   149.48178181
_cell_angle_beta   130.57878701
_cell_angle_gamma   59.20547029
_symmetry_Int_Tables_number   1
_chemical_formula_structural   HoEr2Cu4Si3Ge
_chemical_formula_sum   'Ho1 Er2 Cu4 Si3 Ge1'
_cell_volume   184.87384410
_cell_formula_units_Z   1
loop_
 _symmetry_equiv_pos_site_id
 _symmetry_equiv_pos_as_xyz
  1  'x, y, z'
loop_
 _atom_site_type_symbol
 _atom_site_label
 _atom_site_symmetry_multiplicity
 _atom_site_fract_x
 _atom_site_fract_y
 _atom_site_fract_z
 _atom_site_occupancy
  Ho  Ho0  1  0.497766  0.500000  0.997766  1
  Er  Er1  1  0.872122  0.370930  0.501192  1
  Er  Er2  1  0.130262  0.629070  0.501192  1
  Cu  Cu3  1  0.517347  0.826374  0.690973  1
  Cu  Cu4  1  0.864600  0.173626  0.690973  1
  Cu  Cu5  1  0.139848  0.830911  0.308938  1
  Cu  Cu6  1  0.478027  0.169089  0.308938  1
  Si  Si7  1  0.188636  0.000000  0.188636  1
  Si  Si8  1  0.283793  0.283717  0.000076  1
  Si  Si9  1  0.716360  0.716283  0.000076  1
  Ge  Ge10  1  0.811240  0.000000  0.811240  1
