# generated using pymatgen
data_Sr2U3PaS10
_symmetry_space_group_name_H-M   'P 1'
_cell_length_a   7.48883900
_cell_length_b   8.17478806
_cell_length_c   11.74191500
_cell_angle_alpha   89.71509650
_cell_angle_beta   90.00000000
_cell_angle_gamma   90.00000000
_symmetry_Int_Tables_number   1
_chemical_formula_structural   Sr2U3PaS10
_chemical_formula_sum   'Sr4 U6 Pa2 S20'
_cell_volume   718.82729419
_cell_formula_units_Z   2
loop_
 _symmetry_equiv_pos_site_id
 _symmetry_equiv_pos_as_xyz
  1  'x, y, z'
loop_
 _atom_site_type_symbol
 _atom_site_label
 _atom_site_symmetry_multiplicity
 _atom_site_fract_x
 _atom_site_fract_y
 _atom_site_fract_z
 _atom_site_occupancy
  Sr  Sr0  1  0.043433  0.492545  0.329135  1
  Sr  Sr1  1  0.543433  0.507455  0.170865  1
  Sr  Sr2  1  0.957095  0.506016  0.671720  1
  Sr  Sr3  1  0.457095  0.493984  0.828280  1
  U  U4  1  0.980238  0.999160  0.684355  1
  U  U5  1  0.480238  0.000840  0.815645  1
  U  U6  1  0.070573  0.754704  0.006259  1
  U  U7  1  0.570573  0.245296  0.493741  1
  U  U8  1  0.931199  0.248954  0.991910  1
  U  U9  1  0.431199  0.751046  0.508090  1
  Pa  Pa10  1  0.019086  0.999294  0.321710  1
  Pa  Pa11  1  0.519086  0.000706  0.178290  1
  S  S12  1  0.662295  0.954942  0.398087  1
  S  S13  1  0.162295  0.045058  0.101913  1
  S  S14  1  0.337136  0.042756  0.598366  1
  S  S15  1  0.837136  0.957244  0.901634  1
  S  S16  1  0.454363  0.784312  0.002008  1
  S  S17  1  0.954363  0.215688  0.497992  1
  S  S18  1  0.545697  0.217290  0.000388  1
  S  S19  1  0.045697  0.782710  0.499612  1
  S  S20  1  0.833989  0.779221  0.187021  1
  S  S21  1  0.333989  0.220779  0.312979  1
  S  S22  1  0.167319  0.223969  0.813559  1
  S  S23  1  0.667319  0.776031  0.686441  1
  S  S24  1  0.305579  0.769347  0.283140  1
  S  S25  1  0.805579  0.230653  0.216860  1
  S  S26  1  0.693716  0.235183  0.716241  1
  S  S27  1  0.193716  0.764817  0.783759  1
  S  S28  1  0.171856  0.461626  0.082769  1
  S  S29  1  0.671856  0.538374  0.417231  1
  S  S30  1  0.826425  0.540711  0.919501  1
  S  S31  1  0.326425  0.459289  0.580499  1
