# generated using pymatgen
data_ErReF7
_symmetry_space_group_name_H-M   'P 1'
_cell_length_a   5.55184300
_cell_length_b   8.84906396
_cell_length_c   11.99816798
_cell_angle_alpha   62.76307617
_cell_angle_beta   90.00000000
_cell_angle_gamma   90.00000000
_symmetry_Int_Tables_number   1
_chemical_formula_structural   ErReF7
_chemical_formula_sum   'Er4 Re4 F28'
_cell_volume   524.09572421
_cell_formula_units_Z   4
loop_
 _symmetry_equiv_pos_site_id
 _symmetry_equiv_pos_as_xyz
  1  'x, y, z'
loop_
 _atom_site_type_symbol
 _atom_site_label
 _atom_site_symmetry_multiplicity
 _atom_site_fract_x
 _atom_site_fract_y
 _atom_site_fract_z
 _atom_site_occupancy
  Er  Er0  1  0.758266  0.814039  0.764466  1
  Er  Er1  1  0.258266  0.185961  0.735534  1
  Er  Er2  1  0.241734  0.185961  0.235534  1
  Er  Er3  1  0.741734  0.814039  0.264466  1
  Re  Re4  1  0.758548  0.272705  0.956921  1
  Re  Re5  1  0.258548  0.727295  0.543079  1
  Re  Re6  1  0.241452  0.727295  0.043079  1
  Re  Re7  1  0.741452  0.272705  0.456921  1
  F  F8  1  0.440356  0.705473  0.914678  1
  F  F9  1  0.940356  0.294527  0.585322  1
  F  F10  1  0.559644  0.294527  0.085322  1
  F  F11  1  0.059644  0.705473  0.414678  1
  F  F12  1  0.438619  0.274321  0.545570  1
  F  F13  1  0.938619  0.725679  0.954430  1
  F  F14  1  0.561381  0.725679  0.454430  1
  F  F15  1  0.061381  0.274321  0.045570  1
  F  F16  1  0.777372  0.523548  0.858499  1
  F  F17  1  0.277372  0.476452  0.641501  1
  F  F18  1  0.222628  0.476452  0.141501  1
  F  F19  1  0.722628  0.523548  0.358499  1
  F  F20  1  0.754636  0.022545  0.053147  1
  F  F21  1  0.254636  0.977455  0.446853  1
  F  F22  1  0.245364  0.977455  0.946853  1
  F  F23  1  0.745364  0.022545  0.553147  1
  F  F24  1  0.967104  0.726018  0.638902  1
  F  F25  1  0.467104  0.273982  0.861098  1
  F  F26  1  0.032896  0.273982  0.361098  1
  F  F27  1  0.532896  0.726018  0.138902  1
  F  F28  1  0.048836  0.747226  0.175389  1
  F  F29  1  0.548836  0.252774  0.324611  1
  F  F30  1  0.951164  0.252774  0.824611  1
  F  F31  1  0.451164  0.747226  0.675389  1
  F  F32  1  0.418406  0.970288  0.232856  1
  F  F33  1  0.918406  0.029712  0.267144  1
  F  F34  1  0.581594  0.029712  0.767144  1
  F  F35  1  0.081594  0.970288  0.732856  1
