# generated using pymatgen
data_Tb3Y3Mn2(CrC6)2
_symmetry_space_group_name_H-M   'P 1'
_cell_length_a   8.11562100
_cell_length_b   8.11557386
_cell_length_c   5.00693800
_cell_angle_alpha   90.00000000
_cell_angle_beta   90.00000000
_cell_angle_gamma   120.00003706
_symmetry_Int_Tables_number   1
_chemical_formula_structural   Tb3Y3Mn2(CrC6)2
_chemical_formula_sum   'Tb3 Y3 Mn2 Cr2 C12'
_cell_volume   285.59044606
_cell_formula_units_Z   1
loop_
 _symmetry_equiv_pos_site_id
 _symmetry_equiv_pos_as_xyz
  1  'x, y, z'
loop_
 _atom_site_type_symbol
 _atom_site_label
 _atom_site_symmetry_multiplicity
 _atom_site_fract_x
 _atom_site_fract_y
 _atom_site_fract_z
 _atom_site_occupancy
  Tb  Tb0  1  0.315683  0.936554  0.750000  1
  Tb  Tb1  1  0.063457  0.379091  0.750000  1
  Tb  Tb2  1  0.379135  0.315665  0.250000  1
  Y  Y3  1  0.621057  0.684451  0.750000  1
  Y  Y4  1  0.936595  0.621015  0.250000  1
  Y  Y5  1  0.684469  0.063415  0.250000  1
  Mn  Mn6  1  0.666653  0.333311  0.750000  1
  Mn  Mn7  1  0.333318  0.666642  0.250000  1
  Cr  Cr8  1  0.000007  0.000002  0.499963  1
  Cr  Cr9  1  0.000007  0.000002  0.000037  1
  C  C10  1  0.961815  0.771083  0.750000  1
  C  C11  1  0.190677  0.961840  0.250000  1
  C  C12  1  0.771065  0.809133  0.250000  1
  C  C13  1  0.228788  0.190664  0.750000  1
  C  C14  1  0.809148  0.038033  0.750000  1
  C  C15  1  0.038007  0.228800  0.250000  1
  C  C16  1  0.864116  0.576393  0.750000  1
  C  C17  1  0.287763  0.864083  0.250000  1
  C  C18  1  0.576343  0.712292  0.250000  1
  C  C19  1  0.423724  0.287839  0.750000  1
  C  C20  1  0.135951  0.423773  0.250000  1
  C  C21  1  0.712220  0.135918  0.750000  1
