# generated using pymatgen
data_Pr5In2Ru3
_symmetry_space_group_name_H-M   'P 1'
_cell_length_a   8.78552135
_cell_length_b   8.78552144
_cell_length_c   8.78552100
_cell_angle_alpha   109.47121962
_cell_angle_beta   109.47121984
_cell_angle_gamma   109.47122448
_symmetry_Int_Tables_number   1
_chemical_formula_structural   Pr5In2Ru3
_chemical_formula_sum   'Pr10 In4 Ru6'
_cell_volume   522.01225710
_cell_formula_units_Z   2
loop_
 _symmetry_equiv_pos_site_id
 _symmetry_equiv_pos_as_xyz
  1  'x, y, z'
loop_
 _atom_site_type_symbol
 _atom_site_label
 _atom_site_symmetry_multiplicity
 _atom_site_fract_x
 _atom_site_fract_y
 _atom_site_fract_z
 _atom_site_occupancy
  Pr  Pr0  1  0.250000  0.683555  0.433555  1
  Pr  Pr1  1  0.750000  0.816445  0.066445  1
  Pr  Pr2  1  0.433555  0.250000  0.683555  1
  Pr  Pr3  1  0.683555  0.433555  0.250000  1
  Pr  Pr4  1  0.066445  0.750000  0.816445  1
  Pr  Pr5  1  0.816445  0.066445  0.750000  1
  Pr  Pr6  1  0.207648  0.207648  0.207648  1
  Pr  Pr7  1  0.500000  0.000000  0.292352  1
  Pr  Pr8  1  0.292352  0.500000  0.000000  1
  Pr  Pr9  1  0.000000  0.292352  0.500000  1
  In  In10  1  0.591709  0.591709  0.591709  1
  In  In11  1  0.500000  0.000000  0.908291  1
  In  In12  1  0.908291  0.500000  0.000000  1
  In  In13  1  0.000000  0.908291  0.500000  1
  Ru  Ru14  1  0.250000  0.131799  0.881799  1
  Ru  Ru15  1  0.750000  0.368201  0.618201  1
  Ru  Ru16  1  0.881798  0.250000  0.131799  1
  Ru  Ru17  1  0.131799  0.881798  0.250000  1
  Ru  Ru18  1  0.618201  0.750000  0.368201  1
  Ru  Ru19  1  0.368201  0.618201  0.750000  1
