# generated using pymatgen
data_Dy3Mg3TlHgRu
_symmetry_space_group_name_H-M   'P 1'
_cell_length_a   8.08740300
_cell_length_b   8.08740323
_cell_length_c   3.84474600
_cell_angle_alpha   90.00000000
_cell_angle_beta   90.00000000
_cell_angle_gamma   119.99999498
_symmetry_Int_Tables_number   1
_chemical_formula_structural   Dy3Mg3TlHgRu
_chemical_formula_sum   'Dy3 Mg3 Tl1 Hg1 Ru1'
_cell_volume   217.77924570
_cell_formula_units_Z   1
loop_
 _symmetry_equiv_pos_site_id
 _symmetry_equiv_pos_as_xyz
  1  'x, y, z'
loop_
 _atom_site_type_symbol
 _atom_site_label
 _atom_site_symmetry_multiplicity
 _atom_site_fract_x
 _atom_site_fract_y
 _atom_site_fract_z
 _atom_site_occupancy
  Dy  Dy0  1  0.435142  0.388249  0.500000  1
  Dy  Dy1  1  0.611751  0.046894  0.500000  1
  Dy  Dy2  1  0.953106  0.564858  0.500000  1
  Mg  Mg3  1  0.736360  0.734605  0.000000  1
  Mg  Mg4  1  0.265395  0.001755  0.000000  1
  Mg  Mg5  1  0.998245  0.263640  0.000000  1
  Tl  Tl6  1  0.333333  0.666667  0.000000  1
  Hg  Hg7  1  0.000000  0.000000  0.500000  1
  Ru  Ru8  1  0.666667  0.333333  0.000000  1
