# generated using pymatgen
data_Hf10Ga12Rh7
_symmetry_space_group_name_H-M   'P 1'
_cell_length_a   8.89196511
_cell_length_b   8.89196468
_cell_length_c   8.89196500
_cell_angle_alpha   60.00000252
_cell_angle_beta   60.00000414
_cell_angle_gamma   60.00000329
_symmetry_Int_Tables_number   1
_chemical_formula_structural   Hf10Ga12Rh7
_chemical_formula_sum   'Hf10 Ga12 Rh7'
_cell_volume   497.13948540
_cell_formula_units_Z   1
loop_
 _symmetry_equiv_pos_site_id
 _symmetry_equiv_pos_as_xyz
  1  'x, y, z'
loop_
 _atom_site_type_symbol
 _atom_site_label
 _atom_site_symmetry_multiplicity
 _atom_site_fract_x
 _atom_site_fract_y
 _atom_site_fract_z
 _atom_site_occupancy
  Hf  Hf0  1  0.687387  0.687387  0.312613  1
  Hf  Hf1  1  0.312613  0.687387  0.312613  1
  Hf  Hf2  1  0.687387  0.312613  0.312613  1
  Hf  Hf3  1  0.312613  0.312613  0.687387  1
  Hf  Hf4  1  0.687387  0.312613  0.687387  1
  Hf  Hf5  1  0.312613  0.687387  0.687387  1
  Hf  Hf6  1  0.878423  0.878423  0.364731  1
  Hf  Hf7  1  0.878423  0.364731  0.878423  1
  Hf  Hf8  1  0.364731  0.878423  0.878423  1
  Hf  Hf9  1  0.878423  0.878423  0.878423  1
  Ga  Ga10  1  0.121188  0.121188  0.636434  1
  Ga  Ga11  1  0.121188  0.636434  0.121188  1
  Ga  Ga12  1  0.636434  0.121188  0.121188  1
  Ga  Ga13  1  0.121188  0.121188  0.121188  1
  Ga  Ga14  1  0.656079  0.656079  0.031762  1
  Ga  Ga15  1  0.656079  0.031762  0.656079  1
  Ga  Ga16  1  0.031762  0.656079  0.656079  1
  Ga  Ga17  1  0.656079  0.656079  0.656079  1
  Ga  Ga18  1  0.341312  0.341312  0.976063  1
  Ga  Ga19  1  0.341312  0.976063  0.341312  1
  Ga  Ga20  1  0.976063  0.341312  0.341312  1
  Ga  Ga21  1  0.341312  0.341312  0.341312  1
  Rh  Rh22  1  0.000000  0.000000  0.000000  1
  Rh  Rh23  1  0.998310  0.998310  0.501690  1
  Rh  Rh24  1  0.501690  0.998310  0.501690  1
  Rh  Rh25  1  0.998310  0.501690  0.501690  1
  Rh  Rh26  1  0.501690  0.501690  0.998310  1
  Rh  Rh27  1  0.998310  0.501690  0.998310  1
  Rh  Rh28  1  0.501690  0.998310  0.998310  1
