# generated using pymatgen
data_LuIn3Tc4F28
_symmetry_space_group_name_H-M   'P 1'
_cell_length_a   5.48583324
_cell_length_b   8.66376462
_cell_length_c   11.80197643
_cell_angle_alpha   63.22934046
_cell_angle_beta   90.14819759
_cell_angle_gamma   89.96438790
_symmetry_Int_Tables_number   1
_chemical_formula_structural   LuIn3Tc4F28
_chemical_formula_sum   'Lu1 In3 Tc4 F28'
_cell_volume   500.79953743
_cell_formula_units_Z   1
loop_
 _symmetry_equiv_pos_site_id
 _symmetry_equiv_pos_as_xyz
  1  'x, y, z'
loop_
 _atom_site_type_symbol
 _atom_site_label
 _atom_site_symmetry_multiplicity
 _atom_site_fract_x
 _atom_site_fract_y
 _atom_site_fract_z
 _atom_site_occupancy
  Lu  Lu0  1  0.240289  0.815825  0.765015  1
  In  In1  1  0.262571  0.815842  0.263762  1
  In  In2  1  0.736012  0.186412  0.735780  1
  In  In3  1  0.762366  0.183731  0.236030  1
  Tc  Tc4  1  0.760037  0.726534  0.045683  1
  Tc  Tc5  1  0.237341  0.271628  0.956135  1
  Tc  Tc6  1  0.262928  0.273567  0.455096  1
  Tc  Tc7  1  0.739628  0.726102  0.543306  1
  F  F8  1  0.944751  0.701409  0.418438  1
  F  F9  1  0.061060  0.301030  0.579323  1
  F  F10  1  0.441734  0.296563  0.081540  1
  F  F11  1  0.551977  0.706945  0.918149  1
  F  F12  1  0.470449  0.724952  0.143959  1
  F  F13  1  0.527738  0.274556  0.857732  1
  F  F14  1  0.971820  0.273011  0.357082  1
  F  F15  1  0.024558  0.728212  0.643334  1
  F  F16  1  0.960435  0.743328  0.180083  1
  F  F17  1  0.039261  0.253323  0.820967  1
  F  F18  1  0.460456  0.252075  0.321276  1
  F  F19  1  0.538830  0.746081  0.675358  1
  F  F20  1  0.778495  0.472201  0.143235  1
  F  F21  1  0.219936  0.524444  0.857811  1
  F  F22  1  0.281239  0.526556  0.354711  1
  F  F23  1  0.720511  0.472459  0.644176  1
  F  F24  1  0.935382  0.273496  0.046953  1
  F  F25  1  0.057102  0.725777  0.952359  1
  F  F26  1  0.436919  0.723870  0.452008  1
  F  F27  1  0.566275  0.276426  0.545189  1
  F  F28  1  0.743888  0.976472  0.448940  1
  F  F29  1  0.257393  0.022793  0.553950  1
  F  F30  1  0.242219  0.020668  0.050825  1
  F  F31  1  0.755425  0.976638  0.952314  1
  F  F32  1  0.587187  0.970641  0.229809  1
  F  F33  1  0.418825  0.031684  0.768196  1
  F  F34  1  0.086875  0.028485  0.269917  1
  F  F35  1  0.918086  0.976266  0.731559  1
