# generated using pymatgen
data_CaV2TeO7
_symmetry_space_group_name_H-M   'P 1'
_cell_length_a   6.89393448
_cell_length_b   7.13812931
_cell_length_c   8.39160200
_cell_angle_alpha   93.55050041
_cell_angle_beta   114.80700248
_cell_angle_gamma   114.89911311
_symmetry_Int_Tables_number   1
_chemical_formula_structural   CaV2TeO7
_chemical_formula_sum   'Ca2 V4 Te2 O14'
_cell_volume   325.41686744
_cell_formula_units_Z   2
loop_
 _symmetry_equiv_pos_site_id
 _symmetry_equiv_pos_as_xyz
  1  'x, y, z'
loop_
 _atom_site_type_symbol
 _atom_site_label
 _atom_site_symmetry_multiplicity
 _atom_site_fract_x
 _atom_site_fract_y
 _atom_site_fract_z
 _atom_site_occupancy
  Ca  Ca0  1  0.428674  0.067124  0.175987  1
  Ca  Ca1  1  0.571326  0.932876  0.824013  1
  V  V2  1  0.025774  0.884141  0.658914  1
  V  V3  1  0.496484  0.575046  0.334864  1
  V  V4  1  0.503516  0.424954  0.665136  1
  V  V5  1  0.974226  0.115859  0.341086  1
  Te  Te6  1  0.037243  0.693828  0.294628  1
  Te  Te7  1  0.962757  0.306172  0.705372  1
  O  O8  1  0.131755  0.981233  0.265823  1
  O  O9  1  0.432965  0.389412  0.159851  1
  O  O10  1  0.189065  0.175774  0.628595  1
  O  O11  1  0.321844  0.736655  0.266455  1
  O  O12  1  0.195773  0.767728  0.553450  1
  O  O13  1  0.678156  0.263345  0.733545  1
  O  O14  1  0.810935  0.824226  0.371405  1
  O  O15  1  0.760568  0.103043  0.131817  1
  O  O16  1  0.868245  0.018767  0.734177  1
  O  O17  1  0.268046  0.403143  0.421377  1
  O  O18  1  0.567035  0.610588  0.840149  1
  O  O19  1  0.804227  0.232272  0.446550  1
  O  O20  1  0.239432  0.896957  0.868183  1
  O  O21  1  0.731954  0.596857  0.578623  1
