# generated using pymatgen
data_Nd3MgMnC6
_symmetry_space_group_name_H-M   'P 1'
_cell_length_a   8.40242500
_cell_length_b   8.40242478
_cell_length_c   5.30992100
_cell_angle_alpha   90.00000000
_cell_angle_beta   90.00000000
_cell_angle_gamma   119.99998379
_symmetry_Int_Tables_number   1
_chemical_formula_structural   Nd3MgMnC6
_chemical_formula_sum   'Nd6 Mg2 Mn2 C12'
_cell_volume   324.65944377
_cell_formula_units_Z   2
loop_
 _symmetry_equiv_pos_site_id
 _symmetry_equiv_pos_as_xyz
  1  'x, y, z'
loop_
 _atom_site_type_symbol
 _atom_site_label
 _atom_site_symmetry_multiplicity
 _atom_site_fract_x
 _atom_site_fract_y
 _atom_site_fract_z
 _atom_site_occupancy
  Nd  Nd0  1  0.608196  0.678519  0.750000  1
  Nd  Nd1  1  0.929677  0.608196  0.250000  1
  Nd  Nd2  1  0.678519  0.070323  0.250000  1
  Nd  Nd3  1  0.321481  0.929677  0.750000  1
  Nd  Nd4  1  0.070323  0.391804  0.750000  1
  Nd  Nd5  1  0.391804  0.321481  0.250000  1
  Mg  Mg6  1  0.000000  0.000000  0.500000  1
  Mg  Mg7  1  0.000000  0.000000  0.000000  1
  Mn  Mn8  1  0.666667  0.333333  0.750000  1
  Mn  Mn9  1  0.333333  0.666667  0.250000  1
  C  C10  1  0.968242  0.751740  0.750000  1
  C  C11  1  0.216502  0.968242  0.250000  1
  C  C12  1  0.751740  0.783498  0.250000  1
  C  C13  1  0.248260  0.216502  0.750000  1
  C  C14  1  0.783498  0.031758  0.750000  1
  C  C15  1  0.031758  0.248260  0.250000  1
  C  C16  1  0.852178  0.569406  0.750000  1
  C  C17  1  0.282771  0.852178  0.250000  1
  C  C18  1  0.569406  0.717229  0.250000  1
  C  C19  1  0.430594  0.282771  0.750000  1
  C  C20  1  0.147822  0.430594  0.250000  1
  C  C21  1  0.717229  0.147822  0.750000  1
