# generated using pymatgen
data_YLu6CoI12
_symmetry_space_group_name_H-M   'P 1'
_cell_length_a   9.63019733
_cell_length_b   9.63019789
_cell_length_c   9.63019826
_cell_angle_alpha   106.70528876
_cell_angle_beta   106.70528855
_cell_angle_gamma   106.70529458
_symmetry_Int_Tables_number   1
_chemical_formula_structural   YLu6CoI12
_chemical_formula_sum   'Y1 Lu6 Co1 I12'
_cell_volume   749.69093464
_cell_formula_units_Z   1
loop_
 _symmetry_equiv_pos_site_id
 _symmetry_equiv_pos_as_xyz
  1  'x, y, z'
loop_
 _atom_site_type_symbol
 _atom_site_label
 _atom_site_symmetry_multiplicity
 _atom_site_fract_x
 _atom_site_fract_y
 _atom_site_fract_z
 _atom_site_occupancy
  Y  Y0  1  0.500000  0.500000  0.500000  1
  Lu  Lu1  1  0.020520  0.089043  0.281737  1
  Lu  Lu2  1  0.089043  0.281737  0.020520  1
  Lu  Lu3  1  0.281737  0.020520  0.089043  1
  Lu  Lu4  1  0.979480  0.910957  0.718263  1
  Lu  Lu5  1  0.910957  0.718263  0.979480  1
  Lu  Lu6  1  0.718263  0.979480  0.910957  1
  Co  Co7  1  0.000000  0.000000  0.000000  1
  I  I8  1  0.155686  0.460070  0.383220  1
  I  I9  1  0.460070  0.383220  0.155686  1
  I  I10  1  0.383220  0.155686  0.460070  1
  I  I11  1  0.844314  0.539930  0.616780  1
  I  I12  1  0.539930  0.616780  0.844314  1
  I  I13  1  0.616780  0.844314  0.539930  1
  I  I14  1  0.676637  0.070721  0.222425  1
  I  I15  1  0.070721  0.222425  0.676637  1
  I  I16  1  0.222425  0.676637  0.070721  1
  I  I17  1  0.323363  0.929279  0.777575  1
  I  I18  1  0.929279  0.777575  0.323363  1
  I  I19  1  0.777575  0.323363  0.929279  1
