# generated using pymatgen
data_Zr4BeNb6Ge7
_symmetry_space_group_name_H-M   'P 1'
_cell_length_a   6.80324300
_cell_length_b   6.97487010
_cell_length_c   13.38761900
_cell_angle_alpha   90.00000000
_cell_angle_beta   90.00000000
_cell_angle_gamma   89.78721668
_symmetry_Int_Tables_number   1
_chemical_formula_structural   Zr4BeNb6Ge7
_chemical_formula_sum   'Zr8 Be2 Nb12 Ge14'
_cell_volume   635.26138401
_cell_formula_units_Z   2
loop_
 _symmetry_equiv_pos_site_id
 _symmetry_equiv_pos_as_xyz
  1  'x, y, z'
loop_
 _atom_site_type_symbol
 _atom_site_label
 _atom_site_symmetry_multiplicity
 _atom_site_fract_x
 _atom_site_fract_y
 _atom_site_fract_z
 _atom_site_occupancy
  Zr  Zr0  1  0.994070  0.171114  0.092850  1
  Zr  Zr1  1  0.005930  0.828886  0.907150  1
  Zr  Zr2  1  0.505248  0.676494  0.905159  1
  Zr  Zr3  1  0.005930  0.828886  0.592850  1
  Zr  Zr4  1  0.494752  0.323506  0.094841  1
  Zr  Zr5  1  0.994070  0.171114  0.407150  1
  Zr  Zr6  1  0.494752  0.323506  0.405159  1
  Zr  Zr7  1  0.505248  0.676494  0.594841  1
  Be  Be8  1  0.044084  0.115222  0.750000  1
  Be  Be9  1  0.955916  0.884778  0.250000  1
  Nb  Nb10  1  0.162108  0.488119  0.750000  1
  Nb  Nb11  1  0.837892  0.511881  0.250000  1
  Nb  Nb12  1  0.333494  0.990239  0.250000  1
  Nb  Nb13  1  0.666506  0.009761  0.750000  1
  Nb  Nb14  1  0.332035  0.167662  0.625659  1
  Nb  Nb15  1  0.667965  0.832338  0.374341  1
  Nb  Nb16  1  0.152506  0.675326  0.371687  1
  Nb  Nb17  1  0.667965  0.832338  0.125659  1
  Nb  Nb18  1  0.847494  0.324674  0.628313  1
  Nb  Nb19  1  0.332035  0.167662  0.874341  1
  Nb  Nb20  1  0.847494  0.324674  0.871687  1
  Nb  Nb21  1  0.152506  0.675326  0.128313  1
  Ge  Ge22  1  0.461395  0.615462  0.250000  1
  Ge  Ge23  1  0.538605  0.384538  0.750000  1
  Ge  Ge24  1  0.286604  0.866462  0.750000  1
  Ge  Ge25  1  0.713396  0.133538  0.250000  1
  Ge  Ge26  1  0.196537  0.351404  0.250000  1
  Ge  Ge27  1  0.803463  0.648596  0.750000  1
  Ge  Ge28  1  0.180574  0.463737  0.537022  1
  Ge  Ge29  1  0.819426  0.536263  0.462978  1
  Ge  Ge30  1  0.321580  0.961667  0.460081  1
  Ge  Ge31  1  0.819426  0.536263  0.037022  1
  Ge  Ge32  1  0.678420  0.038333  0.539919  1
  Ge  Ge33  1  0.180574  0.463737  0.962978  1
  Ge  Ge34  1  0.678420  0.038333  0.960081  1
  Ge  Ge35  1  0.321580  0.961667  0.039919  1
