# generated using pymatgen
data_Sm12Si3AsBr12
_symmetry_space_group_name_H-M   'P 1'
_cell_length_a   10.26179438
_cell_length_b   10.28716964
_cell_length_c   10.28716966
_cell_angle_alpha   109.52113764
_cell_angle_beta   109.42126641
_cell_angle_gamma   109.42125528
_symmetry_Int_Tables_number   1
_chemical_formula_structural   Sm12Si3AsBr12
_chemical_formula_sum   'Sm12 Si3 As1 Br12'
_cell_volume   836.48971425
_cell_formula_units_Z   1
loop_
 _symmetry_equiv_pos_site_id
 _symmetry_equiv_pos_as_xyz
  1  'x, y, z'
loop_
 _atom_site_type_symbol
 _atom_site_label
 _atom_site_symmetry_multiplicity
 _atom_site_fract_x
 _atom_site_fract_y
 _atom_site_fract_z
 _atom_site_occupancy
  Sm  Sm0  1  0.474948  0.485084  0.239378  1
  Sm  Sm1  1  0.750000  0.237282  0.262718  1
  Sm  Sm2  1  0.750000  0.012801  0.487199  1
  Sm  Sm3  1  0.237199  0.474397  0.487199  1
  Sm  Sm4  1  0.264428  0.754294  0.239378  1
  Sm  Sm5  1  0.025052  0.260622  0.014916  1
  Sm  Sm6  1  0.012718  0.025439  0.262718  1
  Sm  Sm7  1  0.489865  0.754294  0.014916  1
  Sm  Sm8  1  0.487282  0.237282  0.474561  1
  Sm  Sm9  1  0.010135  0.485084  0.745706  1
  Sm  Sm10  1  0.262801  0.012801  0.025603  1
  Sm  Sm11  1  0.235572  0.260622  0.745706  1
  Si  Si12  1  0.250000  0.249922  0.250078  1
  Si  Si13  1  0.500078  0.000157  0.250078  1
  Si  Si14  1  0.999922  0.249922  0.499843  1
  As  As15  1  0.250000  0.500000  0.000000  1
  Br  Br16  1  0.250000  0.753832  0.746168  1
  Br  Br17  1  0.508451  0.504338  0.754948  1
  Br  Br18  1  0.991549  0.745052  0.995662  1
  Br  Br19  1  0.746497  0.250610  0.754948  1
  Br  Br20  1  0.996168  0.992336  0.746168  1
  Br  Br21  1  0.250000  0.995060  0.504940  1
  Br  Br22  1  0.754940  0.509879  0.504940  1
  Br  Br23  1  0.504113  0.250610  0.995662  1
  Br  Br24  1  0.753503  0.745052  0.249390  1
  Br  Br25  1  0.745060  0.995060  0.990121  1
  Br  Br26  1  0.995887  0.504338  0.249390  1
  Br  Br27  1  0.503832  0.753832  0.507664  1
