# generated using pymatgen
data_Ca2TmLu5(B6Os)4
_symmetry_space_group_name_H-M   'P 1'
_cell_length_a   3.60278600
_cell_length_b   9.07807265
_cell_length_c   11.47098000
_cell_angle_alpha   89.85315337
_cell_angle_beta   90.00000000
_cell_angle_gamma   90.00000000
_symmetry_Int_Tables_number   1
_chemical_formula_structural   Ca2TmLu5(B6Os)4
_chemical_formula_sum   'Ca2 Tm1 Lu5 B24 Os4'
_cell_volume   375.17268942
_cell_formula_units_Z   1
loop_
 _symmetry_equiv_pos_site_id
 _symmetry_equiv_pos_as_xyz
  1  'x, y, z'
loop_
 _atom_site_type_symbol
 _atom_site_label
 _atom_site_symmetry_multiplicity
 _atom_site_fract_x
 _atom_site_fract_y
 _atom_site_fract_z
 _atom_site_occupancy
  Ca  Ca0  1  0.000000  0.323294  0.414399  1
  Ca  Ca1  1  0.000000  0.676702  0.585608  1
  Tm  Tm2  1  0.000000  0.821749  0.086375  1
  Lu  Lu3  1  0.000000  0.178268  0.913624  1
  Lu  Lu4  1  0.000000  0.942999  0.370253  1
  Lu  Lu5  1  0.000000  0.057015  0.629766  1
  Lu  Lu6  1  0.000000  0.443390  0.129035  1
  Lu  Lu7  1  0.000000  0.556541  0.870944  1
  B  B8  1  0.500000  0.554541  0.431731  1
  B  B9  1  0.500000  0.445457  0.568270  1
  B  B10  1  0.500000  0.053413  0.065668  1
  B  B11  1  0.500000  0.946710  0.934258  1
  B  B12  1  0.500000  0.749916  0.417254  1
  B  B13  1  0.500000  0.250083  0.582751  1
  B  B14  1  0.500000  0.249220  0.079827  1
  B  B15  1  0.500000  0.750767  0.920051  1
  B  B16  1  0.500000  0.792967  0.263610  1
  B  B17  1  0.500000  0.206980  0.736486  1
  B  B18  1  0.500000  0.291087  0.233015  1
  B  B19  1  0.500000  0.708915  0.766974  1
  B  B20  1  0.500000  0.631656  0.183649  1
  B  B21  1  0.500000  0.368259  0.816417  1
  B  B22  1  0.500000  0.130032  0.313542  1
  B  B23  1  0.500000  0.869970  0.686466  1
  B  B24  1  0.500000  0.981974  0.211310  1
  B  B25  1  0.500000  0.018154  0.788743  1
  B  B26  1  0.500000  0.483632  0.286318  1
  B  B27  1  0.500000  0.516360  0.713684  1
  B  B28  1  0.500000  0.602981  0.028215  1
  B  B29  1  0.500000  0.396879  0.971745  1
  B  B30  1  0.500000  0.097957  0.472990  1
  B  B31  1  0.500000  0.902046  0.527013  1
  Os  Os32  1  0.000000  0.641339  0.316917  1
  Os  Os33  1  0.000000  0.358604  0.683152  1
  Os  Os34  1  0.000000  0.136616  0.176831  1
  Os  Os35  1  0.000000  0.863527  0.823112  1
