# generated using pymatgen
data_Pr8Ho11LuSi16
_symmetry_space_group_name_H-M   'P 1'
_cell_length_a   7.50573528
_cell_length_b   7.78739729
_cell_length_c   14.80207900
_cell_angle_alpha   90.00000000
_cell_angle_beta   90.00000000
_cell_angle_gamma   90.03135797
_symmetry_Int_Tables_number   1
_chemical_formula_structural   Pr8Ho11LuSi16
_chemical_formula_sum   'Pr8 Ho11 Lu1 Si16'
_cell_volume   865.18349873
_cell_formula_units_Z   1
loop_
 _symmetry_equiv_pos_site_id
 _symmetry_equiv_pos_as_xyz
  1  'x, y, z'
loop_
 _atom_site_type_symbol
 _atom_site_label
 _atom_site_symmetry_multiplicity
 _atom_site_fract_x
 _atom_site_fract_y
 _atom_site_fract_z
 _atom_site_occupancy
  Pr  Pr0  1  0.975518  0.821427  0.098418  1
  Pr  Pr1  1  0.476160  0.678907  0.401707  1
  Pr  Pr2  1  0.524122  0.320988  0.902000  1
  Pr  Pr3  1  0.024158  0.179043  0.598032  1
  Pr  Pr4  1  0.024158  0.179043  0.901968  1
  Pr  Pr5  1  0.524122  0.320988  0.598000  1
  Pr  Pr6  1  0.476160  0.678907  0.098293  1
  Pr  Pr7  1  0.975518  0.821427  0.401582  1
  Ho  Ho8  1  0.149505  0.509651  0.250000  1
  Ho  Ho9  1  0.850372  0.489734  0.750000  1
  Ho  Ho10  1  0.350529  0.010045  0.750000  1
  Ho  Ho11  1  0.680815  0.821913  0.876916  1
  Ho  Ho12  1  0.180919  0.678082  0.623172  1
  Ho  Ho13  1  0.818543  0.321746  0.123212  1
  Ho  Ho14  1  0.319441  0.177827  0.376710  1
  Ho  Ho15  1  0.319441  0.177827  0.123290  1
  Ho  Ho16  1  0.818543  0.321746  0.376788  1
  Ho  Ho17  1  0.180919  0.678082  0.876828  1
  Ho  Ho18  1  0.680815  0.821913  0.623084  1
  Lu  Lu19  1  0.650077  0.989816  0.250000  1
  Si  Si20  1  0.768649  0.622337  0.250000  1
  Si  Si21  1  0.270933  0.879870  0.250000  1
  Si  Si22  1  0.731151  0.120149  0.750000  1
  Si  Si23  1  0.231471  0.379829  0.750000  1
  Si  Si24  1  0.022229  0.112818  0.250000  1
  Si  Si25  1  0.524172  0.386643  0.250000  1
  Si  Si26  1  0.475659  0.613021  0.750000  1
  Si  Si27  1  0.975772  0.886734  0.750000  1
  Si  Si28  1  0.856256  0.531161  0.960033  1
  Si  Si29  1  0.356164  0.968829  0.539849  1
  Si  Si30  1  0.643863  0.030813  0.040658  1
  Si  Si31  1  0.143782  0.468941  0.459905  1
  Si  Si32  1  0.143782  0.468941  0.040095  1
  Si  Si33  1  0.643863  0.030813  0.459342  1
  Si  Si34  1  0.356164  0.968829  0.960151  1
  Si  Si35  1  0.856256  0.531161  0.539967  1
