# generated using pymatgen
data_La3Th(SbTe)4
_symmetry_space_group_name_H-M   'P 1'
_cell_length_a   4.43030600
_cell_length_b   4.43142024
_cell_length_c   19.07479114
_cell_angle_alpha   90.17338564
_cell_angle_beta   90.00000000
_cell_angle_gamma   90.00000000
_symmetry_Int_Tables_number   1
_chemical_formula_structural   La3Th(SbTe)4
_chemical_formula_sum   'La3 Th1 Sb4 Te4'
_cell_volume   374.48503153
_cell_formula_units_Z   1
loop_
 _symmetry_equiv_pos_site_id
 _symmetry_equiv_pos_as_xyz
  1  'x, y, z'
loop_
 _atom_site_type_symbol
 _atom_site_label
 _atom_site_symmetry_multiplicity
 _atom_site_fract_x
 _atom_site_fract_y
 _atom_site_fract_z
 _atom_site_occupancy
  La  La0  1  0.750000  0.260405  0.362501  1
  La  La1  1  0.250000  0.739130  0.638576  1
  La  La2  1  0.750000  0.241669  0.863059  1
  Th  Th3  1  0.250000  0.757081  0.135006  1
  Sb  Sb4  1  0.250000  0.251925  0.003792  1
  Sb  Sb5  1  0.750000  0.763930  0.498786  1
  Sb  Sb6  1  0.250000  0.236575  0.499492  1
  Sb  Sb7  1  0.750000  0.750620  0.003811  1
  Te  Te8  1  0.750000  0.258693  0.183473  1
  Te  Te9  1  0.250000  0.760073  0.308568  1
  Te  Te10  1  0.750000  0.239767  0.686214  1
  Te  Te11  1  0.250000  0.740134  0.816720  1
