# generated using pymatgen
data_Tm3Np(GePt)4
_symmetry_space_group_name_H-M   'P 1'
_cell_length_a   4.37155700
_cell_length_b   6.98013567
_cell_length_c   7.56301463
_cell_angle_alpha   90.09788270
_cell_angle_beta   90.00000000
_cell_angle_gamma   90.00000000
_symmetry_Int_Tables_number   1
_chemical_formula_structural   Tm3Np(GePt)4
_chemical_formula_sum   'Tm3 Np1 Ge4 Pt4'
_cell_volume   230.77795256
_cell_formula_units_Z   1
loop_
 _symmetry_equiv_pos_site_id
 _symmetry_equiv_pos_as_xyz
  1  'x, y, z'
loop_
 _atom_site_type_symbol
 _atom_site_label
 _atom_site_symmetry_multiplicity
 _atom_site_fract_x
 _atom_site_fract_y
 _atom_site_fract_z
 _atom_site_occupancy
  Tm  Tm0  1  0.250000  0.496420  0.203796  1
  Tm  Tm1  1  0.750000  0.004949  0.701015  1
  Tm  Tm2  1  0.750000  0.504165  0.798447  1
  Np  Np3  1  0.250000  0.995840  0.293721  1
  Ge  Ge4  1  0.250000  0.310693  0.589514  1
  Ge  Ge5  1  0.250000  0.813345  0.910776  1
  Ge  Ge6  1  0.750000  0.684296  0.413045  1
  Ge  Ge7  1  0.750000  0.183431  0.087431  1
  Pt  Pt8  1  0.250000  0.210364  0.915782  1
  Pt  Pt9  1  0.250000  0.715928  0.583291  1
  Pt  Pt10  1  0.750000  0.789159  0.088044  1
  Pt  Pt11  1  0.750000  0.291411  0.415137  1
