# generated using pymatgen
data_Dy8Ti11Si16Mo
_symmetry_space_group_name_H-M   'P 1'
_cell_length_a   7.03099038
_cell_length_b   7.03099038
_cell_length_c   12.92599857
_cell_angle_alpha   90.02398932
_cell_angle_beta   89.97601068
_cell_angle_gamma   90.02904566
_symmetry_Int_Tables_number   1
_chemical_formula_structural   Dy8Ti11Si16Mo
_chemical_formula_sum   'Dy8 Ti11 Si16 Mo1'
_cell_volume   638.99429234
_cell_formula_units_Z   1
loop_
 _symmetry_equiv_pos_site_id
 _symmetry_equiv_pos_as_xyz
  1  'x, y, z'
loop_
 _atom_site_type_symbol
 _atom_site_label
 _atom_site_symmetry_multiplicity
 _atom_site_fract_x
 _atom_site_fract_y
 _atom_site_fract_z
 _atom_site_occupancy
  Dy  Dy0  1  0.996912  0.659938  0.033022  1
  Dy  Dy1  1  0.001397  0.341413  0.532952  1
  Dy  Dy2  1  0.659938  0.996912  0.966978  1
  Dy  Dy3  1  0.159985  0.502771  0.782678  1
  Dy  Dy4  1  0.840068  0.498819  0.284383  1
  Dy  Dy5  1  0.502771  0.159985  0.217322  1
  Dy  Dy6  1  0.498819  0.840068  0.715617  1
  Dy  Dy7  1  0.341413  0.001397  0.467048  1
  Ti  Ti8  1  0.348164  0.508343  0.375039  1
  Ti  Ti9  1  0.846378  0.990773  0.376862  1
  Ti  Ti10  1  0.007906  0.152051  0.123889  1
  Ti  Ti11  1  0.990773  0.846378  0.623138  1
  Ti  Ti12  1  0.508343  0.348164  0.624961  1
  Ti  Ti13  1  0.152051  0.007906  0.876111  1
  Ti  Ti14  1  0.826166  0.172618  0.749653  1
  Ti  Ti15  1  0.172618  0.826166  0.250347  1
  Ti  Ti16  1  0.327097  0.327097  0.000000  1
  Ti  Ti17  1  0.492323  0.651985  0.126664  1
  Ti  Ti18  1  0.651985  0.492323  0.873336  1
  Si  Si19  1  0.046638  0.709259  0.435046  1
  Si  Si20  1  0.952669  0.291233  0.934910  1
  Si  Si21  1  0.709259  0.046638  0.564954  1
  Si  Si22  1  0.208417  0.453701  0.185059  1
  Si  Si23  1  0.791441  0.547291  0.684621  1
  Si  Si24  1  0.453701  0.208417  0.814941  1
  Si  Si25  1  0.547291  0.791441  0.315379  1
  Si  Si26  1  0.291233  0.952669  0.065090  1
  Si  Si27  1  0.797963  0.870005  0.184821  1
  Si  Si28  1  0.298721  0.629391  0.565318  1
  Si  Si29  1  0.702504  0.370149  0.065372  1
  Si  Si30  1  0.629391  0.298721  0.434682  1
  Si  Si31  1  0.370149  0.702504  0.934628  1
  Si  Si32  1  0.129821  0.202196  0.315295  1
  Si  Si33  1  0.202196  0.129821  0.684705  1
  Si  Si34  1  0.870005  0.797963  0.815179  1
  Mo  Mo35  1  0.673492  0.673492  0.500000  1
