# generated using pymatgen
data_Hf11Th8NbSi16
_symmetry_space_group_name_H-M   'P 1'
_cell_length_a   7.37707003
_cell_length_b   7.37707003
_cell_length_c   13.59440060
_cell_angle_alpha   89.93359901
_cell_angle_beta   89.93359901
_cell_angle_gamma   89.94651471
_symmetry_Int_Tables_number   1
_chemical_formula_structural   Hf11Th8NbSi16
_chemical_formula_sum   'Hf11 Th8 Nb1 Si16'
_cell_volume   739.82176553
_cell_formula_units_Z   1
loop_
 _symmetry_equiv_pos_site_id
 _symmetry_equiv_pos_as_xyz
  1  'x, y, z'
loop_
 _atom_site_type_symbol
 _atom_site_label
 _atom_site_symmetry_multiplicity
 _atom_site_fract_x
 _atom_site_fract_y
 _atom_site_fract_z
 _atom_site_occupancy
  Hf  Hf0  1  0.170878  0.171498  0.999699  1
  Hf  Hf1  1  0.828502  0.829122  0.500301  1
  Hf  Hf2  1  0.328751  0.671249  0.250000  1
  Hf  Hf3  1  0.158371  0.996255  0.375340  1
  Hf  Hf4  1  0.841163  0.006212  0.873362  1
  Hf  Hf5  1  0.504374  0.655997  0.626441  1
  Hf  Hf6  1  0.344003  0.495626  0.873559  1
  Hf  Hf7  1  0.496135  0.342014  0.124613  1
  Hf  Hf8  1  0.657986  0.503865  0.375387  1
  Hf  Hf9  1  0.993788  0.158837  0.626638  1
  Hf  Hf10  1  0.003745  0.841629  0.124660  1
  Th  Th11  1  0.998106  0.338742  0.216813  1
  Th  Th12  1  0.000123  0.660270  0.717057  1
  Th  Th13  1  0.161258  0.497732  0.467114  1
  Th  Th14  1  0.502268  0.838742  0.032886  1
  Th  Th15  1  0.837902  0.500292  0.966033  1
  Th  Th16  1  0.499708  0.162098  0.533967  1
  Th  Th17  1  0.339730  0.999877  0.782943  1
  Th  Th18  1  0.661258  0.001894  0.283187  1
  Nb  Nb19  1  0.670986  0.329014  0.750000  1
  Si  Si20  1  0.292187  0.041364  0.184670  1
  Si  Si21  1  0.707253  0.958975  0.685114  1
  Si  Si22  1  0.458519  0.792674  0.435220  1
  Si  Si23  1  0.207326  0.541481  0.064780  1
  Si  Si24  1  0.542570  0.208102  0.934438  1
  Si  Si25  1  0.791898  0.457430  0.565562  1
  Si  Si26  1  0.041025  0.292747  0.814886  1
  Si  Si27  1  0.958636  0.707813  0.315330  1
  Si  Si28  1  0.371483  0.297292  0.316491  1
  Si  Si29  1  0.628917  0.701183  0.816327  1
  Si  Si30  1  0.202017  0.871428  0.566166  1
  Si  Si31  1  0.128572  0.797983  0.933834  1
  Si  Si32  1  0.797673  0.128636  0.065993  1
  Si  Si33  1  0.871364  0.202327  0.434007  1
  Si  Si34  1  0.298817  0.371083  0.683673  1
  Si  Si35  1  0.702708  0.628517  0.183509  1
