# generated using pymatgen
data_V2(HgO2)5
_symmetry_space_group_name_H-M   'P 1'
_cell_length_a   6.44420015
_cell_length_b   6.44949810
_cell_length_c   8.80533559
_cell_angle_alpha   98.51566909
_cell_angle_beta   91.29501046
_cell_angle_gamma   118.17363388
_symmetry_Int_Tables_number   1
_chemical_formula_structural   V2(HgO2)5
_chemical_formula_sum   'V2 Hg5 O10'
_cell_volume   317.24855896
_cell_formula_units_Z   1
loop_
 _symmetry_equiv_pos_site_id
 _symmetry_equiv_pos_as_xyz
  1  'x, y, z'
loop_
 _atom_site_type_symbol
 _atom_site_label
 _atom_site_symmetry_multiplicity
 _atom_site_fract_x
 _atom_site_fract_y
 _atom_site_fract_z
 _atom_site_occupancy
  V  V0  1  0.474064  0.144261  0.302568  1
  V  V1  1  0.525932  0.855755  0.697439  1
  Hg  Hg2  1  0.000005  0.999979  0.000031  1
  Hg  Hg3  1  0.298532  0.605356  0.081681  1
  Hg  Hg4  1  0.951977  0.714868  0.395866  1
  Hg  Hg5  1  0.048080  0.285148  0.604190  1
  Hg  Hg6  1  0.701494  0.394584  0.918336  1
  O  O7  1  0.934362  0.691615  0.077049  1
  O  O8  1  0.444438  0.248826  0.144115  1
  O  O9  1  0.519317  0.895432  0.250825  1
  O  O10  1  0.206944  0.063848  0.395068  1
  O  O11  1  0.726593  0.371545  0.425848  1
  O  O12  1  0.273431  0.628553  0.574143  1
  O  O13  1  0.793014  0.936068  0.604896  1
  O  O14  1  0.480658  0.104595  0.749114  1
  O  O15  1  0.555513  0.751236  0.855844  1
  O  O16  1  0.065644  0.308331  0.922986  1
