# generated using pymatgen
data_Sc(Ga3Ni)3
_symmetry_space_group_name_H-M   'P 1'
_cell_length_a   10.05376222
_cell_length_b   10.05376084
_cell_length_c   10.05376055
_cell_angle_alpha   42.03314580
_cell_angle_beta   42.03314488
_cell_angle_gamma   42.03315461
_symmetry_Int_Tables_number   1
_chemical_formula_structural   Sc(Ga3Ni)3
_chemical_formula_sum   'Sc2 Ga18 Ni6'
_cell_volume   412.13215240
_cell_formula_units_Z   2
loop_
 _symmetry_equiv_pos_site_id
 _symmetry_equiv_pos_as_xyz
  1  'x, y, z'
loop_
 _atom_site_type_symbol
 _atom_site_label
 _atom_site_symmetry_multiplicity
 _atom_site_fract_x
 _atom_site_fract_y
 _atom_site_fract_z
 _atom_site_occupancy
  Sc  Sc0  1  0.167052  0.167052  0.167052  1
  Sc  Sc1  1  0.832948  0.832948  0.832948  1
  Ga  Ga2  1  0.051811  0.051811  0.051811  1
  Ga  Ga3  1  0.714625  0.500000  0.285375  1
  Ga  Ga4  1  0.665736  0.334264  0.000000  1
  Ga  Ga5  1  0.103178  0.436875  0.771496  1
  Ga  Ga6  1  0.436875  0.771496  0.103178  1
  Ga  Ga7  1  0.386818  0.386818  0.386818  1
  Ga  Ga8  1  0.334264  0.000000  0.665736  1
  Ga  Ga9  1  0.613182  0.613182  0.613182  1
  Ga  Ga10  1  0.228504  0.563125  0.896822  1
  Ga  Ga11  1  0.563125  0.896822  0.228504  1
  Ga  Ga12  1  0.500000  0.285375  0.714625  1
  Ga  Ga13  1  0.771496  0.103178  0.436875  1
  Ga  Ga14  1  0.948189  0.948189  0.948189  1
  Ga  Ga15  1  0.285375  0.714625  0.500000  1
  Ga  Ga16  1  0.000000  0.665736  0.334264  1
  Ga  Ga17  1  0.717826  0.717826  0.717826  1
  Ga  Ga18  1  0.282174  0.282174  0.282174  1
  Ga  Ga19  1  0.896822  0.228504  0.563125  1
  Ni  Ni20  1  0.242855  0.920554  0.581284  1
  Ni  Ni21  1  0.920554  0.581284  0.242855  1
  Ni  Ni22  1  0.757145  0.418716  0.079446  1
  Ni  Ni23  1  0.079446  0.757145  0.418716  1
  Ni  Ni24  1  0.418716  0.079446  0.757145  1
  Ni  Ni25  1  0.581284  0.242855  0.920554  1
