# generated using pymatgen
data_HoEr5Tm4(CoBi2)2
_symmetry_space_group_name_H-M   'P 1'
_cell_length_a   7.87818368
_cell_length_b   8.84040400
_cell_length_c   12.32190193
_cell_angle_alpha   90.00000000
_cell_angle_beta   90.00826042
_cell_angle_gamma   90.00000000
_symmetry_Int_Tables_number   1
_chemical_formula_structural   HoEr5Tm4(CoBi2)2
_chemical_formula_sum   'Ho2 Er10 Tm8 Co4 Bi8'
_cell_volume   858.17519680
_cell_formula_units_Z   2
loop_
 _symmetry_equiv_pos_site_id
 _symmetry_equiv_pos_as_xyz
  1  'x, y, z'
loop_
 _atom_site_type_symbol
 _atom_site_label
 _atom_site_symmetry_multiplicity
 _atom_site_fract_x
 _atom_site_fract_y
 _atom_site_fract_z
 _atom_site_occupancy
  Ho  Ho0  1  0.653181  0.750000  0.699378  1
  Ho  Ho1  1  0.346819  0.250000  0.300622  1
  Er  Er2  1  0.153513  0.250000  0.800261  1
  Er  Er3  1  0.846487  0.750000  0.199739  1
  Er  Er4  1  0.118670  0.750000  0.813734  1
  Er  Er5  1  0.881330  0.250000  0.186266  1
  Er  Er6  1  0.618744  0.250000  0.686292  1
  Er  Er7  1  0.381256  0.750000  0.313708  1
  Er  Er8  1  0.554470  0.750000  0.997588  1
  Er  Er9  1  0.445530  0.250000  0.002412  1
  Er  Er10  1  0.054206  0.250000  0.502852  1
  Er  Er11  1  0.945794  0.750000  0.497148  1
  Tm  Tm12  1  0.827010  0.463009  0.936254  1
  Tm  Tm13  1  0.172990  0.536991  0.063746  1
  Tm  Tm14  1  0.326727  0.536948  0.563786  1
  Tm  Tm15  1  0.172990  0.963009  0.063746  1
  Tm  Tm16  1  0.673273  0.463052  0.436214  1
  Tm  Tm17  1  0.827010  0.036991  0.936254  1
  Tm  Tm18  1  0.673273  0.036948  0.436214  1
  Tm  Tm19  1  0.326727  0.963052  0.563786  1
  Co  Co20  1  0.936281  0.750000  0.993149  1
  Co  Co21  1  0.063719  0.250000  0.006851  1
  Co  Co22  1  0.436405  0.250000  0.507408  1
  Co  Co23  1  0.563595  0.750000  0.492592  1
  Bi  Bi24  1  0.932269  0.008026  0.673154  1
  Bi  Bi25  1  0.067731  0.991974  0.326846  1
  Bi  Bi26  1  0.432065  0.992125  0.826876  1
  Bi  Bi27  1  0.067731  0.508026  0.326846  1
  Bi  Bi28  1  0.567935  0.007875  0.173124  1
  Bi  Bi29  1  0.932269  0.491974  0.673154  1
  Bi  Bi30  1  0.567935  0.492125  0.173124  1
  Bi  Bi31  1  0.432065  0.507875  0.826876  1
