# generated using pymatgen
data_Dy18HoEr(CoBi2)4
_symmetry_space_group_name_H-M   'P 1'
_cell_length_a   8.00217857
_cell_length_b   8.88181834
_cell_length_c   12.40188904
_cell_angle_alpha   90.02718046
_cell_angle_beta   89.97970184
_cell_angle_gamma   89.97308522
_symmetry_Int_Tables_number   1
_chemical_formula_structural   Dy18HoEr(CoBi2)4
_chemical_formula_sum   'Dy18 Ho1 Er1 Co4 Bi8'
_cell_volume   881.45032525
_cell_formula_units_Z   1
loop_
 _symmetry_equiv_pos_site_id
 _symmetry_equiv_pos_as_xyz
  1  'x, y, z'
loop_
 _atom_site_type_symbol
 _atom_site_label
 _atom_site_symmetry_multiplicity
 _atom_site_fract_x
 _atom_site_fract_y
 _atom_site_fract_z
 _atom_site_occupancy
  Dy  Dy0  1  0.346573  0.750024  0.699830  1
  Dy  Dy1  1  0.653467  0.249961  0.300131  1
  Dy  Dy2  1  0.846762  0.249818  0.800405  1
  Dy  Dy3  1  0.153132  0.750205  0.199629  1
  Dy  Dy4  1  0.884638  0.750484  0.810665  1
  Dy  Dy5  1  0.115132  0.249568  0.189343  1
  Dy  Dy6  1  0.384684  0.250068  0.689757  1
  Dy  Dy7  1  0.615331  0.749915  0.310234  1
  Dy  Dy8  1  0.676281  0.537809  0.563024  1
  Dy  Dy9  1  0.323711  0.462214  0.436965  1
  Dy  Dy10  1  0.176245  0.462313  0.937020  1
  Dy  Dy11  1  0.323760  0.037795  0.436934  1
  Dy  Dy12  1  0.823768  0.537764  0.063016  1
  Dy  Dy13  1  0.676244  0.962188  0.563072  1
  Dy  Dy14  1  0.051679  0.750044  0.497998  1
  Dy  Dy15  1  0.948320  0.249964  0.501992  1
  Dy  Dy16  1  0.552042  0.249611  0.002066  1
  Dy  Dy17  1  0.448267  0.750353  0.997938  1
  Ho  Ho18  1  0.175069  0.037844  0.937103  1
  Er  Er19  1  0.825324  0.962148  0.062938  1
  Co  Co20  1  0.065235  0.750646  0.991815  1
  Co  Co21  1  0.934232  0.249360  0.008295  1
  Co  Co22  1  0.565816  0.249992  0.508429  1
  Co  Co23  1  0.434171  0.749997  0.491546  1
  Bi  Bi24  1  0.572456  0.509623  0.826481  1
  Bi  Bi25  1  0.427527  0.490370  0.173501  1
  Bi  Bi26  1  0.072375  0.490431  0.673667  1
  Bi  Bi27  1  0.428341  0.009482  0.173413  1
  Bi  Bi28  1  0.927630  0.509570  0.326360  1
  Bi  Bi29  1  0.571825  0.990469  0.826513  1
  Bi  Bi30  1  0.927412  0.990354  0.326222  1
  Bi  Bi31  1  0.072547  0.009619  0.673698  1
