# generated using pymatgen
data_Al(V4Te)3
_symmetry_space_group_name_H-M   'P 1'
_cell_length_a   4.88559000
_cell_length_b   4.88351400
_cell_length_c   9.77952800
_cell_angle_alpha   90.00000000
_cell_angle_beta   90.00000000
_cell_angle_gamma   90.00000000
_symmetry_Int_Tables_number   1
_chemical_formula_structural   Al(V4Te)3
_chemical_formula_sum   'Al1 V12 Te3'
_cell_volume   233.32826388
_cell_formula_units_Z   1
loop_
 _symmetry_equiv_pos_site_id
 _symmetry_equiv_pos_as_xyz
  1  'x, y, z'
loop_
 _atom_site_type_symbol
 _atom_site_label
 _atom_site_symmetry_multiplicity
 _atom_site_fract_x
 _atom_site_fract_y
 _atom_site_fract_z
 _atom_site_occupancy
  Al  Al0  1  0.500000  0.500000  0.500000  1
  V  V1  1  0.500000  0.000000  0.621547  1
  V  V2  1  0.500000  0.000000  0.126229  1
  V  V3  1  0.745801  0.500000  0.254264  1
  V  V4  1  0.745801  0.500000  0.745736  1
  V  V5  1  0.000000  0.742665  0.500000  1
  V  V6  1  0.000000  0.751423  0.000000  1
  V  V7  1  0.500000  0.000000  0.378453  1
  V  V8  1  0.500000  0.000000  0.873771  1
  V  V9  1  0.254199  0.500000  0.254264  1
  V  V10  1  0.254199  0.500000  0.745736  1
  V  V11  1  0.000000  0.257335  0.500000  1
  V  V12  1  0.000000  0.248577  0.000000  1
  Te  Te13  1  0.500000  0.500000  0.000000  1
  Te  Te14  1  0.000000  0.000000  0.252105  1
  Te  Te15  1  0.000000  0.000000  0.747895  1
