# generated using pymatgen
data_Dy5Zr3(Co4P3)4
_symmetry_space_group_name_H-M   'P 1'
_cell_length_a   12.32863600
_cell_length_b   12.32863653
_cell_length_c   3.72071100
_cell_angle_alpha   90.00000000
_cell_angle_beta   90.00000000
_cell_angle_gamma   120.00000396
_symmetry_Int_Tables_number   1
_chemical_formula_structural   Dy5Zr3(Co4P3)4
_chemical_formula_sum   'Dy5 Zr3 Co16 P12'
_cell_volume   489.76374353
_cell_formula_units_Z   1
loop_
 _symmetry_equiv_pos_site_id
 _symmetry_equiv_pos_as_xyz
  1  'x, y, z'
loop_
 _atom_site_type_symbol
 _atom_site_label
 _atom_site_symmetry_multiplicity
 _atom_site_fract_x
 _atom_site_fract_y
 _atom_site_fract_z
 _atom_site_occupancy
  Dy  Dy0  1  0.666667  0.333333  0.000000  1
  Dy  Dy1  1  0.333333  0.666667  0.000000  1
  Dy  Dy2  1  0.817707  0.817707  0.500000  1
  Dy  Dy3  1  0.182293  0.000000  0.500000  1
  Dy  Dy4  1  0.000000  0.182293  0.500000  1
  Zr  Zr5  1  0.441060  0.441060  0.000000  1
  Zr  Zr6  1  0.558940  0.000000  0.000000  1
  Zr  Zr7  1  0.000000  0.558940  0.000000  1
  Co  Co8  1  0.875408  0.355017  0.500000  1
  Co  Co9  1  0.644983  0.520390  0.500000  1
  Co  Co10  1  0.479610  0.124592  0.500000  1
  Co  Co11  1  0.355017  0.875408  0.500000  1
  Co  Co12  1  0.520390  0.644983  0.500000  1
  Co  Co13  1  0.124592  0.479610  0.500000  1
  Co  Co14  1  0.805353  0.178582  0.000000  1
  Co  Co15  1  0.821418  0.626770  0.000000  1
  Co  Co16  1  0.373230  0.194647  0.000000  1
  Co  Co17  1  0.178582  0.805353  0.000000  1
  Co  Co18  1  0.626770  0.821418  0.000000  1
  Co  Co19  1  0.194647  0.373230  0.000000  1
  Co  Co20  1  0.277270  0.277270  0.500000  1
  Co  Co21  1  0.722730  0.000000  0.500000  1
  Co  Co22  1  0.000000  0.722730  0.500000  1
  Co  Co23  1  0.000000  0.000000  0.000000  1
  P  P24  1  0.693654  0.172096  0.500000  1
  P  P25  1  0.827904  0.521558  0.500000  1
  P  P26  1  0.478442  0.306346  0.500000  1
  P  P27  1  0.172096  0.693654  0.500000  1
  P  P28  1  0.521558  0.827904  0.500000  1
  P  P29  1  0.306346  0.478442  0.500000  1
  P  P30  1  0.178439  0.178439  0.000000  1
  P  P31  1  0.821561  0.000000  0.000000  1
  P  P32  1  0.000000  0.821561  0.000000  1
  P  P33  1  0.648828  0.648828  0.000000  1
  P  P34  1  0.351172  0.000000  0.000000  1
  P  P35  1  0.000000  0.351172  0.000000  1
