# generated using pymatgen
data_Pr5IrRu
_symmetry_space_group_name_H-M   'P 1'
_cell_length_a   9.05208820
_cell_length_b   9.05208732
_cell_length_c   7.40675551
_cell_angle_alpha   83.75310251
_cell_angle_beta   83.75310571
_cell_angle_gamma   43.21417560
_symmetry_Int_Tables_number   1
_chemical_formula_structural   Pr5IrRu
_chemical_formula_sum   'Pr10 Ir2 Ru2'
_cell_volume   412.71312395
_cell_formula_units_Z   2
loop_
 _symmetry_equiv_pos_site_id
 _symmetry_equiv_pos_as_xyz
  1  'x, y, z'
loop_
 _atom_site_type_symbol
 _atom_site_label
 _atom_site_symmetry_multiplicity
 _atom_site_fract_x
 _atom_site_fract_y
 _atom_site_fract_z
 _atom_site_occupancy
  Pr  Pr0  1  0.013489  0.801044  0.917570  1
  Pr  Pr1  1  0.198956  0.986511  0.582430  1
  Pr  Pr2  1  0.982219  0.202561  0.085966  1
  Pr  Pr3  1  0.797439  0.017781  0.414034  1
  Pr  Pr4  1  0.359053  0.209413  0.816234  1
  Pr  Pr5  1  0.790587  0.640947  0.683766  1
  Pr  Pr6  1  0.644589  0.789638  0.185609  1
  Pr  Pr7  1  0.210362  0.355411  0.314391  1
  Pr  Pr8  1  0.570545  0.429455  0.750000  1
  Pr  Pr9  1  0.429133  0.570867  0.250000  1
  Ir  Ir10  1  0.178688  0.596950  0.575627  1
  Ir  Ir11  1  0.403050  0.821312  0.924373  1
  Ru  Ru12  1  0.822742  0.400852  0.426677  1
  Ru  Ru13  1  0.599148  0.177258  0.073323  1
