# generated using pymatgen
data_LiPdBr7
_symmetry_space_group_name_H-M   'P 1'
_cell_length_a   7.71418745
_cell_length_b   7.79512571
_cell_length_c   8.47895063
_cell_angle_alpha   49.07636646
_cell_angle_beta   63.59275015
_cell_angle_gamma   77.70740280
_symmetry_Int_Tables_number   1
_chemical_formula_structural   LiPdBr7
_chemical_formula_sum   'Li1 Pd1 Br7'
_cell_volume   342.72239858
_cell_formula_units_Z   1
loop_
 _symmetry_equiv_pos_site_id
 _symmetry_equiv_pos_as_xyz
  1  'x, y, z'
loop_
 _atom_site_type_symbol
 _atom_site_label
 _atom_site_symmetry_multiplicity
 _atom_site_fract_x
 _atom_site_fract_y
 _atom_site_fract_z
 _atom_site_occupancy
  Li  Li0  1  0.021619  0.430634  0.391062  1
  Pd  Pd1  1  0.071591  0.872420  0.824854  1
  Br  Br2  1  0.812281  0.125564  0.821389  1
  Br  Br3  1  0.833368  0.520250  0.163996  1
  Br  Br4  1  0.139889  0.861768  0.091910  1
  Br  Br5  1  0.323645  0.597847  0.833657  1
  Br  Br6  1  0.662868  0.753178  0.694734  1
  Br  Br7  1  0.018462  0.889252  0.538815  1
  Br  Br8  1  0.313020  0.220573  0.483153  1
