# generated using pymatgen
data_Tm2Co6P6Ru3Rh
_symmetry_space_group_name_H-M   'P 1'
_cell_length_a   3.73555500
_cell_length_b   10.47072900
_cell_length_c   11.91956700
_cell_angle_alpha   90.00000000
_cell_angle_beta   90.00000000
_cell_angle_gamma   90.00000000
_symmetry_Int_Tables_number   1
_chemical_formula_structural   Tm2Co6P6Ru3Rh
_chemical_formula_sum   'Tm4 Co12 P12 Ru6 Rh2'
_cell_volume   466.22175375
_cell_formula_units_Z   2
loop_
 _symmetry_equiv_pos_site_id
 _symmetry_equiv_pos_as_xyz
  1  'x, y, z'
loop_
 _atom_site_type_symbol
 _atom_site_label
 _atom_site_symmetry_multiplicity
 _atom_site_fract_x
 _atom_site_fract_y
 _atom_site_fract_z
 _atom_site_occupancy
  Tm  Tm0  1  0.250000  0.585573  0.709877  1
  Tm  Tm1  1  0.250000  0.914427  0.209877  1
  Tm  Tm2  1  0.750000  0.414090  0.290586  1
  Tm  Tm3  1  0.750000  0.085910  0.790586  1
  Co  Co4  1  0.250000  0.225074  0.178916  1
  Co  Co5  1  0.250000  0.274926  0.678916  1
  Co  Co6  1  0.750000  0.775883  0.821177  1
  Co  Co7  1  0.750000  0.724117  0.321177  1
  Co  Co8  1  0.250000  0.884261  0.699013  1
  Co  Co9  1  0.250000  0.615739  0.199013  1
  Co  Co10  1  0.750000  0.115508  0.299729  1
  Co  Co11  1  0.750000  0.384492  0.799729  1
  Co  Co12  1  0.250000  0.462883  0.931394  1
  Co  Co13  1  0.250000  0.037117  0.431394  1
  Co  Co14  1  0.750000  0.536887  0.067240  1
  Co  Co15  1  0.750000  0.963113  0.567240  1
  P  P16  1  0.250000  0.422426  0.112257  1
  P  P17  1  0.250000  0.077574  0.612257  1
  P  P18  1  0.750000  0.577903  0.887152  1
  P  P19  1  0.750000  0.922097  0.387152  1
  P  P20  1  0.250000  0.271548  0.865050  1
  P  P21  1  0.250000  0.228452  0.365050  1
  P  P22  1  0.750000  0.725574  0.136854  1
  P  P23  1  0.750000  0.774426  0.636854  1
  P  P24  1  0.250000  0.600631  0.382516  1
  P  P25  1  0.250000  0.899369  0.882516  1
  P  P26  1  0.750000  0.396417  0.615789  1
  P  P27  1  0.750000  0.103583  0.115789  1
  Ru  Ru28  1  0.250000  0.709204  0.984650  1
  Ru  Ru29  1  0.250000  0.790796  0.484650  1
  Ru  Ru30  1  0.750000  0.291902  0.014338  1
  Ru  Ru31  1  0.750000  0.208098  0.514338  1
  Ru  Ru32  1  0.250000  0.405193  0.485404  1
  Ru  Ru33  1  0.250000  0.094807  0.985404  1
  Rh  Rh34  1  0.750000  0.596657  0.518057  1
  Rh  Rh35  1  0.750000  0.903343  0.018057  1
