# generated using pymatgen
data_CaErSi4Tc3
_symmetry_space_group_name_H-M   'P 1'
_cell_length_a   6.81867300
_cell_length_b   6.66087836
_cell_length_c   6.80395884
_cell_angle_alpha   70.44667763
_cell_angle_beta   90.00000000
_cell_angle_gamma   90.00000000
_symmetry_Int_Tables_number   1
_chemical_formula_structural   CaErSi4Tc3
_chemical_formula_sum   'Ca2 Er2 Si8 Tc6'
_cell_volume   291.20327668
_cell_formula_units_Z   2
loop_
 _symmetry_equiv_pos_site_id
 _symmetry_equiv_pos_as_xyz
  1  'x, y, z'
loop_
 _atom_site_type_symbol
 _atom_site_label
 _atom_site_symmetry_multiplicity
 _atom_site_fract_x
 _atom_site_fract_y
 _atom_site_fract_z
 _atom_site_occupancy
  Ca  Ca0  1  0.667178  0.443144  0.186784  1
  Ca  Ca1  1  0.167178  0.056856  0.813216  1
  Er  Er2  1  0.331478  0.558503  0.807107  1
  Er  Er3  1  0.831478  0.941497  0.192893  1
  Si  Si4  1  0.452143  0.119771  0.103814  1
  Si  Si5  1  0.952143  0.380229  0.896186  1
  Si  Si6  1  0.546866  0.879427  0.897233  1
  Si  Si7  1  0.046866  0.620573  0.102767  1
  Si  Si8  1  0.860529  0.134379  0.510016  1
  Si  Si9  1  0.360529  0.365621  0.489984  1
  Si  Si10  1  0.139711  0.869125  0.490201  1
  Si  Si11  1  0.639711  0.630875  0.509799  1
  Tc  Tc12  1  0.502477  0.997474  0.498598  1
  Tc  Tc13  1  0.002477  0.502526  0.501402  1
  Tc  Tc14  1  0.156925  0.244462  0.237332  1
  Tc  Tc15  1  0.656925  0.255538  0.762668  1
  Tc  Tc16  1  0.842693  0.757611  0.761558  1
  Tc  Tc17  1  0.342693  0.742389  0.238442  1
