# generated using pymatgen
data_Ba2AuBrF14
_symmetry_space_group_name_H-M   'P 1'
_cell_length_a   4.90418987
_cell_length_b   7.73606845
_cell_length_c   7.98451600
_cell_angle_alpha   106.51113005
_cell_angle_beta   100.93380375
_cell_angle_gamma   90.93904700
_symmetry_Int_Tables_number   1
_chemical_formula_structural   Ba2AuBrF14
_chemical_formula_sum   'Ba2 Au1 Br1 F14'
_cell_volume   284.36603342
_cell_formula_units_Z   1
loop_
 _symmetry_equiv_pos_site_id
 _symmetry_equiv_pos_as_xyz
  1  'x, y, z'
loop_
 _atom_site_type_symbol
 _atom_site_label
 _atom_site_symmetry_multiplicity
 _atom_site_fract_x
 _atom_site_fract_y
 _atom_site_fract_z
 _atom_site_occupancy
  Ba  Ba0  1  0.179560  0.341896  0.789406  1
  Ba  Ba1  1  0.823596  0.658304  0.210863  1
  Au  Au2  1  0.349432  0.187053  0.293158  1
  Br  Br3  1  0.650267  0.813866  0.708311  1
  F  F4  1  0.116706  0.181152  0.064523  1
  F  F5  1  0.427952  0.796613  0.478983  1
  F  F6  1  0.574152  0.202779  0.528135  1
  F  F7  1  0.504410  0.032376  0.814676  1
  F  F8  1  0.491124  0.958977  0.179739  1
  F  F9  1  0.366142  0.681884  0.759367  1
  F  F10  1  0.877378  0.816499  0.928930  1
  F  F11  1  0.283237  0.579067  0.098393  1
  F  F12  1  0.060074  0.054401  0.355190  1
  F  F13  1  0.199130  0.411347  0.412325  1
  F  F14  1  0.718864  0.420082  0.900379  1
  F  F15  1  0.804157  0.597103  0.591025  1
  F  F16  1  0.642867  0.317594  0.234896  1
  F  F17  1  0.930950  0.949008  0.651698  1
