# generated using pymatgen
data_Nb8Si6BW2
_symmetry_space_group_name_H-M   'P 1'
_cell_length_a   7.56275300
_cell_length_b   7.56275256
_cell_length_c   5.27034400
_cell_angle_alpha   90.00000000
_cell_angle_beta   90.00000000
_cell_angle_gamma   119.99999755
_symmetry_Int_Tables_number   1
_chemical_formula_structural   Nb8Si6BW2
_chemical_formula_sum   'Nb8 Si6 B1 W2'
_cell_volume   261.05343557
_cell_formula_units_Z   1
loop_
 _symmetry_equiv_pos_site_id
 _symmetry_equiv_pos_as_xyz
  1  'x, y, z'
loop_
 _atom_site_type_symbol
 _atom_site_label
 _atom_site_symmetry_multiplicity
 _atom_site_fract_x
 _atom_site_fract_y
 _atom_site_fract_z
 _atom_site_occupancy
  Nb  Nb0  1  0.000000  0.753240  0.253103  1
  Nb  Nb1  1  0.246760  0.246760  0.253103  1
  Nb  Nb2  1  0.753240  0.000000  0.253103  1
  Nb  Nb3  1  0.000000  0.246760  0.746897  1
  Nb  Nb4  1  0.753240  0.753240  0.746897  1
  Nb  Nb5  1  0.246760  0.000000  0.746897  1
  Nb  Nb6  1  0.333333  0.666667  0.500000  1
  Nb  Nb7  1  0.666667  0.333333  0.500000  1
  Si  Si8  1  0.000000  0.397562  0.232552  1
  Si  Si9  1  0.602438  0.602438  0.232552  1
  Si  Si10  1  0.397562  0.000000  0.232552  1
  Si  Si11  1  0.000000  0.602438  0.767448  1
  Si  Si12  1  0.397562  0.397562  0.767448  1
  Si  Si13  1  0.602438  0.000000  0.767448  1
  B  B14  1  0.000000  0.000000  0.500000  1
  W  W15  1  0.666667  0.333333  0.000000  1
  W  W16  1  0.333333  0.666667  0.000000  1
