# generated using pymatgen
data_SmGd2CBr5
_symmetry_space_group_name_H-M   'P 1'
_cell_length_a   7.42433235
_cell_length_b   8.95674915
_cell_length_c   9.09488400
_cell_angle_alpha   107.12677695
_cell_angle_beta   96.25819157
_cell_angle_gamma   104.72313689
_symmetry_Int_Tables_number   1
_chemical_formula_structural   SmGd2CBr5
_chemical_formula_sum   'Sm2 Gd4 C2 Br10'
_cell_volume   547.82331079
_cell_formula_units_Z   2
loop_
 _symmetry_equiv_pos_site_id
 _symmetry_equiv_pos_as_xyz
  1  'x, y, z'
loop_
 _atom_site_type_symbol
 _atom_site_label
 _atom_site_symmetry_multiplicity
 _atom_site_fract_x
 _atom_site_fract_y
 _atom_site_fract_z
 _atom_site_occupancy
  Sm  Sm0  1  0.886313  0.955605  0.230416  1
  Sm  Sm1  1  0.113687  0.044395  0.769584  1
  Gd  Gd2  1  0.029854  0.723243  0.918333  1
  Gd  Gd3  1  0.970146  0.276757  0.081667  1
  Gd  Gd4  1  0.614382  0.856734  0.808321  1
  Gd  Gd5  1  0.385618  0.143266  0.191679  1
  C  C6  1  0.906013  0.967868  0.955279  1
  C  C7  1  0.093987  0.032132  0.044721  1
  Br  Br8  1  0.750358  0.916770  0.539856  1
  Br  Br9  1  0.249642  0.083230  0.460144  1
  Br  Br10  1  0.456082  0.814081  0.088097  1
  Br  Br11  1  0.543918  0.185919  0.911903  1
  Br  Br12  1  0.806038  0.265529  0.352483  1
  Br  Br13  1  0.193962  0.734471  0.647517  1
  Br  Br14  1  0.910585  0.626092  0.174943  1
  Br  Br15  1  0.089415  0.373908  0.825057  1
  Br  Br16  1  0.660651  0.543775  0.725527  1
  Br  Br17  1  0.339349  0.456225  0.274473  1
