# generated using pymatgen
data_Tm12Co4OsPb
_symmetry_space_group_name_H-M   'P 1'
_cell_length_a   8.19747540
_cell_length_b   8.19750985
_cell_length_c   8.19747419
_cell_angle_alpha   110.62332936
_cell_angle_beta   111.73740361
_cell_angle_gamma   106.10636008
_symmetry_Int_Tables_number   1
_chemical_formula_structural   Tm12Co4OsPb
_chemical_formula_sum   'Tm12 Co4 Os1 Pb1'
_cell_volume   422.92273722
_cell_formula_units_Z   1
loop_
 _symmetry_equiv_pos_site_id
 _symmetry_equiv_pos_as_xyz
  1  'x, y, z'
loop_
 _atom_site_type_symbol
 _atom_site_label
 _atom_site_symmetry_multiplicity
 _atom_site_fract_x
 _atom_site_fract_y
 _atom_site_fract_z
 _atom_site_occupancy
  Tm  Tm0  1  0.279814  0.181700  0.461513  1
  Tm  Tm1  1  0.720186  0.818300  0.538487  1
  Tm  Tm2  1  0.279814  0.818300  0.098113  1
  Tm  Tm3  1  0.720186  0.181700  0.901887  1
  Tm  Tm4  1  0.619979  0.312602  0.307377  1
  Tm  Tm5  1  0.380021  0.687398  0.692623  1
  Tm  Tm6  1  0.005225  0.312602  0.692623  1
  Tm  Tm7  1  0.994775  0.687398  0.307377  1
  Tm  Tm8  1  0.218110  0.413708  0.195601  1
  Tm  Tm9  1  0.781890  0.586292  0.804399  1
  Tm  Tm10  1  0.218110  0.022511  0.804401  1
  Tm  Tm11  1  0.781890  0.977489  0.195599  1
  Co  Co12  1  0.999999  0.376939  0.376940  1
  Co  Co13  1  0.000001  0.623061  0.623060  1
  Co  Co14  1  0.388476  0.888476  0.500000  1
  Co  Co15  1  0.611524  0.111524  0.500000  1
  Os  Os16  1  0.000000  0.000000  0.000000  1
  Pb  Pb17  1  0.500000  0.500000  0.000000  1
