# generated using pymatgen
data_LiCdP7Ru12
_symmetry_space_group_name_H-M   'P 1'
_cell_length_a   9.43777300
_cell_length_b   9.43777197
_cell_length_c   3.86898500
_cell_angle_alpha   90.00000000
_cell_angle_beta   90.00000000
_cell_angle_gamma   120.00000337
_symmetry_Int_Tables_number   1
_chemical_formula_structural   LiCdP7Ru12
_chemical_formula_sum   'Li1 Cd1 P7 Ru12'
_cell_volume   298.44662365
_cell_formula_units_Z   1
loop_
 _symmetry_equiv_pos_site_id
 _symmetry_equiv_pos_as_xyz
  1  'x, y, z'
loop_
 _atom_site_type_symbol
 _atom_site_label
 _atom_site_symmetry_multiplicity
 _atom_site_fract_x
 _atom_site_fract_y
 _atom_site_fract_z
 _atom_site_occupancy
  Li  Li0  1  0.000000  0.000000  0.000000  1
  Cd  Cd1  1  0.333333  0.666667  0.500000  1
  P  P2  1  0.666667  0.333333  0.000000  1
  P  P3  1  0.065876  0.644396  0.000000  1
  P  P4  1  0.578521  0.934124  0.000000  1
  P  P5  1  0.355604  0.421479  0.000000  1
  P  P6  1  0.772478  0.730317  0.500000  1
  P  P7  1  0.957840  0.227522  0.500000  1
  P  P8  1  0.269683  0.042160  0.500000  1
  Ru  Ru9  1  0.113140  0.426945  0.000000  1
  Ru  Ru10  1  0.313804  0.886860  0.000000  1
  Ru  Ru11  1  0.573055  0.686196  0.000000  1
  Ru  Ru12  1  0.808367  0.608339  0.000000  1
  Ru  Ru13  1  0.799973  0.191633  0.000000  1
  Ru  Ru14  1  0.391661  0.200027  0.000000  1
  Ru  Ru15  1  0.051746  0.782071  0.500000  1
  Ru  Ru16  1  0.730325  0.948254  0.500000  1
  Ru  Ru17  1  0.217929  0.269675  0.500000  1
  Ru  Ru18  1  0.877970  0.429638  0.500000  1
  Ru  Ru19  1  0.551668  0.122030  0.500000  1
  Ru  Ru20  1  0.570362  0.448332  0.500000  1
