# generated using pymatgen
data_Yb3Ho2(Ni2Sn5)2
_symmetry_space_group_name_H-M   'P 1'
_cell_length_a   13.95316600
_cell_length_b   13.95316600
_cell_length_c   4.45218900
_cell_angle_alpha   90.00000000
_cell_angle_beta   90.00000000
_cell_angle_gamma   90.00000000
_symmetry_Int_Tables_number   1
_chemical_formula_structural   Yb3Ho2(Ni2Sn5)2
_chemical_formula_sum   'Yb6 Ho4 Ni8 Sn20'
_cell_volume   866.80042259
_cell_formula_units_Z   2
loop_
 _symmetry_equiv_pos_site_id
 _symmetry_equiv_pos_as_xyz
  1  'x, y, z'
loop_
 _atom_site_type_symbol
 _atom_site_label
 _atom_site_symmetry_multiplicity
 _atom_site_fract_x
 _atom_site_fract_y
 _atom_site_fract_z
 _atom_site_occupancy
  Yb  Yb0  1  0.000000  0.000000  0.000000  1
  Yb  Yb1  1  0.500000  0.500000  0.000000  1
  Yb  Yb2  1  0.892961  0.607039  0.500000  1
  Yb  Yb3  1  0.107039  0.392961  0.500000  1
  Yb  Yb4  1  0.392961  0.892961  0.500000  1
  Yb  Yb5  1  0.607039  0.107039  0.500000  1
  Ho  Ho6  1  0.180624  0.680624  0.500000  1
  Ho  Ho7  1  0.819376  0.319376  0.500000  1
  Ho  Ho8  1  0.680624  0.819376  0.500000  1
  Ho  Ho9  1  0.319376  0.180624  0.500000  1
  Ni  Ni10  1  0.254542  0.536865  0.000000  1
  Ni  Ni11  1  0.745458  0.463135  0.000000  1
  Ni  Ni12  1  0.754542  0.963135  0.000000  1
  Ni  Ni13  1  0.245458  0.036865  0.000000  1
  Ni  Ni14  1  0.463135  0.254542  0.000000  1
  Ni  Ni15  1  0.536865  0.745458  0.000000  1
  Ni  Ni16  1  0.036865  0.754542  0.000000  1
  Ni  Ni17  1  0.963135  0.245458  0.000000  1
  Sn  Sn18  1  0.353552  0.701242  0.000000  1
  Sn  Sn19  1  0.646448  0.298758  0.000000  1
  Sn  Sn20  1  0.853552  0.798758  0.000000  1
  Sn  Sn21  1  0.146448  0.201242  0.000000  1
  Sn  Sn22  1  0.298758  0.353552  0.000000  1
  Sn  Sn23  1  0.701242  0.646448  0.000000  1
  Sn  Sn24  1  0.201242  0.853552  0.000000  1
  Sn  Sn25  1  0.798758  0.146448  0.000000  1
  Sn  Sn26  1  0.337572  0.514002  0.500000  1
  Sn  Sn27  1  0.662428  0.485998  0.500000  1
  Sn  Sn28  1  0.837572  0.985998  0.500000  1
  Sn  Sn29  1  0.162428  0.014002  0.500000  1
  Sn  Sn30  1  0.485998  0.337572  0.500000  1
  Sn  Sn31  1  0.514002  0.662428  0.500000  1
  Sn  Sn32  1  0.014002  0.837572  0.500000  1
  Sn  Sn33  1  0.985998  0.162428  0.500000  1
  Sn  Sn34  1  0.071586  0.571586  0.000000  1
  Sn  Sn35  1  0.928414  0.428414  0.000000  1
  Sn  Sn36  1  0.571586  0.928414  0.000000  1
  Sn  Sn37  1  0.428414  0.071586  0.000000  1
