# generated using pymatgen
data_Tb3ErAl4PtRh3
_symmetry_space_group_name_H-M   'P 1'
_cell_length_a   4.27915200
_cell_length_b   6.87810780
_cell_length_c   7.94168805
_cell_angle_alpha   90.09171311
_cell_angle_beta   90.00000000
_cell_angle_gamma   90.00000000
_symmetry_Int_Tables_number   1
_chemical_formula_structural   Tb3ErAl4PtRh3
_chemical_formula_sum   'Tb3 Er1 Al4 Pt1 Rh3'
_cell_volume   233.74318603
_cell_formula_units_Z   1
loop_
 _symmetry_equiv_pos_site_id
 _symmetry_equiv_pos_as_xyz
  1  'x, y, z'
loop_
 _atom_site_type_symbol
 _atom_site_label
 _atom_site_symmetry_multiplicity
 _atom_site_fract_x
 _atom_site_fract_y
 _atom_site_fract_z
 _atom_site_occupancy
  Tb  Tb0  1  0.250000  0.466193  0.182155  1
  Tb  Tb1  1  0.750000  0.537640  0.819178  1
  Tb  Tb2  1  0.250000  0.965273  0.321474  1
  Er  Er3  1  0.750000  0.033697  0.678004  1
  Al  Al4  1  0.250000  0.861744  0.938544  1
  Al  Al5  1  0.750000  0.134570  0.062192  1
  Al  Al6  1  0.750000  0.636724  0.439904  1
  Al  Al7  1  0.250000  0.364580  0.560800  1
  Pt  Pt8  1  0.250000  0.231433  0.876648  1
  Rh  Rh9  1  0.250000  0.738000  0.620015  1
  Rh  Rh10  1  0.750000  0.265446  0.381465  1
  Rh  Rh11  1  0.750000  0.764700  0.119623  1
