# generated using pymatgen
data_Ba6LaPr(TeO6)3
_symmetry_space_group_name_H-M   'P 1'
_cell_length_a   10.60824701
_cell_length_b   10.60829404
_cell_length_c   10.60829416
_cell_angle_alpha   146.60773023
_cell_angle_beta   131.72082982
_cell_angle_gamma   59.97199771
_symmetry_Int_Tables_number   1
_chemical_formula_structural   Ba6LaPr(TeO6)3
_chemical_formula_sum   'Ba6 La1 Pr1 Te3 O18'
_cell_volume   485.95714061
_cell_formula_units_Z   1
loop_
 _symmetry_equiv_pos_site_id
 _symmetry_equiv_pos_as_xyz
  1  'x, y, z'
loop_
 _atom_site_type_symbol
 _atom_site_label
 _atom_site_symmetry_multiplicity
 _atom_site_fract_x
 _atom_site_fract_y
 _atom_site_fract_z
 _atom_site_occupancy
  Ba  Ba0  1  0.781136  0.499961  0.281176  1
  Ba  Ba1  1  0.378837  0.149759  0.229078  1
  Ba  Ba2  1  0.079762  0.850175  0.229587  1
  Ba  Ba3  1  0.218787  0.499962  0.718825  1
  Ba  Ba4  1  0.920685  0.149756  0.770928  1
  Ba  Ba5  1  0.620587  0.850174  0.770413  1
  La  La6  1  0.666911  0.666907  0.000004  1
  Pr  Pr7  1  0.333005  0.333005  0.000000  1
  Te  Te8  1  0.499573  0.999573  0.500000  1
  Te  Te9  1  0.168722  0.668722  0.500000  1
  Te  Te10  1  0.831805  0.331806  0.499999  1
  O  O11  1  0.721325  0.999697  0.721628  1
  O  O12  1  0.395370  0.667332  0.728039  1
  O  O13  1  0.061717  0.333010  0.728707  1
  O  O14  1  0.576424  0.848720  0.272292  1
  O  O15  1  0.243115  0.513759  0.270641  1
  O  O16  1  0.906586  0.182490  0.275903  1
  O  O17  1  0.422874  0.694681  0.271807  1
  O  O18  1  0.093798  0.369784  0.275985  1
  O  O19  1  0.757256  0.028571  0.271310  1
  O  O20  1  0.278073  0.999697  0.278376  1
  O  O21  1  0.939293  0.667335  0.271959  1
  O  O22  1  0.604304  0.333011  0.271292  1
  O  O23  1  0.422874  0.151066  0.728193  1
  O  O24  1  0.093798  0.817814  0.724014  1
  O  O25  1  0.757256  0.485946  0.728686  1
  O  O26  1  0.576424  0.304132  0.727705  1
  O  O27  1  0.243115  0.972472  0.729356  1
  O  O28  1  0.906586  0.630684  0.724095  1
