# generated using pymatgen
data_Dy3HoScIr3
_symmetry_space_group_name_H-M   'P 1'
_cell_length_a   10.77706000
_cell_length_b   10.77207100
_cell_length_c   6.27140400
_cell_angle_alpha   90.00000000
_cell_angle_beta   90.00000000
_cell_angle_gamma   90.00000000
_symmetry_Int_Tables_number   1
_chemical_formula_structural   Dy3HoScIr3
_chemical_formula_sum   'Dy12 Ho4 Sc4 Ir12'
_cell_volume   728.05516405
_cell_formula_units_Z   4
loop_
 _symmetry_equiv_pos_site_id
 _symmetry_equiv_pos_as_xyz
  1  'x, y, z'
loop_
 _atom_site_type_symbol
 _atom_site_label
 _atom_site_symmetry_multiplicity
 _atom_site_fract_x
 _atom_site_fract_y
 _atom_site_fract_z
 _atom_site_occupancy
  Dy  Dy0  1  0.288066  0.086532  0.377285  1
  Dy  Dy1  1  0.288066  0.913468  0.877285  1
  Dy  Dy2  1  0.711934  0.086532  0.877285  1
  Dy  Dy3  1  0.711934  0.913468  0.377285  1
  Dy  Dy4  1  0.586488  0.788119  0.877388  1
  Dy  Dy5  1  0.586488  0.211881  0.377388  1
  Dy  Dy6  1  0.413512  0.788119  0.377388  1
  Dy  Dy7  1  0.413512  0.211881  0.877388  1
  Dy  Dy8  1  0.211702  0.413533  0.622653  1
  Dy  Dy9  1  0.211702  0.586467  0.122653  1
  Dy  Dy10  1  0.788298  0.413533  0.122653  1
  Dy  Dy11  1  0.788298  0.586467  0.622653  1
  Ho  Ho12  1  0.913730  0.711720  0.122441  1
  Ho  Ho13  1  0.913730  0.288280  0.622441  1
  Ho  Ho14  1  0.086270  0.711720  0.622441  1
  Ho  Ho15  1  0.086270  0.288280  0.122441  1
  Sc  Sc16  1  0.000000  0.000000  0.500064  1
  Sc  Sc17  1  0.000000  0.000000  0.000064  1
  Sc  Sc18  1  0.500000  0.500000  0.000088  1
  Sc  Sc19  1  0.500000  0.500000  0.500088  1
  Ir  Ir20  1  0.852267  0.148102  0.250209  1
  Ir  Ir21  1  0.852267  0.851898  0.750209  1
  Ir  Ir22  1  0.147733  0.148102  0.750209  1
  Ir  Ir23  1  0.147733  0.851898  0.250209  1
  Ir  Ir24  1  0.648083  0.352007  0.749943  1
  Ir  Ir25  1  0.648083  0.647993  0.249943  1
  Ir  Ir26  1  0.351917  0.352007  0.249943  1
  Ir  Ir27  1  0.351917  0.647993  0.749943  1
  Ir  Ir28  1  0.500000  0.000000  0.121990  1
  Ir  Ir29  1  0.500000  0.000000  0.621990  1
  Ir  Ir30  1  0.000000  0.500000  0.878020  1
  Ir  Ir31  1  0.000000  0.500000  0.378020  1
