# generated using pymatgen
data_TbYb3(Al3Ni)6
_symmetry_space_group_name_H-M   'P 1'
_cell_length_a   7.42781686
_cell_length_b   7.41932282
_cell_length_c   9.26004300
_cell_angle_alpha   90.00000000
_cell_angle_beta   90.00000000
_cell_angle_gamma   119.36838387
_symmetry_Int_Tables_number   1
_chemical_formula_structural   TbYb3(Al3Ni)6
_chemical_formula_sum   'Tb1 Yb3 Al18 Ni6'
_cell_volume   444.73177193
_cell_formula_units_Z   1
loop_
 _symmetry_equiv_pos_site_id
 _symmetry_equiv_pos_as_xyz
  1  'x, y, z'
loop_
 _atom_site_type_symbol
 _atom_site_label
 _atom_site_symmetry_multiplicity
 _atom_site_fract_x
 _atom_site_fract_y
 _atom_site_fract_z
 _atom_site_occupancy
  Tb  Tb0  1  0.329864  0.004289  0.750000  1
  Yb  Yb1  1  0.992859  0.670142  0.250000  1
  Yb  Yb2  1  0.005487  0.329903  0.750000  1
  Yb  Yb3  1  0.673364  0.995720  0.250000  1
  Al  Al4  1  0.126536  0.126897  0.250000  1
  Al  Al5  1  0.876342  0.874773  0.750000  1
  Al  Al6  1  0.998016  0.334942  0.072552  1
  Al  Al7  1  0.001266  0.664643  0.927676  1
  Al  Al8  1  0.001266  0.664643  0.572324  1
  Al  Al9  1  0.334847  0.996703  0.425672  1
  Al  Al10  1  0.998016  0.334942  0.427448  1
  Al  Al11  1  0.666644  0.002698  0.572400  1
  Al  Al12  1  0.666644  0.002698  0.927600  1
  Al  Al13  1  0.334847  0.996703  0.074328  1
  Al  Al14  1  0.331047  0.331009  0.547701  1
  Al  Al15  1  0.667627  0.667869  0.453344  1
  Al  Al16  1  0.667627  0.667869  0.046656  1
  Al  Al17  1  0.331047  0.331009  0.952299  1
  Al  Al18  1  0.340431  0.554427  0.250000  1
  Al  Al19  1  0.657596  0.447398  0.750000  1
  Al  Al20  1  0.550975  0.341039  0.250000  1
  Al  Al21  1  0.449251  0.661667  0.750000  1
  Ni  Ni22  1  0.670272  0.328711  0.000105  1
  Ni  Ni23  1  0.328918  0.670662  0.999285  1
  Ni  Ni24  1  0.328918  0.670662  0.500715  1
  Ni  Ni25  1  0.670272  0.328711  0.499895  1
  Ni  Ni26  1  0.000012  0.999635  0.000145  1
  Ni  Ni27  1  0.000012  0.999635  0.499855  1
