# generated using pymatgen
data_EuEr2PtO7
_symmetry_space_group_name_H-M   'P 1'
_cell_length_a   6.42302846
_cell_length_b   6.42302853
_cell_length_c   7.41792400
_cell_angle_alpha   90.00000000
_cell_angle_beta   90.00000000
_cell_angle_gamma   108.96542330
_symmetry_Int_Tables_number   1
_chemical_formula_structural   EuEr2PtO7
_chemical_formula_sum   'Eu2 Er4 Pt2 O14'
_cell_volume   289.41584053
_cell_formula_units_Z   2
loop_
 _symmetry_equiv_pos_site_id
 _symmetry_equiv_pos_as_xyz
  1  'x, y, z'
loop_
 _atom_site_type_symbol
 _atom_site_label
 _atom_site_symmetry_multiplicity
 _atom_site_fract_x
 _atom_site_fract_y
 _atom_site_fract_z
 _atom_site_occupancy
  Eu  Eu0  1  0.500000  0.500000  0.500000  1
  Eu  Eu1  1  0.500000  0.500000  0.000000  1
  Er  Er2  1  0.532738  0.999312  0.750000  1
  Er  Er3  1  0.999312  0.532738  0.250000  1
  Er  Er4  1  0.467262  0.000688  0.250000  1
  Er  Er5  1  0.000688  0.467262  0.750000  1
  Pt  Pt6  1  0.000000  0.000000  0.500000  1
  Pt  Pt7  1  0.000000  0.000000  0.000000  1
  O  O8  1  0.673150  0.926584  0.473068  1
  O  O9  1  0.926584  0.673150  0.526932  1
  O  O10  1  0.673150  0.926584  0.026932  1
  O  O11  1  0.926584  0.673150  0.973068  1
  O  O12  1  0.326850  0.073416  0.526932  1
  O  O13  1  0.073416  0.326850  0.473068  1
  O  O14  1  0.326850  0.073416  0.973068  1
  O  O15  1  0.073416  0.326850  0.026932  1
  O  O16  1  0.921899  0.078101  0.750000  1
  O  O17  1  0.078101  0.921899  0.250000  1
  O  O18  1  0.363594  0.636406  0.750000  1
  O  O19  1  0.636406  0.363594  0.250000  1
  O  O20  1  0.638151  0.361849  0.750000  1
  O  O21  1  0.361849  0.638151  0.250000  1
