# generated using pymatgen
data_Li3Er2TmSi2Ge
_symmetry_space_group_name_H-M   'P 1'
_cell_length_a   6.93016518
_cell_length_b   6.93016448
_cell_length_c   4.21727800
_cell_angle_alpha   90.00000000
_cell_angle_beta   90.00000000
_cell_angle_gamma   119.93317263
_symmetry_Int_Tables_number   1
_chemical_formula_structural   Li3Er2TmSi2Ge
_chemical_formula_sum   'Li3 Er2 Tm1 Si2 Ge1'
_cell_volume   175.52623985
_cell_formula_units_Z   1
loop_
 _symmetry_equiv_pos_site_id
 _symmetry_equiv_pos_as_xyz
  1  'x, y, z'
loop_
 _atom_site_type_symbol
 _atom_site_label
 _atom_site_symmetry_multiplicity
 _atom_site_fract_x
 _atom_site_fract_y
 _atom_site_fract_z
 _atom_site_occupancy
  Li  Li0  1  0.235130  0.000053  0.500000  1
  Li  Li1  1  0.000053  0.235130  0.500000  1
  Li  Li2  1  0.764842  0.764842  0.500000  1
  Er  Er3  1  0.572250  0.999995  0.000000  1
  Er  Er4  1  0.999995  0.572250  0.000000  1
  Tm  Tm5  1  0.427645  0.427645  0.000000  1
  Si  Si6  1  0.333448  0.666412  0.500000  1
  Si  Si7  1  0.666412  0.333448  0.500000  1
  Ge  Ge8  1  0.000225  0.000225  0.000000  1
