# generated using pymatgen
data_Tb4GaSi3Pd8
_symmetry_space_group_name_H-M   'P 1'
_cell_length_a   5.57659799
_cell_length_b   7.04347700
_cell_length_c   7.38712320
_cell_angle_alpha   90.00000000
_cell_angle_beta   89.55415567
_cell_angle_gamma   90.00000000
_symmetry_Int_Tables_number   1
_chemical_formula_structural   Tb4GaSi3Pd8
_chemical_formula_sum   'Tb4 Ga1 Si3 Pd8'
_cell_volume   290.14736596
_cell_formula_units_Z   1
loop_
 _symmetry_equiv_pos_site_id
 _symmetry_equiv_pos_as_xyz
  1  'x, y, z'
loop_
 _atom_site_type_symbol
 _atom_site_label
 _atom_site_symmetry_multiplicity
 _atom_site_fract_x
 _atom_site_fract_y
 _atom_site_fract_z
 _atom_site_occupancy
  Tb  Tb0  1  0.141629  0.750000  0.528465  1
  Tb  Tb1  1  0.858862  0.250000  0.472213  1
  Tb  Tb2  1  0.644033  0.250000  0.970389  1
  Tb  Tb3  1  0.354691  0.750000  0.029767  1
  Ga  Ga4  1  0.855598  0.750000  0.879430  1
  Si  Si5  1  0.142991  0.250000  0.122176  1
  Si  Si6  1  0.358029  0.250000  0.619835  1
  Si  Si7  1  0.641678  0.750000  0.377426  1
  Pd  Pd8  1  0.587469  0.549874  0.672886  1
  Pd  Pd9  1  0.404828  0.446837  0.321170  1
  Pd  Pd10  1  0.100864  0.444509  0.822723  1
  Pd  Pd11  1  0.404828  0.053163  0.321170  1
  Pd  Pd12  1  0.908083  0.549894  0.183371  1
  Pd  Pd13  1  0.587469  0.950126  0.672886  1
  Pd  Pd14  1  0.908083  0.950106  0.183371  1
  Pd  Pd15  1  0.100864  0.055491  0.822723  1
