# generated using pymatgen
data_Tb4Y(Hg2Pt)2
_symmetry_space_group_name_H-M   'P 1'
_cell_length_a   3.67826400
_cell_length_b   8.00113600
_cell_length_c   18.25837800
_cell_angle_alpha   90.00000000
_cell_angle_beta   90.00000000
_cell_angle_gamma   90.00000000
_symmetry_Int_Tables_number   1
_chemical_formula_structural   Tb4Y(Hg2Pt)2
_chemical_formula_sum   'Tb8 Y2 Hg8 Pt4'
_cell_volume   537.34936874
_cell_formula_units_Z   2
loop_
 _symmetry_equiv_pos_site_id
 _symmetry_equiv_pos_as_xyz
  1  'x, y, z'
loop_
 _atom_site_type_symbol
 _atom_site_label
 _atom_site_symmetry_multiplicity
 _atom_site_fract_x
 _atom_site_fract_y
 _atom_site_fract_z
 _atom_site_occupancy
  Tb  Tb0  1  0.000000  0.113128  0.413952  1
  Tb  Tb1  1  0.000000  0.886872  0.586048  1
  Tb  Tb2  1  0.000000  0.386872  0.913952  1
  Tb  Tb3  1  0.000000  0.613128  0.086048  1
  Tb  Tb4  1  0.000000  0.238987  0.217151  1
  Tb  Tb5  1  0.000000  0.761013  0.782849  1
  Tb  Tb6  1  0.000000  0.261013  0.717151  1
  Tb  Tb7  1  0.000000  0.738987  0.282849  1
  Y  Y8  1  0.000000  0.000000  0.000000  1
  Y  Y9  1  0.000000  0.500000  0.500000  1
  Hg  Hg10  1  0.500000  0.424952  0.355042  1
  Hg  Hg11  1  0.500000  0.575048  0.644958  1
  Hg  Hg12  1  0.500000  0.075048  0.855042  1
  Hg  Hg13  1  0.500000  0.924952  0.144958  1
  Hg  Hg14  1  0.500000  0.287355  0.063568  1
  Hg  Hg15  1  0.500000  0.712645  0.936432  1
  Hg  Hg16  1  0.500000  0.212645  0.563568  1
  Hg  Hg17  1  0.500000  0.787355  0.436432  1
  Pt  Pt18  1  0.500000  0.026047  0.303513  1
  Pt  Pt19  1  0.500000  0.973953  0.696487  1
  Pt  Pt20  1  0.500000  0.473953  0.803513  1
  Pt  Pt21  1  0.500000  0.526047  0.196487  1
