# generated using pymatgen
data_Ho2Pa2Ge6Ir4Rh3
_symmetry_space_group_name_H-M   'P 1'
_cell_length_a   7.29108502
_cell_length_b   7.29059114
_cell_length_c   7.32102002
_cell_angle_alpha   109.49759542
_cell_angle_beta   109.39253205
_cell_angle_gamma   109.34725889
_symmetry_Int_Tables_number   1
_chemical_formula_structural   Ho2Pa2Ge6Ir4Rh3
_chemical_formula_sum   'Ho2 Pa2 Ge6 Ir4 Rh3'
_cell_volume   300.22387892
_cell_formula_units_Z   1
loop_
 _symmetry_equiv_pos_site_id
 _symmetry_equiv_pos_as_xyz
  1  'x, y, z'
loop_
 _atom_site_type_symbol
 _atom_site_label
 _atom_site_symmetry_multiplicity
 _atom_site_fract_x
 _atom_site_fract_y
 _atom_site_fract_z
 _atom_site_occupancy
  Ho  Ho0  1  0.000077  0.500074  0.000059  1
  Ho  Ho1  1  0.499895  0.999859  0.999870  1
  Pa  Pa2  1  0.000003  0.000089  0.500100  1
  Pa  Pa3  1  0.500016  0.500068  0.500126  1
  Ge  Ge4  1  0.683524  0.683388  0.000196  1
  Ge  Ge5  1  0.317564  0.995313  0.312418  1
  Ge  Ge6  1  0.994743  0.317686  0.312870  1
  Ge  Ge7  1  0.316789  0.316656  0.000197  1
  Ge  Ge8  1  0.682858  0.005136  0.687537  1
  Ge  Ge9  1  0.004443  0.682021  0.686882  1
  Ir  Ir10  1  0.495644  0.250239  0.745844  1
  Ir  Ir11  1  0.249989  0.495726  0.745713  1
  Ir  Ir12  1  0.249794  0.749844  0.500113  1
  Ir  Ir13  1  0.504435  0.749465  0.253885  1
  Rh  Rh14  1  0.750259  0.250313  0.500159  1
  Rh  Rh15  1  0.749936  0.504013  0.253922  1
  Rh  Rh16  1  0.000033  0.000110  0.000109  1
