# generated using pymatgen
data_Ti17V(Si8Mo)2
_symmetry_space_group_name_H-M   'P 1'
_cell_length_a   6.66161396
_cell_length_b   6.66161411
_cell_length_c   12.16474046
_cell_angle_alpha   89.91551483
_cell_angle_beta   90.08448291
_cell_angle_gamma   89.96368626
_symmetry_Int_Tables_number   1
_chemical_formula_structural   Ti17V(Si8Mo)2
_chemical_formula_sum   'Ti17 V1 Si16 Mo2'
_cell_volume   539.83463950
_cell_formula_units_Z   1
loop_
 _symmetry_equiv_pos_site_id
 _symmetry_equiv_pos_as_xyz
  1  'x, y, z'
loop_
 _atom_site_type_symbol
 _atom_site_label
 _atom_site_symmetry_multiplicity
 _atom_site_fract_x
 _atom_site_fract_y
 _atom_site_fract_z
 _atom_site_occupancy
  Ti  Ti0  1  0.996302  0.149459  0.622358  1
  Ti  Ti1  1  0.351021  0.494704  0.872260  1
  Ti  Ti2  1  0.648521  0.505262  0.371704  1
  Ti  Ti3  1  0.494704  0.351021  0.127740  1
  Ti  Ti4  1  0.505262  0.648521  0.628296  1
  Ti  Ti5  1  0.005552  0.851067  0.120297  1
  Ti  Ti6  1  0.149459  0.996302  0.377642  1
  Ti  Ti7  1  0.851067  0.005552  0.879703  1
  Ti  Ti8  1  0.001733  0.342794  0.220810  1
  Ti  Ti9  1  0.156455  0.502090  0.470560  1
  Ti  Ti10  1  0.841938  0.497743  0.971551  1
  Ti  Ti11  1  0.502090  0.156455  0.529440  1
  Ti  Ti12  1  0.497743  0.841938  0.028449  1
  Ti  Ti13  1  0.998649  0.658017  0.720767  1
  Ti  Ti14  1  0.342794  0.001733  0.779190  1
  Ti  Ti15  1  0.658017  0.998649  0.279233  1
  Ti  Ti16  1  0.829634  0.829634  0.500000  1
  V  V17  1  0.170584  0.170584  0.000000  1
  Si  Si18  1  0.045113  0.300829  0.816075  1
  Si  Si19  1  0.196624  0.540606  0.063065  1
  Si  Si20  1  0.802375  0.455779  0.563994  1
  Si  Si21  1  0.540606  0.196624  0.936935  1
  Si  Si22  1  0.455779  0.802375  0.436006  1
  Si  Si23  1  0.956330  0.698682  0.314256  1
  Si  Si24  1  0.300829  0.045113  0.183925  1
  Si  Si25  1  0.698682  0.956330  0.685744  1
  Si  Si26  1  0.293815  0.358522  0.672616  1
  Si  Si27  1  0.142950  0.796295  0.922962  1
  Si  Si28  1  0.857603  0.205453  0.423676  1
  Si  Si29  1  0.796295  0.142950  0.077038  1
  Si  Si30  1  0.205453  0.857603  0.576324  1
  Si  Si31  1  0.706094  0.641881  0.172647  1
  Si  Si32  1  0.358522  0.293815  0.327384  1
  Si  Si33  1  0.641881  0.706094  0.827353  1
  Mo  Mo34  1  0.328298  0.671228  0.249261  1
  Mo  Mo35  1  0.671228  0.328298  0.750739  1
