# generated using pymatgen
data_CsPrSm9(C2Br9)2
_symmetry_space_group_name_H-M   'P 1'
_cell_length_a   10.88730892
_cell_length_b   10.96600772
_cell_length_c   11.13092460
_cell_angle_alpha   112.97049491
_cell_angle_beta   87.84799935
_cell_angle_gamma   118.60731404
_symmetry_Int_Tables_number   1
_chemical_formula_structural   CsPrSm9(C2Br9)2
_chemical_formula_sum   'Cs1 Pr1 Sm9 C4 Br18'
_cell_volume   1055.69600900
_cell_formula_units_Z   1
loop_
 _symmetry_equiv_pos_site_id
 _symmetry_equiv_pos_as_xyz
  1  'x, y, z'
loop_
 _atom_site_type_symbol
 _atom_site_label
 _atom_site_symmetry_multiplicity
 _atom_site_fract_x
 _atom_site_fract_y
 _atom_site_fract_z
 _atom_site_occupancy
  Cs  Cs0  1  0.499983  0.999921  0.500095  1
  Pr  Pr1  1  0.883142  0.059164  0.999045  1
  Sm  Sm2  1  0.657069  0.714674  0.698910  1
  Sm  Sm3  1  0.282112  0.366911  0.014081  1
  Sm  Sm4  1  0.093057  0.411666  0.304096  1
  Sm  Sm5  1  0.962519  0.038091  0.334075  1
  Sm  Sm6  1  0.907458  0.587459  0.695472  1
  Sm  Sm7  1  0.114005  0.941696  0.001004  1
  Sm  Sm8  1  0.038089  0.961606  0.665905  1
  Sm  Sm9  1  0.344120  0.285520  0.301494  1
  Sm  Sm10  1  0.718416  0.632782  0.985909  1
  C  C11  1  0.159086  0.230981  0.128530  1
  C  C12  1  0.843218  0.767869  0.871454  1
  C  C13  1  0.919002  0.845248  0.793472  1
  C  C14  1  0.083153  0.153581  0.206513  1
  Br  Br15  1  0.451526  0.530708  0.831841  1
  Br  Br16  1  0.384283  0.037381  0.161184  1
  Br  Br17  1  0.774271  0.857437  0.502059  1
  Br  Br18  1  0.836053  0.318371  0.158835  1
  Br  Br19  1  0.548837  0.469553  0.168168  1
  Br  Br20  1  0.225939  0.142515  0.498144  1
  Br  Br21  1  0.312288  0.099124  0.832700  1
  Br  Br22  1  0.686211  0.899048  0.169248  1
  Br  Br23  1  0.978205  0.763473  0.171721  1
  Br  Br24  1  0.930667  0.300411  0.500169  1
  Br  Br25  1  0.024066  0.238280  0.826401  1
  Br  Br26  1  0.069528  0.699416  0.499625  1
  Br  Br27  1  0.262291  0.626483  0.190165  1
  Br  Br28  1  0.737515  0.373066  0.809692  1
  Br  Br29  1  0.637361  0.431006  0.498818  1
  Br  Br30  1  0.163844  0.687951  0.845455  1
  Br  Br31  1  0.610068  0.959666  0.834524  1
  Br  Br32  1  0.362615  0.568943  0.501194  1
