# generated using pymatgen
data_Yb2Cd3Rh2
_symmetry_space_group_name_H-M   'P 1'
_cell_length_a   5.38205704
_cell_length_b   5.38205667
_cell_length_c   7.33283039
_cell_angle_alpha   109.36754348
_cell_angle_beta   109.36753961
_cell_angle_gamma   49.56735483
_symmetry_Int_Tables_number   1
_chemical_formula_structural   Yb2Cd3Rh2
_chemical_formula_sum   'Yb2 Cd3 Rh2'
_cell_volume   150.50578216
_cell_formula_units_Z   1
loop_
 _symmetry_equiv_pos_site_id
 _symmetry_equiv_pos_as_xyz
  1  'x, y, z'
loop_
 _atom_site_type_symbol
 _atom_site_label
 _atom_site_symmetry_multiplicity
 _atom_site_fract_x
 _atom_site_fract_y
 _atom_site_fract_z
 _atom_site_occupancy
  Yb  Yb0  1  0.858219  0.858219  0.207240  1
  Yb  Yb1  1  0.141781  0.141781  0.792760  1
  Cd  Cd2  1  0.500000  0.500000  0.000000  1
  Cd  Cd3  1  0.633979  0.633979  0.440976  1
  Cd  Cd4  1  0.366021  0.366021  0.559025  1
  Rh  Rh5  1  0.143406  0.143406  0.189135  1
  Rh  Rh6  1  0.856594  0.856594  0.810865  1
