# generated using pymatgen
data_TbTm2Nb(Co4P3)2
_symmetry_space_group_name_H-M   'P 1'
_cell_length_a   3.69515100
_cell_length_b   10.59812900
_cell_length_c   12.29366900
_cell_angle_alpha   90.00000000
_cell_angle_beta   90.00000000
_cell_angle_gamma   90.00000000
_symmetry_Int_Tables_number   1
_chemical_formula_structural   TbTm2Nb(Co4P3)2
_chemical_formula_sum   'Tb2 Tm4 Nb2 Co16 P12'
_cell_volume   481.44081712
_cell_formula_units_Z   2
loop_
 _symmetry_equiv_pos_site_id
 _symmetry_equiv_pos_as_xyz
  1  'x, y, z'
loop_
 _atom_site_type_symbol
 _atom_site_label
 _atom_site_symmetry_multiplicity
 _atom_site_fract_x
 _atom_site_fract_y
 _atom_site_fract_z
 _atom_site_occupancy
  Tb  Tb0  1  0.000000  0.500000  0.527269  1
  Tb  Tb1  1  0.500000  0.000000  0.472731  1
  Tm  Tm2  1  0.500000  0.820556  0.204728  1
  Tm  Tm3  1  0.500000  0.179444  0.204728  1
  Tm  Tm4  1  0.000000  0.679444  0.795272  1
  Tm  Tm5  1  0.000000  0.320556  0.795272  1
  Nb  Nb6  1  0.500000  0.500000  0.156700  1
  Nb  Nb7  1  0.000000  0.000000  0.843300  1
  Co  Co8  1  0.500000  0.500000  0.703467  1
  Co  Co9  1  0.000000  0.000000  0.296533  1
  Co  Co10  1  0.000000  0.500000  0.985583  1
  Co  Co11  1  0.500000  0.000000  0.014417  1
  Co  Co12  1  0.500000  0.332331  0.991424  1
  Co  Co13  1  0.500000  0.667669  0.991424  1
  Co  Co14  1  0.000000  0.167669  0.008576  1
  Co  Co15  1  0.000000  0.832331  0.008576  1
  Co  Co16  1  0.500000  0.295094  0.432049  1
  Co  Co17  1  0.500000  0.704906  0.432049  1
  Co  Co18  1  0.000000  0.204906  0.567951  1
  Co  Co19  1  0.000000  0.795094  0.567951  1
  Co  Co20  1  0.500000  0.876730  0.705221  1
  Co  Co21  1  0.500000  0.123270  0.705221  1
  Co  Co22  1  0.000000  0.623270  0.294779  1
  Co  Co23  1  0.000000  0.376730  0.294779  1
  P  P24  1  0.500000  0.500000  0.881666  1
  P  P25  1  0.000000  0.000000  0.118334  1
  P  P26  1  0.500000  0.500000  0.355643  1
  P  P27  1  0.000000  0.000000  0.644357  1
  P  P28  1  0.500000  0.310830  0.616713  1
  P  P29  1  0.500000  0.689170  0.616713  1
  P  P30  1  0.000000  0.189170  0.383287  1
  P  P31  1  0.000000  0.810830  0.383287  1
  P  P32  1  0.500000  0.840610  0.892521  1
  P  P33  1  0.500000  0.159390  0.892521  1
  P  P34  1  0.000000  0.659390  0.107479  1
  P  P35  1  0.000000  0.340610  0.107479  1
