# generated using pymatgen
data_Tb19Y(In3Ru)2
_symmetry_space_group_name_H-M   'P 1'
_cell_length_a   9.77092200
_cell_length_b   9.77092092
_cell_length_c   9.82802700
_cell_angle_alpha   90.00000000
_cell_angle_beta   90.00000000
_cell_angle_gamma   119.99999689
_symmetry_Int_Tables_number   1
_chemical_formula_structural   Tb19Y(In3Ru)2
_chemical_formula_sum   'Tb19 Y1 In6 Ru2'
_cell_volume   812.58355895
_cell_formula_units_Z   1
loop_
 _symmetry_equiv_pos_site_id
 _symmetry_equiv_pos_as_xyz
  1  'x, y, z'
loop_
 _atom_site_type_symbol
 _atom_site_label
 _atom_site_symmetry_multiplicity
 _atom_site_fract_x
 _atom_site_fract_y
 _atom_site_fract_z
 _atom_site_occupancy
  Tb  Tb0  1  0.000000  0.000000  0.500000  1
  Tb  Tb1  1  0.209611  0.790389  0.438921  1
  Tb  Tb2  1  0.209611  0.419222  0.438921  1
  Tb  Tb3  1  0.580778  0.790389  0.438921  1
  Tb  Tb4  1  0.790389  0.209611  0.561079  1
  Tb  Tb5  1  0.790389  0.580778  0.561079  1
  Tb  Tb6  1  0.419222  0.209611  0.561079  1
  Tb  Tb7  1  0.790315  0.209685  0.938782  1
  Tb  Tb8  1  0.790315  0.580628  0.938782  1
  Tb  Tb9  1  0.419372  0.209685  0.938782  1
  Tb  Tb10  1  0.209685  0.790315  0.061218  1
  Tb  Tb11  1  0.209685  0.419372  0.061218  1
  Tb  Tb12  1  0.580628  0.790315  0.061218  1
  Tb  Tb13  1  0.539661  0.460339  0.250010  1
  Tb  Tb14  1  0.539661  0.079323  0.250010  1
  Tb  Tb15  1  0.920677  0.460339  0.250010  1
  Tb  Tb16  1  0.460339  0.539661  0.749990  1
  Tb  Tb17  1  0.460339  0.920677  0.749990  1
  Tb  Tb18  1  0.079323  0.539661  0.749990  1
  Y  Y19  1  0.000000  0.000000  0.000000  1
  In  In20  1  0.884476  0.115524  0.249762  1
  In  In21  1  0.884476  0.768953  0.249762  1
  In  In22  1  0.231047  0.115524  0.249762  1
  In  In23  1  0.115524  0.884476  0.750238  1
  In  In24  1  0.115524  0.231047  0.750238  1
  In  In25  1  0.768953  0.884476  0.750238  1
  Ru  Ru26  1  0.333333  0.666667  0.249921  1
  Ru  Ru27  1  0.666667  0.333333  0.750079  1
