# generated using pymatgen
data_Er9LuS10
_symmetry_space_group_name_H-M   'P 1'
_cell_length_a   6.66122460
_cell_length_b   7.71104030
_cell_length_c   8.65608200
_cell_angle_alpha   103.24523325
_cell_angle_beta   97.24493913
_cell_angle_gamma   106.76629122
_symmetry_Int_Tables_number   1
_chemical_formula_structural   Er9LuS10
_chemical_formula_sum   'Er9 Lu1 S10'
_cell_volume   405.48602035
_cell_formula_units_Z   1
loop_
 _symmetry_equiv_pos_site_id
 _symmetry_equiv_pos_as_xyz
  1  'x, y, z'
loop_
 _atom_site_type_symbol
 _atom_site_label
 _atom_site_symmetry_multiplicity
 _atom_site_fract_x
 _atom_site_fract_y
 _atom_site_fract_z
 _atom_site_occupancy
  Er  Er0  1  0.799278  0.600015  0.599496  1
  Er  Er1  1  0.599196  0.199457  0.200802  1
  Er  Er2  1  0.400804  0.800543  0.799198  1
  Er  Er3  1  0.600243  0.701280  0.201279  1
  Er  Er4  1  0.200722  0.399985  0.400504  1
  Er  Er5  1  0.399757  0.298720  0.798721  1
  Er  Er6  1  0.000000  0.000000  0.000000  1
  Er  Er7  1  0.201384  0.900946  0.401241  1
  Er  Er8  1  0.798616  0.099054  0.598759  1
  Lu  Lu9  1  0.000000  0.500000  0.000000  1
  S  S10  1  0.702298  0.648559  0.901389  1
  S  S11  1  0.500297  0.250414  0.499798  1
  S  S12  1  0.702691  0.153289  0.901429  1
  S  S13  1  0.297309  0.846711  0.098571  1
  S  S14  1  0.499703  0.749586  0.500202  1
  S  S15  1  0.098674  0.450461  0.702890  1
  S  S16  1  0.297702  0.351441  0.098611  1
  S  S17  1  0.900839  0.050179  0.299839  1
  S  S18  1  0.099161  0.949821  0.700161  1
  S  S19  1  0.901326  0.549539  0.297110  1
