# generated using pymatgen
data_Ca7La9(InIr)4
_symmetry_space_group_name_H-M   'P 1'
_cell_length_a   10.08859633
_cell_length_b   10.08879775
_cell_length_c   10.15270959
_cell_angle_alpha   59.82219252
_cell_angle_beta   59.82044246
_cell_angle_gamma   60.01444830
_symmetry_Int_Tables_number   1
_chemical_formula_structural   Ca7La9(InIr)4
_chemical_formula_sum   'Ca7 La9 In4 Ir4'
_cell_volume   728.79609555
_cell_formula_units_Z   1
loop_
 _symmetry_equiv_pos_site_id
 _symmetry_equiv_pos_as_xyz
  1  'x, y, z'
loop_
 _atom_site_type_symbol
 _atom_site_label
 _atom_site_symmetry_multiplicity
 _atom_site_fract_x
 _atom_site_fract_y
 _atom_site_fract_z
 _atom_site_occupancy
  Ca  Ca0  1  0.441558  0.441514  0.058454  1
  Ca  Ca1  1  0.058877  0.441272  0.060409  1
  Ca  Ca2  1  0.441289  0.058844  0.060380  1
  Ca  Ca3  1  0.058884  0.058854  0.441385  1
  Ca  Ca4  1  0.440776  0.059220  0.439319  1
  Ca  Ca5  1  0.059209  0.440731  0.439400  1
  Ca  Ca6  1  0.804710  0.804687  0.195306  1
  La  La7  1  0.192508  0.803351  0.196545  1
  La  La8  1  0.803366  0.192530  0.196557  1
  La  La9  1  0.196695  0.196691  0.803273  1
  La  La10  1  0.803416  0.192256  0.807748  1
  La  La11  1  0.192281  0.803402  0.807727  1
  La  La12  1  0.653925  0.653923  0.042872  1
  La  La13  1  0.651729  0.042622  0.652882  1
  La  La14  1  0.042588  0.651755  0.652881  1
  La  La15  1  0.653562  0.653584  0.649484  1
  In  In16  1  0.419096  0.419062  0.742751  1
  In  In17  1  0.419607  0.741675  0.419237  1
  In  In18  1  0.741660  0.419620  0.419360  1
  In  In19  1  0.418968  0.419006  0.419047  1
  Ir  Ir20  1  0.864542  0.864594  0.420914  1
  Ir  Ir21  1  0.859393  0.416821  0.862009  1
  Ir  Ir22  1  0.416799  0.859424  0.862051  1
  Ir  Ir23  1  0.864559  0.864562  0.850009  1
