# generated using pymatgen
data_Rb4TiSe4
_symmetry_space_group_name_H-M   'P 1'
_cell_length_a   8.80111800
_cell_length_b   10.37704800
_cell_length_c   15.44806600
_cell_angle_alpha   90.00000000
_cell_angle_beta   90.00000000
_cell_angle_gamma   90.00000000
_symmetry_Int_Tables_number   1
_chemical_formula_structural   Rb4TiSe4
_chemical_formula_sum   'Rb16 Ti4 Se16'
_cell_volume   1410.86605838
_cell_formula_units_Z   4
loop_
 _symmetry_equiv_pos_site_id
 _symmetry_equiv_pos_as_xyz
  1  'x, y, z'
loop_
 _atom_site_type_symbol
 _atom_site_label
 _atom_site_symmetry_multiplicity
 _atom_site_fract_x
 _atom_site_fract_y
 _atom_site_fract_z
 _atom_site_occupancy
  Rb  Rb0  1  0.000000  0.000000  0.000000  1
  Rb  Rb1  1  0.500000  0.000000  0.500000  1
  Rb  Rb2  1  0.000000  0.500000  0.000000  1
  Rb  Rb3  1  0.500000  0.500000  0.500000  1
  Rb  Rb4  1  0.986160  0.750000  0.426344  1
  Rb  Rb5  1  0.486160  0.250000  0.073656  1
  Rb  Rb6  1  0.013840  0.250000  0.573656  1
  Rb  Rb7  1  0.513840  0.750000  0.926344  1
  Rb  Rb8  1  0.839444  0.054019  0.277637  1
  Rb  Rb9  1  0.339444  0.945981  0.222363  1
  Rb  Rb10  1  0.160556  0.554019  0.722363  1
  Rb  Rb11  1  0.660556  0.445981  0.777637  1
  Rb  Rb12  1  0.160556  0.945981  0.722363  1
  Rb  Rb13  1  0.660556  0.054019  0.777637  1
  Rb  Rb14  1  0.839444  0.445981  0.277637  1
  Rb  Rb15  1  0.339444  0.554019  0.222363  1
  Ti  Ti16  1  0.758487  0.750000  0.665852  1
  Ti  Ti17  1  0.241513  0.250000  0.334148  1
  Ti  Ti18  1  0.741513  0.750000  0.165852  1
  Ti  Ti19  1  0.258487  0.250000  0.834148  1
  Se  Se20  1  0.983211  0.250000  0.824485  1
  Se  Se21  1  0.516789  0.250000  0.324485  1
  Se  Se22  1  0.483211  0.750000  0.675515  1
  Se  Se23  1  0.016789  0.750000  0.175515  1
  Se  Se24  1  0.656879  0.559050  0.091997  1
  Se  Se25  1  0.156879  0.440950  0.408003  1
  Se  Se26  1  0.343121  0.059050  0.908003  1
  Se  Se27  1  0.843121  0.940950  0.591997  1
  Se  Se28  1  0.343121  0.440950  0.908003  1
  Se  Se29  1  0.843121  0.559050  0.591997  1
  Se  Se30  1  0.656879  0.940950  0.091997  1
  Se  Se31  1  0.156879  0.059050  0.408003  1
  Se  Se32  1  0.634181  0.750000  0.310800  1
  Se  Se33  1  0.134181  0.250000  0.189200  1
  Se  Se34  1  0.365819  0.250000  0.689200  1
  Se  Se35  1  0.865819  0.750000  0.810800  1
