# generated using pymatgen
data_Re3Tc3Se7I4
_symmetry_space_group_name_H-M   'P 1'
_cell_length_a   12.40780386
_cell_length_b   12.40780396
_cell_length_c   12.40780397
_cell_angle_alpha   51.34414104
_cell_angle_beta   51.34414164
_cell_angle_gamma   51.34413342
_symmetry_Int_Tables_number   1
_chemical_formula_structural   Re3Tc3Se7I4
_chemical_formula_sum   'Re6 Tc6 Se14 I8'
_cell_volume   1075.35858937
_cell_formula_units_Z   2
loop_
 _symmetry_equiv_pos_site_id
 _symmetry_equiv_pos_as_xyz
  1  'x, y, z'
loop_
 _atom_site_type_symbol
 _atom_site_label
 _atom_site_symmetry_multiplicity
 _atom_site_fract_x
 _atom_site_fract_y
 _atom_site_fract_z
 _atom_site_occupancy
  Re  Re0  1  0.478207  0.604357  0.318617  1
  Re  Re1  1  0.604357  0.318617  0.478207  1
  Re  Re2  1  0.318617  0.478207  0.604357  1
  Re  Re3  1  0.818617  0.104357  0.978207  1
  Re  Re4  1  0.104357  0.978207  0.818617  1
  Re  Re5  1  0.978207  0.818617  0.104357  1
  Tc  Tc6  1  0.523172  0.397918  0.681322  1
  Tc  Tc7  1  0.397918  0.681322  0.523172  1
  Tc  Tc8  1  0.681322  0.523172  0.397918  1
  Tc  Tc9  1  0.181322  0.897918  0.023172  1
  Tc  Tc10  1  0.897918  0.023172  0.181322  1
  Tc  Tc11  1  0.023172  0.181322  0.897918  1
  Se  Se12  1  0.791190  0.250595  0.553059  1
  Se  Se13  1  0.250595  0.553059  0.791190  1
  Se  Se14  1  0.553059  0.791190  0.250595  1
  Se  Se15  1  0.053059  0.750595  0.291190  1
  Se  Se16  1  0.750595  0.291190  0.053059  1
  Se  Se17  1  0.291190  0.053059  0.750595  1
  Se  Se18  1  0.208043  0.751851  0.446309  1
  Se  Se19  1  0.751851  0.446309  0.208043  1
  Se  Se20  1  0.446309  0.208043  0.751851  1
  Se  Se21  1  0.946309  0.251851  0.708043  1
  Se  Se22  1  0.251851  0.708043  0.946309  1
  Se  Se23  1  0.708043  0.946309  0.251851  1
  Se  Se24  1  0.596126  0.596126  0.596126  1
  Se  Se25  1  0.096126  0.096126  0.096126  1
  I  I26  1  0.964342  0.536490  0.253929  1
  I  I27  1  0.536490  0.253929  0.964342  1
  I  I28  1  0.253929  0.964342  0.536490  1
  I  I29  1  0.753929  0.036490  0.464342  1
  I  I30  1  0.036490  0.464342  0.753929  1
  I  I31  1  0.464342  0.753929  0.036490  1
  I  I32  1  0.394435  0.394435  0.394435  1
  I  I33  1  0.894435  0.894435  0.894435  1
