# generated using pymatgen
data_CeSm3(AlPt3)6
_symmetry_space_group_name_H-M   'P 1'
_cell_length_a   7.70589804
_cell_length_b   7.69390147
_cell_length_c   10.24476700
_cell_angle_alpha   68.02766843
_cell_angle_beta   67.86109634
_cell_angle_gamma   59.82814295
_symmetry_Int_Tables_number   1
_chemical_formula_structural   CeSm3(AlPt3)6
_chemical_formula_sum   'Ce1 Sm3 Al6 Pt18'
_cell_volume   473.27011352
_cell_formula_units_Z   1
loop_
 _symmetry_equiv_pos_site_id
 _symmetry_equiv_pos_as_xyz
  1  'x, y, z'
loop_
 _atom_site_type_symbol
 _atom_site_label
 _atom_site_symmetry_multiplicity
 _atom_site_fract_x
 _atom_site_fract_y
 _atom_site_fract_z
 _atom_site_occupancy
  Ce  Ce0  1  0.415395  0.244345  0.250187  1
  Sm  Sm1  1  0.585087  0.753528  0.750148  1
  Sm  Sm2  1  0.753018  0.586113  0.249654  1
  Sm  Sm3  1  0.246996  0.414251  0.750181  1
  Al  Al4  1  0.499837  0.999039  0.999237  1
  Al  Al5  1  0.998755  0.500958  0.500959  1
  Al  Al6  1  0.647184  0.176674  0.501267  1
  Al  Al7  1  0.353645  0.821327  0.499972  1
  Al  Al8  1  0.824276  0.353561  0.999210  1
  Al  Al9  1  0.176321  0.648400  0.999124  1
  Pt  Pt10  1  0.295261  0.917799  0.251335  1
  Pt  Pt11  1  0.704729  0.083009  0.748715  1
  Pt  Pt12  1  0.082626  0.703286  0.248524  1
  Pt  Pt13  1  0.917461  0.295108  0.751657  1
  Pt  Pt14  1  0.471242  0.643809  0.076406  1
  Pt  Pt15  1  0.528197  0.354261  0.925939  1
  Pt  Pt16  1  0.354823  0.527732  0.423788  1
  Pt  Pt17  1  0.646042  0.471538  0.574972  1
  Pt  Pt18  1  0.864591  0.135253  0.250354  1
  Pt  Pt19  1  0.135135  0.866135  0.749224  1
  Pt  Pt20  1  0.809639  0.980118  0.071116  1
  Pt  Pt21  1  0.187956  0.021596  0.930056  1
  Pt  Pt22  1  0.024009  0.187992  0.429159  1
  Pt  Pt23  1  0.977829  0.811767  0.570486  1
  Pt  Pt24  1  0.694723  0.859303  0.426279  1
  Pt  Pt25  1  0.304843  0.142303  0.571898  1
  Pt  Pt26  1  0.141606  0.304942  0.073754  1
  Pt  Pt27  1  0.858777  0.695856  0.926400  1
