# generated using pymatgen
data_Ca3Tb(Rh2O7)2
_symmetry_space_group_name_H-M   'P 1'
_cell_length_a   7.28388155
_cell_length_b   7.28388222
_cell_length_c   7.28388206
_cell_angle_alpha   59.81479197
_cell_angle_beta   59.81478338
_cell_angle_gamma   59.81479282
_symmetry_Int_Tables_number   1
_chemical_formula_structural   Ca3Tb(Rh2O7)2
_chemical_formula_sum   'Ca3 Tb1 Rh4 O14'
_cell_volume   272.10971729
_cell_formula_units_Z   1
loop_
 _symmetry_equiv_pos_site_id
 _symmetry_equiv_pos_as_xyz
  1  'x, y, z'
loop_
 _atom_site_type_symbol
 _atom_site_label
 _atom_site_symmetry_multiplicity
 _atom_site_fract_x
 _atom_site_fract_y
 _atom_site_fract_z
 _atom_site_occupancy
  Ca  Ca0  1  0.125000  0.625000  0.125000  1
  Ca  Ca1  1  0.625000  0.125000  0.125000  1
  Ca  Ca2  1  0.125000  0.125000  0.625000  1
  Tb  Tb3  1  0.125000  0.125000  0.125000  1
  Rh  Rh4  1  0.625000  0.625000  0.625000  1
  Rh  Rh5  1  0.625000  0.625000  0.125000  1
  Rh  Rh6  1  0.125000  0.625000  0.625000  1
  Rh  Rh7  1  0.625000  0.125000  0.625000  1
  O  O8  1  0.247515  0.247515  0.247515  1
  O  O9  1  0.296433  0.710081  0.296433  1
  O  O10  1  0.953567  0.953567  0.539919  1
  O  O11  1  0.549737  0.951507  0.549737  1
  O  O12  1  0.700263  0.700263  0.298493  1
  O  O13  1  0.951507  0.549737  0.549737  1
  O  O14  1  0.700263  0.298493  0.700263  1
  O  O15  1  0.296433  0.296433  0.710081  1
  O  O16  1  0.710081  0.296433  0.296433  1
  O  O17  1  0.298493  0.700263  0.700263  1
  O  O18  1  0.953567  0.539919  0.953567  1
  O  O19  1  0.549737  0.549737  0.951507  1
  O  O20  1  0.002485  0.002485  0.002485  1
  O  O21  1  0.539919  0.953567  0.953567  1
