# generated using pymatgen
data_CsP4RhO12
_symmetry_space_group_name_H-M   'P 1'
_cell_length_a   13.59797400
_cell_length_b   5.22507212
_cell_length_c   7.67951251
_cell_angle_alpha   79.24083711
_cell_angle_beta   90.00000000
_cell_angle_gamma   90.00000000
_symmetry_Int_Tables_number   1
_chemical_formula_structural   CsP4RhO12
_chemical_formula_sum   'Cs2 P8 Rh2 O24'
_cell_volume   536.04048134
_cell_formula_units_Z   2
loop_
 _symmetry_equiv_pos_site_id
 _symmetry_equiv_pos_as_xyz
  1  'x, y, z'
loop_
 _atom_site_type_symbol
 _atom_site_label
 _atom_site_symmetry_multiplicity
 _atom_site_fract_x
 _atom_site_fract_y
 _atom_site_fract_z
 _atom_site_occupancy
  Cs  Cs0  1  0.001183  0.394328  0.835728  1
  Cs  Cs1  1  0.501183  0.605672  0.164272  1
  P  P2  1  0.871241  0.022299  0.442210  1
  P  P3  1  0.817839  0.787242  0.140110  1
  P  P4  1  0.371241  0.977701  0.557790  1
  P  P5  1  0.180814  0.863585  0.099512  1
  P  P6  1  0.098901  0.024498  0.426250  1
  P  P7  1  0.598901  0.975502  0.573750  1
  P  P8  1  0.680814  0.136415  0.900488  1
  P  P9  1  0.317839  0.212758  0.859890  1
  Rh  Rh10  1  0.235495  0.501812  0.488021  1
  Rh  Rh11  1  0.735495  0.498188  0.511979  1
  O  O12  1  0.155285  0.807356  0.541512  1
  O  O13  1  0.107876  0.293223  0.472527  1
  O  O14  1  0.617913  0.963828  0.779253  1
  O  O15  1  0.985613  0.944383  0.454993  1
  O  O16  1  0.863118  0.287833  0.493855  1
  O  O17  1  0.843687  0.035736  0.240135  1
  O  O18  1  0.117913  0.036172  0.220747  1
  O  O19  1  0.620229  0.164476  0.055073  1
  O  O20  1  0.120229  0.835524  0.944927  1
  O  O21  1  0.233038  0.361598  0.756047  1
  O  O22  1  0.363118  0.712167  0.506145  1
  O  O23  1  0.607876  0.706777  0.527473  1
  O  O24  1  0.655285  0.192644  0.458488  1
  O  O25  1  0.485613  0.055617  0.545007  1
  O  O26  1  0.273550  0.058589  0.043564  1
  O  O27  1  0.909540  0.656402  0.103850  1
  O  O28  1  0.724810  0.373915  0.781818  1
  O  O29  1  0.773550  0.941411  0.956436  1
  O  O30  1  0.409540  0.343598  0.896150  1
  O  O31  1  0.819633  0.801305  0.564707  1
  O  O32  1  0.319633  0.198695  0.435293  1
  O  O33  1  0.343687  0.964264  0.759865  1
  O  O34  1  0.733038  0.638402  0.243953  1
  O  O35  1  0.224810  0.626085  0.218182  1
