# generated using pymatgen
data_Pr2Ho4FeBr10
_symmetry_space_group_name_H-M   'P 1'
_cell_length_a   7.44898510
_cell_length_b   9.15576097
_cell_length_c   9.35212798
_cell_angle_alpha   108.84711803
_cell_angle_beta   96.91679245
_cell_angle_gamma   103.44764246
_symmetry_Int_Tables_number   1
_chemical_formula_structural   Pr2Ho4FeBr10
_chemical_formula_sum   'Pr2 Ho4 Fe1 Br10'
_cell_volume   573.67535471
_cell_formula_units_Z   1
loop_
 _symmetry_equiv_pos_site_id
 _symmetry_equiv_pos_as_xyz
  1  'x, y, z'
loop_
 _atom_site_type_symbol
 _atom_site_label
 _atom_site_symmetry_multiplicity
 _atom_site_fract_x
 _atom_site_fract_y
 _atom_site_fract_z
 _atom_site_occupancy
  Pr  Pr0  1  0.466161  0.776729  0.586781  1
  Pr  Pr1  1  0.533839  0.223271  0.413219  1
  Ho  Ho2  1  0.378186  0.456212  0.748202  1
  Ho  Ho3  1  0.621814  0.543788  0.251798  1
  Ho  Ho4  1  0.856158  0.629000  0.678380  1
  Ho  Ho5  1  0.143842  0.371000  0.321620  1
  Fe  Fe6  1  0.500000  0.500000  0.500000  1
  Br  Br7  1  0.409493  0.139648  0.681297  1
  Br  Br8  1  0.590507  0.860352  0.318703  1
  Br  Br9  1  0.038776  0.674717  0.414354  1
  Br  Br10  1  0.961224  0.325283  0.585646  1
  Br  Br11  1  0.271449  0.746980  0.851748  1
  Br  Br12  1  0.728551  0.253020  0.148252  1
  Br  Br13  1  0.253920  0.415928  0.044469  1
  Br  Br14  1  0.746080  0.584072  0.955531  1
  Br  Br15  1  0.858882  0.945326  0.772997  1
  Br  Br16  1  0.141118  0.054674  0.227003  1
