# generated using pymatgen
data_Hf4In2FeCu2Au
_symmetry_space_group_name_H-M   'P 1'
_cell_length_a   7.34295375
_cell_length_b   7.34295434
_cell_length_c   6.76300727
_cell_angle_alpha   90.06078490
_cell_angle_beta   90.06077964
_cell_angle_gamma   91.37276976
_symmetry_Int_Tables_number   1
_chemical_formula_structural   Hf4In2FeCu2Au
_chemical_formula_sum   'Hf8 In4 Fe2 Cu4 Au2'
_cell_volume   364.54933360
_cell_formula_units_Z   2
loop_
 _symmetry_equiv_pos_site_id
 _symmetry_equiv_pos_as_xyz
  1  'x, y, z'
loop_
 _atom_site_type_symbol
 _atom_site_label
 _atom_site_symmetry_multiplicity
 _atom_site_fract_x
 _atom_site_fract_y
 _atom_site_fract_z
 _atom_site_occupancy
  Hf  Hf0  1  0.172367  0.157757  0.012559  1
  Hf  Hf1  1  0.842243  0.827633  0.987441  1
  Hf  Hf2  1  0.640365  0.359635  0.500000  1
  Hf  Hf3  1  0.351532  0.648468  0.500000  1
  Hf  Hf4  1  0.664448  0.335552  0.000000  1
  Hf  Hf5  1  0.326935  0.673065  0.000000  1
  Hf  Hf6  1  0.802394  0.796154  0.512477  1
  Hf  Hf7  1  0.203846  0.197606  0.487523  1
  In  In8  1  0.496230  0.001580  0.246965  1
  In  In9  1  0.493241  0.991889  0.752979  1
  In  In10  1  0.008111  0.506759  0.247021  1
  In  In11  1  0.998420  0.503770  0.753035  1
  Fe  Fe12  1  0.376332  0.378864  0.229877  1
  Fe  Fe13  1  0.621136  0.623668  0.770123  1
  Cu  Cu14  1  0.626032  0.631105  0.211250  1
  Cu  Cu15  1  0.368895  0.373968  0.788750  1
  Cu  Cu16  1  0.126404  0.869953  0.290158  1
  Cu  Cu17  1  0.130047  0.873596  0.709842  1
  Au  Au18  1  0.877920  0.126900  0.720425  1
  Au  Au19  1  0.873100  0.122080  0.279575  1
