# generated using pymatgen
data_Gd2DySi2Ag3Sn
_symmetry_space_group_name_H-M   'P 1'
_cell_length_a   7.22278719
_cell_length_b   7.22278845
_cell_length_c   4.33302600
_cell_angle_alpha   90.00000000
_cell_angle_beta   90.00000000
_cell_angle_gamma   119.98953376
_symmetry_Int_Tables_number   1
_chemical_formula_structural   Gd2DySi2Ag3Sn
_chemical_formula_sum   'Gd2 Dy1 Si2 Ag3 Sn1'
_cell_volume   195.78410667
_cell_formula_units_Z   1
loop_
 _symmetry_equiv_pos_site_id
 _symmetry_equiv_pos_as_xyz
  1  'x, y, z'
loop_
 _atom_site_type_symbol
 _atom_site_label
 _atom_site_symmetry_multiplicity
 _atom_site_fract_x
 _atom_site_fract_y
 _atom_site_fract_z
 _atom_site_occupancy
  Gd  Gd0  1  0.999916  0.568300  0.000000  1
  Gd  Gd1  1  0.568300  0.999916  0.000000  1
  Dy  Dy2  1  0.431427  0.431427  0.000000  1
  Si  Si3  1  0.665694  0.334261  0.500000  1
  Si  Si4  1  0.334261  0.665694  0.500000  1
  Ag  Ag5  1  0.735292  0.735292  0.500000  1
  Ag  Ag6  1  0.263274  0.000788  0.500000  1
  Ag  Ag7  1  0.000788  0.263274  0.500000  1
  Sn  Sn8  1  0.001051  0.001051  0.000000  1
