# generated using pymatgen
data_Dy9Er3Tl20
_symmetry_space_group_name_H-M   'P 1'
_cell_length_a   6.64117008
_cell_length_b   10.53046300
_cell_length_c   12.42288522
_cell_angle_alpha   90.00000000
_cell_angle_beta   89.99841842
_cell_angle_gamma   90.00000000
_symmetry_Int_Tables_number   1
_chemical_formula_structural   Dy9Er3Tl20
_chemical_formula_sum   'Dy9 Er3 Tl20'
_cell_volume   868.78945660
_cell_formula_units_Z   1
loop_
 _symmetry_equiv_pos_site_id
 _symmetry_equiv_pos_as_xyz
  1  'x, y, z'
loop_
 _atom_site_type_symbol
 _atom_site_label
 _atom_site_symmetry_multiplicity
 _atom_site_fract_x
 _atom_site_fract_y
 _atom_site_fract_z
 _atom_site_occupancy
  Dy  Dy0  1  0.856214  0.250000  0.449640  1
  Dy  Dy1  1  0.887683  0.492616  0.140966  1
  Dy  Dy2  1  0.611689  0.007056  0.641190  1
  Dy  Dy3  1  0.112589  0.992319  0.859361  1
  Dy  Dy4  1  0.387700  0.507068  0.359159  1
  Dy  Dy5  1  0.112589  0.507681  0.859361  1
  Dy  Dy6  1  0.387700  0.992932  0.359159  1
  Dy  Dy7  1  0.887683  0.007384  0.140966  1
  Dy  Dy8  1  0.611689  0.492944  0.641190  1
  Er  Er9  1  0.355583  0.750000  0.049523  1
  Er  Er10  1  0.144129  0.750000  0.549747  1
  Er  Er11  1  0.644472  0.250000  0.950622  1
  Tl  Tl12  1  0.601728  0.750000  0.508382  1
  Tl  Tl13  1  0.897795  0.750000  0.008625  1
  Tl  Tl14  1  0.396536  0.250000  0.491969  1
  Tl  Tl15  1  0.102305  0.250000  0.990905  1
  Tl  Tl16  1  0.647109  0.750000  0.239991  1
  Tl  Tl17  1  0.852946  0.750000  0.740393  1
  Tl  Tl18  1  0.352952  0.250000  0.760050  1
  Tl  Tl19  1  0.148887  0.250000  0.258760  1
  Tl  Tl20  1  0.133061  0.750000  0.280031  1
  Tl  Tl21  1  0.367957  0.750000  0.780503  1
  Tl  Tl22  1  0.867168  0.250000  0.720271  1
  Tl  Tl23  1  0.632650  0.250000  0.218647  1
  Tl  Tl24  1  0.869591  0.539131  0.397613  1
  Tl  Tl25  1  0.630664  0.962070  0.897813  1
  Tl  Tl26  1  0.129913  0.038020  0.602704  1
  Tl  Tl27  1  0.369425  0.462119  0.102164  1
  Tl  Tl28  1  0.129913  0.461980  0.602704  1
  Tl  Tl29  1  0.369425  0.037881  0.102164  1
  Tl  Tl30  1  0.869591  0.960869  0.397613  1
  Tl  Tl31  1  0.630664  0.537930  0.897813  1
