# generated using pymatgen
data_Pa2GaH4
_symmetry_space_group_name_H-M   'P 1'
_cell_length_a   5.95157743
_cell_length_b   5.95157667
_cell_length_c   5.95157700
_cell_angle_alpha   105.74549242
_cell_angle_beta   105.74549035
_cell_angle_gamma   117.21112478
_symmetry_Int_Tables_number   1
_chemical_formula_structural   Pa2GaH4
_chemical_formula_sum   'Pa4 Ga2 H8'
_cell_volume   160.03428906
_cell_formula_units_Z   2
loop_
 _symmetry_equiv_pos_site_id
 _symmetry_equiv_pos_as_xyz
  1  'x, y, z'
loop_
 _atom_site_type_symbol
 _atom_site_label
 _atom_site_symmetry_multiplicity
 _atom_site_fract_x
 _atom_site_fract_y
 _atom_site_fract_z
 _atom_site_occupancy
  Pa  Pa0  1  0.836120  0.663880  0.500000  1
  Pa  Pa1  1  0.663880  0.163880  0.827759  1
  Pa  Pa2  1  0.163880  0.336120  0.500000  1
  Pa  Pa3  1  0.336120  0.836120  0.172241  1
  Ga  Ga4  1  0.750000  0.750000  0.000000  1
  Ga  Ga5  1  0.250000  0.250000  0.000000  1
  H  H6  1  0.222775  0.979927  0.500000  1
  H  H7  1  0.479927  0.722775  0.500000  1
  H  H8  1  0.722775  0.222775  0.242849  1
  H  H9  1  0.979927  0.479927  0.757151  1
  H  H10  1  0.277225  0.777225  0.757151  1
  H  H11  1  0.520073  0.277225  0.500000  1
  H  H12  1  0.020073  0.520073  0.242849  1
  H  H13  1  0.777225  0.020073  0.500000  1
