# generated using pymatgen
data_NdYTmTaO7
_symmetry_space_group_name_H-M   'P 1'
_cell_length_a   6.48234034
_cell_length_b   6.48234107
_cell_length_c   7.59233400
_cell_angle_alpha   90.00000000
_cell_angle_beta   90.00000000
_cell_angle_gamma   109.32431311
_symmetry_Int_Tables_number   1
_chemical_formula_structural   NdYTmTaO7
_chemical_formula_sum   'Nd2 Y2 Tm2 Ta2 O14'
_cell_volume   301.06123652
_cell_formula_units_Z   2
loop_
 _symmetry_equiv_pos_site_id
 _symmetry_equiv_pos_as_xyz
  1  'x, y, z'
loop_
 _atom_site_type_symbol
 _atom_site_label
 _atom_site_symmetry_multiplicity
 _atom_site_fract_x
 _atom_site_fract_y
 _atom_site_fract_z
 _atom_site_occupancy
  Nd  Nd0  1  0.501389  0.501389  0.500000  1
  Nd  Nd1  1  0.501389  0.501389  0.000000  1
  Y  Y2  1  0.466707  0.999492  0.250000  1
  Y  Y3  1  0.999492  0.466707  0.750000  1
  Tm  Tm4  1  0.532469  0.001385  0.750000  1
  Tm  Tm5  1  0.001385  0.532469  0.250000  1
  Ta  Ta6  1  0.000063  0.000063  0.500000  1
  Ta  Ta7  1  0.000063  0.000063  0.000000  1
  O  O8  1  0.678329  0.930362  0.470554  1
  O  O9  1  0.930362  0.678329  0.529446  1
  O  O10  1  0.678329  0.930362  0.029446  1
  O  O11  1  0.930362  0.678329  0.970554  1
  O  O12  1  0.320414  0.068497  0.535263  1
  O  O13  1  0.068497  0.320414  0.464737  1
  O  O14  1  0.320414  0.068497  0.964737  1
  O  O15  1  0.068497  0.320414  0.035263  1
  O  O16  1  0.935327  0.064002  0.750000  1
  O  O17  1  0.064002  0.935327  0.250000  1
  O  O18  1  0.366461  0.640504  0.750000  1
  O  O19  1  0.640504  0.366461  0.250000  1
  O  O20  1  0.641509  0.354037  0.750000  1
  O  O21  1  0.354037  0.641509  0.250000  1
