# generated using pymatgen
data_Hf3BeAs2Os3
_symmetry_space_group_name_H-M   'P 1'
_cell_length_a   6.66362900
_cell_length_b   6.66362925
_cell_length_c   3.67712400
_cell_angle_alpha   90.00000000
_cell_angle_beta   90.00000000
_cell_angle_gamma   120.00000370
_symmetry_Int_Tables_number   1
_chemical_formula_structural   Hf3BeAs2Os3
_chemical_formula_sum   'Hf3 Be1 As2 Os3'
_cell_volume   141.40361962
_cell_formula_units_Z   1
loop_
 _symmetry_equiv_pos_site_id
 _symmetry_equiv_pos_as_xyz
  1  'x, y, z'
loop_
 _atom_site_type_symbol
 _atom_site_label
 _atom_site_symmetry_multiplicity
 _atom_site_fract_x
 _atom_site_fract_y
 _atom_site_fract_z
 _atom_site_occupancy
  Hf  Hf0  1  0.398445  0.398445  0.500000  1
  Hf  Hf1  1  0.601555  0.000000  0.500000  1
  Hf  Hf2  1  0.000000  0.601555  0.500000  1
  Be  Be3  1  0.000000  0.000000  0.500000  1
  As  As4  1  0.666667  0.333333  0.000000  1
  As  As5  1  0.333333  0.666667  0.000000  1
  Os  Os6  1  0.763721  0.763721  0.000000  1
  Os  Os7  1  0.236279  0.000000  0.000000  1
  Os  Os8  1  0.000000  0.236279  0.000000  1
