# generated using pymatgen
data_Ta3Co7Ni13B6
_symmetry_space_group_name_H-M   'P 1'
_cell_length_a   7.46821497
_cell_length_b   7.46821641
_cell_length_c   7.46821576
_cell_angle_alpha   60.04231511
_cell_angle_beta   60.04230507
_cell_angle_gamma   60.04231627
_symmetry_Int_Tables_number   1
_chemical_formula_structural   Ta3Co7Ni13B6
_chemical_formula_sum   'Ta3 Co7 Ni13 B6'
_cell_volume   294.81656469
_cell_formula_units_Z   1
loop_
 _symmetry_equiv_pos_site_id
 _symmetry_equiv_pos_as_xyz
  1  'x, y, z'
loop_
 _atom_site_type_symbol
 _atom_site_label
 _atom_site_symmetry_multiplicity
 _atom_site_fract_x
 _atom_site_fract_y
 _atom_site_fract_z
 _atom_site_occupancy
  Ta  Ta0  1  0.999963  0.999963  0.999963  1
  Ta  Ta1  1  0.749942  0.749942  0.749942  1
  Ta  Ta2  1  0.248105  0.248105  0.248105  1
  Co  Co3  1  0.616661  0.616661  0.150721  1
  Co  Co4  1  0.616661  0.150721  0.616661  1
  Co  Co5  1  0.150721  0.616661  0.616661  1
  Co  Co6  1  0.616353  0.616353  0.616353  1
  Co  Co7  1  0.383175  0.383175  0.850027  1
  Co  Co8  1  0.383175  0.850027  0.383175  1
  Co  Co9  1  0.850027  0.383175  0.383175  1
  Ni  Ni10  1  0.384324  0.384324  0.384324  1
  Ni  Ni11  1  0.999777  0.999777  0.342414  1
  Ni  Ni12  1  0.657946  0.000239  0.341577  1
  Ni  Ni13  1  0.000239  0.657946  0.341577  1
  Ni  Ni14  1  0.657946  0.341577  0.000239  1
  Ni  Ni15  1  0.999777  0.342414  0.999777  1
  Ni  Ni16  1  0.000239  0.341577  0.657946  1
  Ni  Ni17  1  0.341577  0.657946  0.000239  1
  Ni  Ni18  1  0.341577  0.000239  0.657946  1
  Ni  Ni19  1  0.342414  0.999777  0.999777  1
  Ni  Ni20  1  0.000350  0.000350  0.658231  1
  Ni  Ni21  1  0.000350  0.658231  0.000350  1
  Ni  Ni22  1  0.658231  0.000350  0.000350  1
  B  B23  1  0.726199  0.726199  0.273908  1
  B  B24  1  0.272596  0.728971  0.272596  1
  B  B25  1  0.728971  0.272596  0.272596  1
  B  B26  1  0.272596  0.272596  0.728971  1
  B  B27  1  0.726199  0.273908  0.726199  1
  B  B28  1  0.273908  0.726199  0.726199  1
