# generated using pymatgen
data_Yb3YCu2Sn5
_symmetry_space_group_name_H-M   'P 1'
_cell_length_a   4.44523400
_cell_length_b   8.81393800
_cell_length_c   14.09499300
_cell_angle_alpha   90.00000000
_cell_angle_beta   90.00000000
_cell_angle_gamma   90.00000000
_symmetry_Int_Tables_number   1
_chemical_formula_structural   Yb3YCu2Sn5
_chemical_formula_sum   'Yb6 Y2 Cu4 Sn10'
_cell_volume   552.24206354
_cell_formula_units_Z   2
loop_
 _symmetry_equiv_pos_site_id
 _symmetry_equiv_pos_as_xyz
  1  'x, y, z'
loop_
 _atom_site_type_symbol
 _atom_site_label
 _atom_site_symmetry_multiplicity
 _atom_site_fract_x
 _atom_site_fract_y
 _atom_site_fract_z
 _atom_site_occupancy
  Yb  Yb0  1  0.500000  0.792706  0.742284  1
  Yb  Yb1  1  0.000000  0.207294  0.757716  1
  Yb  Yb2  1  0.000000  0.207294  0.242284  1
  Yb  Yb3  1  0.500000  0.136345  0.000000  1
  Yb  Yb4  1  0.000000  0.863655  0.500000  1
  Yb  Yb5  1  0.500000  0.792706  0.257716  1
  Y  Y6  1  0.500000  0.699268  0.000000  1
  Y  Y7  1  0.000000  0.300732  0.500000  1
  Cu  Cu8  1  0.500000  0.378651  0.644501  1
  Cu  Cu9  1  0.000000  0.621349  0.855499  1
  Cu  Cu10  1  0.000000  0.621349  0.144501  1
  Cu  Cu11  1  0.500000  0.378651  0.355499  1
  Sn  Sn12  1  0.500000  0.085786  0.395941  1
  Sn  Sn13  1  0.000000  0.555164  0.663861  1
  Sn  Sn14  1  0.000000  0.406624  0.000000  1
  Sn  Sn15  1  0.500000  0.444836  0.163861  1
  Sn  Sn16  1  0.500000  0.593376  0.500000  1
  Sn  Sn17  1  0.500000  0.444836  0.836139  1
  Sn  Sn18  1  0.000000  0.914214  0.895941  1
  Sn  Sn19  1  0.000000  0.555164  0.336139  1
  Sn  Sn20  1  0.500000  0.085786  0.604059  1
  Sn  Sn21  1  0.000000  0.914214  0.104059  1
