# generated using pymatgen
data_Dy(Si2Ir3)2
_symmetry_space_group_name_H-M   'P 1'
_cell_length_a   7.03834400
_cell_length_b   7.03834476
_cell_length_c   3.84391100
_cell_angle_alpha   90.00000000
_cell_angle_beta   90.00000000
_cell_angle_gamma   120.00000585
_symmetry_Int_Tables_number   1
_chemical_formula_structural   Dy(Si2Ir3)2
_chemical_formula_sum   'Dy1 Si4 Ir6'
_cell_volume   164.90922658
_cell_formula_units_Z   1
loop_
 _symmetry_equiv_pos_site_id
 _symmetry_equiv_pos_as_xyz
  1  'x, y, z'
loop_
 _atom_site_type_symbol
 _atom_site_label
 _atom_site_symmetry_multiplicity
 _atom_site_fract_x
 _atom_site_fract_y
 _atom_site_fract_z
 _atom_site_occupancy
  Dy  Dy0  1  0.000000  0.000000  0.000000  1
  Si  Si1  1  0.333334  0.666667  0.000000  1
  Si  Si2  1  0.394347  0.197174  0.500000  1
  Si  Si3  1  0.802826  0.197174  0.500000  1
  Si  Si4  1  0.802827  0.605654  0.500000  1
  Ir  Ir5  1  0.532874  0.065748  0.000000  1
  Ir  Ir6  1  0.532874  0.467127  0.000000  1
  Ir  Ir7  1  0.934252  0.467127  0.000000  1
  Ir  Ir8  1  0.197335  0.394671  0.500000  1
  Ir  Ir9  1  0.197336  0.802666  0.500000  1
  Ir  Ir10  1  0.605329  0.802666  0.500000  1
