# generated using pymatgen
data_Cs3Lu(AsSe2)6
_symmetry_space_group_name_H-M   'P 1'
_cell_length_a   10.01397700
_cell_length_b   10.01397584
_cell_length_c   8.76962900
_cell_angle_alpha   90.00000000
_cell_angle_beta   90.00000000
_cell_angle_gamma   119.99999393
_symmetry_Int_Tables_number   1
_chemical_formula_structural   Cs3Lu(AsSe2)6
_chemical_formula_sum   'Cs3 Lu1 As6 Se12'
_cell_volume   761.59662000
_cell_formula_units_Z   1
loop_
 _symmetry_equiv_pos_site_id
 _symmetry_equiv_pos_as_xyz
  1  'x, y, z'
loop_
 _atom_site_type_symbol
 _atom_site_label
 _atom_site_symmetry_multiplicity
 _atom_site_fract_x
 _atom_site_fract_y
 _atom_site_fract_z
 _atom_site_occupancy
  Cs  Cs0  1  0.000000  0.000000  0.000000  1
  Cs  Cs1  1  0.333333  0.666667  0.855014  1
  Cs  Cs2  1  0.666667  0.333333  0.144986  1
  Lu  Lu3  1  0.000000  0.000000  0.500000  1
  As  As4  1  0.286158  0.835697  0.397172  1
  As  As5  1  0.164303  0.450462  0.397172  1
  As  As6  1  0.549538  0.713842  0.397172  1
  As  As7  1  0.713842  0.164303  0.602828  1
  As  As8  1  0.835697  0.549538  0.602828  1
  As  As9  1  0.450462  0.286158  0.602828  1
  Se  Se10  1  0.252189  0.044353  0.315197  1
  Se  Se11  1  0.955647  0.207837  0.315197  1
  Se  Se12  1  0.792163  0.747811  0.315197  1
  Se  Se13  1  0.747811  0.955647  0.684803  1
  Se  Se14  1  0.044353  0.792163  0.684803  1
  Se  Se15  1  0.207837  0.252189  0.684803  1
  Se  Se16  1  0.523139  0.906199  0.244515  1
  Se  Se17  1  0.093801  0.616939  0.244515  1
  Se  Se18  1  0.383061  0.476861  0.244515  1
  Se  Se19  1  0.476861  0.093801  0.755485  1
  Se  Se20  1  0.906199  0.383061  0.755485  1
  Se  Se21  1  0.616939  0.523139  0.755485  1
