# generated using pymatgen
data_CeY3(ReB6)2
_symmetry_space_group_name_H-M   'P 1'
_cell_length_a   3.71080900
_cell_length_b   9.21194255
_cell_length_c   11.59760328
_cell_angle_alpha   89.86319237
_cell_angle_beta   90.00000000
_cell_angle_gamma   90.00000000
_symmetry_Int_Tables_number   1
_chemical_formula_structural   CeY3(ReB6)2
_chemical_formula_sum   'Ce2 Y6 Re4 B24'
_cell_volume   396.44854923
_cell_formula_units_Z   2
loop_
 _symmetry_equiv_pos_site_id
 _symmetry_equiv_pos_as_xyz
  1  'x, y, z'
loop_
 _atom_site_type_symbol
 _atom_site_label
 _atom_site_symmetry_multiplicity
 _atom_site_fract_x
 _atom_site_fract_y
 _atom_site_fract_z
 _atom_site_occupancy
  Ce  Ce0  1  0.000000  0.822249  0.086205  1
  Ce  Ce1  1  0.000000  0.177751  0.913795  1
  Y  Y2  1  0.000000  0.323971  0.414514  1
  Y  Y3  1  0.000000  0.676029  0.585486  1
  Y  Y4  1  0.000000  0.443116  0.129529  1
  Y  Y5  1  0.000000  0.556884  0.870471  1
  Y  Y6  1  0.000000  0.942735  0.371191  1
  Y  Y7  1  0.000000  0.057265  0.628809  1
  Re  Re8  1  0.000000  0.137253  0.177848  1
  Re  Re9  1  0.000000  0.862747  0.822152  1
  Re  Re10  1  0.000000  0.638978  0.320208  1
  Re  Re11  1  0.000000  0.361022  0.679792  1
  B  B12  1  0.500000  0.053992  0.068268  1
  B  B13  1  0.500000  0.946008  0.931733  1
  B  B14  1  0.500000  0.553344  0.432999  1
  B  B15  1  0.500000  0.446656  0.567000  1
  B  B16  1  0.500000  0.248669  0.082546  1
  B  B17  1  0.500000  0.751331  0.917454  1
  B  B18  1  0.500000  0.748065  0.418752  1
  B  B19  1  0.500000  0.251935  0.581248  1
  B  B20  1  0.500000  0.291224  0.234793  1
  B  B21  1  0.500000  0.708776  0.765207  1
  B  B22  1  0.500000  0.790617  0.266099  1
  B  B23  1  0.500000  0.209383  0.733901  1
  B  B24  1  0.500000  0.130820  0.314444  1
  B  B25  1  0.500000  0.869180  0.685556  1
  B  B26  1  0.500000  0.630718  0.186535  1
  B  B27  1  0.500000  0.369282  0.813465  1
  B  B28  1  0.500000  0.482537  0.288519  1
  B  B29  1  0.500000  0.517463  0.711481  1
  B  B30  1  0.500000  0.983293  0.212705  1
  B  B31  1  0.500000  0.016707  0.787295  1
  B  B32  1  0.500000  0.101786  0.471480  1
  B  B33  1  0.500000  0.898214  0.528520  1
  B  B34  1  0.500000  0.602760  0.028694  1
  B  B35  1  0.500000  0.397240  0.971306  1
