# generated using pymatgen
data_Dy8ScTi7(Si4Mo)4
_symmetry_space_group_name_H-M   'P 1'
_cell_length_a   7.01849354
_cell_length_b   7.02482161
_cell_length_c   12.90860412
_cell_angle_alpha   89.90694727
_cell_angle_beta   89.85320620
_cell_angle_gamma   89.99662182
_symmetry_Int_Tables_number   1
_chemical_formula_structural   Dy8ScTi7(Si4Mo)4
_chemical_formula_sum   'Dy8 Sc1 Ti7 Si16 Mo4'
_cell_volume   636.43856478
_cell_formula_units_Z   1
loop_
 _symmetry_equiv_pos_site_id
 _symmetry_equiv_pos_as_xyz
  1  'x, y, z'
loop_
 _atom_site_type_symbol
 _atom_site_label
 _atom_site_symmetry_multiplicity
 _atom_site_fract_x
 _atom_site_fract_y
 _atom_site_fract_z
 _atom_site_occupancy
  Dy  Dy0  1  0.998584  0.659877  0.031327  1
  Dy  Dy1  1  0.000988  0.341152  0.534725  1
  Dy  Dy2  1  0.658827  0.000113  0.967331  1
  Dy  Dy3  1  0.159367  0.500837  0.782784  1
  Dy  Dy4  1  0.841396  0.500240  0.282447  1
  Dy  Dy5  1  0.500392  0.158207  0.215528  1
  Dy  Dy6  1  0.500225  0.841877  0.718715  1
  Dy  Dy7  1  0.341953  0.999107  0.467231  1
  Sc  Sc8  1  0.347435  0.504287  0.374159  1
  Ti  Ti9  1  0.846472  0.991689  0.376571  1
  Ti  Ti10  1  0.008468  0.152097  0.121172  1
  Ti  Ti11  1  0.990177  0.847410  0.624586  1
  Ti  Ti12  1  0.509604  0.348013  0.626612  1
  Ti  Ti13  1  0.152970  0.009837  0.876839  1
  Ti  Ti14  1  0.489243  0.654432  0.126990  1
  Ti  Ti15  1  0.652994  0.490374  0.873303  1
  Si  Si16  1  0.042770  0.710272  0.435805  1
  Si  Si17  1  0.951916  0.292024  0.934023  1
  Si  Si18  1  0.708941  0.047247  0.566442  1
  Si  Si19  1  0.206338  0.450558  0.180628  1
  Si  Si20  1  0.791977  0.548219  0.685188  1
  Si  Si21  1  0.452511  0.208545  0.815244  1
  Si  Si22  1  0.550856  0.795802  0.314286  1
  Si  Si23  1  0.291436  0.952045  0.064817  1
  Si  Si24  1  0.800353  0.870650  0.184721  1
  Si  Si25  1  0.298244  0.632305  0.569598  1
  Si  Si26  1  0.699744  0.371239  0.064689  1
  Si  Si27  1  0.636776  0.295036  0.437600  1
  Si  Si28  1  0.370758  0.699956  0.934809  1
  Si  Si29  1  0.127552  0.193326  0.311960  1
  Si  Si30  1  0.201041  0.129678  0.685554  1
  Si  Si31  1  0.870771  0.799777  0.815508  1
  Mo  Mo32  1  0.676777  0.676977  0.501665  1
  Mo  Mo33  1  0.826432  0.174708  0.750147  1
  Mo  Mo34  1  0.170823  0.827389  0.248420  1
  Mo  Mo35  1  0.324888  0.324698  0.998580  1
