# generated using pymatgen
data_La2NdSi4(AsPd10)2
_symmetry_space_group_name_H-M   'P 1'
_cell_length_a   8.79176985
_cell_length_b   8.88309928
_cell_length_c   8.88309811
_cell_angle_alpha   59.32095962
_cell_angle_beta   60.33952722
_cell_angle_gamma   60.33952178
_symmetry_Int_Tables_number   1
_chemical_formula_structural   La2NdSi4(AsPd10)2
_chemical_formula_sum   'La2 Nd1 Si4 As2 Pd20'
_cell_volume   490.45529232
_cell_formula_units_Z   1
loop_
 _symmetry_equiv_pos_site_id
 _symmetry_equiv_pos_as_xyz
  1  'x, y, z'
loop_
 _atom_site_type_symbol
 _atom_site_label
 _atom_site_symmetry_multiplicity
 _atom_site_fract_x
 _atom_site_fract_y
 _atom_site_fract_z
 _atom_site_occupancy
  La  La0  1  0.250000  0.250000  0.250000  1
  La  La1  1  0.750000  0.750000  0.750000  1
  Nd  Nd2  1  0.000000  0.000000  0.000000  1
  Si  Si3  1  0.267315  0.732685  0.267315  1
  Si  Si4  1  0.732685  0.267315  0.732685  1
  Si  Si5  1  0.267315  0.267315  0.732685  1
  Si  Si6  1  0.732685  0.732685  0.267315  1
  As  As7  1  0.736591  0.263409  0.263409  1
  As  As8  1  0.263409  0.736591  0.736591  1
  Pd  Pd9  1  0.346901  0.000000  0.000000  1
  Pd  Pd10  1  0.653099  0.000000  0.000000  1
  Pd  Pd11  1  0.000000  0.346901  0.653099  1
  Pd  Pd12  1  0.000000  0.653099  0.346901  1
  Pd  Pd13  1  0.009297  0.348043  0.990703  1
  Pd  Pd14  1  0.651957  0.990703  0.348043  1
  Pd  Pd15  1  0.990703  0.651957  0.009297  1
  Pd  Pd16  1  0.348043  0.009297  0.651957  1
  Pd  Pd17  1  0.009297  0.990703  0.348043  1
  Pd  Pd18  1  0.990703  0.009297  0.651957  1
  Pd  Pd19  1  0.651957  0.348043  0.990703  1
  Pd  Pd20  1  0.348043  0.651957  0.009297  1
  Pd  Pd21  1  0.380523  0.387739  0.387739  1
  Pd  Pd22  1  0.619477  0.612261  0.612261  1
  Pd  Pd23  1  0.387739  0.380523  0.843998  1
  Pd  Pd24  1  0.387739  0.843998  0.380523  1
  Pd  Pd25  1  0.612261  0.619477  0.156002  1
  Pd  Pd26  1  0.612261  0.156002  0.619477  1
  Pd  Pd27  1  0.843998  0.387739  0.387739  1
  Pd  Pd28  1  0.156002  0.612261  0.612261  1
