# generated using pymatgen
data_CsNbBr6
_symmetry_space_group_name_H-M   'P 1'
_cell_length_a   7.58832332
_cell_length_b   7.58832394
_cell_length_c   13.64734208
_cell_angle_alpha   79.38002442
_cell_angle_beta   79.38002113
_cell_angle_gamma   55.50237609
_symmetry_Int_Tables_number   1
_chemical_formula_structural   CsNbBr6
_chemical_formula_sum   'Cs2 Nb2 Br12'
_cell_volume   633.45909494
_cell_formula_units_Z   2
loop_
 _symmetry_equiv_pos_site_id
 _symmetry_equiv_pos_as_xyz
  1  'x, y, z'
loop_
 _atom_site_type_symbol
 _atom_site_label
 _atom_site_symmetry_multiplicity
 _atom_site_fract_x
 _atom_site_fract_y
 _atom_site_fract_z
 _atom_site_occupancy
  Cs  Cs0  1  0.882446  0.117554  0.750000  1
  Cs  Cs1  1  0.117554  0.882446  0.250000  1
  Nb  Nb2  1  0.500000  0.000000  0.500000  1
  Nb  Nb3  1  0.000000  0.500000  0.000000  1
  Br  Br4  1  0.462860  0.703731  0.602696  1
  Br  Br5  1  0.537140  0.296269  0.397304  1
  Br  Br6  1  0.296269  0.537140  0.897304  1
  Br  Br7  1  0.703731  0.462860  0.102696  1
  Br  Br8  1  0.371939  0.197116  0.656430  1
  Br  Br9  1  0.628061  0.802884  0.343570  1
  Br  Br10  1  0.802884  0.628061  0.843570  1
  Br  Br11  1  0.197116  0.371939  0.156430  1
  Br  Br12  1  0.799349  0.888560  0.039256  1
  Br  Br13  1  0.200651  0.111440  0.960744  1
  Br  Br14  1  0.111440  0.200651  0.460744  1
  Br  Br15  1  0.888560  0.799349  0.539256  1
