# generated using pymatgen
data_NdTmTeO6
_symmetry_space_group_name_H-M   'P 1'
_cell_length_a   5.43249600
_cell_length_b   9.29120800
_cell_length_c   10.16488500
_cell_angle_alpha   90.00000000
_cell_angle_beta   90.00000000
_cell_angle_gamma   90.00000000
_symmetry_Int_Tables_number   1
_chemical_formula_structural   NdTmTeO6
_chemical_formula_sum   'Nd4 Tm4 Te4 O24'
_cell_volume   513.06698269
_cell_formula_units_Z   4
loop_
 _symmetry_equiv_pos_site_id
 _symmetry_equiv_pos_as_xyz
  1  'x, y, z'
loop_
 _atom_site_type_symbol
 _atom_site_label
 _atom_site_symmetry_multiplicity
 _atom_site_fract_x
 _atom_site_fract_y
 _atom_site_fract_z
 _atom_site_occupancy
  Nd  Nd0  1  0.034560  0.219292  0.860209  1
  Nd  Nd1  1  0.534560  0.280708  0.139791  1
  Nd  Nd2  1  0.965440  0.719292  0.639791  1
  Nd  Nd3  1  0.465440  0.780708  0.360209  1
  Tm  Tm4  1  0.019564  0.103799  0.457114  1
  Tm  Tm5  1  0.519564  0.396201  0.542886  1
  Tm  Tm6  1  0.980436  0.603799  0.042886  1
  Tm  Tm7  1  0.480436  0.896201  0.957114  1
  Te  Te8  1  0.536116  0.010013  0.644044  1
  Te  Te9  1  0.036116  0.489987  0.355956  1
  Te  Te10  1  0.463884  0.510013  0.855956  1
  Te  Te11  1  0.963884  0.989987  0.144044  1
  O  O12  1  0.253100  0.424893  0.995947  1
  O  O13  1  0.753100  0.075107  0.004053  1
  O  O14  1  0.746900  0.924893  0.504053  1
  O  O15  1  0.246900  0.575107  0.495947  1
  O  O16  1  0.225468  0.108790  0.063715  1
  O  O17  1  0.725468  0.391210  0.936285  1
  O  O18  1  0.774532  0.608790  0.436285  1
  O  O19  1  0.274532  0.891210  0.563715  1
  O  O20  1  0.312437  0.356787  0.330696  1
  O  O21  1  0.812437  0.143213  0.669304  1
  O  O22  1  0.687563  0.856787  0.169304  1
  O  O23  1  0.187563  0.643213  0.830696  1
  O  O24  1  0.163091  0.950916  0.297722  1
  O  O25  1  0.663091  0.549084  0.702278  1
  O  O26  1  0.836909  0.450916  0.202278  1
  O  O27  1  0.336909  0.049084  0.797722  1
  O  O28  1  0.176671  0.634833  0.240443  1
  O  O29  1  0.676671  0.865167  0.759557  1
  O  O30  1  0.823329  0.134833  0.259557  1
  O  O31  1  0.323329  0.365167  0.740443  1
  O  O32  1  0.105100  0.838216  0.033674  1
  O  O33  1  0.605100  0.661784  0.966326  1
  O  O34  1  0.894900  0.338216  0.466326  1
  O  O35  1  0.394900  0.161784  0.533674  1
