# generated using pymatgen
data_Tb2Al20Fe3Rh
_symmetry_space_group_name_H-M   'P 1'
_cell_length_a   6.78066198
_cell_length_b   6.77358170
_cell_length_c   9.01062946
_cell_angle_alpha   90.19082208
_cell_angle_beta   89.97398449
_cell_angle_gamma   97.08223276
_symmetry_Int_Tables_number   1
_chemical_formula_structural   Tb2Al20Fe3Rh
_chemical_formula_sum   'Tb2 Al20 Fe3 Rh1'
_cell_volume   410.69263378
_cell_formula_units_Z   1
loop_
 _symmetry_equiv_pos_site_id
 _symmetry_equiv_pos_as_xyz
  1  'x, y, z'
loop_
 _atom_site_type_symbol
 _atom_site_label
 _atom_site_symmetry_multiplicity
 _atom_site_fract_x
 _atom_site_fract_y
 _atom_site_fract_z
 _atom_site_occupancy
  Tb  Tb0  1  0.874761  0.127711  0.748289  1
  Tb  Tb1  1  0.125239  0.872289  0.251711  1
  Al  Al2  1  0.413891  0.140039  0.745193  1
  Al  Al3  1  0.137256  0.416133  0.251183  1
  Al  Al4  1  0.586109  0.859961  0.254807  1
  Al  Al5  1  0.862744  0.583867  0.748817  1
  Al  Al6  1  0.519972  0.778317  0.744492  1
  Al  Al7  1  0.781183  0.519182  0.250757  1
  Al  Al8  1  0.480028  0.221683  0.255508  1
  Al  Al9  1  0.218817  0.480818  0.749243  1
  Al  Al10  1  0.842989  0.156752  0.402444  1
  Al  Al11  1  0.157011  0.843248  0.597556  1
  Al  Al12  1  0.848199  0.160667  0.100399  1
  Al  Al13  1  0.151801  0.839333  0.899601  1
  Al  Al14  1  0.628264  0.380035  0.950969  1
  Al  Al15  1  0.371736  0.619965  0.049031  1
  Al  Al16  1  0.626244  0.375196  0.546802  1
  Al  Al17  1  0.373756  0.624804  0.453198  1
  Al  Al18  1  0.776277  0.767695  0.002404  1
  Al  Al19  1  0.772917  0.771323  0.500744  1
  Al  Al20  1  0.223723  0.232304  0.997596  1
  Al  Al21  1  0.227083  0.228676  0.499256  1
  Fe  Fe22  1  0.000000  0.500000  0.000000  1
  Fe  Fe23  1  0.500000  0.000000  0.500000  1
  Fe  Fe24  1  0.000000  0.500000  0.500000  1
  Rh  Rh25  1  0.500000  0.000000  0.000000  1
