# generated using pymatgen
data_Pr5ScRhO12
_symmetry_space_group_name_H-M   'P 1'
_cell_length_a   7.17495661
_cell_length_b   7.17495681
_cell_length_c   7.67541188
_cell_angle_alpha   74.45259786
_cell_angle_beta   74.45259695
_cell_angle_gamma   50.47416938
_symmetry_Int_Tables_number   1
_chemical_formula_structural   Pr5ScRhO12
_chemical_formula_sum   'Pr5 Sc1 Rh1 O12'
_cell_volume   291.09096789
_cell_formula_units_Z   1
loop_
 _symmetry_equiv_pos_site_id
 _symmetry_equiv_pos_as_xyz
  1  'x, y, z'
loop_
 _atom_site_type_symbol
 _atom_site_label
 _atom_site_symmetry_multiplicity
 _atom_site_fract_x
 _atom_site_fract_y
 _atom_site_fract_z
 _atom_site_occupancy
  Pr  Pr0  1  0.306755  0.301952  0.357138  1
  Pr  Pr1  1  0.698048  0.693245  0.642862  1
  Pr  Pr2  1  0.688430  0.698734  0.164376  1
  Pr  Pr3  1  0.301266  0.311570  0.835624  1
  Pr  Pr4  1  0.006901  0.993099  0.500000  1
  Sc  Sc5  1  0.759568  0.240432  0.000000  1
  Rh  Rh6  1  0.246058  0.753942  0.000000  1
  O  O7  1  0.095934  0.597620  0.573358  1
  O  O8  1  0.019375  0.979630  0.180326  1
  O  O9  1  0.402380  0.904066  0.426642  1
  O  O10  1  0.486566  0.514678  0.179037  1
  O  O11  1  0.100444  0.584254  0.080693  1
  O  O12  1  0.905403  0.403167  0.422248  1
  O  O13  1  0.020370  0.980625  0.819674  1
  O  O14  1  0.596833  0.094596  0.577752  1
  O  O15  1  0.485322  0.513434  0.820963  1
  O  O16  1  0.566024  0.101424  0.081827  1
  O  O17  1  0.415746  0.899556  0.919307  1
  O  O18  1  0.898576  0.433976  0.918173  1
