# generated using pymatgen
data_Lu13Th3Cd4Fe3Ni
_symmetry_space_group_name_H-M   'P 1'
_cell_length_a   9.38001237
_cell_length_b   9.40592983
_cell_length_c   9.40593000
_cell_angle_alpha   59.99999939
_cell_angle_beta   59.90855621
_cell_angle_gamma   59.90855616
_symmetry_Int_Tables_number   1
_chemical_formula_structural   Lu13Th3Cd4Fe3Ni
_chemical_formula_sum   'Lu13 Th3 Cd4 Fe3 Ni1'
_cell_volume   585.99003814
_cell_formula_units_Z   1
loop_
 _symmetry_equiv_pos_site_id
 _symmetry_equiv_pos_as_xyz
  1  'x, y, z'
loop_
 _atom_site_type_symbol
 _atom_site_label
 _atom_site_symmetry_multiplicity
 _atom_site_fract_x
 _atom_site_fract_y
 _atom_site_fract_z
 _atom_site_occupancy
  Lu  Lu0  1  0.953992  0.348669  0.348669  1
  Lu  Lu1  1  0.817808  0.187195  0.187195  1
  Lu  Lu2  1  0.185719  0.814176  0.814176  1
  Lu  Lu3  1  0.185719  0.814176  0.185929  1
  Lu  Lu4  1  0.817808  0.187195  0.807802  1
  Lu  Lu5  1  0.185719  0.185929  0.814176  1
  Lu  Lu6  1  0.817808  0.807802  0.187195  1
  Lu  Lu7  1  0.935791  0.563456  0.563456  1
  Lu  Lu8  1  0.561609  0.936203  0.936203  1
  Lu  Lu9  1  0.561609  0.936203  0.565986  1
  Lu  Lu10  1  0.935791  0.563456  0.937297  1
  Lu  Lu11  1  0.561609  0.565986  0.936203  1
  Lu  Lu12  1  0.935791  0.937297  0.563456  1
  Th  Th13  1  0.336161  0.349731  0.349731  1
  Th  Th14  1  0.336161  0.349731  0.964376  1
  Th  Th15  1  0.336161  0.964376  0.349731  1
  Cd  Cd16  1  0.584233  0.580509  0.580509  1
  Cd  Cd17  1  0.584233  0.580509  0.254748  1
  Cd  Cd18  1  0.584233  0.254748  0.580509  1
  Cd  Cd19  1  0.252578  0.582474  0.582474  1
  Fe  Fe20  1  0.150369  0.140102  0.140102  1
  Fe  Fe21  1  0.150369  0.140102  0.569429  1
  Fe  Fe22  1  0.150369  0.569429  0.140102  1
  Ni  Ni23  1  0.578358  0.140547  0.140547  1
