# generated using pymatgen
data_YbEr2Tm4Co6Sn23
_symmetry_space_group_name_H-M   'P 1'
_cell_length_a   9.68127602
_cell_length_b   9.68205915
_cell_length_c   9.92268306
_cell_angle_alpha   90.00314921
_cell_angle_beta   89.99239392
_cell_angle_gamma   120.00068217
_symmetry_Int_Tables_number   1
_chemical_formula_structural   YbEr2Tm4Co6Sn23
_chemical_formula_sum   'Yb1 Er2 Tm4 Co6 Sn23'
_cell_volume   805.48432966
_cell_formula_units_Z   1
loop_
 _symmetry_equiv_pos_site_id
 _symmetry_equiv_pos_as_xyz
  1  'x, y, z'
loop_
 _atom_site_type_symbol
 _atom_site_label
 _atom_site_symmetry_multiplicity
 _atom_site_fract_x
 _atom_site_fract_y
 _atom_site_fract_z
 _atom_site_occupancy
  Yb  Yb0  1  0.000000  0.000000  0.000000  1
  Er  Er1  1  0.041116  0.520547  0.305943  1
  Er  Er2  1  0.958884  0.479453  0.694057  1
  Tm  Tm3  1  0.479715  0.520365  0.305837  1
  Tm  Tm4  1  0.520285  0.479635  0.694163  1
  Tm  Tm5  1  0.479728  0.959360  0.305817  1
  Tm  Tm6  1  0.520272  0.040640  0.694183  1
  Co  Co7  1  0.831235  0.168375  0.198627  1
  Co  Co8  1  0.168765  0.831625  0.801373  1
  Co  Co9  1  0.831236  0.662853  0.198628  1
  Co  Co10  1  0.168764  0.337147  0.801372  1
  Co  Co11  1  0.337420  0.168706  0.198725  1
  Co  Co12  1  0.662580  0.831294  0.801275  1
  Sn  Sn13  1  0.118086  0.882307  0.274211  1
  Sn  Sn14  1  0.881914  0.117693  0.725789  1
  Sn  Sn15  1  0.118083  0.235754  0.274253  1
  Sn  Sn16  1  0.881917  0.764246  0.725747  1
  Sn  Sn17  1  0.763731  0.881855  0.274353  1
  Sn  Sn18  1  0.236269  0.118145  0.725647  1
  Sn  Sn19  1  0.780350  0.218875  0.452173  1
  Sn  Sn20  1  0.219650  0.781125  0.547827  1
  Sn  Sn21  1  0.780350  0.561480  0.452177  1
  Sn  Sn22  1  0.219650  0.438520  0.547823  1
  Sn  Sn23  1  0.438442  0.219222  0.452171  1
  Sn  Sn24  1  0.561558  0.780778  0.547829  1
  Sn  Sn25  1  0.346049  0.000095  0.000011  1
  Sn  Sn26  1  0.653951  0.999905  0.999989  1
  Sn  Sn27  1  0.000001  0.346023  0.999990  1
  Sn  Sn28  1  0.999999  0.653977  0.000010  1
  Sn  Sn29  1  0.653963  0.654058  0.999997  1
  Sn  Sn30  1  0.346037  0.345942  0.000003  1
  Sn  Sn31  1  0.333916  0.666958  0.120923  1
  Sn  Sn32  1  0.666084  0.333042  0.879077  1
  Sn  Sn33  1  0.333448  0.666728  0.816795  1
  Sn  Sn34  1  0.666552  0.333272  0.183205  1
  Sn  Sn35  1  0.000000  0.000000  0.500000  1
