# generated using pymatgen
data_Hf3Ga3NiPdRu
_symmetry_space_group_name_H-M   'P 1'
_cell_length_a   7.27830900
_cell_length_b   7.27830833
_cell_length_c   6.51496600
_cell_angle_alpha   90.00000000
_cell_angle_beta   90.00000000
_cell_angle_gamma   119.99999852
_symmetry_Int_Tables_number   1
_chemical_formula_structural   Hf3Ga3NiPdRu
_chemical_formula_sum   'Hf6 Ga6 Ni2 Pd2 Ru2'
_cell_volume   298.88473213
_cell_formula_units_Z   2
loop_
 _symmetry_equiv_pos_site_id
 _symmetry_equiv_pos_as_xyz
  1  'x, y, z'
loop_
 _atom_site_type_symbol
 _atom_site_label
 _atom_site_symmetry_multiplicity
 _atom_site_fract_x
 _atom_site_fract_y
 _atom_site_fract_z
 _atom_site_occupancy
  Hf  Hf0  1  0.726020  0.044815  0.000000  1
  Hf  Hf1  1  0.318795  0.273980  0.000000  1
  Hf  Hf2  1  0.955185  0.681205  0.000000  1
  Hf  Hf3  1  0.320296  0.269869  0.500000  1
  Hf  Hf4  1  0.730131  0.050426  0.500000  1
  Hf  Hf5  1  0.949574  0.679704  0.500000  1
  Ga  Ga6  1  0.594021  0.662435  0.750944  1
  Ga  Ga7  1  0.068414  0.405979  0.750944  1
  Ga  Ga8  1  0.337565  0.931586  0.750944  1
  Ga  Ga9  1  0.594021  0.662435  0.249056  1
  Ga  Ga10  1  0.068414  0.405979  0.249056  1
  Ga  Ga11  1  0.337565  0.931586  0.249056  1
  Ni  Ni12  1  0.333333  0.666667  0.000000  1
  Ni  Ni13  1  0.333333  0.666667  0.500000  1
  Pd  Pd14  1  0.666667  0.333333  0.751686  1
  Pd  Pd15  1  0.666667  0.333333  0.248314  1
  Ru  Ru16  1  0.000000  0.000000  0.250347  1
  Ru  Ru17  1  0.000000  0.000000  0.749653  1
