# generated using pymatgen
data_Th3GaCo3Sn2
_symmetry_space_group_name_H-M   'P 1'
_cell_length_a   7.29746694
_cell_length_b   7.29746670
_cell_length_c   4.02759100
_cell_angle_alpha   90.00000000
_cell_angle_beta   90.00000000
_cell_angle_gamma   120.20731330
_symmetry_Int_Tables_number   1
_chemical_formula_structural   Th3GaCo3Sn2
_chemical_formula_sum   'Th3 Ga1 Co3 Sn2'
_cell_volume   185.35709023
_cell_formula_units_Z   1
loop_
 _symmetry_equiv_pos_site_id
 _symmetry_equiv_pos_as_xyz
  1  'x, y, z'
loop_
 _atom_site_type_symbol
 _atom_site_label
 _atom_site_symmetry_multiplicity
 _atom_site_fract_x
 _atom_site_fract_y
 _atom_site_fract_z
 _atom_site_occupancy
  Th  Th0  1  0.989321  0.585933  0.500000  1
  Th  Th1  1  0.430299  0.430299  0.500000  1
  Th  Th2  1  0.585933  0.989321  0.500000  1
  Ga  Ga3  1  0.757132  0.757132  0.000000  1
  Co  Co4  1  0.340071  0.666447  0.000000  1
  Co  Co5  1  0.987241  0.987241  0.500000  1
  Co  Co6  1  0.666447  0.340071  0.000000  1
  Sn  Sn7  1  0.000060  0.243496  0.000000  1
  Sn  Sn8  1  0.243496  0.000060  0.000000  1
