# generated using pymatgen
data_CsNbSiO5
_symmetry_space_group_name_H-M   'P 1'
_cell_length_a   7.29214700
_cell_length_b   7.29214726
_cell_length_c   19.94927900
_cell_angle_alpha   90.00000000
_cell_angle_beta   90.00000000
_cell_angle_gamma   90.01543152
_symmetry_Int_Tables_number   1
_chemical_formula_structural   CsNbSiO5
_chemical_formula_sum   'Cs8 Nb8 Si8 O40'
_cell_volume   1060.81104753
_cell_formula_units_Z   8
loop_
 _symmetry_equiv_pos_site_id
 _symmetry_equiv_pos_as_xyz
  1  'x, y, z'
loop_
 _atom_site_type_symbol
 _atom_site_label
 _atom_site_symmetry_multiplicity
 _atom_site_fract_x
 _atom_site_fract_y
 _atom_site_fract_z
 _atom_site_occupancy
  Cs  Cs0  1  0.999521  0.497491  0.613587  1
  Cs  Cs1  1  0.497491  0.999521  0.113587  1
  Cs  Cs2  1  0.999521  0.497491  0.886413  1
  Cs  Cs3  1  0.497491  0.999521  0.386413  1
  Cs  Cs4  1  0.500238  0.500238  0.000000  1
  Cs  Cs5  1  0.500238  0.500238  0.500000  1
  Cs  Cs6  1  0.980668  0.026061  0.250000  1
  Cs  Cs7  1  0.026061  0.980668  0.750000  1
  Nb  Nb8  1  0.999633  0.249331  0.066610  1
  Nb  Nb9  1  0.999570  0.753014  0.067584  1
  Nb  Nb10  1  0.753014  0.999570  0.567584  1
  Nb  Nb11  1  0.249331  0.999633  0.566610  1
  Nb  Nb12  1  0.999570  0.753014  0.432416  1
  Nb  Nb13  1  0.999633  0.249331  0.433390  1
  Nb  Nb14  1  0.753014  0.999570  0.932416  1
  Nb  Nb15  1  0.249331  0.999633  0.933390  1
  Si  Si16  1  0.722193  0.500028  0.170386  1
  Si  Si17  1  0.277002  0.499952  0.170408  1
  Si  Si18  1  0.500028  0.722193  0.670386  1
  Si  Si19  1  0.499952  0.277002  0.670408  1
  Si  Si20  1  0.722193  0.500028  0.329614  1
  Si  Si21  1  0.277002  0.499952  0.329592  1
  Si  Si22  1  0.499952  0.277002  0.829592  1
  Si  Si23  1  0.500028  0.722193  0.829614  1
  O  O24  1  0.800304  0.313505  0.136458  1
  O  O25  1  0.199417  0.686155  0.136181  1
  O  O26  1  0.686615  0.800086  0.636484  1
  O  O27  1  0.313516  0.198811  0.636457  1
  O  O28  1  0.800086  0.686615  0.363516  1
  O  O29  1  0.198811  0.313516  0.363543  1
  O  O30  1  0.686155  0.199417  0.863819  1
  O  O31  1  0.313505  0.800304  0.863542  1
  O  O32  1  0.199417  0.686155  0.363819  1
  O  O33  1  0.800304  0.313505  0.363542  1
  O  O34  1  0.313516  0.198811  0.863543  1
  O  O35  1  0.686615  0.800086  0.863516  1
  O  O36  1  0.198811  0.313516  0.136457  1
  O  O37  1  0.800086  0.686615  0.136484  1
  O  O38  1  0.313505  0.800304  0.636458  1
  O  O39  1  0.686155  0.199417  0.636181  1
  O  O40  1  0.999502  0.500521  0.035347  1
  O  O41  1  0.500521  0.999502  0.535347  1
  O  O42  1  0.999502  0.500521  0.464653  1
  O  O43  1  0.500521  0.999502  0.964653  1
  O  O44  1  0.769519  0.498477  0.250000  1
  O  O45  1  0.229967  0.499266  0.250000  1
  O  O46  1  0.498477  0.769519  0.750000  1
  O  O47  1  0.499266  0.229967  0.750000  1
  O  O48  1  0.499720  0.499997  0.160121  1
  O  O49  1  0.499997  0.499720  0.660121  1
  O  O50  1  0.499720  0.499997  0.339879  1
  O  O51  1  0.499997  0.499720  0.839879  1
  O  O52  1  0.810717  0.189362  0.999829  1
  O  O53  1  0.189362  0.810717  0.000171  1
  O  O54  1  0.811019  0.811019  0.500000  1
  O  O55  1  0.189896  0.189896  0.500000  1
  O  O56  1  0.189362  0.810717  0.499829  1
  O  O57  1  0.810717  0.189362  0.500171  1
  O  O58  1  0.189896  0.189896  0.000000  1
  O  O59  1  0.811019  0.811019  0.000000  1
  O  O60  1  0.000320  0.000638  0.104487  1
  O  O61  1  0.000638  0.000320  0.604487  1
  O  O62  1  0.000320  0.000638  0.395513  1
  O  O63  1  0.000638  0.000320  0.895513  1
