# generated using pymatgen
data_CdCoIrPbO7
_symmetry_space_group_name_H-M   'P 1'
_cell_length_a   7.13034169
_cell_length_b   7.13034136
_cell_length_c   7.28077100
_cell_angle_alpha   59.29962882
_cell_angle_beta   59.29963041
_cell_angle_gamma   59.53403135
_symmetry_Int_Tables_number   1
_chemical_formula_structural   CdCoIrPbO7
_chemical_formula_sum   'Cd2 Co2 Ir2 Pb2 O14'
_cell_volume   258.03804550
_cell_formula_units_Z   2
loop_
 _symmetry_equiv_pos_site_id
 _symmetry_equiv_pos_as_xyz
  1  'x, y, z'
loop_
 _atom_site_type_symbol
 _atom_site_label
 _atom_site_symmetry_multiplicity
 _atom_site_fract_x
 _atom_site_fract_y
 _atom_site_fract_z
 _atom_site_occupancy
  Cd  Cd0  1  0.625000  0.125000  0.125000  1
  Cd  Cd1  1  0.125000  0.625000  0.125000  1
  Co  Co2  1  0.125000  0.625000  0.625000  1
  Co  Co3  1  0.625000  0.125000  0.625000  1
  Ir  Ir4  1  0.625000  0.625000  0.125000  1
  Ir  Ir5  1  0.625000  0.625000  0.625000  1
  Pb  Pb6  1  0.125000  0.125000  0.625000  1
  Pb  Pb7  1  0.125000  0.125000  0.125000  1
  O  O8  1  0.699417  0.699417  0.300583  1
  O  O9  1  0.299310  0.299310  0.700690  1
  O  O10  1  0.707840  0.294714  0.693579  1
  O  O11  1  0.294714  0.707840  0.303867  1
  O  O12  1  0.294714  0.707840  0.693579  1
  O  O13  1  0.707840  0.294714  0.303867  1
  O  O14  1  0.550583  0.550583  0.949417  1
  O  O15  1  0.950690  0.950690  0.549310  1
  O  O16  1  0.542160  0.955286  0.556421  1
  O  O17  1  0.955286  0.542160  0.946133  1
  O  O18  1  0.955286  0.542160  0.556421  1
  O  O19  1  0.542160  0.955286  0.946133  1
  O  O20  1  0.253883  0.253883  0.246117  1
  O  O21  1  0.996117  0.996117  0.003883  1
