# generated using pymatgen
data_PrThAl2Ga3AgAu2
_symmetry_space_group_name_H-M   'P 1'
_cell_length_a   4.36531600
_cell_length_b   4.36286500
_cell_length_c   10.77647400
_cell_angle_alpha   90.00000000
_cell_angle_beta   90.00000000
_cell_angle_gamma   90.00000000
_symmetry_Int_Tables_number   1
_chemical_formula_structural   PrThAl2Ga3AgAu2
_chemical_formula_sum   'Pr1 Th1 Al2 Ga3 Ag1 Au2'
_cell_volume   205.24101206
_cell_formula_units_Z   1
loop_
 _symmetry_equiv_pos_site_id
 _symmetry_equiv_pos_as_xyz
  1  'x, y, z'
loop_
 _atom_site_type_symbol
 _atom_site_label
 _atom_site_symmetry_multiplicity
 _atom_site_fract_x
 _atom_site_fract_y
 _atom_site_fract_z
 _atom_site_occupancy
  Pr  Pr0  1  0.500000  0.000000  0.746194  1
  Th  Th1  1  0.000000  0.500000  0.253650  1
  Al  Al2  1  0.500000  0.500000  0.000688  1
  Al  Al3  1  0.000000  0.000000  0.000314  1
  Ga  Ga4  1  0.000000  0.500000  0.637659  1
  Ga  Ga5  1  0.500000  0.000000  0.361954  1
  Ga  Ga6  1  0.000000  0.000000  0.499171  1
  Ag  Ag7  1  0.500000  0.500000  0.498924  1
  Au  Au8  1  0.000000  0.500000  0.872843  1
  Au  Au9  1  0.500000  0.000000  0.128601  1
