# generated using pymatgen
data_NaMn3S4
_symmetry_space_group_name_H-M   'P 1'
_cell_length_a   7.67942012
_cell_length_b   5.33802212
_cell_length_c   7.69244243
_cell_angle_alpha   74.82477390
_cell_angle_beta   119.43125794
_cell_angle_gamma   136.07025562
_symmetry_Int_Tables_number   1
_chemical_formula_structural   NaMn3S4
_chemical_formula_sum   'Na1 Mn3 S4'
_cell_volume   188.31168245
_cell_formula_units_Z   1
loop_
 _symmetry_equiv_pos_site_id
 _symmetry_equiv_pos_as_xyz
  1  'x, y, z'
loop_
 _atom_site_type_symbol
 _atom_site_label
 _atom_site_symmetry_multiplicity
 _atom_site_fract_x
 _atom_site_fract_y
 _atom_site_fract_z
 _atom_site_occupancy
  Na  Na0  1  0.799192  0.955632  0.799647  1
  Mn  Mn1  1  0.450331  0.292542  0.273431  1
  Mn  Mn2  1  0.950252  0.291462  0.271414  1
  Mn  Mn3  1  0.443496  0.791000  0.261732  1
  S  S4  1  0.816424  0.333436  0.465095  1
  S  S5  1  0.080531  0.733414  0.065389  1
  S  S6  1  0.333334  0.364897  0.469246  1
  S  S7  1  0.553199  0.731004  0.064179  1
