# generated using pymatgen
data_TaFe3P3Ru2
_symmetry_space_group_name_H-M   'P 1'
_cell_length_a   3.67712200
_cell_length_b   10.18778300
_cell_length_c   11.83408300
_cell_angle_alpha   90.00000000
_cell_angle_beta   90.00000000
_cell_angle_gamma   90.00000000
_symmetry_Int_Tables_number   1
_chemical_formula_structural   TaFe3P3Ru2
_chemical_formula_sum   'Ta4 Fe12 P12 Ru8'
_cell_volume   443.32511564
_cell_formula_units_Z   4
loop_
 _symmetry_equiv_pos_site_id
 _symmetry_equiv_pos_as_xyz
  1  'x, y, z'
loop_
 _atom_site_type_symbol
 _atom_site_label
 _atom_site_symmetry_multiplicity
 _atom_site_fract_x
 _atom_site_fract_y
 _atom_site_fract_z
 _atom_site_occupancy
  Ta  Ta0  1  0.250000  0.579529  0.712918  1
  Ta  Ta1  1  0.250000  0.920471  0.212918  1
  Ta  Ta2  1  0.750000  0.420471  0.287082  1
  Ta  Ta3  1  0.750000  0.079529  0.787082  1
  Fe  Fe4  1  0.250000  0.230379  0.175273  1
  Fe  Fe5  1  0.250000  0.269621  0.675273  1
  Fe  Fe6  1  0.750000  0.769621  0.824727  1
  Fe  Fe7  1  0.750000  0.730379  0.324727  1
  Fe  Fe8  1  0.250000  0.882084  0.702282  1
  Fe  Fe9  1  0.250000  0.617916  0.202282  1
  Fe  Fe10  1  0.750000  0.117916  0.297718  1
  Fe  Fe11  1  0.750000  0.382084  0.797718  1
  Fe  Fe12  1  0.250000  0.462810  0.930967  1
  Fe  Fe13  1  0.250000  0.037190  0.430967  1
  Fe  Fe14  1  0.750000  0.537190  0.069033  1
  Fe  Fe15  1  0.750000  0.962810  0.569033  1
  P  P16  1  0.250000  0.427436  0.115707  1
  P  P17  1  0.250000  0.072564  0.615707  1
  P  P18  1  0.750000  0.572564  0.884293  1
  P  P19  1  0.750000  0.927436  0.384293  1
  P  P20  1  0.250000  0.268114  0.857032  1
  P  P21  1  0.250000  0.231886  0.357032  1
  P  P22  1  0.750000  0.731886  0.142968  1
  P  P23  1  0.750000  0.768114  0.642968  1
  P  P24  1  0.250000  0.602260  0.382371  1
  P  P25  1  0.250000  0.897740  0.882371  1
  P  P26  1  0.750000  0.397740  0.617629  1
  P  P27  1  0.750000  0.102260  0.117629  1
  Ru  Ru28  1  0.250000  0.706855  0.987637  1
  Ru  Ru29  1  0.250000  0.793145  0.487637  1
  Ru  Ru30  1  0.750000  0.293145  0.012363  1
  Ru  Ru31  1  0.750000  0.206855  0.512363  1
  Ru  Ru32  1  0.250000  0.405247  0.475894  1
  Ru  Ru33  1  0.250000  0.094753  0.975894  1
  Ru  Ru34  1  0.750000  0.594753  0.524106  1
  Ru  Ru35  1  0.750000  0.905247  0.024106  1
