# generated using pymatgen
data_Tb12InGa(CoPd)2
_symmetry_space_group_name_H-M   'P 1'
_cell_length_a   8.48134711
_cell_length_b   8.48133070
_cell_length_c   8.48134694
_cell_angle_alpha   112.94441358
_cell_angle_beta   109.71159822
_cell_angle_gamma   105.83556712
_symmetry_Int_Tables_number   1
_chemical_formula_structural   Tb12InGa(CoPd)2
_chemical_formula_sum   'Tb12 In1 Ga1 Co2 Pd2'
_cell_volume   467.84090778
_cell_formula_units_Z   1
loop_
 _symmetry_equiv_pos_site_id
 _symmetry_equiv_pos_as_xyz
  1  'x, y, z'
loop_
 _atom_site_type_symbol
 _atom_site_label
 _atom_site_symmetry_multiplicity
 _atom_site_fract_x
 _atom_site_fract_y
 _atom_site_fract_z
 _atom_site_occupancy
  Tb  Tb0  1  0.433233  0.239449  0.193783  1
  Tb  Tb1  1  0.566767  0.760551  0.806217  1
  Tb  Tb2  1  0.045666  0.239449  0.806215  1
  Tb  Tb3  1  0.954334  0.760551  0.193785  1
  Tb  Tb4  1  0.180146  0.284986  0.465132  1
  Tb  Tb5  1  0.819854  0.715014  0.534868  1
  Tb  Tb6  1  0.180145  0.715014  0.895160  1
  Tb  Tb7  1  0.819855  0.284986  0.104840  1
  Tb  Tb8  1  0.310242  0.620518  0.310275  1
  Tb  Tb9  1  0.689758  0.379482  0.689725  1
  Tb  Tb10  1  0.310242  0.999967  0.689724  1
  Tb  Tb11  1  0.689758  0.000033  0.310276  1
  In  In12  1  0.500000  0.500000  0.000000  1
  Ga  Ga13  1  0.000000  0.000000  0.000000  1
  Co  Co14  1  0.109908  0.609908  0.499999  1
  Co  Co15  1  0.890092  0.390092  0.500001  1
  Pd  Pd16  1  0.346452  0.000000  0.346452  1
  Pd  Pd17  1  0.653548  0.000000  0.653548  1
