# generated using pymatgen
data_HoTm2Fe8Co3B4
_symmetry_space_group_name_H-M   'P 1'
_cell_length_a   5.02979300
_cell_length_b   5.02979231
_cell_length_c   9.96204600
_cell_angle_alpha   90.00000000
_cell_angle_beta   90.00000000
_cell_angle_gamma   119.99999799
_symmetry_Int_Tables_number   1
_chemical_formula_structural   HoTm2Fe8Co3B4
_chemical_formula_sum   'Ho1 Tm2 Fe8 Co3 B4'
_cell_volume   218.26261165
_cell_formula_units_Z   1
loop_
 _symmetry_equiv_pos_site_id
 _symmetry_equiv_pos_as_xyz
  1  'x, y, z'
loop_
 _atom_site_type_symbol
 _atom_site_label
 _atom_site_symmetry_multiplicity
 _atom_site_fract_x
 _atom_site_fract_y
 _atom_site_fract_z
 _atom_site_occupancy
  Ho  Ho0  1  0.000000  0.000000  0.000000  1
  Tm  Tm1  1  0.000000  0.000000  0.651864  1
  Tm  Tm2  1  0.000000  0.000000  0.348136  1
  Fe  Fe3  1  0.666667  0.333333  0.000000  1
  Fe  Fe4  1  0.333333  0.666667  0.000000  1
  Fe  Fe5  1  0.500000  0.500000  0.797219  1
  Fe  Fe6  1  0.500000  0.000000  0.797219  1
  Fe  Fe7  1  0.000000  0.500000  0.797219  1
  Fe  Fe8  1  0.500000  0.500000  0.202781  1
  Fe  Fe9  1  0.500000  0.000000  0.202781  1
  Fe  Fe10  1  0.000000  0.500000  0.202781  1
  Co  Co11  1  0.500000  0.500000  0.500000  1
  Co  Co12  1  0.500000  0.000000  0.500000  1
  Co  Co13  1  0.000000  0.500000  0.500000  1
  B  B14  1  0.666667  0.333333  0.647057  1
  B  B15  1  0.333333  0.666667  0.647057  1
  B  B16  1  0.333333  0.666667  0.352943  1
  B  B17  1  0.666667  0.333333  0.352943  1
