# generated using pymatgen
data_Sr8Zn4Si11Ge
_symmetry_space_group_name_H-M   'P 1'
_cell_length_a   11.73569618
_cell_length_b   10.20469384
_cell_length_c   8.23080400
_cell_angle_alpha   78.25548084
_cell_angle_beta   58.36443927
_cell_angle_gamma   43.31869313
_symmetry_Int_Tables_number   1
_chemical_formula_structural   Sr8Zn4Si11Ge
_chemical_formula_sum   'Sr8 Zn4 Si11 Ge1'
_cell_volume   548.35960133
_cell_formula_units_Z   1
loop_
 _symmetry_equiv_pos_site_id
 _symmetry_equiv_pos_as_xyz
  1  'x, y, z'
loop_
 _atom_site_type_symbol
 _atom_site_label
 _atom_site_symmetry_multiplicity
 _atom_site_fract_x
 _atom_site_fract_y
 _atom_site_fract_z
 _atom_site_occupancy
  Sr  Sr0  1  0.122720  0.121752  0.877738  1
  Sr  Sr1  1  0.875505  0.876400  0.123761  1
  Sr  Sr2  1  0.126789  0.127154  0.373222  1
  Sr  Sr3  1  0.375422  0.374089  0.125061  1
  Sr  Sr4  1  0.621460  0.622681  0.379085  1
  Sr  Sr5  1  0.376984  0.376087  0.622570  1
  Sr  Sr6  1  0.627410  0.627563  0.872467  1
  Sr  Sr7  1  0.873358  0.874422  0.627170  1
  Zn  Zn8  1  0.085304  0.413043  0.078028  1
  Zn  Zn9  1  0.833614  0.167937  0.832895  1
  Zn  Zn10  1  0.168098  0.833425  0.165462  1
  Zn  Zn11  1  0.417258  0.082787  0.415945  1
  Si  Si12  1  0.079905  0.412107  0.592062  1
  Si  Si13  1  0.416429  0.079676  0.917711  1
  Si  Si14  1  0.592596  0.920037  0.072885  1
  Si  Si15  1  0.328969  0.656454  0.835972  1
  Si  Si16  1  0.657590  0.330247  0.177161  1
  Si  Si17  1  0.833982  0.170575  0.332895  1
  Si  Si18  1  0.171598  0.834348  0.661626  1
  Si  Si19  1  0.912475  0.581481  0.920578  1
  Si  Si20  1  0.573695  0.917402  0.590875  1
  Si  Si21  1  0.336638  0.669309  0.329765  1
  Si  Si22  1  0.669432  0.336938  0.663865  1
  Ge  Ge23  1  0.922770  0.594094  0.411194  1
