# generated using pymatgen
data_YLuU2As6Ru7
_symmetry_space_group_name_H-M   'P 1'
_cell_length_a   7.19242992
_cell_length_b   7.23998882
_cell_length_c   7.23998832
_cell_angle_alpha   109.97728853
_cell_angle_beta   109.34514958
_cell_angle_gamma   109.34513070
_symmetry_Int_Tables_number   1
_chemical_formula_structural   YLuU2As6Ru7
_chemical_formula_sum   'Y1 Lu1 U2 As6 Ru7'
_cell_volume   289.29964390
_cell_formula_units_Z   1
loop_
 _symmetry_equiv_pos_site_id
 _symmetry_equiv_pos_as_xyz
  1  'x, y, z'
loop_
 _atom_site_type_symbol
 _atom_site_label
 _atom_site_symmetry_multiplicity
 _atom_site_fract_x
 _atom_site_fract_y
 _atom_site_fract_z
 _atom_site_occupancy
  Y  Y0  1  0.500000  0.000000  0.000000  1
  Lu  Lu1  1  0.500000  0.500000  0.500000  1
  U  U2  1  0.000000  0.000000  0.500000  1
  U  U3  1  0.000000  0.500000  0.000000  1
  As  As4  1  0.317469  0.005347  0.314120  1
  As  As5  1  0.001529  0.314143  0.314143  1
  As  As6  1  0.998471  0.685857  0.685857  1
  As  As7  1  0.317469  0.314120  0.005347  1
  As  As8  1  0.682531  0.685880  0.994653  1
  As  As9  1  0.682531  0.994653  0.685880  1
  Ru  Ru10  1  0.756544  0.508319  0.250950  1
  Ru  Ru11  1  0.500000  0.748390  0.251610  1
  Ru  Ru12  1  0.500000  0.251610  0.748390  1
  Ru  Ru13  1  0.756544  0.250950  0.508319  1
  Ru  Ru14  1  0.243456  0.749050  0.491681  1
  Ru  Ru15  1  0.243456  0.491681  0.749050  1
  Ru  Ru16  1  0.000000  0.000000  0.000000  1
