# generated using pymatgen
data_Hf18MnCr2CoRe6
_symmetry_space_group_name_H-M   'P 1'
_cell_length_a   8.56609300
_cell_length_b   8.56609349
_cell_length_c   8.37561400
_cell_angle_alpha   90.00000000
_cell_angle_beta   90.00000000
_cell_angle_gamma   119.99999426
_symmetry_Int_Tables_number   1
_chemical_formula_structural   Hf18MnCr2CoRe6
_chemical_formula_sum   'Hf18 Mn1 Cr2 Co1 Re6'
_cell_volume   532.24661233
_cell_formula_units_Z   1
loop_
 _symmetry_equiv_pos_site_id
 _symmetry_equiv_pos_as_xyz
  1  'x, y, z'
loop_
 _atom_site_type_symbol
 _atom_site_label
 _atom_site_symmetry_multiplicity
 _atom_site_fract_x
 _atom_site_fract_y
 _atom_site_fract_z
 _atom_site_occupancy
  Hf  Hf0  1  0.198852  0.801148  0.442692  1
  Hf  Hf1  1  0.198852  0.397706  0.442692  1
  Hf  Hf2  1  0.602294  0.801148  0.442692  1
  Hf  Hf3  1  0.801591  0.198409  0.558409  1
  Hf  Hf4  1  0.801591  0.603182  0.558409  1
  Hf  Hf5  1  0.396818  0.198409  0.558409  1
  Hf  Hf6  1  0.801591  0.198409  0.941591  1
  Hf  Hf7  1  0.801591  0.603182  0.941591  1
  Hf  Hf8  1  0.396818  0.198409  0.941591  1
  Hf  Hf9  1  0.198852  0.801148  0.057308  1
  Hf  Hf10  1  0.198852  0.397706  0.057308  1
  Hf  Hf11  1  0.602294  0.801148  0.057308  1
  Hf  Hf12  1  0.539977  0.460023  0.250000  1
  Hf  Hf13  1  0.539977  0.079956  0.250000  1
  Hf  Hf14  1  0.920044  0.460023  0.250000  1
  Hf  Hf15  1  0.458975  0.541025  0.750000  1
  Hf  Hf16  1  0.458975  0.917949  0.750000  1
  Hf  Hf17  1  0.082051  0.541025  0.750000  1
  Mn  Mn18  1  0.333333  0.666667  0.250000  1
  Cr  Cr19  1  0.000000  0.000000  0.497289  1
  Cr  Cr20  1  0.000000  0.000000  0.002711  1
  Co  Co21  1  0.666667  0.333333  0.750000  1
  Re  Re22  1  0.891021  0.108979  0.250000  1
  Re  Re23  1  0.891021  0.782042  0.250000  1
  Re  Re24  1  0.217958  0.108979  0.250000  1
  Re  Re25  1  0.108669  0.891331  0.750000  1
  Re  Re26  1  0.108669  0.217338  0.750000  1
  Re  Re27  1  0.782662  0.891331  0.750000  1
