# generated using pymatgen
data_YEr9Ru3Rh
_symmetry_space_group_name_H-M   'P 1'
_cell_length_a   6.29904450
_cell_length_b   7.27953391
_cell_length_c   8.40937397
_cell_angle_alpha   96.77486017
_cell_angle_beta   111.92312386
_cell_angle_gamma   90.15212791
_symmetry_Int_Tables_number   1
_chemical_formula_structural   YEr9Ru3Rh
_chemical_formula_sum   'Y1 Er9 Ru3 Rh1'
_cell_volume   354.76504910
_cell_formula_units_Z   1
loop_
 _symmetry_equiv_pos_site_id
 _symmetry_equiv_pos_as_xyz
  1  'x, y, z'
loop_
 _atom_site_type_symbol
 _atom_site_label
 _atom_site_symmetry_multiplicity
 _atom_site_fract_x
 _atom_site_fract_y
 _atom_site_fract_z
 _atom_site_occupancy
  Y  Y0  1  0.792554  0.581628  0.814688  1
  Er  Er1  1  0.980475  0.915184  0.189137  1
  Er  Er2  1  0.208360  0.415175  0.186444  1
  Er  Er3  1  0.024162  0.086113  0.814736  1
  Er  Er4  1  0.203342  0.683281  0.563463  1
  Er  Er5  1  0.642661  0.815243  0.432655  1
  Er  Er6  1  0.792891  0.314653  0.434577  1
  Er  Er7  1  0.356486  0.186491  0.563598  1
  Er  Er8  1  0.419311  0.749373  0.000945  1
  Er  Er9  1  0.580091  0.251834  0.001437  1
  Ru  Ru10  1  0.824146  0.576889  0.220053  1
  Ru  Ru11  1  0.396015  0.075607  0.220874  1
  Ru  Ru12  1  0.178846  0.423469  0.779241  1
  Rh  Rh13  1  0.600662  0.925060  0.778153  1
