# generated using pymatgen
data_ScNb5(IrRh8)2
_symmetry_space_group_name_H-M   'P 1'
_cell_length_a   5.55038801
_cell_length_b   5.55219942
_cell_length_c   13.50426000
_cell_angle_alpha   90.00000000
_cell_angle_beta   90.00000000
_cell_angle_gamma   120.01094412
_symmetry_Int_Tables_number   1
_chemical_formula_structural   ScNb5(IrRh8)2
_chemical_formula_sum   'Sc1 Nb5 Ir2 Rh16'
_cell_volume   360.36443124
_cell_formula_units_Z   1
loop_
 _symmetry_equiv_pos_site_id
 _symmetry_equiv_pos_as_xyz
  1  'x, y, z'
loop_
 _atom_site_type_symbol
 _atom_site_label
 _atom_site_symmetry_multiplicity
 _atom_site_fract_x
 _atom_site_fract_y
 _atom_site_fract_z
 _atom_site_occupancy
  Sc  Sc0  1  0.000471  0.000235  0.750000  1
  Nb  Nb1  1  0.997254  0.998627  0.250000  1
  Nb  Nb2  1  0.334624  0.667310  0.411081  1
  Nb  Nb3  1  0.667151  0.333577  0.592663  1
  Nb  Nb4  1  0.667151  0.333577  0.907337  1
  Nb  Nb5  1  0.334624  0.667310  0.088919  1
  Ir  Ir6  1  0.504597  0.495237  0.250000  1
  Ir  Ir7  1  0.504596  0.009357  0.250000  1
  Rh  Rh8  1  0.992694  0.496345  0.250000  1
  Rh  Rh9  1  0.496234  0.504340  0.750000  1
  Rh  Rh10  1  0.496234  0.991897  0.750000  1
  Rh  Rh11  1  0.009427  0.504713  0.750000  1
  Rh  Rh12  1  0.166986  0.333971  0.920114  1
  Rh  Rh13  1  0.665930  0.832967  0.920331  1
  Rh  Rh14  1  0.166989  0.833017  0.920114  1
  Rh  Rh15  1  0.833502  0.667935  0.082809  1
  Rh  Rh16  1  0.330560  0.165280  0.083439  1
  Rh  Rh17  1  0.833502  0.165568  0.082809  1
  Rh  Rh18  1  0.833502  0.667935  0.417191  1
  Rh  Rh19  1  0.330560  0.165280  0.416561  1
  Rh  Rh20  1  0.833502  0.165568  0.417191  1
  Rh  Rh21  1  0.166986  0.333971  0.579886  1
  Rh  Rh22  1  0.665930  0.832967  0.579669  1
  Rh  Rh23  1  0.166989  0.833017  0.579886  1
