# generated using pymatgen
data_Lu2Sc2Be3(BRu2)5
_symmetry_space_group_name_H-M   'P 1'
_cell_length_a   3.08164300
_cell_length_b   8.63813754
_cell_length_c   10.18493074
_cell_angle_alpha   90.68224953
_cell_angle_beta   90.00000000
_cell_angle_gamma   90.00000000
_symmetry_Int_Tables_number   1
_chemical_formula_structural   Lu2Sc2Be3(BRu2)5
_chemical_formula_sum   'Lu2 Sc2 Be3 B5 Ru10'
_cell_volume   271.10013300
_cell_formula_units_Z   1
loop_
 _symmetry_equiv_pos_site_id
 _symmetry_equiv_pos_as_xyz
  1  'x, y, z'
loop_
 _atom_site_type_symbol
 _atom_site_label
 _atom_site_symmetry_multiplicity
 _atom_site_fract_x
 _atom_site_fract_y
 _atom_site_fract_z
 _atom_site_occupancy
  Lu  Lu0  1  0.500000  0.842301  0.184005  1
  Lu  Lu1  1  0.500000  0.158955  0.815203  1
  Sc  Sc2  1  0.500000  0.658640  0.678944  1
  Sc  Sc3  1  0.500000  0.344539  0.319581  1
  Be  Be4  1  0.500000  0.961149  0.593454  1
  Be  Be5  1  0.500000  0.040344  0.406732  1
  Be  Be6  1  0.500000  0.843396  0.900263  1
  B  B7  1  0.500000  0.147821  0.099856  1
  B  B8  1  0.500000  0.652026  0.403500  1
  B  B9  1  0.500000  0.349291  0.596187  1
  B  B10  1  0.500000  0.465912  0.910977  1
  B  B11  1  0.500000  0.532175  0.090325  1
  Ru  Ru12  1  0.000000  0.646562  0.960613  1
  Ru  Ru13  1  0.000000  0.340775  0.045315  1
  Ru  Ru14  1  0.000000  0.832840  0.447576  1
  Ru  Ru15  1  0.000000  0.169635  0.548876  1
  Ru  Ru16  1  0.000000  0.007114  0.001981  1
  Ru  Ru17  1  0.000000  0.412062  0.759818  1
  Ru  Ru18  1  0.000000  0.588570  0.240705  1
  Ru  Ru19  1  0.000000  0.500897  0.500150  1
  Ru  Ru20  1  0.000000  0.896163  0.741598  1
  Ru  Ru21  1  0.000000  0.108833  0.254336  1
