# generated using pymatgen
data_CaHo3(SiPd14)2
_symmetry_space_group_name_H-M   'P 1'
_cell_length_a   8.91629900
_cell_length_b   8.91629900
_cell_length_c   7.08939400
_cell_angle_alpha   90.00000000
_cell_angle_beta   90.00000000
_cell_angle_gamma   90.00000000
_symmetry_Int_Tables_number   1
_chemical_formula_structural   CaHo3(SiPd14)2
_chemical_formula_sum   'Ca1 Ho3 Si2 Pd28'
_cell_volume   563.60957267
_cell_formula_units_Z   1
loop_
 _symmetry_equiv_pos_site_id
 _symmetry_equiv_pos_as_xyz
  1  'x, y, z'
loop_
 _atom_site_type_symbol
 _atom_site_label
 _atom_site_symmetry_multiplicity
 _atom_site_fract_x
 _atom_site_fract_y
 _atom_site_fract_z
 _atom_site_occupancy
  Ca  Ca0  1  0.500000  0.000000  0.935690  1
  Ho  Ho1  1  0.000000  0.500000  0.064808  1
  Ho  Ho2  1  0.000000  0.000000  0.499707  1
  Ho  Ho3  1  0.500000  0.500000  0.499707  1
  Si  Si4  1  0.500000  0.000000  0.448144  1
  Si  Si5  1  0.000000  0.500000  0.551703  1
  Pd  Pd6  1  0.333777  0.833777  0.615535  1
  Pd  Pd7  1  0.333777  0.166223  0.615535  1
  Pd  Pd8  1  0.666223  0.833777  0.615535  1
  Pd  Pd9  1  0.666223  0.166223  0.615535  1
  Pd  Pd10  1  0.165722  0.665722  0.383975  1
  Pd  Pd11  1  0.165722  0.334278  0.383975  1
  Pd  Pd12  1  0.834278  0.665722  0.383975  1
  Pd  Pd13  1  0.834278  0.334278  0.383975  1
  Pd  Pd14  1  0.500000  0.769138  0.257452  1
  Pd  Pd15  1  0.500000  0.230862  0.257452  1
  Pd  Pd16  1  0.269138  0.000000  0.257452  1
  Pd  Pd17  1  0.730862  0.000000  0.257452  1
  Pd  Pd18  1  0.000000  0.729837  0.743647  1
  Pd  Pd19  1  0.000000  0.270163  0.743647  1
  Pd  Pd20  1  0.229837  0.500000  0.743647  1
  Pd  Pd21  1  0.770163  0.500000  0.743647  1
  Pd  Pd22  1  0.500000  0.349639  0.852447  1
  Pd  Pd23  1  0.500000  0.650361  0.852447  1
  Pd  Pd24  1  0.849639  0.000000  0.852447  1
  Pd  Pd25  1  0.150361  0.000000  0.852447  1
  Pd  Pd26  1  0.000000  0.151073  0.147040  1
  Pd  Pd27  1  0.000000  0.848927  0.147040  1
  Pd  Pd28  1  0.651073  0.500000  0.147040  1
  Pd  Pd29  1  0.348927  0.500000  0.147040  1
  Pd  Pd30  1  0.249314  0.749314  0.999964  1
  Pd  Pd31  1  0.249314  0.250686  0.999964  1
  Pd  Pd32  1  0.750686  0.749314  0.999964  1
  Pd  Pd33  1  0.750686  0.250686  0.999964  1
