# generated using pymatgen
data_Li3Sm3ZnPt2
_symmetry_space_group_name_H-M   'P 1'
_cell_length_a   7.47677200
_cell_length_b   7.47677071
_cell_length_c   3.94756400
_cell_angle_alpha   90.00000000
_cell_angle_beta   90.00000000
_cell_angle_gamma   120.00000571
_symmetry_Int_Tables_number   1
_chemical_formula_structural   Li3Sm3ZnPt2
_chemical_formula_sum   'Li3 Sm3 Zn1 Pt2'
_cell_volume   191.11201259
_cell_formula_units_Z   1
loop_
 _symmetry_equiv_pos_site_id
 _symmetry_equiv_pos_as_xyz
  1  'x, y, z'
loop_
 _atom_site_type_symbol
 _atom_site_label
 _atom_site_symmetry_multiplicity
 _atom_site_fract_x
 _atom_site_fract_y
 _atom_site_fract_z
 _atom_site_occupancy
  Li  Li0  1  0.756585  0.756585  0.500000  1
  Li  Li1  1  0.243415  0.000000  0.500000  1
  Li  Li2  1  0.000000  0.243415  0.500000  1
  Sm  Sm3  1  0.000000  0.579836  0.000000  1
  Sm  Sm4  1  0.420164  0.420164  0.000000  1
  Sm  Sm5  1  0.579836  0.000000  0.000000  1
  Zn  Zn6  1  0.000000  0.000000  0.000000  1
  Pt  Pt7  1  0.333333  0.666667  0.500000  1
  Pt  Pt8  1  0.666667  0.333333  0.500000  1
