# generated using pymatgen
data_ThPaSb4Pd
_symmetry_space_group_name_H-M   'P 1'
_cell_length_a   4.43468600
_cell_length_b   4.46013900
_cell_length_c   9.40883800
_cell_angle_alpha   90.00000000
_cell_angle_beta   90.00000000
_cell_angle_gamma   90.00000000
_symmetry_Int_Tables_number   1
_chemical_formula_structural   ThPaSb4Pd
_chemical_formula_sum   'Th1 Pa1 Sb4 Pd1'
_cell_volume   186.10037982
_cell_formula_units_Z   1
loop_
 _symmetry_equiv_pos_site_id
 _symmetry_equiv_pos_as_xyz
  1  'x, y, z'
loop_
 _atom_site_type_symbol
 _atom_site_label
 _atom_site_symmetry_multiplicity
 _atom_site_fract_x
 _atom_site_fract_y
 _atom_site_fract_z
 _atom_site_occupancy
  Th  Th0  1  0.500000  0.000000  0.762862  1
  Pa  Pa1  1  0.000000  0.500000  0.232947  1
  Sb  Sb2  1  0.500000  0.000000  0.166527  1
  Sb  Sb3  1  0.000000  0.500000  0.846033  1
  Sb  Sb4  1  0.500000  0.500000  0.491518  1
  Sb  Sb5  1  0.000000  0.000000  0.492188  1
  Pd  Pd6  1  0.500000  0.500000  0.007924  1
