# generated using pymatgen
data_CsEr3S5
_symmetry_space_group_name_H-M   'P 1'
_cell_length_a   3.96817400
_cell_length_b   11.88474700
_cell_length_c   21.20029000
_cell_angle_alpha   90.00000000
_cell_angle_beta   90.00000000
_cell_angle_gamma   90.00000000
_symmetry_Int_Tables_number   1
_chemical_formula_structural   CsEr3S5
_chemical_formula_sum   'Cs4 Er12 S20'
_cell_volume   999.82145031
_cell_formula_units_Z   4
loop_
 _symmetry_equiv_pos_site_id
 _symmetry_equiv_pos_as_xyz
  1  'x, y, z'
loop_
 _atom_site_type_symbol
 _atom_site_label
 _atom_site_symmetry_multiplicity
 _atom_site_fract_x
 _atom_site_fract_y
 _atom_site_fract_z
 _atom_site_occupancy
  Cs  Cs0  1  0.250000  0.854558  0.092032  1
  Cs  Cs1  1  0.750000  0.145442  0.907968  1
  Cs  Cs2  1  0.750000  0.354558  0.407968  1
  Cs  Cs3  1  0.250000  0.645442  0.592032  1
  Er  Er4  1  0.750000  0.797627  0.825359  1
  Er  Er5  1  0.250000  0.202373  0.174641  1
  Er  Er6  1  0.250000  0.297627  0.674641  1
  Er  Er7  1  0.750000  0.702373  0.325359  1
  Er  Er8  1  0.250000  0.957008  0.697743  1
  Er  Er9  1  0.750000  0.042992  0.302257  1
  Er  Er10  1  0.750000  0.457008  0.802257  1
  Er  Er11  1  0.250000  0.542992  0.197743  1
  Er  Er12  1  0.750000  0.391245  0.053529  1
  Er  Er13  1  0.250000  0.608755  0.946471  1
  Er  Er14  1  0.250000  0.891245  0.446471  1
  Er  Er15  1  0.750000  0.108755  0.553529  1
  S  S16  1  0.250000  0.950358  0.568773  1
  S  S17  1  0.750000  0.049642  0.431227  1
  S  S18  1  0.750000  0.450358  0.931227  1
  S  S19  1  0.250000  0.549642  0.068773  1
  S  S20  1  0.750000  0.762530  0.951486  1
  S  S21  1  0.250000  0.237470  0.048514  1
  S  S22  1  0.250000  0.262530  0.548514  1
  S  S23  1  0.750000  0.737470  0.451486  1
  S  S24  1  0.250000  0.947197  0.824691  1
  S  S25  1  0.750000  0.052803  0.175309  1
  S  S26  1  0.750000  0.447197  0.675309  1
  S  S27  1  0.250000  0.552803  0.324691  1
  S  S28  1  0.750000  0.125884  0.683599  1
  S  S29  1  0.250000  0.874116  0.316401  1
  S  S30  1  0.250000  0.625884  0.816401  1
  S  S31  1  0.750000  0.374116  0.183599  1
  S  S32  1  0.750000  0.691156  0.198560  1
  S  S33  1  0.250000  0.308844  0.801440  1
  S  S34  1  0.250000  0.191156  0.301440  1
  S  S35  1  0.750000  0.808844  0.698560  1
