# generated using pymatgen
data_Lu2Pa(Ga2Ni3)3
_symmetry_space_group_name_H-M   'P 1'
_cell_length_a   8.66088000
_cell_length_b   8.66087941
_cell_length_c   4.10609900
_cell_angle_alpha   90.00000000
_cell_angle_beta   90.00000000
_cell_angle_gamma   119.99999460
_symmetry_Int_Tables_number   1
_chemical_formula_structural   Lu2Pa(Ga2Ni3)3
_chemical_formula_sum   'Lu2 Pa1 Ga6 Ni9'
_cell_volume   266.73750514
_cell_formula_units_Z   1
loop_
 _symmetry_equiv_pos_site_id
 _symmetry_equiv_pos_as_xyz
  1  'x, y, z'
loop_
 _atom_site_type_symbol
 _atom_site_label
 _atom_site_symmetry_multiplicity
 _atom_site_fract_x
 _atom_site_fract_y
 _atom_site_fract_z
 _atom_site_occupancy
  Lu  Lu0  1  0.666667  0.333333  0.500000  1
  Lu  Lu1  1  0.333333  0.666667  0.500000  1
  Pa  Pa2  1  0.000000  0.000000  0.000000  1
  Ga  Ga3  1  0.480549  0.480549  0.000000  1
  Ga  Ga4  1  0.519451  0.000000  0.000000  1
  Ga  Ga5  1  0.000000  0.519451  0.000000  1
  Ga  Ga6  1  0.722353  0.722353  0.500000  1
  Ga  Ga7  1  0.277647  0.000000  0.500000  1
  Ga  Ga8  1  0.000000  0.277647  0.500000  1
  Ni  Ni9  1  0.827058  0.199077  0.000000  1
  Ni  Ni10  1  0.800923  0.627981  0.000000  1
  Ni  Ni11  1  0.372019  0.172942  0.000000  1
  Ni  Ni12  1  0.199077  0.827058  0.000000  1
  Ni  Ni13  1  0.627981  0.800923  0.000000  1
  Ni  Ni14  1  0.172942  0.372019  0.000000  1
  Ni  Ni15  1  0.294542  0.294542  0.500000  1
  Ni  Ni16  1  0.705458  0.000000  0.500000  1
  Ni  Ni17  1  0.000000  0.705458  0.500000  1
