# generated using pymatgen
data_Dy2Co2Br
_symmetry_space_group_name_H-M   'P 1'
_cell_length_a   3.91316800
_cell_length_b   3.91316722
_cell_length_c   16.38969300
_cell_angle_alpha   90.00000000
_cell_angle_beta   90.00000000
_cell_angle_gamma   120.00000657
_symmetry_Int_Tables_number   1
_chemical_formula_structural   Dy2Co2Br
_chemical_formula_sum   'Dy4 Co4 Br2'
_cell_volume   217.34933827
_cell_formula_units_Z   2
loop_
 _symmetry_equiv_pos_site_id
 _symmetry_equiv_pos_as_xyz
  1  'x, y, z'
loop_
 _atom_site_type_symbol
 _atom_site_label
 _atom_site_symmetry_multiplicity
 _atom_site_fract_x
 _atom_site_fract_y
 _atom_site_fract_z
 _atom_site_occupancy
  Dy  Dy0  1  0.000000  0.000000  0.107199  1
  Dy  Dy1  1  0.000000  0.000000  0.892801  1
  Dy  Dy2  1  0.000000  0.000000  0.607199  1
  Dy  Dy3  1  0.000000  0.000000  0.392801  1
  Co  Co4  1  0.333333  0.666667  0.502501  1
  Co  Co5  1  0.666667  0.333333  0.497499  1
  Co  Co6  1  0.666667  0.333333  0.002501  1
  Co  Co7  1  0.333333  0.666667  0.997499  1
  Br  Br8  1  0.333333  0.666667  0.250000  1
  Br  Br9  1  0.666667  0.333333  0.750000  1
