# generated using pymatgen
data_Ca3Eu7Si6
_symmetry_space_group_name_H-M   'P 1'
_cell_length_a   9.26540255
_cell_length_b   9.26540282
_cell_length_c   9.26470800
_cell_angle_alpha   130.71208609
_cell_angle_beta   130.71208753
_cell_angle_gamma   72.21920276
_symmetry_Int_Tables_number   1
_chemical_formula_structural   Ca3Eu7Si6
_chemical_formula_sum   'Ca3 Eu7 Si6'
_cell_volume   446.88873963
_cell_formula_units_Z   1
loop_
 _symmetry_equiv_pos_site_id
 _symmetry_equiv_pos_as_xyz
  1  'x, y, z'
loop_
 _atom_site_type_symbol
 _atom_site_label
 _atom_site_symmetry_multiplicity
 _atom_site_fract_x
 _atom_site_fract_y
 _atom_site_fract_z
 _atom_site_occupancy
  Ca  Ca0  1  0.535688  0.035688  0.855401  1
  Ca  Ca1  1  0.498986  0.498301  0.000114  1
  Ca  Ca2  1  0.998301  0.998986  0.000114  1
  Eu  Eu3  1  0.177594  0.677594  0.144164  1
  Eu  Eu4  1  0.033255  0.177510  0.499634  1
  Eu  Eu5  1  0.677510  0.533255  0.499634  1
  Eu  Eu6  1  0.466659  0.966659  0.145123  1
  Eu  Eu7  1  0.821588  0.321588  0.854585  1
  Eu  Eu8  1  0.966000  0.822327  0.499694  1
  Eu  Eu9  1  0.322327  0.466000  0.499694  1
  Si  Si10  1  0.890077  0.390077  0.277566  1
  Si  Si11  1  0.111289  0.611289  0.723446  1
  Si  Si12  1  0.387489  0.111312  0.500243  1
  Si  Si13  1  0.611312  0.887489  0.500243  1
  Si  Si14  1  0.253349  0.248579  0.000172  1
  Si  Si15  1  0.748579  0.753349  0.000172  1
