# generated using pymatgen
data_Hf6Al16Cu4Ir3
_symmetry_space_group_name_H-M   'P 1'
_cell_length_a   8.65298100
_cell_length_b   8.65298056
_cell_length_c   8.61607300
_cell_angle_alpha   60.14099117
_cell_angle_beta   60.14099285
_cell_angle_gamma   59.71801156
_symmetry_Int_Tables_number   1
_chemical_formula_structural   Hf6Al16Cu4Ir3
_chemical_formula_sum   'Hf6 Al16 Cu4 Ir3'
_cell_volume   456.15254369
_cell_formula_units_Z   1
loop_
 _symmetry_equiv_pos_site_id
 _symmetry_equiv_pos_as_xyz
  1  'x, y, z'
loop_
 _atom_site_type_symbol
 _atom_site_label
 _atom_site_symmetry_multiplicity
 _atom_site_fract_x
 _atom_site_fract_y
 _atom_site_fract_z
 _atom_site_occupancy
  Hf  Hf0  1  0.685441  0.314559  0.314559  1
  Hf  Hf1  1  0.314559  0.685441  0.685441  1
  Hf  Hf2  1  0.314559  0.685441  0.314559  1
  Hf  Hf3  1  0.685441  0.314559  0.685441  1
  Hf  Hf4  1  0.309986  0.309986  0.690014  1
  Hf  Hf5  1  0.690014  0.690014  0.309986  1
  Al  Al6  1  0.332570  0.332570  0.337026  1
  Al  Al7  1  0.667430  0.667430  0.662974  1
  Al  Al8  1  0.332570  0.332570  0.997834  1
  Al  Al9  1  0.337026  0.997834  0.332570  1
  Al  Al10  1  0.667430  0.667430  0.002166  1
  Al  Al11  1  0.662974  0.002166  0.667430  1
  Al  Al12  1  0.997834  0.337026  0.332570  1
  Al  Al13  1  0.002166  0.662974  0.667430  1
  Al  Al14  1  0.116934  0.116934  0.124324  1
  Al  Al15  1  0.883066  0.883066  0.875676  1
  Al  Al16  1  0.116934  0.116934  0.641807  1
  Al  Al17  1  0.124324  0.641807  0.116934  1
  Al  Al18  1  0.883066  0.883066  0.358193  1
  Al  Al19  1  0.875676  0.358193  0.883066  1
  Al  Al20  1  0.641807  0.124324  0.116934  1
  Al  Al21  1  0.358193  0.875676  0.883066  1
  Cu  Cu22  1  0.500000  0.000000  0.000000  1
  Cu  Cu23  1  0.000000  0.500000  0.500000  1
  Cu  Cu24  1  0.000000  0.500000  0.000000  1
  Cu  Cu25  1  0.500000  0.000000  0.500000  1
  Ir  Ir26  1  0.000000  0.000000  0.500000  1
  Ir  Ir27  1  0.500000  0.500000  0.000000  1
  Ir  Ir28  1  0.000000  0.000000  0.000000  1
