# generated using pymatgen
data_La3U3P13Rh20
_symmetry_space_group_name_H-M   'P 1'
_cell_length_a   13.46224700
_cell_length_b   13.46224598
_cell_length_c   3.94061700
_cell_angle_alpha   90.00000000
_cell_angle_beta   90.00000000
_cell_angle_gamma   119.99999580
_symmetry_Int_Tables_number   1
_chemical_formula_structural   La3U3P13Rh20
_chemical_formula_sum   'La3 U3 P13 Rh20'
_cell_volume   618.48611292
_cell_formula_units_Z   1
loop_
 _symmetry_equiv_pos_site_id
 _symmetry_equiv_pos_as_xyz
  1  'x, y, z'
loop_
 _atom_site_type_symbol
 _atom_site_label
 _atom_site_symmetry_multiplicity
 _atom_site_fract_x
 _atom_site_fract_y
 _atom_site_fract_z
 _atom_site_occupancy
  La  La0  1  0.530047  0.717844  0.248928  1
  La  La1  1  0.282156  0.812204  0.248928  1
  La  La2  1  0.187796  0.469953  0.248928  1
  U  U3  1  0.474256  0.281178  0.752456  1
  U  U4  1  0.718822  0.193079  0.752456  1
  U  U5  1  0.806921  0.525744  0.752456  1
  P  P6  1  0.526764  0.138600  0.250435  1
  P  P7  1  0.861400  0.388165  0.250435  1
  P  P8  1  0.611835  0.473236  0.250435  1
  P  P9  1  0.946461  0.714840  0.253854  1
  P  P10  1  0.285160  0.231622  0.253854  1
  P  P11  1  0.768378  0.053539  0.253854  1
  P  P12  1  0.387703  0.521960  0.750032  1
  P  P13  1  0.478040  0.865742  0.750032  1
  P  P14  1  0.134258  0.612297  0.750032  1
  P  P15  1  0.719305  0.773681  0.745352  1
  P  P16  1  0.226319  0.945624  0.745352  1
  P  P17  1  0.054376  0.280695  0.745352  1
  P  P18  1  0.000000  0.000000  0.001122  1
  Rh  Rh19  1  0.333333  0.666667  0.747549  1
  Rh  Rh20  1  0.916267  0.246946  0.254351  1
  Rh  Rh21  1  0.753054  0.669321  0.254351  1
  Rh  Rh22  1  0.330679  0.083733  0.254351  1
  Rh  Rh23  1  0.441202  0.027717  0.750854  1
  Rh  Rh24  1  0.972283  0.413486  0.750854  1
  Rh  Rh25  1  0.586514  0.558798  0.750854  1
  Rh  Rh26  1  0.666667  0.333333  0.248911  1
  Rh  Rh27  1  0.093414  0.185793  0.249084  1
  Rh  Rh28  1  0.814207  0.907621  0.249084  1
  Rh  Rh29  1  0.092379  0.906586  0.249084  1
  Rh  Rh30  1  0.016616  0.580316  0.248137  1
  Rh  Rh31  1  0.419684  0.436299  0.248137  1
  Rh  Rh32  1  0.563701  0.983384  0.248137  1
  Rh  Rh33  1  0.675791  0.929631  0.746056  1
  Rh  Rh34  1  0.070369  0.746160  0.746056  1
  Rh  Rh35  1  0.253840  0.324209  0.746056  1
  Rh  Rh36  1  0.906105  0.816141  0.751268  1
  Rh  Rh37  1  0.183859  0.089963  0.751268  1
  Rh  Rh38  1  0.910037  0.093895  0.751268  1
