# generated using pymatgen
data_Sc5(Re7Tc)3
_symmetry_space_group_name_H-M   'P 1'
_cell_length_a   8.45033381
_cell_length_b   8.45175442
_cell_length_c   8.44629152
_cell_angle_alpha   109.61095126
_cell_angle_beta   109.38540468
_cell_angle_gamma   109.41093200
_symmetry_Int_Tables_number   1
_chemical_formula_structural   Sc5(Re7Tc)3
_chemical_formula_sum   'Sc5 Re21 Tc3'
_cell_volume   464.40571370
_cell_formula_units_Z   1
loop_
 _symmetry_equiv_pos_site_id
 _symmetry_equiv_pos_as_xyz
  1  'x, y, z'
loop_
 _atom_site_type_symbol
 _atom_site_label
 _atom_site_symmetry_multiplicity
 _atom_site_fract_x
 _atom_site_fract_y
 _atom_site_fract_z
 _atom_site_occupancy
  Sc  Sc0  1  0.366396  0.367202  0.367367  1
  Sc  Sc1  1  0.000004  0.632667  0.998932  1
  Sc  Sc2  1  0.633599  0.000798  0.000961  1
  Sc  Sc3  1  0.000005  0.000059  0.633352  1
  Sc  Sc4  1  0.000002  0.999948  0.000032  1
  Re  Re5  1  0.322698  0.720934  0.323146  1
  Re  Re6  1  0.677152  0.000519  0.398179  1
  Re  Re7  1  0.000011  0.677256  0.397914  1
  Re  Re8  1  0.602227  0.601905  0.279165  1
  Re  Re9  1  0.808019  0.808422  0.185897  1
  Re  Re10  1  0.377375  0.191731  0.999733  1
  Re  Re11  1  0.192283  0.377683  0.000346  1
  Re  Re12  1  0.622610  0.814343  0.622351  1
  Re  Re13  1  0.377299  0.999472  0.191640  1
  Re  Re14  1  0.000013  0.377769  0.191780  1
  Re  Re15  1  0.814165  0.621886  0.621435  1
  Re  Re16  1  0.185836  0.807700  0.807261  1
  Re  Re17  1  0.807724  0.185401  0.808066  1
  Re  Re18  1  0.191984  0.000405  0.377878  1
  Re  Re19  1  0.000010  0.192013  0.378636  1
  Re  Re20  1  0.622688  0.622176  0.814333  1
  Re  Re21  1  0.397769  0.999662  0.676931  1
  Re  Re22  1  0.602440  0.279219  0.601782  1
  Re  Re23  1  0.677293  0.398236  0.000435  1
  Re  Re24  1  0.397557  0.676780  0.999330  1
  Re  Re25  1  0.322842  0.323377  0.721022  1
  Tc  Tc26  1  0.999996  0.398286  0.678038  1
  Tc  Tc27  1  0.279615  0.601882  0.601832  1
  Tc  Tc28  1  0.720389  0.322273  0.322228  1
