# generated using pymatgen
data_YTm(MgIr)2
_symmetry_space_group_name_H-M   'P 1'
_cell_length_a   4.09189000
_cell_length_b   7.04957975
_cell_length_c   8.51892300
_cell_angle_alpha   90.30327265
_cell_angle_beta   90.00000000
_cell_angle_gamma   90.00000000
_symmetry_Int_Tables_number   1
_chemical_formula_structural   YTm(MgIr)2
_chemical_formula_sum   'Y2 Tm2 Mg4 Ir4'
_cell_volume   245.73430407
_cell_formula_units_Z   2
loop_
 _symmetry_equiv_pos_site_id
 _symmetry_equiv_pos_as_xyz
  1  'x, y, z'
loop_
 _atom_site_type_symbol
 _atom_site_label
 _atom_site_symmetry_multiplicity
 _atom_site_fract_x
 _atom_site_fract_y
 _atom_site_fract_z
 _atom_site_occupancy
  Y  Y0  1  0.750000  0.961521  0.675219  1
  Y  Y1  1  0.250000  0.038479  0.324781  1
  Tm  Tm2  1  0.250000  0.539606  0.172717  1
  Tm  Tm3  1  0.750000  0.460394  0.827283  1
  Mg  Mg4  1  0.250000  0.635265  0.559923  1
  Mg  Mg5  1  0.750000  0.364735  0.440077  1
  Mg  Mg6  1  0.750000  0.863723  0.059665  1
  Mg  Mg7  1  0.250000  0.136277  0.940335  1
  Ir  Ir8  1  0.250000  0.747816  0.871347  1
  Ir  Ir9  1  0.750000  0.252184  0.128653  1
  Ir  Ir10  1  0.750000  0.744959  0.367676  1
  Ir  Ir11  1  0.250000  0.255041  0.632324  1
