# generated using pymatgen
data_Sr4NbVO8
_symmetry_space_group_name_H-M   'P 1'
_cell_length_a   6.96308999
_cell_length_b   6.96308941
_cell_length_c   5.65768400
_cell_angle_alpha   90.00000000
_cell_angle_beta   90.00000000
_cell_angle_gamma   131.70829717
_symmetry_Int_Tables_number   1
_chemical_formula_structural   Sr4NbVO8
_chemical_formula_sum   'Sr4 Nb1 V1 O8'
_cell_volume   204.78437619
_cell_formula_units_Z   1
loop_
 _symmetry_equiv_pos_site_id
 _symmetry_equiv_pos_as_xyz
  1  'x, y, z'
loop_
 _atom_site_type_symbol
 _atom_site_label
 _atom_site_symmetry_multiplicity
 _atom_site_fract_x
 _atom_site_fract_y
 _atom_site_fract_z
 _atom_site_occupancy
  Sr  Sr0  1  0.647794  0.352206  0.000000  1
  Sr  Sr1  1  0.143725  0.856275  0.500000  1
  Sr  Sr2  1  0.856275  0.143725  0.500000  1
  Sr  Sr3  1  0.352206  0.647794  0.000000  1
  Nb  Nb4  1  0.500000  0.500000  0.500000  1
  V  V5  1  0.000000  0.000000  0.000000  1
  O  O6  1  0.747473  0.747473  0.747596  1
  O  O7  1  0.252527  0.252527  0.252404  1
  O  O8  1  0.252527  0.252527  0.747596  1
  O  O9  1  0.747473  0.747473  0.252404  1
  O  O10  1  0.838828  0.161172  0.000000  1
  O  O11  1  0.338393  0.661607  0.500000  1
  O  O12  1  0.661607  0.338393  0.500000  1
  O  O13  1  0.161172  0.838828  0.000000  1
