# generated using pymatgen
data_Y8HoTm11Bi12
_symmetry_space_group_name_H-M   'P 1'
_cell_length_a   8.22690023
_cell_length_b   9.44934903
_cell_length_c   12.03595031
_cell_angle_alpha   89.99760494
_cell_angle_beta   89.97425277
_cell_angle_gamma   89.99164940
_symmetry_Int_Tables_number   1
_chemical_formula_structural   Y8HoTm11Bi12
_chemical_formula_sum   'Y8 Ho1 Tm11 Bi12'
_cell_volume   935.66085048
_cell_formula_units_Z   1
loop_
 _symmetry_equiv_pos_site_id
 _symmetry_equiv_pos_as_xyz
  1  'x, y, z'
loop_
 _atom_site_type_symbol
 _atom_site_label
 _atom_site_symmetry_multiplicity
 _atom_site_fract_x
 _atom_site_fract_y
 _atom_site_fract_z
 _atom_site_occupancy
  Y  Y0  1  0.186454  0.749997  0.718616  1
  Y  Y1  1  0.686304  0.750003  0.781343  1
  Y  Y2  1  0.813652  0.249993  0.281383  1
  Y  Y3  1  0.313556  0.249921  0.218688  1
  Y  Y4  1  0.353554  0.749934  0.216046  1
  Y  Y5  1  0.853665  0.750012  0.283939  1
  Y  Y6  1  0.646449  0.249865  0.783813  1
  Y  Y7  1  0.146188  0.249815  0.715975  1
  Ho  Ho8  1  0.306884  0.434913  0.940472  1
  Tm  Tm9  1  0.025000  0.750022  0.989095  1
  Tm  Tm10  1  0.525085  0.749938  0.510891  1
  Tm  Tm11  1  0.974643  0.249875  0.010959  1
  Tm  Tm12  1  0.474889  0.250013  0.489116  1
  Tm  Tm13  1  0.806761  0.065623  0.559540  1
  Tm  Tm14  1  0.693229  0.934374  0.059546  1
  Tm  Tm15  1  0.193177  0.565687  0.440466  1
  Tm  Tm16  1  0.693121  0.565690  0.059516  1
  Tm  Tm17  1  0.193215  0.934334  0.440472  1
  Tm  Tm18  1  0.306851  0.065436  0.940445  1
  Tm  Tm19  1  0.806785  0.434369  0.559525  1
  Bi  Bi20  1  0.433924  0.003833  0.672459  1
  Bi  Bi21  1  0.933783  0.496123  0.827445  1
  Bi  Bi22  1  0.566166  0.503850  0.327575  1
  Bi  Bi23  1  0.066076  0.996079  0.172500  1
  Bi  Bi24  1  0.566142  0.996108  0.327528  1
  Bi  Bi25  1  0.066141  0.503820  0.172564  1
  Bi  Bi26  1  0.433963  0.496114  0.672421  1
  Bi  Bi27  1  0.933883  0.003822  0.827477  1
  Bi  Bi28  1  0.407083  0.750666  0.958024  1
  Bi  Bi29  1  0.906882  0.749998  0.542080  1
  Bi  Bi30  1  0.593358  0.249765  0.042166  1
  Bi  Bi31  1  0.093135  0.250009  0.457917  1
