# generated using pymatgen
data_SrYNiH6
_symmetry_space_group_name_H-M   'P 1'
_cell_length_a   7.07761500
_cell_length_b   7.07761501
_cell_length_c   5.06090700
_cell_angle_alpha   90.00000000
_cell_angle_beta   90.00000000
_cell_angle_gamma   138.02828186
_symmetry_Int_Tables_number   1
_chemical_formula_structural   SrYNiH6
_chemical_formula_sum   'Sr2 Y2 Ni2 H12'
_cell_volume   169.54106951
_cell_formula_units_Z   2
loop_
 _symmetry_equiv_pos_site_id
 _symmetry_equiv_pos_as_xyz
  1  'x, y, z'
loop_
 _atom_site_type_symbol
 _atom_site_label
 _atom_site_symmetry_multiplicity
 _atom_site_fract_x
 _atom_site_fract_y
 _atom_site_fract_z
 _atom_site_occupancy
  Sr  Sr0  1  0.856778  0.143222  0.500000  1
  Sr  Sr1  1  0.356778  0.643222  0.000000  1
  Y  Y2  1  0.137607  0.862393  0.500000  1
  Y  Y3  1  0.637607  0.362393  0.000000  1
  Ni  Ni4  1  0.507960  0.492040  0.500000  1
  Ni  Ni5  1  0.007960  0.992040  0.000000  1
  H  H6  1  0.984307  0.515757  0.750027  1
  H  H7  1  0.484243  0.015693  0.249973  1
  H  H8  1  0.984243  0.515693  0.250027  1
  H  H9  1  0.484307  0.015757  0.749973  1
  H  H10  1  0.384497  0.615503  0.500000  1
  H  H11  1  0.884497  0.115503  0.000000  1
  H  H12  1  0.626618  0.373382  0.500000  1
  H  H13  1  0.126618  0.873382  0.000000  1
  H  H14  1  0.259374  0.241382  0.749553  1
  H  H15  1  0.758618  0.740626  0.250447  1
  H  H16  1  0.258618  0.240626  0.249553  1
  H  H17  1  0.759374  0.741382  0.750447  1
