# generated using pymatgen
data_Ho12FeCo3BiOs
_symmetry_space_group_name_H-M   'P 1'
_cell_length_a   8.28536098
_cell_length_b   8.28538853
_cell_length_c   8.28536100
_cell_angle_alpha   111.99532970
_cell_angle_beta   110.61160349
_cell_angle_gamma   105.86880175
_symmetry_Int_Tables_number   1
_chemical_formula_structural   Ho12FeCo3BiOs
_chemical_formula_sum   'Ho12 Fe1 Co3 Bi1 Os1'
_cell_volume   436.48343652
_cell_formula_units_Z   1
loop_
 _symmetry_equiv_pos_site_id
 _symmetry_equiv_pos_as_xyz
  1  'x, y, z'
loop_
 _atom_site_type_symbol
 _atom_site_label
 _atom_site_symmetry_multiplicity
 _atom_site_fract_x
 _atom_site_fract_y
 _atom_site_fract_z
 _atom_site_occupancy
  Ho  Ho0  1  0.817330  0.720951  0.538284  1
  Ho  Ho1  1  0.181616  0.280999  0.462611  1
  Ho  Ho2  1  0.181613  0.719001  0.900617  1
  Ho  Ho3  1  0.817333  0.279049  0.096379  1
  Ho  Ho4  1  0.691016  0.380533  0.692880  1
  Ho  Ho5  1  0.312345  0.619467  0.310482  1
  Ho  Ho6  1  0.691016  0.998134  0.310480  1
  Ho  Ho7  1  0.312346  0.001866  0.692881  1
  Ho  Ho8  1  0.588285  0.785527  0.802763  1
  Ho  Ho9  1  0.411034  0.213591  0.197443  1
  Ho  Ho10  1  0.983852  0.786409  0.197443  1
  Ho  Ho11  1  0.017236  0.214473  0.802758  1
  Fe  Fe12  1  0.615790  0.000000  0.615790  1
  Co  Co13  1  0.377813  0.000000  0.377813  1
  Co  Co14  1  0.110767  0.610268  0.500508  1
  Co  Co15  1  0.890239  0.389732  0.500499  1
  Bi  Bi16  1  0.500515  0.500000  0.000515  1
  Os  Os17  1  0.999855  0.000000  0.999855  1
