# generated using pymatgen
data_Hf2Al2Zn3Ga
_symmetry_space_group_name_H-M   'P 1'
_cell_length_a   4.04403200
_cell_length_b   4.06401800
_cell_length_c   8.10902300
_cell_angle_alpha   90.00000000
_cell_angle_beta   90.00000000
_cell_angle_gamma   90.00000000
_symmetry_Int_Tables_number   1
_chemical_formula_structural   Hf2Al2Zn3Ga
_chemical_formula_sum   'Hf2 Al2 Zn3 Ga1'
_cell_volume   133.27194578
_cell_formula_units_Z   1
loop_
 _symmetry_equiv_pos_site_id
 _symmetry_equiv_pos_as_xyz
  1  'x, y, z'
loop_
 _atom_site_type_symbol
 _atom_site_label
 _atom_site_symmetry_multiplicity
 _atom_site_fract_x
 _atom_site_fract_y
 _atom_site_fract_z
 _atom_site_occupancy
  Hf  Hf0  1  0.000000  0.000000  0.752959  1
  Hf  Hf1  1  0.000000  0.000000  0.247041  1
  Al  Al2  1  0.500000  0.500000  0.742363  1
  Al  Al3  1  0.500000  0.500000  0.257637  1
  Zn  Zn4  1  0.500000  0.000000  0.500000  1
  Zn  Zn5  1  0.000000  0.500000  0.000000  1
  Zn  Zn6  1  0.000000  0.500000  0.500000  1
  Ga  Ga7  1  0.500000  0.000000  0.000000  1
