# generated using pymatgen
data_Dy6Ni17MoP12
_symmetry_space_group_name_H-M   'P 1'
_cell_length_a   3.77223900
_cell_length_b   10.54851400
_cell_length_c   12.33722000
_cell_angle_alpha   90.00000000
_cell_angle_beta   90.00000000
_cell_angle_gamma   90.00000000
_symmetry_Int_Tables_number   1
_chemical_formula_structural   Dy6Ni17MoP12
_chemical_formula_sum   'Dy6 Ni17 Mo1 P12'
_cell_volume   490.91668583
_cell_formula_units_Z   1
loop_
 _symmetry_equiv_pos_site_id
 _symmetry_equiv_pos_as_xyz
  1  'x, y, z'
loop_
 _atom_site_type_symbol
 _atom_site_label
 _atom_site_symmetry_multiplicity
 _atom_site_fract_x
 _atom_site_fract_y
 _atom_site_fract_z
 _atom_site_occupancy
  Dy  Dy0  1  0.000000  0.500000  0.524748  1
  Dy  Dy1  1  0.500000  0.000000  0.479837  1
  Dy  Dy2  1  0.500000  0.817781  0.206108  1
  Dy  Dy3  1  0.500000  0.182219  0.206108  1
  Dy  Dy4  1  0.000000  0.684126  0.793988  1
  Dy  Dy5  1  0.000000  0.315874  0.793988  1
  Ni  Ni6  1  0.000000  0.000000  0.839593  1
  Ni  Ni7  1  0.500000  0.500000  0.701931  1
  Ni  Ni8  1  0.000000  0.000000  0.300127  1
  Ni  Ni9  1  0.000000  0.500000  0.985245  1
  Ni  Ni10  1  0.500000  0.000000  0.016098  1
  Ni  Ni11  1  0.500000  0.328779  0.989821  1
  Ni  Ni12  1  0.500000  0.671221  0.989821  1
  Ni  Ni13  1  0.000000  0.163007  0.004781  1
  Ni  Ni14  1  0.000000  0.836993  0.004781  1
  Ni  Ni15  1  0.500000  0.301297  0.429094  1
  Ni  Ni16  1  0.500000  0.698703  0.429094  1
  Ni  Ni17  1  0.000000  0.198665  0.571675  1
  Ni  Ni18  1  0.000000  0.801335  0.571675  1
  Ni  Ni19  1  0.500000  0.879256  0.710711  1
  Ni  Ni20  1  0.500000  0.120744  0.710711  1
  Ni  Ni21  1  0.000000  0.620200  0.290549  1
  Ni  Ni22  1  0.000000  0.379800  0.290549  1
  Mo  Mo23  1  0.500000  0.500000  0.153567  1
  P  P24  1  0.500000  0.500000  0.879561  1
  P  P25  1  0.000000  0.000000  0.123851  1
  P  P26  1  0.500000  0.500000  0.348886  1
  P  P27  1  0.000000  0.000000  0.654764  1
  P  P28  1  0.500000  0.313201  0.615370  1
  P  P29  1  0.500000  0.686799  0.615370  1
  P  P30  1  0.000000  0.185710  0.386428  1
  P  P31  1  0.000000  0.814290  0.386428  1
  P  P32  1  0.500000  0.850243  0.891516  1
  P  P33  1  0.500000  0.149757  0.891516  1
  P  P34  1  0.000000  0.656974  0.105855  1
  P  P35  1  0.000000  0.343026  0.105855  1
