# generated using pymatgen
data_AcPrAl3SiAu4
_symmetry_space_group_name_H-M   'P 1'
_cell_length_a   4.45813200
_cell_length_b   4.45813200
_cell_length_c   10.64205700
_cell_angle_alpha   90.00000000
_cell_angle_beta   90.00000000
_cell_angle_gamma   90.00000000
_symmetry_Int_Tables_number   1
_chemical_formula_structural   AcPrAl3SiAu4
_chemical_formula_sum   'Ac1 Pr1 Al3 Si1 Au4'
_cell_volume   211.51025424
_cell_formula_units_Z   1
loop_
 _symmetry_equiv_pos_site_id
 _symmetry_equiv_pos_as_xyz
  1  'x, y, z'
loop_
 _atom_site_type_symbol
 _atom_site_label
 _atom_site_symmetry_multiplicity
 _atom_site_fract_x
 _atom_site_fract_y
 _atom_site_fract_z
 _atom_site_occupancy
  Ac  Ac0  1  0.500000  0.000000  0.758810  1
  Pr  Pr1  1  0.000000  0.500000  0.243185  1
  Al  Al2  1  0.000000  0.000000  0.495120  1
  Al  Al3  1  0.500000  0.500000  0.495120  1
  Al  Al4  1  0.500000  0.000000  0.134441  1
  Si  Si5  1  0.000000  0.500000  0.870172  1
  Au  Au6  1  0.000000  0.000000  0.002575  1
  Au  Au7  1  0.500000  0.500000  0.002575  1
  Au  Au8  1  0.000000  0.500000  0.628019  1
  Au  Au9  1  0.500000  0.000000  0.369985  1
