# generated using pymatgen
data_ZnFeSi4(Pb2O7)2
_symmetry_space_group_name_H-M   'P 1'
_cell_length_a   8.19444100
_cell_length_b   8.19444100
_cell_length_c   5.33778700
_cell_angle_alpha   90.00000000
_cell_angle_beta   90.00000000
_cell_angle_gamma   90.00000000
_symmetry_Int_Tables_number   1
_chemical_formula_structural   ZnFeSi4(Pb2O7)2
_chemical_formula_sum   'Zn1 Fe1 Si4 Pb4 O14'
_cell_volume   358.42632960
_cell_formula_units_Z   1
loop_
 _symmetry_equiv_pos_site_id
 _symmetry_equiv_pos_as_xyz
  1  'x, y, z'
loop_
 _atom_site_type_symbol
 _atom_site_label
 _atom_site_symmetry_multiplicity
 _atom_site_fract_x
 _atom_site_fract_y
 _atom_site_fract_z
 _atom_site_occupancy
  Zn  Zn0  1  0.000000  0.000000  0.000000  1
  Fe  Fe1  1  0.500000  0.500000  0.000000  1
  Si  Si2  1  0.138770  0.641672  0.951418  1
  Si  Si3  1  0.358328  0.138770  0.048582  1
  Si  Si4  1  0.861230  0.358328  0.951418  1
  Si  Si5  1  0.641672  0.861230  0.048582  1
  Pb  Pb6  1  0.322282  0.822825  0.504626  1
  Pb  Pb7  1  0.177175  0.322282  0.495374  1
  Pb  Pb8  1  0.677718  0.177175  0.504626  1
  Pb  Pb9  1  0.822825  0.677718  0.495374  1
  O  O10  1  0.500000  0.000000  0.117125  1
  O  O11  1  0.000000  0.500000  0.882875  1
  O  O12  1  0.156833  0.656332  0.253043  1
  O  O13  1  0.343668  0.156833  0.746957  1
  O  O14  1  0.843167  0.343668  0.253043  1
  O  O15  1  0.656332  0.843167  0.746957  1
  O  O16  1  0.305838  0.583312  0.802707  1
  O  O17  1  0.190149  0.080355  0.195417  1
  O  O18  1  0.694162  0.416688  0.802707  1
  O  O19  1  0.809851  0.919645  0.195417  1
  O  O20  1  0.583312  0.694162  0.197293  1
  O  O21  1  0.919645  0.190149  0.804583  1
  O  O22  1  0.416688  0.305838  0.197293  1
  O  O23  1  0.080355  0.809851  0.804583  1
