# generated using pymatgen
data_Hf6Al16Co3Cu3Ni
_symmetry_space_group_name_H-M   'P 1'
_cell_length_a   8.54598895
_cell_length_b   8.51374931
_cell_length_c   8.53431034
_cell_angle_alpha   60.09184882
_cell_angle_beta   59.79320818
_cell_angle_gamma   60.04114928
_symmetry_Int_Tables_number   1
_chemical_formula_structural   Hf6Al16Co3Cu3Ni
_chemical_formula_sum   'Hf6 Al16 Co3 Cu3 Ni1'
_cell_volume   438.82115740
_cell_formula_units_Z   1
loop_
 _symmetry_equiv_pos_site_id
 _symmetry_equiv_pos_as_xyz
  1  'x, y, z'
loop_
 _atom_site_type_symbol
 _atom_site_label
 _atom_site_symmetry_multiplicity
 _atom_site_fract_x
 _atom_site_fract_y
 _atom_site_fract_z
 _atom_site_occupancy
  Hf  Hf0  1  0.685639  0.685810  0.314186  1
  Hf  Hf1  1  0.308604  0.691839  0.308155  1
  Hf  Hf2  1  0.687846  0.312159  0.312152  1
  Hf  Hf3  1  0.314361  0.314190  0.685814  1
  Hf  Hf4  1  0.691396  0.308161  0.691845  1
  Hf  Hf5  1  0.312154  0.687841  0.687848  1
  Al  Al6  1  0.877399  0.880206  0.353094  1
  Al  Al7  1  0.889298  0.353097  0.880205  1
  Al  Al8  1  0.351633  0.886754  0.873773  1
  Al  Al9  1  0.887838  0.873773  0.886751  1
  Al  Al10  1  0.122601  0.119794  0.646906  1
  Al  Al11  1  0.110702  0.646903  0.119795  1
  Al  Al12  1  0.648367  0.113246  0.126227  1
  Al  Al13  1  0.112162  0.126227  0.113249  1
  Al  Al14  1  0.672120  0.663373  0.000077  1
  Al  Al15  1  0.664422  0.000081  0.663379  1
  Al  Al16  1  0.001965  0.661866  0.668743  1
  Al  Al17  1  0.667425  0.668739  0.661877  1
  Al  Al18  1  0.327880  0.336627  0.999923  1
  Al  Al19  1  0.335578  0.999919  0.336621  1
  Al  Al20  1  0.998035  0.338134  0.331257  1
  Al  Al21  1  0.332575  0.331261  0.338123  1
  Co  Co22  1  0.000000  0.000000  0.000000  1
  Co  Co23  1  0.500000  0.000000  0.500000  1
  Co  Co24  1  0.000000  0.500000  0.000000  1
  Cu  Cu25  1  0.000000  0.000000  0.500000  1
  Cu  Cu26  1  0.500000  0.500000  0.000000  1
  Cu  Cu27  1  0.500000  0.000000  0.000000  1
  Ni  Ni28  1  0.000000  0.500000  0.500000  1
