# generated using pymatgen
data_ScAlNi5Pt
_symmetry_space_group_name_H-M   'P 1'
_cell_length_a   3.76974500
_cell_length_b   3.76974500
_cell_length_c   7.10078100
_cell_angle_alpha   90.00000000
_cell_angle_beta   90.00000000
_cell_angle_gamma   90.00000000
_symmetry_Int_Tables_number   1
_chemical_formula_structural   ScAlNi5Pt
_chemical_formula_sum   'Sc1 Al1 Ni5 Pt1'
_cell_volume   100.90903806
_cell_formula_units_Z   1
loop_
 _symmetry_equiv_pos_site_id
 _symmetry_equiv_pos_as_xyz
  1  'x, y, z'
loop_
 _atom_site_type_symbol
 _atom_site_label
 _atom_site_symmetry_multiplicity
 _atom_site_fract_x
 _atom_site_fract_y
 _atom_site_fract_z
 _atom_site_occupancy
  Sc  Sc0  1  0.000000  0.000000  0.000000  1
  Al  Al1  1  0.000000  0.000000  0.500000  1
  Ni  Ni2  1  0.500000  0.500000  0.500000  1
  Ni  Ni3  1  0.500000  0.000000  0.273819  1
  Ni  Ni4  1  0.500000  0.000000  0.726181  1
  Ni  Ni5  1  0.000000  0.500000  0.273819  1
  Ni  Ni6  1  0.000000  0.500000  0.726181  1
  Pt  Pt7  1  0.500000  0.500000  0.000000  1
