# generated using pymatgen
data_BH2SCl3
_symmetry_space_group_name_H-M   'P 1'
_cell_length_a   9.53333721
_cell_length_b   10.04883000
_cell_length_c   6.28826900
_cell_angle_alpha   90.00000000
_cell_angle_beta   93.37690715
_cell_angle_gamma   90.00000000
_symmetry_Int_Tables_number   1
_chemical_formula_structural   BH2SCl3
_chemical_formula_sum   'B4 H8 S4 Cl12'
_cell_volume   601.36316536
_cell_formula_units_Z   4
loop_
 _symmetry_equiv_pos_site_id
 _symmetry_equiv_pos_as_xyz
  1  'x, y, z'
loop_
 _atom_site_type_symbol
 _atom_site_label
 _atom_site_symmetry_multiplicity
 _atom_site_fract_x
 _atom_site_fract_y
 _atom_site_fract_z
 _atom_site_occupancy
  B  B0  1  0.131931  0.783719  0.010730  1
  B  B1  1  0.631931  0.716281  0.510730  1
  B  B2  1  0.868069  0.216281  0.989270  1
  B  B3  1  0.368069  0.283719  0.489270  1
  H  H4  1  0.269931  0.563444  0.069879  1
  H  H5  1  0.769931  0.936556  0.569879  1
  H  H6  1  0.730069  0.436556  0.930121  1
  H  H7  1  0.230069  0.063444  0.430121  1
  H  H8  1  0.325312  0.658329  0.808030  1
  H  H9  1  0.825312  0.841671  0.308030  1
  H  H10  1  0.674688  0.341671  0.191970  1
  H  H11  1  0.174688  0.158329  0.691970  1
  S  S12  1  0.203925  0.613195  0.889159  1
  S  S13  1  0.703925  0.886805  0.389159  1
  S  S14  1  0.796075  0.386805  0.110841  1
  S  S15  1  0.296075  0.113195  0.610841  1
  Cl  Cl16  1  0.052953  0.871123  0.778495  1
  Cl  Cl17  1  0.552953  0.628877  0.278495  1
  Cl  Cl18  1  0.947047  0.128877  0.221505  1
  Cl  Cl19  1  0.447047  0.371123  0.721505  1
  Cl  Cl20  1  0.272986  0.878388  0.147812  1
  Cl  Cl21  1  0.772986  0.621612  0.647812  1
  Cl  Cl22  1  0.727014  0.121612  0.852188  1
  Cl  Cl23  1  0.227014  0.378388  0.352188  1
  Cl  Cl24  1  0.003543  0.717898  0.192950  1
  Cl  Cl25  1  0.503543  0.782102  0.692950  1
  Cl  Cl26  1  0.996457  0.282102  0.807050  1
  Cl  Cl27  1  0.496457  0.217898  0.307050  1
