# generated using pymatgen
data_Sc3NbSi2(B2Ru5)2
_symmetry_space_group_name_H-M   'P 1'
_cell_length_a   9.31794966
_cell_length_b   9.31794966
_cell_length_c   2.98900100
_cell_angle_alpha   90.00000000
_cell_angle_beta   90.00000000
_cell_angle_gamma   89.69659724
_symmetry_Int_Tables_number   1
_chemical_formula_structural   Sc3NbSi2(B2Ru5)2
_chemical_formula_sum   'Sc3 Nb1 Si2 B4 Ru10'
_cell_volume   259.51393985
_cell_formula_units_Z   1
loop_
 _symmetry_equiv_pos_site_id
 _symmetry_equiv_pos_as_xyz
  1  'x, y, z'
loop_
 _atom_site_type_symbol
 _atom_site_label
 _atom_site_symmetry_multiplicity
 _atom_site_fract_x
 _atom_site_fract_y
 _atom_site_fract_z
 _atom_site_occupancy
  Sc  Sc0  1  0.826101  0.674729  0.000000  1
  Sc  Sc1  1  0.174729  0.326101  0.000000  1
  Sc  Sc2  1  0.324860  0.824860  0.000000  1
  Nb  Nb3  1  0.674935  0.174935  0.000000  1
  Si  Si4  1  0.499465  0.500843  0.000000  1
  Si  Si5  1  0.000843  0.999465  0.000000  1
  B  B6  1  0.624256  0.874046  0.000000  1
  B  B7  1  0.374046  0.124256  0.000000  1
  B  B8  1  0.124227  0.624227  0.000000  1
  B  B9  1  0.876586  0.376586  0.000000  1
  Ru  Ru10  1  0.570801  0.709775  0.500000  1
  Ru  Ru11  1  0.437192  0.288353  0.500000  1
  Ru  Ru12  1  0.068814  0.790026  0.500000  1
  Ru  Ru13  1  0.924948  0.208501  0.500000  1
  Ru  Ru14  1  0.290026  0.568814  0.500000  1
  Ru  Ru15  1  0.708501  0.424948  0.500000  1
  Ru  Ru16  1  0.209775  0.070801  0.500000  1
  Ru  Ru17  1  0.788353  0.937192  0.500000  1
  Ru  Ru18  1  0.502086  0.002086  0.500000  1
  Ru  Ru19  1  0.999456  0.499456  0.500000  1
