# generated using pymatgen
data_YHo3FeOs7
_symmetry_space_group_name_H-M   'P 1'
_cell_length_a   5.28231501
_cell_length_b   5.28156887
_cell_length_c   8.78952559
_cell_angle_alpha   90.01852172
_cell_angle_beta   90.02006938
_cell_angle_gamma   60.91092354
_symmetry_Int_Tables_number   1
_chemical_formula_structural   YHo3FeOs7
_chemical_formula_sum   'Y1 Ho3 Fe1 Os7'
_cell_volume   214.28755793
_cell_formula_units_Z   1
loop_
 _symmetry_equiv_pos_site_id
 _symmetry_equiv_pos_as_xyz
  1  'x, y, z'
loop_
 _atom_site_type_symbol
 _atom_site_label
 _atom_site_symmetry_multiplicity
 _atom_site_fract_x
 _atom_site_fract_y
 _atom_site_fract_z
 _atom_site_occupancy
  Y  Y0  1  0.330491  0.331414  0.563614  1
  Ho  Ho1  1  0.667148  0.667807  0.433585  1
  Ho  Ho2  1  0.667389  0.667620  0.066206  1
  Ho  Ho3  1  0.330776  0.331320  0.936489  1
  Fe  Fe4  1  0.168088  0.168303  0.249695  1
  Os  Os5  1  0.998226  0.999124  0.497533  1
  Os  Os6  1  0.998495  0.999102  0.002083  1
  Os  Os7  1  0.826795  0.345164  0.750629  1
  Os  Os8  1  0.347962  0.825240  0.750621  1
  Os  Os9  1  0.831246  0.831261  0.750567  1
  Os  Os10  1  0.177881  0.655635  0.249472  1
  Os  Os11  1  0.655508  0.178007  0.249502  1
