# generated using pymatgen
data_Eu2In2Ni3Ir
_symmetry_space_group_name_H-M   'P 1'
_cell_length_a   5.29703296
_cell_length_b   4.11421000
_cell_length_c   7.22711616
_cell_angle_alpha   90.00000000
_cell_angle_beta   92.12386751
_cell_angle_gamma   90.00000000
_symmetry_Int_Tables_number   1
_chemical_formula_structural   Eu2In2Ni3Ir
_chemical_formula_sum   'Eu2 In2 Ni3 Ir1'
_cell_volume   157.39311145
_cell_formula_units_Z   1
loop_
 _symmetry_equiv_pos_site_id
 _symmetry_equiv_pos_as_xyz
  1  'x, y, z'
loop_
 _atom_site_type_symbol
 _atom_site_label
 _atom_site_symmetry_multiplicity
 _atom_site_fract_x
 _atom_site_fract_y
 _atom_site_fract_z
 _atom_site_occupancy
  Eu  Eu0  1  0.751158  0.000000  0.217034  1
  Eu  Eu1  1  0.248843  0.000000  0.782965  1
  In  In2  1  0.247832  0.500000  0.159723  1
  In  In3  1  0.752169  0.500000  0.840278  1
  Ni  Ni4  1  0.261514  0.000000  0.398824  1
  Ni  Ni5  1  0.500000  0.500000  0.500000  1
  Ni  Ni6  1  0.738487  0.000000  0.601176  1
  Ir  Ir7  1  0.000000  0.500000  0.500000  1
