# generated using pymatgen
data_Li4SmPu3Si8
_symmetry_space_group_name_H-M   'P 1'
_cell_length_a   3.80956500
_cell_length_b   7.60580810
_cell_length_c   10.22846200
_cell_angle_alpha   90.03081063
_cell_angle_beta   90.00000000
_cell_angle_gamma   90.00000000
_symmetry_Int_Tables_number   1
_chemical_formula_structural   Li4SmPu3Si8
_chemical_formula_sum   'Li4 Sm1 Pu3 Si8'
_cell_volume   296.36780589
_cell_formula_units_Z   1
loop_
 _symmetry_equiv_pos_site_id
 _symmetry_equiv_pos_as_xyz
  1  'x, y, z'
loop_
 _atom_site_type_symbol
 _atom_site_label
 _atom_site_symmetry_multiplicity
 _atom_site_fract_x
 _atom_site_fract_y
 _atom_site_fract_z
 _atom_site_occupancy
  Li  Li0  1  0.250000  0.990456  0.394677  1
  Li  Li1  1  0.750000  0.010760  0.606524  1
  Li  Li2  1  0.250000  0.490823  0.107010  1
  Li  Li3  1  0.750000  0.506982  0.893423  1
  Sm  Sm4  1  0.250000  0.137575  0.863676  1
  Pu  Pu5  1  0.750000  0.860756  0.137022  1
  Pu  Pu6  1  0.250000  0.639980  0.635652  1
  Pu  Pu7  1  0.750000  0.363575  0.363222  1
  Si  Si8  1  0.750000  0.264858  0.070814  1
  Si  Si9  1  0.250000  0.737063  0.933927  1
  Si  Si10  1  0.750000  0.762057  0.432771  1
  Si  Si11  1  0.250000  0.239229  0.564609  1
  Si  Si12  1  0.750000  0.835967  0.818073  1
  Si  Si13  1  0.250000  0.156415  0.181740  1
  Si  Si14  1  0.750000  0.346274  0.677162  1
  Si  Si15  1  0.250000  0.657228  0.319699  1
