# generated using pymatgen
data_Tb2Hf3Pa3(Ni4P3)4
_symmetry_space_group_name_H-M   'P 1'
_cell_length_a   12.30813600
_cell_length_b   12.30813611
_cell_length_c   3.79465400
_cell_angle_alpha   90.00000000
_cell_angle_beta   90.00000000
_cell_angle_gamma   120.00000508
_symmetry_Int_Tables_number   1
_chemical_formula_structural   Tb2Hf3Pa3(Ni4P3)4
_chemical_formula_sum   'Tb2 Hf3 Pa3 Ni16 P12'
_cell_volume   497.83722689
_cell_formula_units_Z   1
loop_
 _symmetry_equiv_pos_site_id
 _symmetry_equiv_pos_as_xyz
  1  'x, y, z'
loop_
 _atom_site_type_symbol
 _atom_site_label
 _atom_site_symmetry_multiplicity
 _atom_site_fract_x
 _atom_site_fract_y
 _atom_site_fract_z
 _atom_site_occupancy
  Tb  Tb0  1  0.333333  0.666667  0.000000  1
  Tb  Tb1  1  0.666667  0.333333  0.000000  1
  Hf  Hf2  1  0.564576  0.564576  0.000000  1
  Hf  Hf3  1  0.435424  0.000000  0.000000  1
  Hf  Hf4  1  0.000000  0.435424  0.000000  1
  Pa  Pa5  1  0.185197  0.185197  0.500000  1
  Pa  Pa6  1  0.814803  0.000000  0.500000  1
  Pa  Pa7  1  0.000000  0.814803  0.500000  1
  Ni  Ni8  1  0.726351  0.726351  0.500000  1
  Ni  Ni9  1  0.273649  0.000000  0.500000  1
  Ni  Ni10  1  0.000000  0.273649  0.500000  1
  Ni  Ni11  1  0.183483  0.374347  0.000000  1
  Ni  Ni12  1  0.625653  0.809136  0.000000  1
  Ni  Ni13  1  0.190864  0.816517  0.000000  1
  Ni  Ni14  1  0.809136  0.625653  0.000000  1
  Ni  Ni15  1  0.816517  0.190864  0.000000  1
  Ni  Ni16  1  0.374347  0.183483  0.000000  1
  Ni  Ni17  1  0.361121  0.482569  0.500000  1
  Ni  Ni18  1  0.517431  0.878553  0.500000  1
  Ni  Ni19  1  0.121447  0.638879  0.500000  1
  Ni  Ni20  1  0.878553  0.517431  0.500000  1
  Ni  Ni21  1  0.638879  0.121447  0.500000  1
  Ni  Ni22  1  0.482569  0.361121  0.500000  1
  Ni  Ni23  1  0.000000  0.000000  0.000000  1
  P  P24  1  0.820963  0.820963  0.000000  1
  P  P25  1  0.179037  0.000000  0.000000  1
  P  P26  1  0.000000  0.179037  0.000000  1
  P  P27  1  0.170947  0.477682  0.500000  1
  P  P28  1  0.522318  0.693264  0.500000  1
  P  P29  1  0.306736  0.829053  0.500000  1
  P  P30  1  0.693264  0.522318  0.500000  1
  P  P31  1  0.829053  0.306736  0.500000  1
  P  P32  1  0.477682  0.170947  0.500000  1
  P  P33  1  0.361025  0.361025  0.000000  1
  P  P34  1  0.638975  0.000000  0.000000  1
  P  P35  1  0.000000  0.638975  0.000000  1
