# generated using pymatgen
data_DySiTc2C
_symmetry_space_group_name_H-M   'P 1'
_cell_length_a   3.86405100
_cell_length_b   5.83913697
_cell_length_c   7.30745800
_cell_angle_alpha   90.00000000
_cell_angle_beta   90.00000000
_cell_angle_gamma   70.67810120
_symmetry_Int_Tables_number   1
_chemical_formula_structural   DySiTc2C
_chemical_formula_sum   'Dy2 Si2 Tc4 C2'
_cell_volume   155.58942898
_cell_formula_units_Z   2
loop_
 _symmetry_equiv_pos_site_id
 _symmetry_equiv_pos_as_xyz
  1  'x, y, z'
loop_
 _atom_site_type_symbol
 _atom_site_label
 _atom_site_symmetry_multiplicity
 _atom_site_fract_x
 _atom_site_fract_y
 _atom_site_fract_z
 _atom_site_occupancy
  Dy  Dy0  1  0.956549  0.086905  0.249999  1
  Dy  Dy1  1  0.043453  0.913095  0.749999  1
  Si  Si2  1  0.233298  0.533405  0.249999  1
  Si  Si3  1  0.766704  0.466595  0.749999  1
  Tc  Tc4  1  0.670684  0.658631  0.059358  1
  Tc  Tc5  1  0.670684  0.658631  0.440642  1
  Tc  Tc6  1  0.329317  0.341369  0.559358  1
  Tc  Tc7  1  0.329317  0.341369  0.940642  1
  C  C8  1  0.500001  0.000000  0.000000  1
  C  C9  1  0.500001  0.000000  0.500000  1
