# generated using pymatgen
data_RbEu3Te4
_symmetry_space_group_name_H-M   'P 1'
_cell_length_a   4.66432800
_cell_length_b   4.66432740
_cell_length_c   32.22409000
_cell_angle_alpha   90.00000000
_cell_angle_beta   90.00000000
_cell_angle_gamma   119.99997590
_symmetry_Int_Tables_number   1
_chemical_formula_structural   RbEu3Te4
_chemical_formula_sum   'Rb2 Eu6 Te8'
_cell_volume   607.14092602
_cell_formula_units_Z   2
loop_
 _symmetry_equiv_pos_site_id
 _symmetry_equiv_pos_as_xyz
  1  'x, y, z'
loop_
 _atom_site_type_symbol
 _atom_site_label
 _atom_site_symmetry_multiplicity
 _atom_site_fract_x
 _atom_site_fract_y
 _atom_site_fract_z
 _atom_site_occupancy
  Rb  Rb0  1  0.666667  0.333333  0.250000  1
  Rb  Rb1  1  0.333333  0.666667  0.750000  1
  Eu  Eu2  1  0.666667  0.333333  0.619549  1
  Eu  Eu3  1  0.666667  0.333333  0.880451  1
  Eu  Eu4  1  0.333333  0.666667  0.380451  1
  Eu  Eu5  1  0.333333  0.666667  0.119549  1
  Eu  Eu6  1  0.000000  0.000000  0.500000  1
  Eu  Eu7  1  0.000000  0.000000  0.000000  1
  Te  Te8  1  0.000000  0.000000  0.170727  1
  Te  Te9  1  0.666667  0.333333  0.442511  1
  Te  Te10  1  0.000000  0.000000  0.670727  1
  Te  Te11  1  0.333333  0.666667  0.942511  1
  Te  Te12  1  0.333333  0.666667  0.557489  1
  Te  Te13  1  0.000000  0.000000  0.329273  1
  Te  Te14  1  0.666667  0.333333  0.057489  1
  Te  Te15  1  0.000000  0.000000  0.829273  1
