# generated using pymatgen
data_KNpCl4O
_symmetry_space_group_name_H-M   'P 1'
_cell_length_a   7.34010739
_cell_length_b   7.34010652
_cell_length_c   7.70776075
_cell_angle_alpha   107.02219194
_cell_angle_beta   107.02219030
_cell_angle_gamma   32.49800756
_symmetry_Int_Tables_number   1
_chemical_formula_structural   KNpCl4O
_chemical_formula_sum   'K1 Np1 Cl4 O1'
_cell_volume   212.48820445
_cell_formula_units_Z   1
loop_
 _symmetry_equiv_pos_site_id
 _symmetry_equiv_pos_as_xyz
  1  'x, y, z'
loop_
 _atom_site_type_symbol
 _atom_site_label
 _atom_site_symmetry_multiplicity
 _atom_site_fract_x
 _atom_site_fract_y
 _atom_site_fract_z
 _atom_site_occupancy
  K  K0  1  0.997070  0.002930  0.000000  1
  Np  Np1  1  0.503287  0.496712  0.500000  1
  Cl  Cl2  1  0.367196  0.369882  0.183432  1
  Cl  Cl3  1  0.628310  0.631185  0.327085  1
  Cl  Cl4  1  0.368815  0.371689  0.672916  1
  Cl  Cl5  1  0.630118  0.632804  0.816568  1
  O  O6  1  0.004514  0.995486  0.500000  1
