# generated using pymatgen
data_Yb3Dy(Si5Pt3)2
_symmetry_space_group_name_H-M   'P 1'
_cell_length_a   8.23655570
_cell_length_b   8.23663041
_cell_length_c   8.23662958
_cell_angle_alpha   138.05497868
_cell_angle_beta   104.10280849
_cell_angle_gamma   90.71926324
_symmetry_Int_Tables_number   1
_chemical_formula_structural   Yb3Dy(Si5Pt3)2
_chemical_formula_sum   'Yb3 Dy1 Si10 Pt6'
_cell_volume   345.68088908
_cell_formula_units_Z   1
loop_
 _symmetry_equiv_pos_site_id
 _symmetry_equiv_pos_as_xyz
  1  'x, y, z'
loop_
 _atom_site_type_symbol
 _atom_site_label
 _atom_site_symmetry_multiplicity
 _atom_site_fract_x
 _atom_site_fract_y
 _atom_site_fract_z
 _atom_site_occupancy
  Yb  Yb0  1  0.636565  0.370334  0.266230  1
  Yb  Yb1  1  0.362930  0.628925  0.734005  1
  Yb  Yb2  1  0.105971  0.871775  0.234194  1
  Dy  Dy3  1  0.896703  0.128937  0.767766  1
  Si  Si4  1  0.460988  0.112492  0.348497  1
  Si  Si5  1  0.539207  0.888064  0.651142  1
  Si  Si6  1  0.761724  0.611950  0.149774  1
  Si  Si7  1  0.236985  0.387551  0.849434  1
  Si  Si8  1  0.270622  0.520605  0.250936  1
  Si  Si9  1  0.728182  0.478952  0.748544  1
  Si  Si10  1  0.728182  0.979638  0.249229  1
  Si  Si11  1  0.270622  0.019686  0.750017  1
  Si  Si12  1  0.001213  0.251333  0.251586  1
  Si  Si13  1  0.001213  0.749626  0.749880  1
  Pt  Pt14  1  0.500551  0.249279  0.749830  1
  Pt  Pt15  1  0.500551  0.750721  0.251272  1
  Pt  Pt16  1  0.251052  0.135809  0.115243  1
  Pt  Pt17  1  0.748892  0.864734  0.884158  1
  Pt  Pt18  1  0.018723  0.636373  0.382349  1
  Pt  Pt19  1  0.979130  0.363217  0.615914  1
