# generated using pymatgen
data_V3InP12(Pb2O11)4
_symmetry_space_group_name_H-M   'P 1'
_cell_length_a   7.16806702
_cell_length_b   6.62059855
_cell_length_c   20.02201763
_cell_angle_alpha   80.67631635
_cell_angle_beta   89.90403463
_cell_angle_gamma   89.81664136
_symmetry_Int_Tables_number   1
_chemical_formula_structural   V3InP12(Pb2O11)4
_chemical_formula_sum   'V3 In1 P12 Pb8 O44'
_cell_volume   937.62430038
_cell_formula_units_Z   1
loop_
 _symmetry_equiv_pos_site_id
 _symmetry_equiv_pos_as_xyz
  1  'x, y, z'
loop_
 _atom_site_type_symbol
 _atom_site_label
 _atom_site_symmetry_multiplicity
 _atom_site_fract_x
 _atom_site_fract_y
 _atom_site_fract_z
 _atom_site_occupancy
  V  V0  1  0.128264  0.955038  0.876411  1
  V  V1  1  0.628788  0.045752  0.624497  1
  V  V2  1  0.872342  0.046304  0.121979  1
  In  In3  1  0.369095  0.949351  0.378402  1
  P  P4  1  0.460363  0.820164  0.772806  1
  P  P5  1  0.960194  0.179320  0.728043  1
  P  P6  1  0.539847  0.179921  0.224896  1
  P  P7  1  0.031508  0.819009  0.271351  1
  P  P8  1  0.856400  0.565791  0.089971  1
  P  P9  1  0.359392  0.433439  0.409847  1
  P  P10  1  0.144911  0.435151  0.908706  1
  P  P11  1  0.644346  0.567014  0.591223  1
  P  P12  1  0.184870  0.818538  0.043012  1
  P  P13  1  0.691753  0.180232  0.458354  1
  P  P14  1  0.816852  0.182362  0.955702  1
  P  P15  1  0.312158  0.816951  0.548082  1
  Pb  Pb16  1  0.622718  0.670964  0.924846  1
  Pb  Pb17  1  0.120468  0.330089  0.575475  1
  Pb  Pb18  1  0.377464  0.328102  0.073629  1
  Pb  Pb19  1  0.875382  0.673365  0.424438  1
  Pb  Pb20  1  0.471722  0.330202  0.768351  1
  Pb  Pb21  1  0.972711  0.670129  0.731697  1
  Pb  Pb22  1  0.527615  0.669712  0.227342  1
  Pb  Pb23  1  0.024760  0.332377  0.265633  1
  O  O24  1  0.634227  0.690560  0.799199  1
  O  O25  1  0.134255  0.307250  0.701339  1
  O  O26  1  0.365205  0.310019  0.199447  1
  O  O27  1  0.857785  0.687321  0.295747  1
  O  O28  1  0.382803  0.919263  0.833951  1
  O  O29  1  0.883384  0.079612  0.667103  1
  O  O30  1  0.617122  0.087122  0.162392  1
  O  O31  1  0.097705  0.918707  0.333786  1
  O  O32  1  0.317772  0.680774  0.746051  1
  O  O33  1  0.817349  0.320068  0.754552  1
  O  O34  1  0.681134  0.319114  0.252656  1
  O  O35  1  0.180940  0.681331  0.246999  1
  O  O36  1  0.514786  0.005127  0.717786  1
  O  O37  1  0.014187  0.994668  0.783369  1
  O  O38  1  0.487730  0.991074  0.278173  1
  O  O39  1  0.981518  0.003960  0.215506  1
  O  O40  1  0.948202  0.365422  0.126230  1
  O  O41  1  0.458701  0.629156  0.373678  1
  O  O42  1  0.053438  0.635991  0.872939  1
  O  O43  1  0.555892  0.365296  0.627287  1
  O  O44  1  0.684881  0.522140  0.049687  1
  O  O45  1  0.190577  0.484023  0.450347  1
  O  O46  1  0.316703  0.477990  0.949103  1
  O  O47  1  0.815586  0.527276  0.549680  1
  O  O48  1  0.003246  0.677195  0.033730  1
  O  O49  1  0.503146  0.315330  0.465711  1
  O  O50  1  0.998340  0.323514  0.965180  1
  O  O51  1  0.494128  0.677886  0.535676  1
  O  O52  1  0.821395  0.723229  0.137706  1
  O  O53  1  0.318463  0.283936  0.360220  1
  O  O54  1  0.179208  0.277751  0.860969  1
  O  O55  1  0.678544  0.723308  0.639205  1
  O  O56  1  0.881653  0.006872  0.918155  1
  O  O57  1  0.380456  0.993871  0.584039  1
  O  O58  1  0.119840  0.993955  0.080592  1
  O  O59  1  0.635543  0.001040  0.421853  1
  O  O60  1  0.672409  0.317811  0.914820  1
  O  O61  1  0.174198  0.678725  0.591234  1
  O  O62  1  0.328930  0.683078  0.084195  1
  O  O63  1  0.834265  0.317873  0.417710  1
  O  O64  1  0.246169  0.904454  0.970478  1
  O  O65  1  0.749727  0.099748  0.531696  1
  O  O66  1  0.755465  0.095606  0.028171  1
  O  O67  1  0.239069  0.902277  0.476958  1
