# generated using pymatgen
data_BaPr8Mn(Si3O13)2
_symmetry_space_group_name_H-M   'P 1'
_cell_length_a   9.70044800
_cell_length_b   9.70044852
_cell_length_c   7.17180000
_cell_angle_alpha   90.00000000
_cell_angle_beta   90.00000000
_cell_angle_gamma   119.99999822
_symmetry_Int_Tables_number   1
_chemical_formula_structural   BaPr8Mn(Si3O13)2
_chemical_formula_sum   'Ba1 Pr8 Mn1 Si6 O26'
_cell_volume   584.44334359
_cell_formula_units_Z   1
loop_
 _symmetry_equiv_pos_site_id
 _symmetry_equiv_pos_as_xyz
  1  'x, y, z'
loop_
 _atom_site_type_symbol
 _atom_site_label
 _atom_site_symmetry_multiplicity
 _atom_site_fract_x
 _atom_site_fract_y
 _atom_site_fract_z
 _atom_site_occupancy
  Ba  Ba0  1  0.333333  0.666667  0.572566  1
  Pr  Pr1  1  0.242777  0.231179  0.817316  1
  Pr  Pr2  1  0.988402  0.757223  0.817316  1
  Pr  Pr3  1  0.768821  0.011598  0.817316  1
  Pr  Pr4  1  0.756923  0.770378  0.314892  1
  Pr  Pr5  1  0.013455  0.243077  0.314892  1
  Pr  Pr6  1  0.229622  0.986545  0.314892  1
  Pr  Pr7  1  0.666667  0.333333  0.552942  1
  Pr  Pr8  1  0.333333  0.666667  0.068792  1
  Mn  Mn9  1  0.666667  0.333333  0.050498  1
  Si  Si10  1  0.019422  0.394277  0.827032  1
  Si  Si11  1  0.374855  0.980578  0.827032  1
  Si  Si12  1  0.605723  0.625145  0.827032  1
  Si  Si13  1  0.963013  0.597076  0.302361  1
  Si  Si14  1  0.634063  0.036987  0.302361  1
  Si  Si15  1  0.402924  0.365937  0.302361  1
  O  O16  1  0.896135  0.629736  0.501796  1
  O  O17  1  0.733600  0.103865  0.501796  1
  O  O18  1  0.370264  0.266400  0.501796  1
  O  O19  1  0.089311  0.335976  0.000409  1
  O  O20  1  0.246665  0.910689  0.000409  1
  O  O21  1  0.664024  0.753335  0.000409  1
  O  O22  1  0.110308  0.589349  0.843364  1
  O  O23  1  0.479041  0.889692  0.843364  1
  O  O24  1  0.410651  0.520959  0.843364  1
  O  O25  1  0.865657  0.402607  0.275932  1
  O  O26  1  0.536950  0.134343  0.275932  1
  O  O27  1  0.597393  0.463050  0.275932  1
  O  O28  1  0.824473  0.309801  0.827022  1
  O  O29  1  0.485329  0.175527  0.827022  1
  O  O30  1  0.690199  0.514671  0.827022  1
  O  O31  1  0.156484  0.675178  0.301429  1
  O  O32  1  0.518695  0.843516  0.301429  1
  O  O33  1  0.324822  0.481305  0.301429  1
  O  O34  1  0.079399  0.339412  0.638385  1
  O  O35  1  0.260013  0.920601  0.638385  1
  O  O36  1  0.660588  0.739987  0.638385  1
  O  O37  1  0.922839  0.694035  0.143310  1
  O  O38  1  0.771198  0.077161  0.143310  1
  O  O39  1  0.305965  0.228802  0.143310  1
  O  O40  1  0.000000  0.000000  0.823725  1
  O  O41  1  0.000000  0.000000  0.357775  1
