# generated using pymatgen
data_CeDy3(TcB6)2
_symmetry_space_group_name_H-M   'P 1'
_cell_length_a   3.72032300
_cell_length_b   9.19422136
_cell_length_c   11.58241601
_cell_angle_alpha   90.12833933
_cell_angle_beta   90.00000000
_cell_angle_gamma   90.00000000
_symmetry_Int_Tables_number   1
_chemical_formula_structural   CeDy3(TcB6)2
_chemical_formula_sum   'Ce2 Dy6 Tc4 B24'
_cell_volume   396.18102632
_cell_formula_units_Z   2
loop_
 _symmetry_equiv_pos_site_id
 _symmetry_equiv_pos_as_xyz
  1  'x, y, z'
loop_
 _atom_site_type_symbol
 _atom_site_label
 _atom_site_symmetry_multiplicity
 _atom_site_fract_x
 _atom_site_fract_y
 _atom_site_fract_z
 _atom_site_occupancy
  Ce  Ce0  1  0.000000  0.322698  0.413671  1
  Ce  Ce1  1  0.000000  0.677302  0.586329  1
  Dy  Dy2  1  0.000000  0.824615  0.085406  1
  Dy  Dy3  1  0.000000  0.175385  0.914594  1
  Dy  Dy4  1  0.000000  0.943355  0.369703  1
  Dy  Dy5  1  0.000000  0.056645  0.630297  1
  Dy  Dy6  1  0.000000  0.442720  0.129394  1
  Dy  Dy7  1  0.000000  0.557280  0.870606  1
  Tc  Tc8  1  0.000000  0.637862  0.321824  1
  Tc  Tc9  1  0.000000  0.362138  0.678176  1
  Tc  Tc10  1  0.000000  0.139368  0.179900  1
  Tc  Tc11  1  0.000000  0.860632  0.820100  1
  B  B12  1  0.500000  0.554294  0.431533  1
  B  B13  1  0.500000  0.445706  0.568467  1
  B  B14  1  0.500000  0.053605  0.066827  1
  B  B15  1  0.500000  0.946395  0.933173  1
  B  B16  1  0.500000  0.748935  0.417507  1
  B  B17  1  0.500000  0.251065  0.582493  1
  B  B18  1  0.500000  0.248297  0.080735  1
  B  B19  1  0.500000  0.751703  0.919265  1
  B  B20  1  0.500000  0.791792  0.264985  1
  B  B21  1  0.500000  0.208208  0.735015  1
  B  B22  1  0.500000  0.290996  0.233521  1
  B  B23  1  0.500000  0.709004  0.766479  1
  B  B24  1  0.500000  0.631510  0.185281  1
  B  B25  1  0.500000  0.368490  0.814719  1
  B  B26  1  0.500000  0.131345  0.313297  1
  B  B27  1  0.500000  0.868655  0.686703  1
  B  B28  1  0.500000  0.983053  0.211264  1
  B  B29  1  0.500000  0.016947  0.788736  1
  B  B30  1  0.500000  0.484042  0.287071  1
  B  B31  1  0.500000  0.515958  0.712929  1
  B  B32  1  0.500000  0.602513  0.028593  1
  B  B33  1  0.500000  0.397487  0.971407  1
  B  B34  1  0.500000  0.103401  0.471194  1
  B  B35  1  0.500000  0.896599  0.528806  1
