# generated using pymatgen
data_Li(LuSn)4
_symmetry_space_group_name_H-M   'P 1'
_cell_length_a   7.40175800
_cell_length_b   8.09267000
_cell_length_c   15.21313500
_cell_angle_alpha   90.00000000
_cell_angle_beta   90.00000000
_cell_angle_gamma   90.00000000
_symmetry_Int_Tables_number   1
_chemical_formula_structural   Li(LuSn)4
_chemical_formula_sum   'Li4 Lu16 Sn16'
_cell_volume   911.26655699
_cell_formula_units_Z   4
loop_
 _symmetry_equiv_pos_site_id
 _symmetry_equiv_pos_as_xyz
  1  'x, y, z'
loop_
 _atom_site_type_symbol
 _atom_site_label
 _atom_site_symmetry_multiplicity
 _atom_site_fract_x
 _atom_site_fract_y
 _atom_site_fract_z
 _atom_site_occupancy
  Li  Li0  1  0.156959  0.511077  0.750000  1
  Li  Li1  1  0.843041  0.488923  0.250000  1
  Li  Li2  1  0.343041  0.011077  0.250000  1
  Li  Li3  1  0.656959  0.988923  0.750000  1
  Lu  Lu4  1  0.330469  0.162428  0.628996  1
  Lu  Lu5  1  0.669531  0.837572  0.371004  1
  Lu  Lu6  1  0.169531  0.662428  0.371004  1
  Lu  Lu7  1  0.669531  0.837572  0.128996  1
  Lu  Lu8  1  0.830469  0.337572  0.628996  1
  Lu  Lu9  1  0.330469  0.162428  0.871004  1
  Lu  Lu10  1  0.830469  0.337572  0.871004  1
  Lu  Lu11  1  0.169531  0.662428  0.128996  1
  Lu  Lu12  1  0.997502  0.188693  0.090146  1
  Lu  Lu13  1  0.002498  0.811307  0.909854  1
  Lu  Lu14  1  0.502498  0.688693  0.909854  1
  Lu  Lu15  1  0.002498  0.811307  0.590146  1
  Lu  Lu16  1  0.497502  0.311307  0.090146  1
  Lu  Lu17  1  0.997502  0.188693  0.409854  1
  Lu  Lu18  1  0.497502  0.311307  0.409854  1
  Lu  Lu19  1  0.502498  0.688693  0.590146  1
  Sn  Sn20  1  0.009667  0.090492  0.750000  1
  Sn  Sn21  1  0.990333  0.909508  0.250000  1
  Sn  Sn22  1  0.490333  0.590492  0.250000  1
  Sn  Sn23  1  0.509667  0.409508  0.750000  1
  Sn  Sn24  1  0.300799  0.844559  0.750000  1
  Sn  Sn25  1  0.699201  0.155441  0.250000  1
  Sn  Sn26  1  0.199201  0.344559  0.250000  1
  Sn  Sn27  1  0.800799  0.655441  0.750000  1
  Sn  Sn28  1  0.184593  0.460971  0.541059  1
  Sn  Sn29  1  0.815407  0.539029  0.458941  1
  Sn  Sn30  1  0.315407  0.960971  0.458941  1
  Sn  Sn31  1  0.815407  0.539029  0.041059  1
  Sn  Sn32  1  0.684593  0.039029  0.541059  1
  Sn  Sn33  1  0.184593  0.460971  0.958941  1
  Sn  Sn34  1  0.684593  0.039029  0.958941  1
  Sn  Sn35  1  0.315407  0.960971  0.041059  1
