# generated using pymatgen
data_Er2Co9TcAs6
_symmetry_space_group_name_H-M   'P 1'
_cell_length_a   3.81050400
_cell_length_b   10.70224600
_cell_length_c   12.21633100
_cell_angle_alpha   90.00000000
_cell_angle_beta   90.00000000
_cell_angle_gamma   90.00000000
_symmetry_Int_Tables_number   1
_chemical_formula_structural   Er2Co9TcAs6
_chemical_formula_sum   'Er4 Co18 Tc2 As12'
_cell_volume   498.19359826
_cell_formula_units_Z   2
loop_
 _symmetry_equiv_pos_site_id
 _symmetry_equiv_pos_as_xyz
  1  'x, y, z'
loop_
 _atom_site_type_symbol
 _atom_site_label
 _atom_site_symmetry_multiplicity
 _atom_site_fract_x
 _atom_site_fract_y
 _atom_site_fract_z
 _atom_site_occupancy
  Er  Er0  1  0.250000  0.580885  0.701626  1
  Er  Er1  1  0.250000  0.919115  0.201626  1
  Er  Er2  1  0.750000  0.416774  0.295356  1
  Er  Er3  1  0.750000  0.083226  0.795356  1
  Co  Co4  1  0.750000  0.289234  0.010150  1
  Co  Co5  1  0.750000  0.210766  0.510150  1
  Co  Co6  1  0.250000  0.406095  0.488144  1
  Co  Co7  1  0.250000  0.093905  0.988144  1
  Co  Co8  1  0.750000  0.593265  0.511992  1
  Co  Co9  1  0.750000  0.906735  0.011992  1
  Co  Co10  1  0.250000  0.215487  0.177367  1
  Co  Co11  1  0.250000  0.284513  0.677367  1
  Co  Co12  1  0.750000  0.783767  0.823848  1
  Co  Co13  1  0.750000  0.716233  0.323848  1
  Co  Co14  1  0.250000  0.887073  0.699351  1
  Co  Co15  1  0.250000  0.612927  0.199351  1
  Co  Co16  1  0.750000  0.115911  0.302355  1
  Co  Co17  1  0.750000  0.384089  0.802355  1
  Co  Co18  1  0.250000  0.467058  0.932228  1
  Co  Co19  1  0.250000  0.032942  0.432228  1
  Co  Co20  1  0.750000  0.532427  0.068209  1
  Co  Co21  1  0.750000  0.967573  0.568209  1
  Tc  Tc22  1  0.250000  0.708448  0.989716  1
  Tc  Tc23  1  0.250000  0.791552  0.489716  1
  As  As24  1  0.250000  0.414316  0.113865  1
  As  As25  1  0.250000  0.085684  0.613865  1
  As  As26  1  0.750000  0.581981  0.883923  1
  As  As27  1  0.750000  0.918019  0.383923  1
  As  As28  1  0.250000  0.267879  0.868924  1
  As  As29  1  0.250000  0.232121  0.368924  1
  As  As30  1  0.750000  0.731979  0.133657  1
  As  As31  1  0.750000  0.768021  0.633657  1
  As  As32  1  0.250000  0.594649  0.390120  1
  As  As33  1  0.250000  0.905351  0.890120  1
  As  As34  1  0.750000  0.399253  0.609166  1
  As  As35  1  0.750000  0.100747  0.109166  1
