# generated using pymatgen
data_Eu2TeO6
_symmetry_space_group_name_H-M   'P 1'
_cell_length_a   5.43934900
_cell_length_b   9.32383700
_cell_length_c   10.31947400
_cell_angle_alpha   90.00000000
_cell_angle_beta   90.00000000
_cell_angle_gamma   90.00000000
_symmetry_Int_Tables_number   1
_chemical_formula_structural   Eu2TeO6
_chemical_formula_sum   'Eu8 Te4 O24'
_cell_volume   523.35835132
_cell_formula_units_Z   4
loop_
 _symmetry_equiv_pos_site_id
 _symmetry_equiv_pos_as_xyz
  1  'x, y, z'
loop_
 _atom_site_type_symbol
 _atom_site_label
 _atom_site_symmetry_multiplicity
 _atom_site_fract_x
 _atom_site_fract_y
 _atom_site_fract_z
 _atom_site_occupancy
  Eu  Eu0  1  0.525316  0.102999  0.956929  1
  Eu  Eu1  1  0.025316  0.397001  0.043071  1
  Eu  Eu2  1  0.474684  0.602999  0.543071  1
  Eu  Eu3  1  0.974684  0.897001  0.456929  1
  Eu  Eu4  1  0.532851  0.218341  0.361110  1
  Eu  Eu5  1  0.032851  0.281659  0.638890  1
  Eu  Eu6  1  0.467149  0.718341  0.138890  1
  Eu  Eu7  1  0.967149  0.781659  0.861110  1
  Te  Te8  1  0.462158  0.995594  0.642774  1
  Te  Te9  1  0.962158  0.504406  0.357226  1
  Te  Te10  1  0.537842  0.495594  0.857226  1
  Te  Te11  1  0.037842  0.004406  0.142774  1
  O  O12  1  0.307470  0.139093  0.175153  1
  O  O13  1  0.807470  0.360907  0.824847  1
  O  O14  1  0.692530  0.639093  0.324847  1
  O  O15  1  0.192530  0.860907  0.675153  1
  O  O16  1  0.727235  0.112271  0.564224  1
  O  O17  1  0.227235  0.387729  0.435776  1
  O  O18  1  0.272765  0.612271  0.935776  1
  O  O19  1  0.772765  0.887729  0.064224  1
  O  O20  1  0.681491  0.638433  0.744342  1
  O  O21  1  0.181491  0.861567  0.255658  1
  O  O22  1  0.318509  0.138433  0.755658  1
  O  O23  1  0.818509  0.361567  0.244342  1
  O  O24  1  0.670050  0.950429  0.789164  1
  O  O25  1  0.170050  0.549571  0.210836  1
  O  O26  1  0.329950  0.450429  0.710836  1
  O  O27  1  0.829950  0.049571  0.289164  1
  O  O28  1  0.257599  0.084606  0.505959  1
  O  O29  1  0.757599  0.415394  0.494041  1
  O  O30  1  0.742401  0.584606  0.994041  1
  O  O31  1  0.242401  0.915394  0.005959  1
  O  O32  1  0.083542  0.653182  0.472016  1
  O  O33  1  0.583542  0.846818  0.527984  1
  O  O34  1  0.916458  0.153182  0.027984  1
  O  O35  1  0.416458  0.346818  0.972016  1
