# generated using pymatgen
data_Ho7Tm3(IrOs)2
_symmetry_space_group_name_H-M   'P 1'
_cell_length_a   6.38685001
_cell_length_b   7.28959910
_cell_length_c   8.36737751
_cell_angle_alpha   96.68405348
_cell_angle_beta   112.48821240
_cell_angle_gamma   90.05282133
_symmetry_Int_Tables_number   1
_chemical_formula_structural   Ho7Tm3(IrOs)2
_chemical_formula_sum   'Ho7 Tm3 Ir2 Os2'
_cell_volume   357.05655810
_cell_formula_units_Z   1
loop_
 _symmetry_equiv_pos_site_id
 _symmetry_equiv_pos_as_xyz
  1  'x, y, z'
loop_
 _atom_site_type_symbol
 _atom_site_label
 _atom_site_symmetry_multiplicity
 _atom_site_fract_x
 _atom_site_fract_y
 _atom_site_fract_z
 _atom_site_occupancy
  Ho  Ho0  1  0.968761  0.916255  0.179180  1
  Ho  Ho1  1  0.789915  0.583418  0.820650  1
  Ho  Ho2  1  0.026251  0.082388  0.816271  1
  Ho  Ho3  1  0.210365  0.417703  0.183503  1
  Ho  Ho4  1  0.652643  0.817537  0.439495  1
  Ho  Ho5  1  0.212256  0.682216  0.560104  1
  Ho  Ho6  1  0.350624  0.179451  0.562139  1
  Tm  Tm7  1  0.788749  0.320982  0.437441  1
  Tm  Tm8  1  0.423687  0.750121  0.000031  1
  Tm  Tm9  1  0.577926  0.250095  0.000807  1
  Ir  Ir10  1  0.174338  0.423387  0.780063  1
  Ir  Ir11  1  0.395310  0.077129  0.219300  1
  Os  Os12  1  0.822447  0.574233  0.216687  1
  Os  Os13  1  0.606730  0.925084  0.784328  1
