# generated using pymatgen
data_ErTmZrGa5
_symmetry_space_group_name_H-M   'P 1'
_cell_length_a   5.93168300
_cell_length_b   9.39928200
_cell_length_c   11.30078000
_cell_angle_alpha   90.00000000
_cell_angle_beta   90.00000000
_cell_angle_gamma   90.00000000
_symmetry_Int_Tables_number   1
_chemical_formula_structural   ErTmZrGa5
_chemical_formula_sum   'Er4 Tm4 Zr4 Ga20'
_cell_volume   630.05872992
_cell_formula_units_Z   4
loop_
 _symmetry_equiv_pos_site_id
 _symmetry_equiv_pos_as_xyz
  1  'x, y, z'
loop_
 _atom_site_type_symbol
 _atom_site_label
 _atom_site_symmetry_multiplicity
 _atom_site_fract_x
 _atom_site_fract_y
 _atom_site_fract_z
 _atom_site_occupancy
  Er  Er0  1  0.886961  0.506893  0.352777  1
  Er  Er1  1  0.613039  0.993107  0.852777  1
  Er  Er2  1  0.113039  0.006893  0.647223  1
  Er  Er3  1  0.386961  0.493107  0.147223  1
  Tm  Tm4  1  0.112988  0.493206  0.647343  1
  Tm  Tm5  1  0.387012  0.006794  0.147343  1
  Tm  Tm6  1  0.887012  0.993206  0.352657  1
  Tm  Tm7  1  0.612988  0.506794  0.852657  1
  Zr  Zr8  1  0.857361  0.749982  0.074190  1
  Zr  Zr9  1  0.642639  0.750018  0.574190  1
  Zr  Zr10  1  0.142639  0.249982  0.925810  1
  Zr  Zr11  1  0.357361  0.250018  0.425810  1
  Ga  Ga12  1  0.875167  0.052885  0.089589  1
  Ga  Ga13  1  0.624833  0.447115  0.589589  1
  Ga  Ga14  1  0.124833  0.552885  0.910411  1
  Ga  Ga15  1  0.375167  0.947115  0.410411  1
  Ga  Ga16  1  0.124781  0.946966  0.910799  1
  Ga  Ga17  1  0.375219  0.553034  0.410799  1
  Ga  Ga18  1  0.875219  0.446966  0.089201  1
  Ga  Ga19  1  0.624781  0.053034  0.589201  1
  Ga  Ga20  1  0.161755  0.750377  0.254308  1
  Ga  Ga21  1  0.338245  0.749623  0.754308  1
  Ga  Ga22  1  0.838245  0.250377  0.745692  1
  Ga  Ga23  1  0.661755  0.249623  0.245692  1
  Ga  Ga24  1  0.390081  0.750164  0.002764  1
  Ga  Ga25  1  0.109919  0.749836  0.502764  1
  Ga  Ga26  1  0.609919  0.250164  0.997236  1
  Ga  Ga27  1  0.890081  0.249836  0.497236  1
  Ga  Ga28  1  0.607752  0.750336  0.293829  1
  Ga  Ga29  1  0.892248  0.749664  0.793829  1
  Ga  Ga30  1  0.392248  0.250336  0.706171  1
  Ga  Ga31  1  0.107752  0.249664  0.206171  1
