# generated using pymatgen
data_AcAl6Fe7
_symmetry_space_group_name_H-M   'P 1'
_cell_length_a   8.37927478
_cell_length_b   8.37927312
_cell_length_c   8.37927455
_cell_angle_alpha   120.97830075
_cell_angle_beta   118.76362716
_cell_angle_gamma   90.23429839
_symmetry_Int_Tables_number   1
_chemical_formula_structural   AcAl6Fe7
_chemical_formula_sum   'Ac2 Al12 Fe14'
_cell_volume   416.62437324
_cell_formula_units_Z   2
loop_
 _symmetry_equiv_pos_site_id
 _symmetry_equiv_pos_as_xyz
  1  'x, y, z'
loop_
 _atom_site_type_symbol
 _atom_site_label
 _atom_site_symmetry_multiplicity
 _atom_site_fract_x
 _atom_site_fract_y
 _atom_site_fract_z
 _atom_site_occupancy
  Ac  Ac0  1  0.250000  0.750000  0.500000  1
  Ac  Ac1  1  0.750000  0.250000  0.500000  1
  Al  Al2  1  0.557133  0.555042  0.366194  1
  Al  Al3  1  0.442867  0.444958  0.633806  1
  Al  Al4  1  0.188847  0.190938  0.633806  1
  Al  Al5  1  0.311153  0.944958  0.002090  1
  Al  Al6  1  0.811153  0.809062  0.366194  1
  Al  Al7  1  0.688847  0.055042  0.997910  1
  Al  Al8  1  0.942867  0.309062  0.997910  1
  Al  Al9  1  0.057133  0.690938  0.002090  1
  Al  Al10  1  0.053840  0.308618  0.362458  1
  Al  Al11  1  0.946160  0.691382  0.637542  1
  Al  Al12  1  0.553840  0.191382  0.745221  1
  Al  Al13  1  0.446160  0.808618  0.254779  1
  Fe  Fe14  1  0.278899  0.280163  0.212203  1
  Fe  Fe15  1  0.721101  0.719837  0.787797  1
  Fe  Fe16  1  0.067959  0.066696  0.787797  1
  Fe  Fe17  1  0.432041  0.219837  0.998736  1
  Fe  Fe18  1  0.932041  0.933304  0.212203  1
  Fe  Fe19  1  0.567959  0.780163  0.001264  1
  Fe  Fe20  1  0.221101  0.433304  0.001264  1
  Fe  Fe21  1  0.778899  0.566696  0.998736  1
  Fe  Fe22  1  0.000000  0.000000  0.000000  1
  Fe  Fe23  1  0.500000  0.500000  0.000000  1
  Fe  Fe24  1  0.274182  0.067051  0.341233  1
  Fe  Fe25  1  0.725818  0.932949  0.658767  1
  Fe  Fe26  1  0.774182  0.432949  0.207131  1
  Fe  Fe27  1  0.225818  0.567051  0.792869  1
