# generated using pymatgen
data_Fe4CuNi5(SeO3)12
_symmetry_space_group_name_H-M   'P 1'
_cell_length_a   12.70405671
_cell_length_b   8.44708353
_cell_length_c   7.71280068
_cell_angle_alpha   89.83301248
_cell_angle_beta   97.33421486
_cell_angle_gamma   89.87714431
_symmetry_Int_Tables_number   1
_chemical_formula_structural   Fe4CuNi5(SeO3)12
_chemical_formula_sum   'Fe4 Cu1 Ni5 Se12 O36'
_cell_volume   820.89995858
_cell_formula_units_Z   1
loop_
 _symmetry_equiv_pos_site_id
 _symmetry_equiv_pos_as_xyz
  1  'x, y, z'
loop_
 _atom_site_type_symbol
 _atom_site_label
 _atom_site_symmetry_multiplicity
 _atom_site_fract_x
 _atom_site_fract_y
 _atom_site_fract_z
 _atom_site_occupancy
  Fe  Fe0  1  0.824814  0.006606  0.129605  1
  Fe  Fe1  1  0.172801  0.503546  0.367671  1
  Fe  Fe2  1  0.827257  0.498011  0.631581  1
  Fe  Fe3  1  0.172702  0.997960  0.868306  1
  Cu  Cu4  1  0.614017  0.881210  0.871012  1
  Ni  Ni5  1  0.499647  0.497861  0.000246  1
  Ni  Ni6  1  0.384070  0.106798  0.123149  1
  Ni  Ni7  1  0.617232  0.606316  0.377593  1
  Ni  Ni8  1  0.501522  0.999095  0.499472  1
  Ni  Ni9  1  0.382922  0.393377  0.623435  1
  Se  Se10  1  0.774157  0.598931  0.053882  1
  Se  Se11  1  0.044849  0.803153  0.137653  1
  Se  Se12  1  0.607642  0.178986  0.183216  1
  Se  Se13  1  0.392976  0.677099  0.319403  1
  Se  Se14  1  0.954354  0.303401  0.360599  1
  Se  Se15  1  0.225530  0.096367  0.446384  1
  Se  Se16  1  0.775871  0.903105  0.555038  1
  Se  Se17  1  0.046200  0.697924  0.638977  1
  Se  Se18  1  0.607390  0.321791  0.682379  1
  Se  Se19  1  0.391588  0.820262  0.820572  1
  Se  Se20  1  0.954276  0.197685  0.859930  1
  Se  Se21  1  0.224071  0.403724  0.945421  1
  O  O22  1  0.744636  0.800616  0.001631  1
  O  O23  1  0.675655  0.091121  0.027322  1
  O  O24  1  0.500522  0.259992  0.043961  1
  O  O25  1  0.114260  0.972683  0.092964  1
  O  O26  1  0.248609  0.486211  0.149076  1
  O  O27  1  0.659785  0.537962  0.136936  1
  O  O28  1  0.868549  0.232157  0.186299  1
  O  O29  1  0.050548  0.388686  0.246694  1
  O  O30  1  0.526592  0.026147  0.242869  1
  O  O31  1  0.474169  0.525887  0.258469  1
  O  O32  1  0.947497  0.886793  0.249632  1
  O  O33  1  0.131196  0.730513  0.312215  1
  O  O34  1  0.340740  0.037980  0.363458  1
  O  O35  1  0.752409  0.986851  0.351402  1
  O  O36  1  0.885073  0.472798  0.405873  1
  O  O37  1  0.498962  0.759267  0.456774  1
  O  O38  1  0.325788  0.584201  0.476373  1
  O  O39  1  0.250782  0.298149  0.492324  1
  O  O40  1  0.749803  0.701341  0.507350  1
  O  O41  1  0.673763  0.416281  0.525521  1
  O  O42  1  0.500981  0.238693  0.546171  1
  O  O43  1  0.115514  0.528709  0.593763  1
  O  O44  1  0.251818  0.014800  0.651472  1
  O  O45  1  0.659798  0.962428  0.634942  1
  O  O46  1  0.867953  0.270709  0.686161  1
  O  O47  1  0.050471  0.112448  0.745309  1
  O  O48  1  0.525897  0.472863  0.743440  1
  O  O49  1  0.477454  0.967951  0.759795  1
  O  O50  1  0.950308  0.612362  0.753347  1
  O  O51  1  0.132911  0.770671  0.812182  1
  O  O52  1  0.339568  0.462512  0.863082  1
  O  O53  1  0.752694  0.512212  0.852774  1
  O  O54  1  0.885138  0.028901  0.905618  1
  O  O55  1  0.497155  0.738034  0.960540  1
  O  O56  1  0.326400  0.916071  0.976327  1
  O  O57  1  0.250714  0.201800  0.992408  1
