# generated using pymatgen
data_Dy2ErMg2PaNi4
_symmetry_space_group_name_H-M   'P 1'
_cell_length_a   7.44685199
_cell_length_b   7.44685192
_cell_length_c   3.57261700
_cell_angle_alpha   90.00000000
_cell_angle_beta   90.00000000
_cell_angle_gamma   92.13786319
_symmetry_Int_Tables_number   1
_chemical_formula_structural   Dy2ErMg2PaNi4
_chemical_formula_sum   'Dy2 Er1 Mg2 Pa1 Ni4'
_cell_volume   197.98373305
_cell_formula_units_Z   1
loop_
 _symmetry_equiv_pos_site_id
 _symmetry_equiv_pos_as_xyz
  1  'x, y, z'
loop_
 _atom_site_type_symbol
 _atom_site_label
 _atom_site_symmetry_multiplicity
 _atom_site_fract_x
 _atom_site_fract_y
 _atom_site_fract_z
 _atom_site_occupancy
  Dy  Dy0  1  0.169952  0.332193  0.500000  1
  Dy  Dy1  1  0.832193  0.669952  0.500000  1
  Er  Er2  1  0.327850  0.827850  0.500000  1
  Mg  Mg3  1  0.003690  0.999069  0.000000  1
  Mg  Mg4  1  0.499069  0.503690  0.000000  1
  Pa  Pa5  1  0.666864  0.166864  0.500000  1
  Ni  Ni6  1  0.117151  0.617151  0.000000  1
  Ni  Ni7  1  0.858336  0.358336  0.000000  1
  Ni  Ni8  1  0.630874  0.894021  0.000000  1
  Ni  Ni9  1  0.394021  0.130874  0.000000  1
