# generated using pymatgen
data_HoFe4ReP3
_symmetry_space_group_name_H-M   'P 1'
_cell_length_a   3.72407600
_cell_length_b   10.38462100
_cell_length_c   11.80151700
_cell_angle_alpha   90.00000000
_cell_angle_beta   90.00000000
_cell_angle_gamma   90.00000000
_symmetry_Int_Tables_number   1
_chemical_formula_structural   HoFe4ReP3
_chemical_formula_sum   'Ho4 Fe16 Re4 P12'
_cell_volume   456.40145758
_cell_formula_units_Z   4
loop_
 _symmetry_equiv_pos_site_id
 _symmetry_equiv_pos_as_xyz
  1  'x, y, z'
loop_
 _atom_site_type_symbol
 _atom_site_label
 _atom_site_symmetry_multiplicity
 _atom_site_fract_x
 _atom_site_fract_y
 _atom_site_fract_z
 _atom_site_occupancy
  Ho  Ho0  1  0.250000  0.582077  0.704067  1
  Ho  Ho1  1  0.250000  0.917923  0.204067  1
  Ho  Ho2  1  0.750000  0.417923  0.295933  1
  Ho  Ho3  1  0.750000  0.082077  0.795933  1
  Fe  Fe4  1  0.250000  0.404866  0.490187  1
  Fe  Fe5  1  0.250000  0.095134  0.990187  1
  Fe  Fe6  1  0.750000  0.595134  0.509813  1
  Fe  Fe7  1  0.750000  0.904866  0.009813  1
  Fe  Fe8  1  0.250000  0.216955  0.178283  1
  Fe  Fe9  1  0.250000  0.283045  0.678283  1
  Fe  Fe10  1  0.750000  0.783045  0.821717  1
  Fe  Fe11  1  0.750000  0.716955  0.321717  1
  Fe  Fe12  1  0.250000  0.877243  0.702021  1
  Fe  Fe13  1  0.250000  0.622757  0.202021  1
  Fe  Fe14  1  0.750000  0.122757  0.297979  1
  Fe  Fe15  1  0.750000  0.377243  0.797979  1
  Fe  Fe16  1  0.250000  0.462882  0.933516  1
  Fe  Fe17  1  0.250000  0.037118  0.433516  1
  Fe  Fe18  1  0.750000  0.537118  0.066484  1
  Fe  Fe19  1  0.750000  0.962882  0.566484  1
  Re  Re20  1  0.250000  0.705253  0.986716  1
  Re  Re21  1  0.250000  0.794747  0.486716  1
  Re  Re22  1  0.750000  0.294747  0.013284  1
  Re  Re23  1  0.750000  0.205253  0.513284  1
  P  P24  1  0.250000  0.422625  0.114960  1
  P  P25  1  0.250000  0.077375  0.614960  1
  P  P26  1  0.750000  0.577375  0.885040  1
  P  P27  1  0.750000  0.922625  0.385040  1
  P  P28  1  0.250000  0.264813  0.870308  1
  P  P29  1  0.250000  0.235187  0.370308  1
  P  P30  1  0.750000  0.735187  0.129692  1
  P  P31  1  0.750000  0.764813  0.629692  1
  P  P32  1  0.250000  0.594242  0.394687  1
  P  P33  1  0.250000  0.905758  0.894687  1
  P  P34  1  0.750000  0.405758  0.605313  1
  P  P35  1  0.750000  0.094242  0.105313  1
