# generated using pymatgen
data_Nd4Al17GaIr6
_symmetry_space_group_name_H-M   'P 1'
_cell_length_a   7.60028800
_cell_length_b   7.60028699
_cell_length_c   9.62050000
_cell_angle_alpha   90.00000000
_cell_angle_beta   90.00000000
_cell_angle_gamma   119.27662842
_symmetry_Int_Tables_number   1
_chemical_formula_structural   Nd4Al17GaIr6
_chemical_formula_sum   'Nd4 Al17 Ga1 Ir6'
_cell_volume   484.73908199
_cell_formula_units_Z   1
loop_
 _symmetry_equiv_pos_site_id
 _symmetry_equiv_pos_as_xyz
  1  'x, y, z'
loop_
 _atom_site_type_symbol
 _atom_site_label
 _atom_site_symmetry_multiplicity
 _atom_site_fract_x
 _atom_site_fract_y
 _atom_site_fract_z
 _atom_site_occupancy
  Nd  Nd0  1  0.993478  0.674281  0.250000  1
  Nd  Nd1  1  0.004835  0.328326  0.750000  1
  Nd  Nd2  1  0.674281  0.993478  0.250000  1
  Nd  Nd3  1  0.328326  0.004835  0.750000  1
  Al  Al4  1  0.868028  0.868028  0.750000  1
  Al  Al5  1  0.002732  0.336084  0.071318  1
  Al  Al6  1  0.997319  0.664194  0.927699  1
  Al  Al7  1  0.997319  0.664194  0.572301  1
  Al  Al8  1  0.336084  0.002732  0.428682  1
  Al  Al9  1  0.002732  0.336084  0.428682  1
  Al  Al10  1  0.664194  0.997319  0.572301  1
  Al  Al11  1  0.664194  0.997319  0.927699  1
  Al  Al12  1  0.336084  0.002732  0.071318  1
  Al  Al13  1  0.333775  0.333775  0.548613  1
  Al  Al14  1  0.665082  0.665082  0.454999  1
  Al  Al15  1  0.665082  0.665082  0.045001  1
  Al  Al16  1  0.333775  0.333775  0.951387  1
  Al  Al17  1  0.338425  0.547492  0.250000  1
  Al  Al18  1  0.660434  0.453070  0.750000  1
  Al  Al19  1  0.547492  0.338425  0.250000  1
  Al  Al20  1  0.453070  0.660434  0.750000  1
  Ga  Ga21  1  0.136793  0.136793  0.250000  1
  Ir  Ir22  1  0.670513  0.328499  0.000184  1
  Ir  Ir23  1  0.328499  0.670513  0.000184  1
  Ir  Ir24  1  0.328499  0.670513  0.499816  1
  Ir  Ir25  1  0.670513  0.328499  0.499816  1
  Ir  Ir26  1  0.999222  0.999222  0.997485  1
  Ir  Ir27  1  0.999222  0.999222  0.502515  1
