# generated using pymatgen
data_Yb3Th5BePd24
_symmetry_space_group_name_H-M   'P 1'
_cell_length_a   8.44085215
_cell_length_b   8.44085255
_cell_length_c   8.44085200
_cell_angle_alpha   89.69685036
_cell_angle_beta   89.69685034
_cell_angle_gamma   90.30315018
_symmetry_Int_Tables_number   1
_chemical_formula_structural   Yb3Th5BePd24
_chemical_formula_sum   'Yb3 Th5 Be1 Pd24'
_cell_volume   601.36838266
_cell_formula_units_Z   1
loop_
 _symmetry_equiv_pos_site_id
 _symmetry_equiv_pos_as_xyz
  1  'x, y, z'
loop_
 _atom_site_type_symbol
 _atom_site_label
 _atom_site_symmetry_multiplicity
 _atom_site_fract_x
 _atom_site_fract_y
 _atom_site_fract_z
 _atom_site_occupancy
  Yb  Yb0  1  0.748005  0.251408  0.748592  1
  Yb  Yb1  1  0.251408  0.748005  0.748592  1
  Yb  Yb2  1  0.251408  0.251408  0.251995  1
  Th  Th3  1  0.252187  0.252187  0.747813  1
  Th  Th4  1  0.252103  0.747524  0.252476  1
  Th  Th5  1  0.747524  0.252103  0.252476  1
  Th  Th6  1  0.747524  0.747524  0.747897  1
  Th  Th7  1  0.748251  0.748251  0.251749  1
  Be  Be8  1  0.000876  0.000876  0.999124  1
  Pd  Pd9  1  0.499865  0.499865  0.748573  1
  Pd  Pd10  1  0.499865  0.251427  0.500135  1
  Pd  Pd11  1  0.251427  0.499865  0.500135  1
  Pd  Pd12  1  0.499737  0.499737  0.251624  1
  Pd  Pd13  1  0.499737  0.748376  0.500263  1
  Pd  Pd14  1  0.748376  0.499737  0.500263  1
  Pd  Pd15  1  0.999385  0.999385  0.732232  1
  Pd  Pd16  1  0.999385  0.267768  0.000615  1
  Pd  Pd17  1  0.267768  0.999385  0.000615  1
  Pd  Pd18  1  0.001755  0.001755  0.268000  1
  Pd  Pd19  1  0.001755  0.732000  0.998245  1
  Pd  Pd20  1  0.732000  0.001755  0.998245  1
  Pd  Pd21  1  0.999499  0.499728  0.746690  1
  Pd  Pd22  1  0.499728  0.253310  0.000501  1
  Pd  Pd23  1  0.253310  0.999499  0.500272  1
  Pd  Pd24  1  0.999499  0.253310  0.500272  1
  Pd  Pd25  1  0.499728  0.999499  0.746690  1
  Pd  Pd26  1  0.253310  0.499728  0.000501  1
  Pd  Pd27  1  0.000343  0.500073  0.253124  1
  Pd  Pd28  1  0.500073  0.746876  0.999657  1
  Pd  Pd29  1  0.000343  0.746876  0.499927  1
  Pd  Pd30  1  0.500073  0.000343  0.253124  1
  Pd  Pd31  1  0.746876  0.000343  0.499927  1
  Pd  Pd32  1  0.746876  0.500073  0.999657  1
