# generated using pymatgen
data_Ho8Zr11Si16Hg
_symmetry_space_group_name_H-M   'P 1'
_cell_length_a   7.07590441
_cell_length_b   7.29235709
_cell_length_c   13.96720600
_cell_angle_alpha   90.00000000
_cell_angle_beta   90.00000000
_cell_angle_gamma   89.75577675
_symmetry_Int_Tables_number   1
_chemical_formula_structural   Ho8Zr11Si16Hg
_chemical_formula_sum   'Ho8 Zr11 Si16 Hg1'
_cell_volume   720.70158538
_cell_formula_units_Z   1
loop_
 _symmetry_equiv_pos_site_id
 _symmetry_equiv_pos_as_xyz
  1  'x, y, z'
loop_
 _atom_site_type_symbol
 _atom_site_label
 _atom_site_symmetry_multiplicity
 _atom_site_fract_x
 _atom_site_fract_y
 _atom_site_fract_z
 _atom_site_occupancy
  Ho  Ho0  1  0.011039  0.175345  0.099374  1
  Ho  Ho1  1  0.986825  0.819938  0.903013  1
  Ho  Ho2  1  0.484400  0.674438  0.902499  1
  Ho  Ho3  1  0.986825  0.819938  0.596987  1
  Ho  Ho4  1  0.512884  0.324297  0.096488  1
  Ho  Ho5  1  0.011039  0.175345  0.400626  1
  Ho  Ho6  1  0.512884  0.324297  0.403512  1
  Ho  Ho7  1  0.484400  0.674438  0.597501  1
  Zr  Zr8  1  0.840573  0.504210  0.250000  1
  Zr  Zr9  1  0.340837  0.999339  0.250000  1
  Zr  Zr10  1  0.658104  0.999929  0.750000  1
  Zr  Zr11  1  0.323976  0.182682  0.625538  1
  Zr  Zr12  1  0.669600  0.821833  0.376227  1
  Zr  Zr13  1  0.170122  0.682154  0.374914  1
  Zr  Zr14  1  0.669600  0.821833  0.123773  1
  Zr  Zr15  1  0.841300  0.321728  0.625211  1
  Zr  Zr16  1  0.323976  0.182682  0.874462  1
  Zr  Zr17  1  0.841300  0.321728  0.874789  1
  Zr  Zr18  1  0.170122  0.682154  0.125086  1
  Si  Si19  1  0.029782  0.094167  0.750000  1
  Si  Si20  1  0.963745  0.884677  0.250000  1
  Si  Si21  1  0.465763  0.617246  0.250000  1
  Si  Si22  1  0.545155  0.375670  0.750000  1
  Si  Si23  1  0.290101  0.883586  0.750000  1
  Si  Si24  1  0.714975  0.127789  0.250000  1
  Si  Si25  1  0.217171  0.373535  0.250000  1
  Si  Si26  1  0.768557  0.627287  0.750000  1
  Si  Si27  1  0.163516  0.460482  0.527351  1
  Si  Si28  1  0.841098  0.532261  0.460964  1
  Si  Si29  1  0.342747  0.969527  0.460947  1
  Si  Si30  1  0.841098  0.532261  0.039036  1
  Si  Si31  1  0.655258  0.032748  0.542372  1
  Si  Si32  1  0.163516  0.460482  0.972649  1
  Si  Si33  1  0.655258  0.032748  0.957628  1
  Si  Si34  1  0.342747  0.969527  0.039053  1
  Hg  Hg35  1  0.159706  0.517697  0.750000  1
