# generated using pymatgen
data_Tm20IrRu8Pt3
_symmetry_space_group_name_H-M   'P 1'
_cell_length_a   10.72274194
_cell_length_b   10.72274181
_cell_length_c   6.34990204
_cell_angle_alpha   89.97492154
_cell_angle_beta   89.97492121
_cell_angle_gamma   90.16105340
_symmetry_Int_Tables_number   1
_chemical_formula_structural   Tm20IrRu8Pt3
_chemical_formula_sum   'Tm20 Ir1 Ru8 Pt3'
_cell_volume   730.09088960
_cell_formula_units_Z   1
loop_
 _symmetry_equiv_pos_site_id
 _symmetry_equiv_pos_as_xyz
  1  'x, y, z'
loop_
 _atom_site_type_symbol
 _atom_site_label
 _atom_site_symmetry_multiplicity
 _atom_site_fract_x
 _atom_site_fract_y
 _atom_site_fract_z
 _atom_site_occupancy
  Tm  Tm0  1  0.294893  0.085238  0.370742  1
  Tm  Tm1  1  0.294626  0.910642  0.876865  1
  Tm  Tm2  1  0.703571  0.088741  0.873405  1
  Tm  Tm3  1  0.701904  0.910955  0.372868  1
  Tm  Tm4  1  0.583253  0.791587  0.875863  1
  Tm  Tm5  1  0.583178  0.208118  0.375548  1
  Tm  Tm6  1  0.412710  0.791730  0.376080  1
  Tm  Tm7  1  0.416425  0.208885  0.875744  1
  Tm  Tm8  1  0.208413  0.416747  0.624137  1
  Tm  Tm9  1  0.208270  0.587290  0.123920  1
  Tm  Tm10  1  0.791882  0.416822  0.124452  1
  Tm  Tm11  1  0.791115  0.583575  0.624256  1
  Tm  Tm12  1  0.914762  0.705107  0.129258  1
  Tm  Tm13  1  0.911259  0.296429  0.626595  1
  Tm  Tm14  1  0.089358  0.705374  0.623135  1
  Tm  Tm15  1  0.089045  0.298096  0.127132  1
  Tm  Tm16  1  0.001614  0.997186  0.498561  1
  Tm  Tm17  1  0.002814  0.998386  0.001439  1
  Tm  Tm18  1  0.500649  0.499137  0.000971  1
  Tm  Tm19  1  0.500863  0.499351  0.499029  1
  Ir  Ir20  1  0.347040  0.652960  0.750000  1
  Ru  Ru21  1  0.150907  0.849093  0.250000  1
  Ru  Ru22  1  0.653899  0.346101  0.750000  1
  Ru  Ru23  1  0.654037  0.654529  0.250307  1
  Ru  Ru24  1  0.345471  0.345963  0.249693  1
  Ru  Ru25  1  0.499799  0.999428  0.122762  1
  Ru  Ru26  1  0.500348  0.999943  0.623811  1
  Ru  Ru27  1  0.000057  0.499652  0.876189  1
  Ru  Ru28  1  0.000572  0.500201  0.377238  1
  Pt  Pt29  1  0.848011  0.151989  0.250000  1
  Pt  Pt30  1  0.846644  0.847384  0.750693  1
  Pt  Pt31  1  0.152616  0.153356  0.749307  1
