# generated using pymatgen
data_Ho4Al6(Ga2Pt)9
_symmetry_space_group_name_H-M   'P 1'
_cell_length_a   7.47030612
_cell_length_b   7.52465978
_cell_length_c   13.33581244
_cell_angle_alpha   84.66053949
_cell_angle_beta   79.43212671
_cell_angle_gamma   60.53188487
_symmetry_Int_Tables_number   1
_chemical_formula_structural   Ho4Al6(Ga2Pt)9
_chemical_formula_sum   'Ho4 Al6 Ga18 Pt9'
_cell_volume   641.57324527
_cell_formula_units_Z   1
loop_
 _symmetry_equiv_pos_site_id
 _symmetry_equiv_pos_as_xyz
  1  'x, y, z'
loop_
 _atom_site_type_symbol
 _atom_site_label
 _atom_site_symmetry_multiplicity
 _atom_site_fract_x
 _atom_site_fract_y
 _atom_site_fract_z
 _atom_site_occupancy
  Ho  Ho0  1  0.393718  0.170241  0.808303  1
  Ho  Ho1  1  0.606282  0.829759  0.191697  1
  Ho  Ho2  1  0.733277  0.495596  0.808879  1
  Ho  Ho3  1  0.266723  0.504404  0.191121  1
  Al  Al4  1  0.687302  0.833332  0.944696  1
  Al  Al5  1  0.312698  0.166668  0.055304  1
  Al  Al6  1  0.144912  0.833825  0.560607  1
  Al  Al7  1  0.855088  0.166175  0.439393  1
  Al  Al8  1  0.478646  0.166420  0.557609  1
  Al  Al9  1  0.521354  0.833580  0.442391  1
  Ga  Ga10  1  0.223070  0.164975  0.323981  1
  Ga  Ga11  1  0.776930  0.835025  0.676019  1
  Ga  Ga12  1  0.439721  0.502153  0.674721  1
  Ga  Ga13  1  0.560279  0.497847  0.325279  1
  Ga  Ga14  1  0.107261  0.163655  0.673941  1
  Ga  Ga15  1  0.892739  0.836345  0.326059  1
  Ga  Ga16  1  0.357462  0.497621  0.939030  1
  Ga  Ga17  1  0.642538  0.502379  0.060970  1
  Ga  Ga18  1  0.019439  0.168215  0.943092  1
  Ga  Ga19  1  0.980561  0.831785  0.056908  1
  Ga  Ga20  1  0.188656  0.498199  0.443186  1
  Ga  Ga21  1  0.811344  0.501801  0.556814  1
  Ga  Ga22  1  0.732225  0.166139  0.183524  1
  Ga  Ga23  1  0.267775  0.833861  0.816476  1
  Ga  Ga24  1  0.056526  0.634550  0.816747  1
  Ga  Ga25  1  0.943474  0.365450  0.183253  1
  Ga  Ga26  1  0.856171  0.039460  0.816194  1
  Ga  Ga27  1  0.143829  0.960540  0.183806  1
  Pt  Pt28  1  0.119897  0.495785  0.638509  1
  Pt  Pt29  1  0.880103  0.504215  0.361491  1
  Pt  Pt30  1  0.655663  0.167175  0.000369  1
  Pt  Pt31  1  0.344337  0.832825  0.999631  1
  Pt  Pt32  1  0.543351  0.163718  0.364257  1
  Pt  Pt33  1  0.456649  0.836282  0.635743  1
  Pt  Pt34  1  0.782568  0.169591  0.633325  1
  Pt  Pt35  1  0.217432  0.830409  0.366675  1
  Pt  Pt36  1  0.000000  0.500000  0.000000  1
