# generated using pymatgen
data_CaYb2Y(Al3Pd)6
_symmetry_space_group_name_H-M   'P 1'
_cell_length_a   7.66529900
_cell_length_b   7.66083317
_cell_length_c   9.50985500
_cell_angle_alpha   90.00000000
_cell_angle_beta   90.00000000
_cell_angle_gamma   119.55542877
_symmetry_Int_Tables_number   1
_chemical_formula_structural   CaYb2Y(Al3Pd)6
_chemical_formula_sum   'Ca1 Yb2 Y1 Al18 Pd6'
_cell_volume   485.77795458
_cell_formula_units_Z   1
loop_
 _symmetry_equiv_pos_site_id
 _symmetry_equiv_pos_as_xyz
  1  'x, y, z'
loop_
 _atom_site_type_symbol
 _atom_site_label
 _atom_site_symmetry_multiplicity
 _atom_site_fract_x
 _atom_site_fract_y
 _atom_site_fract_z
 _atom_site_occupancy
  Ca  Ca0  1  0.672038  0.997073  0.250000  1
  Yb  Yb1  1  0.994840  0.669446  0.250000  1
  Yb  Yb2  1  0.003867  0.330185  0.750000  1
  Y  Y3  1  0.330040  0.002809  0.750000  1
  Al  Al4  1  0.132987  0.132070  0.250000  1
  Al  Al5  1  0.871459  0.869547  0.750000  1
  Al  Al6  1  0.001645  0.335233  0.074877  1
  Al  Al7  1  0.998679  0.664391  0.922372  1
  Al  Al8  1  0.998679  0.664391  0.577628  1
  Al  Al9  1  0.334410  0.000240  0.424437  1
  Al  Al10  1  0.001645  0.335233  0.425123  1
  Al  Al11  1  0.665903  0.999885  0.577698  1
  Al  Al12  1  0.665903  0.999885  0.922302  1
  Al  Al13  1  0.334410  0.000240  0.075563  1
  Al  Al14  1  0.332763  0.332469  0.557779  1
  Al  Al15  1  0.666403  0.666348  0.446010  1
  Al  Al16  1  0.666403  0.666348  0.053990  1
  Al  Al17  1  0.332763  0.332469  0.942221  1
  Al  Al18  1  0.338985  0.545895  0.250000  1
  Al  Al19  1  0.656589  0.452413  0.750000  1
  Al  Al20  1  0.544525  0.341207  0.250000  1
  Al  Al21  1  0.455391  0.662994  0.750000  1
  Pd  Pd22  1  0.671518  0.328062  0.999459  1
  Pd  Pd23  1  0.327542  0.671395  0.998916  1
  Pd  Pd24  1  0.327542  0.671395  0.501084  1
  Pd  Pd25  1  0.671518  0.328062  0.500541  1
  Pd  Pd26  1  0.000775  0.000155  0.999203  1
  Pd  Pd27  1  0.000775  0.000155  0.500797  1
