# generated using pymatgen
data_Yb3C3Cl2
_symmetry_space_group_name_H-M   'P 1'
_cell_length_a   6.92387338
_cell_length_b   6.92387394
_cell_length_c   11.46289300
_cell_angle_alpha   90.00000000
_cell_angle_beta   90.00000000
_cell_angle_gamma   148.14744402
_symmetry_Int_Tables_number   1
_chemical_formula_structural   Yb3C3Cl2
_chemical_formula_sum   'Yb6 C6 Cl4'
_cell_volume   290.00703730
_cell_formula_units_Z   2
loop_
 _symmetry_equiv_pos_site_id
 _symmetry_equiv_pos_as_xyz
  1  'x, y, z'
loop_
 _atom_site_type_symbol
 _atom_site_label
 _atom_site_symmetry_multiplicity
 _atom_site_fract_x
 _atom_site_fract_y
 _atom_site_fract_z
 _atom_site_occupancy
  Yb  Yb0  1  0.656108  0.343892  0.561502  1
  Yb  Yb1  1  0.343892  0.656108  0.438498  1
  Yb  Yb2  1  0.343892  0.656108  0.061502  1
  Yb  Yb3  1  0.656108  0.343892  0.938498  1
  Yb  Yb4  1  0.120767  0.879233  0.250000  1
  Yb  Yb5  1  0.879233  0.120767  0.750000  1
  C  C6  1  0.267720  0.732280  0.634449  1
  C  C7  1  0.732280  0.267720  0.365551  1
  C  C8  1  0.732280  0.267720  0.134449  1
  C  C9  1  0.267720  0.732280  0.865551  1
  C  C10  1  0.743365  0.256635  0.250000  1
  C  C11  1  0.256635  0.743365  0.750000  1
  Cl  Cl12  1  0.528876  0.471124  0.750000  1
  Cl  Cl13  1  0.471124  0.528876  0.250000  1
  Cl  Cl14  1  0.000000  0.000000  0.000000  1
  Cl  Cl15  1  0.000000  0.000000  0.500000  1
