# generated using pymatgen
data_DyIn3B4SbIr9
_symmetry_space_group_name_H-M   'P 1'
_cell_length_a   5.61778000
_cell_length_b   5.61777933
_cell_length_c   10.49456600
_cell_angle_alpha   90.00000000
_cell_angle_beta   90.00000000
_cell_angle_gamma   119.99999215
_symmetry_Int_Tables_number   1
_chemical_formula_structural   DyIn3B4SbIr9
_chemical_formula_sum   'Dy1 In3 B4 Sb1 Ir9'
_cell_volume   286.82998678
_cell_formula_units_Z   1
loop_
 _symmetry_equiv_pos_site_id
 _symmetry_equiv_pos_as_xyz
  1  'x, y, z'
loop_
 _atom_site_type_symbol
 _atom_site_label
 _atom_site_symmetry_multiplicity
 _atom_site_fract_x
 _atom_site_fract_y
 _atom_site_fract_z
 _atom_site_occupancy
  Dy  Dy0  1  0.000000  0.000000  0.919331  1
  In  In1  1  0.666667  0.333333  0.506056  1
  In  In2  1  0.000000  0.000000  0.329758  1
  In  In3  1  0.333333  0.666667  0.506056  1
  B  B4  1  0.666667  0.333333  0.154372  1
  B  B5  1  0.333333  0.666667  0.864481  1
  B  B6  1  0.666667  0.333333  0.864481  1
  B  B7  1  0.333333  0.666667  0.154372  1
  Sb  Sb8  1  0.000000  0.000000  0.629788  1
  Ir  Ir9  1  0.000000  0.497974  0.281553  1
  Ir  Ir10  1  0.449873  0.000000  0.731811  1
  Ir  Ir11  1  0.497974  0.000000  0.281553  1
  Ir  Ir12  1  0.000000  0.492848  0.010405  1
  Ir  Ir13  1  0.550127  0.550127  0.731811  1
  Ir  Ir14  1  0.000000  0.449873  0.731811  1
  Ir  Ir15  1  0.507152  0.507152  0.010405  1
  Ir  Ir16  1  0.492848  0.000000  0.010405  1
  Ir  Ir17  1  0.502026  0.502026  0.281553  1
