# generated using pymatgen
data_YbLu5Pa2(ReB6)4
_symmetry_space_group_name_H-M   'P 1'
_cell_length_a   3.66317600
_cell_length_b   9.09448394
_cell_length_c   11.46293728
_cell_angle_alpha   90.30809618
_cell_angle_beta   90.00000000
_cell_angle_gamma   90.00000000
_symmetry_Int_Tables_number   1
_chemical_formula_structural   YbLu5Pa2(ReB6)4
_chemical_formula_sum   'Yb1 Lu5 Pa2 Re4 B24'
_cell_volume   381.87874141
_cell_formula_units_Z   1
loop_
 _symmetry_equiv_pos_site_id
 _symmetry_equiv_pos_as_xyz
  1  'x, y, z'
loop_
 _atom_site_type_symbol
 _atom_site_label
 _atom_site_symmetry_multiplicity
 _atom_site_fract_x
 _atom_site_fract_y
 _atom_site_fract_z
 _atom_site_occupancy
  Yb  Yb0  1  0.000000  0.823390  0.085644  1
  Lu  Lu1  1  0.000000  0.174811  0.915650  1
  Lu  Lu2  1  0.000000  0.944174  0.370724  1
  Lu  Lu3  1  0.000000  0.055223  0.627734  1
  Lu  Lu4  1  0.000000  0.443829  0.126837  1
  Lu  Lu5  1  0.000000  0.557403  0.873590  1
  Pa  Pa6  1  0.000000  0.320214  0.413001  1
  Pa  Pa7  1  0.000000  0.680077  0.586739  1
  Re  Re8  1  0.000000  0.635247  0.324208  1
  Re  Re9  1  0.000000  0.363719  0.677057  1
  Re  Re10  1  0.000000  0.142655  0.182084  1
  Re  Re11  1  0.000000  0.859424  0.817282  1
  B  B12  1  0.500000  0.553695  0.432951  1
  B  B13  1  0.500000  0.445807  0.567825  1
  B  B14  1  0.500000  0.054140  0.066555  1
  B  B15  1  0.500000  0.946933  0.932924  1
  B  B16  1  0.500000  0.750423  0.418612  1
  B  B17  1  0.500000  0.249156  0.581545  1
  B  B18  1  0.500000  0.249756  0.079500  1
  B  B19  1  0.500000  0.750831  0.919287  1
  B  B20  1  0.500000  0.792187  0.265224  1
  B  B21  1  0.500000  0.207036  0.735546  1
  B  B22  1  0.500000  0.293131  0.233626  1
  B  B23  1  0.500000  0.707650  0.765781  1
  B  B24  1  0.500000  0.630640  0.184834  1
  B  B25  1  0.500000  0.368630  0.816214  1
  B  B26  1  0.500000  0.131596  0.314260  1
  B  B27  1  0.500000  0.869280  0.685164  1
  B  B28  1  0.500000  0.982539  0.211684  1
  B  B29  1  0.500000  0.018715  0.788052  1
  B  B30  1  0.500000  0.482304  0.286845  1
  B  B31  1  0.500000  0.517367  0.713981  1
  B  B32  1  0.500000  0.599233  0.027793  1
  B  B33  1  0.500000  0.398617  0.971660  1
  B  B34  1  0.500000  0.106044  0.470709  1
  B  B35  1  0.500000  0.894122  0.528880  1
