# generated using pymatgen
data_Hf18Nb3Re5SiP
_symmetry_space_group_name_H-M   'P 1'
_cell_length_a   8.63678500
_cell_length_b   8.63681388
_cell_length_c   8.73373000
_cell_angle_alpha   90.00000000
_cell_angle_beta   90.00000000
_cell_angle_gamma   120.00024187
_symmetry_Int_Tables_number   1
_chemical_formula_structural   Hf18Nb3Re5SiP
_chemical_formula_sum   'Hf18 Nb3 Re5 Si1 P1'
_cell_volume   564.20249780
_cell_formula_units_Z   1
loop_
 _symmetry_equiv_pos_site_id
 _symmetry_equiv_pos_as_xyz
  1  'x, y, z'
loop_
 _atom_site_type_symbol
 _atom_site_label
 _atom_site_symmetry_multiplicity
 _atom_site_fract_x
 _atom_site_fract_y
 _atom_site_fract_z
 _atom_site_occupancy
  Hf  Hf0  1  0.197515  0.802491  0.459837  1
  Hf  Hf1  1  0.197508  0.395020  0.459837  1
  Hf  Hf2  1  0.604984  0.802494  0.459835  1
  Hf  Hf3  1  0.803691  0.196317  0.554561  1
  Hf  Hf4  1  0.803686  0.607374  0.554563  1
  Hf  Hf5  1  0.392630  0.196316  0.554564  1
  Hf  Hf6  1  0.803691  0.196317  0.945439  1
  Hf  Hf7  1  0.803686  0.607374  0.945437  1
  Hf  Hf8  1  0.392630  0.196316  0.945436  1
  Hf  Hf9  1  0.197515  0.802491  0.040163  1
  Hf  Hf10  1  0.197508  0.395020  0.040163  1
  Hf  Hf11  1  0.604984  0.802494  0.040165  1
  Hf  Hf12  1  0.535685  0.464315  0.250000  1
  Hf  Hf13  1  0.535693  0.071383  0.250000  1
  Hf  Hf14  1  0.928619  0.464314  0.250000  1
  Hf  Hf15  1  0.459809  0.540198  0.750000  1
  Hf  Hf16  1  0.459808  0.919618  0.750000  1
  Hf  Hf17  1  0.080379  0.540190  0.750000  1
  Nb  Nb18  1  0.888783  0.111223  0.250000  1
  Nb  Nb19  1  0.888786  0.777565  0.250000  1
  Nb  Nb20  1  0.222441  0.111225  0.250000  1
  Re  Re21  1  0.109644  0.890336  0.750000  1
  Re  Re22  1  0.109638  0.219282  0.750000  1
  Re  Re23  1  0.780692  0.890346  0.750000  1
  Re  Re24  1  0.999992  0.999991  0.501866  1
  Re  Re25  1  0.999992  0.999991  0.998134  1
  Si  Si26  1  0.333338  0.666668  0.250000  1
  P  P27  1  0.666665  0.333338  0.750000  1
