# generated using pymatgen
data_Hf2MnCuSi2
_symmetry_space_group_name_H-M   'P 1'
_cell_length_a   3.78385500
_cell_length_b   6.49639208
_cell_length_c   7.46484800
_cell_angle_alpha   89.99186691
_cell_angle_beta   90.00000000
_cell_angle_gamma   90.00000000
_symmetry_Int_Tables_number   1
_chemical_formula_structural   Hf2MnCuSi2
_chemical_formula_sum   'Hf4 Mn2 Cu2 Si4'
_cell_volume   183.49645490
_cell_formula_units_Z   2
loop_
 _symmetry_equiv_pos_site_id
 _symmetry_equiv_pos_as_xyz
  1  'x, y, z'
loop_
 _atom_site_type_symbol
 _atom_site_label
 _atom_site_symmetry_multiplicity
 _atom_site_fract_x
 _atom_site_fract_y
 _atom_site_fract_z
 _atom_site_occupancy
  Hf  Hf0  1  0.250000  0.526280  0.674812  1
  Hf  Hf1  1  0.750000  0.473720  0.325188  1
  Hf  Hf2  1  0.250000  0.018666  0.816059  1
  Hf  Hf3  1  0.750000  0.981334  0.183941  1
  Mn  Mn4  1  0.750000  0.859168  0.563098  1
  Mn  Mn5  1  0.250000  0.140832  0.436902  1
  Cu  Cu6  1  0.750000  0.352766  0.935729  1
  Cu  Cu7  1  0.250000  0.647234  0.064271  1
  Si  Si8  1  0.250000  0.268457  0.123049  1
  Si  Si9  1  0.750000  0.731543  0.876951  1
  Si  Si10  1  0.250000  0.772383  0.381702  1
  Si  Si11  1  0.750000  0.227617  0.618298  1
