# generated using pymatgen
data_TmLu11Tc3Pt
_symmetry_space_group_name_H-M   'P 1'
_cell_length_a   6.15588712
_cell_length_b   7.30778459
_cell_length_c   8.93536500
_cell_angle_alpha   90.00000000
_cell_angle_beta   90.00000000
_cell_angle_gamma   90.03436906
_symmetry_Int_Tables_number   1
_chemical_formula_structural   TmLu11Tc3Pt
_chemical_formula_sum   'Tm1 Lu11 Tc3 Pt1'
_cell_volume   401.96533747
_cell_formula_units_Z   1
loop_
 _symmetry_equiv_pos_site_id
 _symmetry_equiv_pos_as_xyz
  1  'x, y, z'
loop_
 _atom_site_type_symbol
 _atom_site_label
 _atom_site_symmetry_multiplicity
 _atom_site_fract_x
 _atom_site_fract_y
 _atom_site_fract_z
 _atom_site_occupancy
  Tm  Tm0  1  0.373732  0.965220  0.750000  1
  Lu  Lu1  1  0.331271  0.675602  0.066315  1
  Lu  Lu2  1  0.162667  0.177474  0.436705  1
  Lu  Lu3  1  0.665219  0.319010  0.557822  1
  Lu  Lu4  1  0.839507  0.827910  0.941523  1
  Lu  Lu5  1  0.665219  0.319010  0.942178  1
  Lu  Lu6  1  0.839507  0.827910  0.558477  1
  Lu  Lu7  1  0.331271  0.675602  0.433685  1
  Lu  Lu8  1  0.162667  0.177474  0.063295  1
  Lu  Lu9  1  0.874798  0.541936  0.250000  1
  Lu  Lu10  1  0.621043  0.037110  0.250000  1
  Lu  Lu11  1  0.127587  0.456024  0.750000  1
  Tc  Tc12  1  0.037991  0.884635  0.250000  1
  Tc  Tc13  1  0.464551  0.385504  0.250000  1
  Tc  Tc14  1  0.957989  0.115819  0.750000  1
  Pt  Pt15  1  0.544979  0.613758  0.750000  1
