# generated using pymatgen
data_Y10ZnSn6Ge
_symmetry_space_group_name_H-M   'P 1'
_cell_length_a   9.16402100
_cell_length_b   9.16402076
_cell_length_c   6.67192000
_cell_angle_alpha   90.00000000
_cell_angle_beta   90.00000000
_cell_angle_gamma   119.99999725
_symmetry_Int_Tables_number   1
_chemical_formula_structural   Y10ZnSn6Ge
_chemical_formula_sum   'Y10 Zn1 Sn6 Ge1'
_cell_volume   485.23667051
_cell_formula_units_Z   1
loop_
 _symmetry_equiv_pos_site_id
 _symmetry_equiv_pos_as_xyz
  1  'x, y, z'
loop_
 _atom_site_type_symbol
 _atom_site_label
 _atom_site_symmetry_multiplicity
 _atom_site_fract_x
 _atom_site_fract_y
 _atom_site_fract_z
 _atom_site_occupancy
  Y  Y0  1  0.000000  0.742009  0.762980  1
  Y  Y1  1  0.333333  0.666667  0.500000  1
  Y  Y2  1  0.333333  0.666667  0.000000  1
  Y  Y3  1  0.742009  0.742009  0.237020  1
  Y  Y4  1  0.257991  0.257991  0.762980  1
  Y  Y5  1  0.000000  0.257991  0.237020  1
  Y  Y6  1  0.666667  0.333333  0.500000  1
  Y  Y7  1  0.257991  0.000000  0.237020  1
  Y  Y8  1  0.742009  0.000000  0.762980  1
  Y  Y9  1  0.666667  0.333333  0.000000  1
  Zn  Zn10  1  0.000000  0.000000  0.500000  1
  Sn  Sn11  1  0.391878  0.000000  0.751362  1
  Sn  Sn12  1  0.391878  0.391878  0.248638  1
  Sn  Sn13  1  0.608122  0.608122  0.751362  1
  Sn  Sn14  1  0.000000  0.608122  0.248638  1
  Sn  Sn15  1  0.000000  0.391878  0.751362  1
  Sn  Sn16  1  0.608122  0.000000  0.248638  1
  Ge  Ge17  1  0.000000  0.000000  0.000000  1
