# generated using pymatgen
data_TbDy7Ho5Tm3(Ga3Co)2
_symmetry_space_group_name_H-M   'P 1'
_cell_length_a   9.95797010
_cell_length_b   9.95796791
_cell_length_c   6.96106809
_cell_angle_alpha   90.01622058
_cell_angle_beta   89.98378053
_cell_angle_gamma   120.00104312
_symmetry_Int_Tables_number   1
_chemical_formula_structural   TbDy7Ho5Tm3(Ga3Co)2
_chemical_formula_sum   'Tb1 Dy7 Ho5 Tm3 Ga6 Co2'
_cell_volume   597.78286977
_cell_formula_units_Z   1
loop_
 _symmetry_equiv_pos_site_id
 _symmetry_equiv_pos_as_xyz
  1  'x, y, z'
loop_
 _atom_site_type_symbol
 _atom_site_label
 _atom_site_symmetry_multiplicity
 _atom_site_fract_x
 _atom_site_fract_y
 _atom_site_fract_z
 _atom_site_occupancy
  Tb  Tb0  1  0.000117  0.999883  0.268674  1
  Dy  Dy1  1  0.536282  0.072925  0.791979  1
  Dy  Dy2  1  0.927075  0.463718  0.791979  1
  Dy  Dy3  1  0.536571  0.463429  0.791821  1
  Dy  Dy4  1  0.463188  0.926770  0.291513  1
  Dy  Dy5  1  0.073230  0.536812  0.291513  1
  Dy  Dy6  1  0.463413  0.536587  0.291780  1
  Dy  Dy7  1  0.000042  0.999958  0.768928  1
  Ho  Ho8  1  0.826609  0.653218  0.487530  1
  Ho  Ho9  1  0.346782  0.173391  0.487530  1
  Ho  Ho10  1  0.826597  0.173403  0.487573  1
  Ho  Ho11  1  0.173408  0.346806  0.987179  1
  Ho  Ho12  1  0.653194  0.826592  0.987179  1
  Tm  Tm13  1  0.173570  0.826430  0.987191  1
  Tm  Tm14  1  0.666666  0.333334  0.173513  1
  Tm  Tm15  1  0.333203  0.666797  0.674060  1
  Ga  Ga16  1  0.836608  0.672339  0.042815  1
  Ga  Ga17  1  0.327661  0.163392  0.042815  1
  Ga  Ga18  1  0.836025  0.163975  0.042897  1
  Ga  Ga19  1  0.163990  0.327983  0.543395  1
  Ga  Ga20  1  0.672017  0.836010  0.543395  1
  Ga  Ga21  1  0.163964  0.836036  0.543869  1
  Co  Co22  1  0.666672  0.333328  0.553370  1
  Co  Co23  1  0.333114  0.666886  0.053582  1
