# generated using pymatgen
data_NdCu2(PPd)2
_symmetry_space_group_name_H-M   'P 1'
_cell_length_a   7.54661700
_cell_length_b   7.33323300
_cell_length_c   3.83192400
_cell_angle_alpha   90.00000000
_cell_angle_beta   90.00000000
_cell_angle_gamma   90.00000000
_symmetry_Int_Tables_number   1
_chemical_formula_structural   NdCu2(PPd)2
_chemical_formula_sum   'Nd2 Cu4 P4 Pd4'
_cell_volume   212.06289243
_cell_formula_units_Z   2
loop_
 _symmetry_equiv_pos_site_id
 _symmetry_equiv_pos_as_xyz
  1  'x, y, z'
loop_
 _atom_site_type_symbol
 _atom_site_label
 _atom_site_symmetry_multiplicity
 _atom_site_fract_x
 _atom_site_fract_y
 _atom_site_fract_z
 _atom_site_occupancy
  Nd  Nd0  1  0.500000  0.500000  0.000000  1
  Nd  Nd1  1  0.000000  0.000000  0.500000  1
  Cu  Cu2  1  0.159371  0.581635  0.500000  1
  Cu  Cu3  1  0.840629  0.418365  0.500000  1
  Cu  Cu4  1  0.340629  0.081635  0.000000  1
  Cu  Cu5  1  0.659371  0.918365  0.000000  1
  P  P6  1  0.713563  0.723370  0.500000  1
  P  P7  1  0.286437  0.276630  0.500000  1
  P  P8  1  0.213563  0.776630  0.000000  1
  P  P9  1  0.786437  0.223370  0.000000  1
  Pd  Pd10  1  0.590170  0.168245  0.500000  1
  Pd  Pd11  1  0.409830  0.831755  0.500000  1
  Pd  Pd12  1  0.090170  0.331755  0.000000  1
  Pd  Pd13  1  0.909830  0.668245  0.000000  1
