# generated using pymatgen
data_Tb2Dy3Sn3P
_symmetry_space_group_name_H-M   'P 1'
_cell_length_a   9.10528514
_cell_length_b   9.10528484
_cell_length_c   6.71209200
_cell_angle_alpha   90.00000000
_cell_angle_beta   90.00000000
_cell_angle_gamma   119.97981161
_symmetry_Int_Tables_number   1
_chemical_formula_structural   Tb2Dy3Sn3P
_chemical_formula_sum   'Tb4 Dy6 Sn6 P2'
_cell_volume   482.01875058
_cell_formula_units_Z   2
loop_
 _symmetry_equiv_pos_site_id
 _symmetry_equiv_pos_as_xyz
  1  'x, y, z'
loop_
 _atom_site_type_symbol
 _atom_site_label
 _atom_site_symmetry_multiplicity
 _atom_site_fract_x
 _atom_site_fract_y
 _atom_site_fract_z
 _atom_site_occupancy
  Tb  Tb0  1  0.758287  0.758287  0.750000  1
  Tb  Tb1  1  0.241682  0.999976  0.750000  1
  Tb  Tb2  1  0.999976  0.241682  0.750000  1
  Tb  Tb3  1  0.241689  0.241689  0.250000  1
  Dy  Dy4  1  0.666720  0.333366  0.000045  1
  Dy  Dy5  1  0.333366  0.666720  0.000045  1
  Dy  Dy6  1  0.333366  0.666720  0.499955  1
  Dy  Dy7  1  0.666720  0.333366  0.499955  1
  Dy  Dy8  1  0.758700  0.999951  0.250000  1
  Dy  Dy9  1  0.999951  0.758700  0.250000  1
  Sn  Sn10  1  0.398776  0.398776  0.750000  1
  Sn  Sn11  1  0.601209  0.000017  0.750000  1
  Sn  Sn12  1  0.000017  0.601209  0.750000  1
  Sn  Sn13  1  0.601552  0.601552  0.250000  1
  Sn  Sn14  1  0.398719  0.999837  0.250000  1
  Sn  Sn15  1  0.999837  0.398719  0.250000  1
  P  P16  1  0.999714  0.999714  0.000512  1
  P  P17  1  0.999714  0.999714  0.499488  1
