# generated using pymatgen
data_YbEr2CoSn6
_symmetry_space_group_name_H-M   'P 1'
_cell_length_a   8.41614979
_cell_length_b   8.41614965
_cell_length_c   13.15211200
_cell_angle_alpha   90.00000000
_cell_angle_beta   90.00000000
_cell_angle_gamma   148.30892157
_symmetry_Int_Tables_number   1
_chemical_formula_structural   YbEr2CoSn6
_chemical_formula_sum   'Yb2 Er4 Co2 Sn12'
_cell_volume   489.39799165
_cell_formula_units_Z   2
loop_
 _symmetry_equiv_pos_site_id
 _symmetry_equiv_pos_as_xyz
  1  'x, y, z'
loop_
 _atom_site_type_symbol
 _atom_site_label
 _atom_site_symmetry_multiplicity
 _atom_site_fract_x
 _atom_site_fract_y
 _atom_site_fract_z
 _atom_site_occupancy
  Yb  Yb0  1  0.100513  0.899487  0.903519  1
  Yb  Yb1  1  0.899487  0.100513  0.403519  1
  Er  Er2  1  0.898482  0.101518  0.095219  1
  Er  Er3  1  0.101518  0.898482  0.595219  1
  Er  Er4  1  0.901529  0.098471  0.750521  1
  Er  Er5  1  0.098471  0.901529  0.250521  1
  Co  Co6  1  0.298999  0.701001  0.250061  1
  Co  Co7  1  0.701001  0.298999  0.750061  1
  Sn  Sn8  1  0.757319  0.242681  0.571910  1
  Sn  Sn9  1  0.427016  0.572984  0.576620  1
  Sn  Sn10  1  0.573827  0.426173  0.425017  1
  Sn  Sn11  1  0.731939  0.268061  0.249170  1
  Sn  Sn12  1  0.268061  0.731939  0.749170  1
  Sn  Sn13  1  0.242681  0.757319  0.071910  1
  Sn  Sn14  1  0.243486  0.756514  0.429160  1
  Sn  Sn15  1  0.572984  0.427016  0.076620  1
  Sn  Sn16  1  0.454650  0.545350  0.248802  1
  Sn  Sn17  1  0.545350  0.454650  0.748802  1
  Sn  Sn18  1  0.756514  0.243486  0.929160  1
  Sn  Sn19  1  0.426173  0.573827  0.925017  1
