# generated using pymatgen
data_DyH2Cl
_symmetry_space_group_name_H-M   'P 1'
_cell_length_a   10.29901148
_cell_length_b   10.29901179
_cell_length_c   10.29901056
_cell_angle_alpha   20.76677873
_cell_angle_beta   20.76677306
_cell_angle_gamma   20.76678111
_symmetry_Int_Tables_number   1
_chemical_formula_structural   DyH2Cl
_chemical_formula_sum   'Dy2 H4 Cl2'
_cell_volume   120.23631297
_cell_formula_units_Z   2
loop_
 _symmetry_equiv_pos_site_id
 _symmetry_equiv_pos_as_xyz
  1  'x, y, z'
loop_
 _atom_site_type_symbol
 _atom_site_label
 _atom_site_symmetry_multiplicity
 _atom_site_fract_x
 _atom_site_fract_y
 _atom_site_fract_z
 _atom_site_occupancy
  Dy  Dy0  1  0.886840  0.886840  0.886840  1
  Dy  Dy1  1  0.113160  0.113160  0.113160  1
  H  H2  1  0.813507  0.813507  0.813507  1
  H  H3  1  0.186493  0.186493  0.186493  1
  H  H4  1  0.546182  0.546182  0.546182  1
  H  H5  1  0.453818  0.453818  0.453818  1
  Cl  Cl6  1  0.721415  0.721415  0.721415  1
  Cl  Cl7  1  0.278585  0.278585  0.278585  1
