# generated using pymatgen
data_Ca5SnGe2
_symmetry_space_group_name_H-M   'P 1'
_cell_length_a   9.39251029
_cell_length_b   9.39251090
_cell_length_c   9.39250928
_cell_angle_alpha   130.70669051
_cell_angle_beta   130.70669458
_cell_angle_gamma   72.27949964
_symmetry_Int_Tables_number   1
_chemical_formula_structural   Ca5SnGe2
_chemical_formula_sum   'Ca10 Sn2 Ge4'
_cell_volume   465.48633396
_cell_formula_units_Z   2
loop_
 _symmetry_equiv_pos_site_id
 _symmetry_equiv_pos_as_xyz
  1  'x, y, z'
loop_
 _atom_site_type_symbol
 _atom_site_label
 _atom_site_symmetry_multiplicity
 _atom_site_fract_x
 _atom_site_fract_y
 _atom_site_fract_z
 _atom_site_occupancy
  Ca  Ca0  1  0.500000  0.500000  0.000000  1
  Ca  Ca1  1  0.000000  0.000000  0.000000  1
  Ca  Ca2  1  0.313981  0.813981  0.853293  1
  Ca  Ca3  1  0.813981  0.960688  0.500000  1
  Ca  Ca4  1  0.460688  0.313981  0.500000  1
  Ca  Ca5  1  0.186019  0.039312  0.500000  1
  Ca  Ca6  1  0.539312  0.686019  0.500000  1
  Ca  Ca7  1  0.039312  0.539312  0.853293  1
  Ca  Ca8  1  0.686019  0.186019  0.146707  1
  Ca  Ca9  1  0.960688  0.460688  0.146707  1
  Sn  Sn10  1  0.750000  0.750000  0.000000  1
  Sn  Sn11  1  0.250000  0.250000  0.000000  1
  Ge  Ge12  1  0.382259  0.882259  0.264518  1
  Ge  Ge13  1  0.882259  0.617741  0.500000  1
  Ge  Ge14  1  0.117741  0.382259  0.500000  1
  Ge  Ge15  1  0.617741  0.117741  0.735482  1
