# generated using pymatgen
data_Er3GaAs3Rh7
_symmetry_space_group_name_H-M   'P 1'
_cell_length_a   7.82981539
_cell_length_b   7.82981521
_cell_length_c   9.26061800
_cell_angle_alpha   56.57357294
_cell_angle_beta   56.57357378
_cell_angle_gamma   29.46389438
_symmetry_Int_Tables_number   1
_chemical_formula_structural   Er3GaAs3Rh7
_chemical_formula_sum   'Er3 Ga1 As3 Rh7'
_cell_volume   229.52600479
_cell_formula_units_Z   1
loop_
 _symmetry_equiv_pos_site_id
 _symmetry_equiv_pos_as_xyz
  1  'x, y, z'
loop_
 _atom_site_type_symbol
 _atom_site_label
 _atom_site_symmetry_multiplicity
 _atom_site_fract_x
 _atom_site_fract_y
 _atom_site_fract_z
 _atom_site_occupancy
  Er  Er0  1  0.668077  0.668077  0.338695  1
  Er  Er1  1  0.331519  0.331519  0.661351  1
  Er  Er2  1  0.006154  0.006154  0.993062  1
  Ga  Ga3  1  0.336279  0.336279  0.265582  1
  As  As4  1  0.667296  0.667296  0.725532  1
  As  As5  1  0.888739  0.888739  0.835320  1
  As  As6  1  0.107786  0.107786  0.172431  1
  Rh  Rh7  1  0.299780  0.299780  0.037746  1
  Rh  Rh8  1  0.695634  0.695634  0.957248  1
  Rh  Rh9  1  0.505842  0.505842  0.723654  1
  Rh  Rh10  1  0.837003  0.837003  0.428706  1
  Rh  Rh11  1  0.493139  0.493139  0.281981  1
  Rh  Rh12  1  0.162669  0.162669  0.576479  1
  Rh  Rh13  1  0.000080  0.000080  0.502212  1
