# generated using pymatgen
data_Be8VOs3
_symmetry_space_group_name_H-M   'P 1'
_cell_length_a   4.33005200
_cell_length_b   4.33005334
_cell_length_c   7.08588200
_cell_angle_alpha   90.00000000
_cell_angle_beta   90.00000000
_cell_angle_gamma   120.00000505
_symmetry_Int_Tables_number   1
_chemical_formula_structural   Be8VOs3
_chemical_formula_sum   'Be8 V1 Os3'
_cell_volume   115.05642706
_cell_formula_units_Z   1
loop_
 _symmetry_equiv_pos_site_id
 _symmetry_equiv_pos_as_xyz
  1  'x, y, z'
loop_
 _atom_site_type_symbol
 _atom_site_label
 _atom_site_symmetry_multiplicity
 _atom_site_fract_x
 _atom_site_fract_y
 _atom_site_fract_z
 _atom_site_occupancy
  Be  Be0  1  0.000000  0.000000  0.999925  1
  Be  Be1  1  0.000000  0.000000  0.500698  1
  Be  Be2  1  0.829900  0.659799  0.247228  1
  Be  Be3  1  0.168272  0.831728  0.752428  1
  Be  Be4  1  0.663456  0.831728  0.752428  1
  Be  Be5  1  0.340201  0.170100  0.247228  1
  Be  Be6  1  0.829900  0.170100  0.247228  1
  Be  Be7  1  0.168272  0.336544  0.752428  1
  V  V8  1  0.333333  0.666667  0.435491  1
  Os  Os9  1  0.333333  0.666667  0.074248  1
  Os  Os10  1  0.666667  0.333333  0.551439  1
  Os  Os11  1  0.666667  0.333333  0.939230  1
