# generated using pymatgen
data_Sr4Sc2PtRhO12
_symmetry_space_group_name_H-M   'P 1'
_cell_length_a   5.68740103
_cell_length_b   5.71289173
_cell_length_c   9.88307475
_cell_angle_alpha   54.51630277
_cell_angle_beta   90.01108381
_cell_angle_gamma   90.00324351
_symmetry_Int_Tables_number   1
_chemical_formula_structural   Sr4Sc2PtRhO12
_chemical_formula_sum   'Sr4 Sc2 Pt1 Rh1 O12'
_cell_volume   261.47854932
_cell_formula_units_Z   1
loop_
 _symmetry_equiv_pos_site_id
 _symmetry_equiv_pos_as_xyz
  1  'x, y, z'
loop_
 _atom_site_type_symbol
 _atom_site_label
 _atom_site_symmetry_multiplicity
 _atom_site_fract_x
 _atom_site_fract_y
 _atom_site_fract_z
 _atom_site_occupancy
  Sr  Sr0  1  0.480087  0.753098  0.250751  1
  Sr  Sr1  1  0.519913  0.246902  0.749249  1
  Sr  Sr2  1  0.980184  0.246389  0.249757  1
  Sr  Sr3  1  0.019816  0.753611  0.750243  1
  Sc  Sc4  1  0.000000  0.000000  0.000000  1
  Sc  Sc5  1  0.500000  0.000000  0.500000  1
  Pt  Pt6  1  0.000000  0.500000  0.500000  1
  Rh  Rh7  1  0.500000  0.500000  0.000000  1
  O  O8  1  0.719220  0.204509  0.029543  1
  O  O9  1  0.280780  0.795491  0.970457  1
  O  O10  1  0.221768  0.799069  0.469918  1
  O  O11  1  0.778232  0.200931  0.530082  1
  O  O12  1  0.007368  0.688253  0.253878  1
  O  O13  1  0.992632  0.311747  0.746122  1
  O  O14  1  0.507260  0.314761  0.241914  1
  O  O15  1  0.492740  0.685239  0.758086  1
  O  O16  1  0.232566  0.252257  0.029839  1
  O  O17  1  0.767434  0.747743  0.970161  1
  O  O18  1  0.729640  0.750895  0.469624  1
  O  O19  1  0.270360  0.249105  0.530376  1
