# generated using pymatgen
data_Er3Cd3In2Ir
_symmetry_space_group_name_H-M   'P 1'
_cell_length_a   8.20183000
_cell_length_b   8.20183075
_cell_length_c   3.64234800
_cell_angle_alpha   90.00000000
_cell_angle_beta   90.00000000
_cell_angle_gamma   120.00000397
_symmetry_Int_Tables_number   1
_chemical_formula_structural   Er3Cd3In2Ir
_chemical_formula_sum   'Er3 Cd3 In2 Ir1'
_cell_volume   212.19425316
_cell_formula_units_Z   1
loop_
 _symmetry_equiv_pos_site_id
 _symmetry_equiv_pos_as_xyz
  1  'x, y, z'
loop_
 _atom_site_type_symbol
 _atom_site_label
 _atom_site_symmetry_multiplicity
 _atom_site_fract_x
 _atom_site_fract_y
 _atom_site_fract_z
 _atom_site_occupancy
  Er  Er0  1  0.578742  0.954831  0.000000  1
  Er  Er1  1  0.045169  0.623911  0.000000  1
  Er  Er2  1  0.376089  0.421258  0.000000  1
  Cd  Cd3  1  0.286460  0.004518  0.500000  1
  Cd  Cd4  1  0.995482  0.281942  0.500000  1
  Cd  Cd5  1  0.718058  0.713540  0.500000  1
  In  In6  1  0.666667  0.333333  0.500000  1
  In  In7  1  0.000000  0.000000  0.000000  1
  Ir  Ir8  1  0.333333  0.666667  0.500000  1
