# generated using pymatgen
data_Ho5Er2Lu3(Si5Ir2)4
_symmetry_space_group_name_H-M   'P 1'
_cell_length_a   12.59434020
_cell_length_b   12.59616220
_cell_length_c   4.23279600
_cell_angle_alpha   90.00000000
_cell_angle_beta   90.00000000
_cell_angle_gamma   89.97955680
_symmetry_Int_Tables_number   1
_chemical_formula_structural   Ho5Er2Lu3(Si5Ir2)4
_chemical_formula_sum   'Ho5 Er2 Lu3 Si20 Ir8'
_cell_volume   671.49220452
_cell_formula_units_Z   1
loop_
 _symmetry_equiv_pos_site_id
 _symmetry_equiv_pos_as_xyz
  1  'x, y, z'
loop_
 _atom_site_type_symbol
 _atom_site_label
 _atom_site_symmetry_multiplicity
 _atom_site_fract_x
 _atom_site_fract_y
 _atom_site_fract_z
 _atom_site_occupancy
  Ho  Ho0  1  0.999926  0.999990  0.000000  1
  Ho  Ho1  1  0.883597  0.383583  0.500000  1
  Ho  Ho2  1  0.116396  0.616338  0.500000  1
  Ho  Ho3  1  0.383778  0.116270  0.500000  1
  Ho  Ho4  1  0.616201  0.883743  0.500000  1
  Er  Er5  1  0.500072  0.500077  0.000000  1
  Er  Er6  1  0.824056  0.675820  0.500000  1
  Lu  Lu7  1  0.675791  0.175658  0.500000  1
  Lu  Lu8  1  0.324513  0.824046  0.500000  1
  Lu  Lu9  1  0.175697  0.324239  0.500000  1
  Si  Si10  1  0.565892  0.066086  0.000000  1
  Si  Si11  1  0.433999  0.934037  0.000000  1
  Si  Si12  1  0.066074  0.433995  0.000000  1
  Si  Si13  1  0.934301  0.565675  0.000000  1
  Si  Si14  1  0.663301  0.700971  0.000000  1
  Si  Si15  1  0.336284  0.299128  0.000000  1
  Si  Si16  1  0.163913  0.799225  0.000000  1
  Si  Si17  1  0.836269  0.200933  0.000000  1
  Si  Si18  1  0.299115  0.663709  0.000000  1
  Si  Si19  1  0.700743  0.336112  0.000000  1
  Si  Si20  1  0.200898  0.163728  0.000000  1
  Si  Si21  1  0.799017  0.836702  0.000000  1
  Si  Si22  1  0.656092  0.502934  0.500000  1
  Si  Si23  1  0.343753  0.496727  0.500000  1
  Si  Si24  1  0.156498  0.996675  0.500000  1
  Si  Si25  1  0.843344  0.003194  0.500000  1
  Si  Si26  1  0.496769  0.656331  0.500000  1
  Si  Si27  1  0.503351  0.343838  0.500000  1
  Si  Si28  1  0.003289  0.156690  0.500000  1
  Si  Si29  1  0.997033  0.843568  0.500000  1
  Ir  Ir30  1  0.745440  0.521017  0.000000  1
  Ir  Ir31  1  0.254191  0.478295  0.000000  1
  Ir  Ir32  1  0.246114  0.978373  0.000000  1
  Ir  Ir33  1  0.753878  0.021889  0.000000  1
  Ir  Ir34  1  0.478124  0.745931  0.000000  1
  Ir  Ir35  1  0.521588  0.254131  0.000000  1
  Ir  Ir36  1  0.021742  0.246062  0.000000  1
  Ir  Ir37  1  0.978963  0.754280  0.000000  1
