# generated using pymatgen
data_Pa2Ga10Tc3
_symmetry_space_group_name_H-M   'P 1'
_cell_length_a   8.93176200
_cell_length_b   8.93176200
_cell_length_c   6.54296800
_cell_angle_alpha   90.00000000
_cell_angle_beta   90.00000000
_cell_angle_gamma   90.00000000
_symmetry_Int_Tables_number   1
_chemical_formula_structural   Pa2Ga10Tc3
_chemical_formula_sum   'Pa4 Ga20 Tc6'
_cell_volume   521.97425193
_cell_formula_units_Z   2
loop_
 _symmetry_equiv_pos_site_id
 _symmetry_equiv_pos_as_xyz
  1  'x, y, z'
loop_
 _atom_site_type_symbol
 _atom_site_label
 _atom_site_symmetry_multiplicity
 _atom_site_fract_x
 _atom_site_fract_y
 _atom_site_fract_z
 _atom_site_occupancy
  Pa  Pa0  1  0.684383  0.184383  0.000000  1
  Pa  Pa1  1  0.315617  0.815617  0.000000  1
  Pa  Pa2  1  0.815617  0.684383  0.000000  1
  Pa  Pa3  1  0.184383  0.315617  0.000000  1
  Ga  Ga4  1  0.940496  0.207597  0.297994  1
  Ga  Ga5  1  0.707597  0.440496  0.297994  1
  Ga  Ga6  1  0.500000  0.000000  0.289925  1
  Ga  Ga7  1  0.559504  0.707597  0.702006  1
  Ga  Ga8  1  0.292403  0.559504  0.702006  1
  Ga  Ga9  1  0.792403  0.940496  0.297994  1
  Ga  Ga10  1  0.940496  0.207597  0.702006  1
  Ga  Ga11  1  0.292403  0.559504  0.297994  1
  Ga  Ga12  1  0.059504  0.792403  0.297994  1
  Ga  Ga13  1  0.707597  0.440496  0.702006  1
  Ga  Ga14  1  0.440496  0.292403  0.702006  1
  Ga  Ga15  1  0.059504  0.792403  0.702006  1
  Ga  Ga16  1  0.207597  0.059504  0.702006  1
  Ga  Ga17  1  0.792403  0.940496  0.702006  1
  Ga  Ga18  1  0.207597  0.059504  0.297994  1
  Ga  Ga19  1  0.000000  0.500000  0.710075  1
  Ga  Ga20  1  0.000000  0.500000  0.289925  1
  Ga  Ga21  1  0.559504  0.707597  0.297994  1
  Ga  Ga22  1  0.440496  0.292403  0.297994  1
  Ga  Ga23  1  0.500000  0.000000  0.710075  1
  Tc  Tc24  1  0.679903  0.179903  0.500000  1
  Tc  Tc25  1  0.820097  0.679903  0.500000  1
  Tc  Tc26  1  0.179903  0.320097  0.500000  1
  Tc  Tc27  1  0.000000  0.000000  0.000000  1
  Tc  Tc28  1  0.320097  0.820097  0.500000  1
  Tc  Tc29  1  0.500000  0.500000  0.000000  1
