# generated using pymatgen
data_DyZnCdCu3
_symmetry_space_group_name_H-M   'P 1'
_cell_length_a   5.13145103
_cell_length_b   5.13145049
_cell_length_c   5.13145032
_cell_angle_alpha   60.51659327
_cell_angle_beta   60.51659460
_cell_angle_gamma   60.51658995
_symmetry_Int_Tables_number   1
_chemical_formula_structural   DyZnCdCu3
_chemical_formula_sum   'Dy1 Zn1 Cd1 Cu3'
_cell_volume   96.65980402
_cell_formula_units_Z   1
loop_
 _symmetry_equiv_pos_site_id
 _symmetry_equiv_pos_as_xyz
  1  'x, y, z'
loop_
 _atom_site_type_symbol
 _atom_site_label
 _atom_site_symmetry_multiplicity
 _atom_site_fract_x
 _atom_site_fract_y
 _atom_site_fract_z
 _atom_site_occupancy
  Dy  Dy0  1  0.001201  0.001201  0.001201  1
  Zn  Zn1  1  0.623870  0.623870  0.623870  1
  Cd  Cd2  1  0.250358  0.250358  0.250358  1
  Cu  Cu3  1  0.624054  0.624054  0.126463  1
  Cu  Cu4  1  0.624054  0.126463  0.624054  1
  Cu  Cu5  1  0.126463  0.624054  0.624054  1
