# generated using pymatgen
data_MnAg(NO3)4
_symmetry_space_group_name_H-M   'P 1'
_cell_length_a   7.89953553
_cell_length_b   7.55817100
_cell_length_c   8.35676977
_cell_angle_alpha   90.00000000
_cell_angle_beta   84.62537415
_cell_angle_gamma   90.00000000
_symmetry_Int_Tables_number   1
_chemical_formula_structural   MnAg(NO3)4
_chemical_formula_sum   'Mn2 Ag2 N8 O24'
_cell_volume   496.75602347
_cell_formula_units_Z   2
loop_
 _symmetry_equiv_pos_site_id
 _symmetry_equiv_pos_as_xyz
  1  'x, y, z'
loop_
 _atom_site_type_symbol
 _atom_site_label
 _atom_site_symmetry_multiplicity
 _atom_site_fract_x
 _atom_site_fract_y
 _atom_site_fract_z
 _atom_site_occupancy
  Mn  Mn0  1  0.000000  0.500000  0.000000  1
  Mn  Mn1  1  0.000000  0.000000  0.500000  1
  Ag  Ag2  1  0.500000  0.500000  0.500000  1
  Ag  Ag3  1  0.500000  0.000000  0.000000  1
  N  N4  1  0.686206  0.161756  0.344899  1
  N  N5  1  0.686206  0.338244  0.844899  1
  N  N6  1  0.836396  0.820210  0.828304  1
  N  N7  1  0.836396  0.679790  0.328304  1
  N  N8  1  0.163604  0.179790  0.171696  1
  N  N9  1  0.163604  0.320210  0.671696  1
  N  N10  1  0.313794  0.661756  0.155101  1
  N  N11  1  0.313794  0.838244  0.655101  1
  O  O12  1  0.567661  0.224728  0.833122  1
  O  O13  1  0.567661  0.275272  0.333122  1
  O  O14  1  0.703457  0.460058  0.744831  1
  O  O15  1  0.703457  0.039942  0.244831  1
  O  O16  1  0.723449  0.689622  0.446461  1
  O  O17  1  0.723449  0.810378  0.946461  1
  O  O18  1  0.782401  0.322838  0.957928  1
  O  O19  1  0.782401  0.177162  0.457928  1
  O  O20  1  0.821395  0.928293  0.716110  1
  O  O21  1  0.821395  0.571707  0.216110  1
  O  O22  1  0.963888  0.718543  0.825682  1
  O  O23  1  0.963888  0.781457  0.325682  1
  O  O24  1  0.036112  0.218543  0.674318  1
  O  O25  1  0.036112  0.281457  0.174318  1
  O  O26  1  0.178605  0.428293  0.783890  1
  O  O27  1  0.178605  0.071707  0.283890  1
  O  O28  1  0.217599  0.677162  0.042072  1
  O  O29  1  0.217599  0.822838  0.542072  1
  O  O30  1  0.276551  0.189622  0.053539  1
  O  O31  1  0.276551  0.310378  0.553539  1
  O  O32  1  0.296543  0.539942  0.255169  1
  O  O33  1  0.296543  0.960058  0.755169  1
  O  O34  1  0.432339  0.724728  0.666878  1
  O  O35  1  0.432339  0.775272  0.166878  1
