# generated using pymatgen
data_Tb8CdHgPd2
_symmetry_space_group_name_H-M   'P 1'
_cell_length_a   9.70995655
_cell_length_b   9.70995692
_cell_length_c   9.71627200
_cell_angle_alpha   59.97848354
_cell_angle_beta   59.97848230
_cell_angle_gamma   60.00294019
_symmetry_Int_Tables_number   1
_chemical_formula_structural   Tb8CdHgPd2
_chemical_formula_sum   'Tb16 Cd2 Hg2 Pd4'
_cell_volume   647.57127574
_cell_formula_units_Z   2
loop_
 _symmetry_equiv_pos_site_id
 _symmetry_equiv_pos_as_xyz
  1  'x, y, z'
loop_
 _atom_site_type_symbol
 _atom_site_label
 _atom_site_symmetry_multiplicity
 _atom_site_fract_x
 _atom_site_fract_y
 _atom_site_fract_z
 _atom_site_occupancy
  Tb  Tb0  1  0.354182  0.354182  0.351457  1
  Tb  Tb1  1  0.354182  0.354182  0.940181  1
  Tb  Tb2  1  0.357470  0.933020  0.354756  1
  Tb  Tb3  1  0.933020  0.357470  0.354756  1
  Tb  Tb4  1  0.810935  0.188921  0.190851  1
  Tb  Tb5  1  0.188921  0.810935  0.809293  1
  Tb  Tb6  1  0.188921  0.810935  0.190851  1
  Tb  Tb7  1  0.810935  0.188921  0.809293  1
  Tb  Tb8  1  0.190069  0.190069  0.809931  1
  Tb  Tb9  1  0.809798  0.809798  0.190202  1
  Tb  Tb10  1  0.934998  0.563937  0.566089  1
  Tb  Tb11  1  0.563937  0.934998  0.934975  1
  Tb  Tb12  1  0.563937  0.934998  0.566089  1
  Tb  Tb13  1  0.934998  0.563937  0.934975  1
  Tb  Tb14  1  0.565028  0.565028  0.934972  1
  Tb  Tb15  1  0.935031  0.935031  0.564969  1
  Cd  Cd16  1  0.580330  0.254662  0.582503  1
  Cd  Cd17  1  0.254662  0.580330  0.582503  1
  Hg  Hg18  1  0.584794  0.584794  0.587935  1
  Hg  Hg19  1  0.584794  0.584794  0.242477  1
  Pd  Pd20  1  0.144684  0.144684  0.146736  1
  Pd  Pd21  1  0.144684  0.144684  0.563896  1
  Pd  Pd22  1  0.143486  0.566203  0.145155  1
  Pd  Pd23  1  0.566203  0.143486  0.145155  1
