# generated using pymatgen
data_Dy4Y2TiCo17P12
_symmetry_space_group_name_H-M   'P 1'
_cell_length_a   3.70084400
_cell_length_b   10.56776900
_cell_length_c   12.24868600
_cell_angle_alpha   90.00000000
_cell_angle_beta   90.00000000
_cell_angle_gamma   90.00000000
_symmetry_Int_Tables_number   1
_chemical_formula_structural   Dy4Y2TiCo17P12
_chemical_formula_sum   'Dy4 Y2 Ti1 Co17 P12'
_cell_volume   479.04199999
_cell_formula_units_Z   1
loop_
 _symmetry_equiv_pos_site_id
 _symmetry_equiv_pos_as_xyz
  1  'x, y, z'
loop_
 _atom_site_type_symbol
 _atom_site_label
 _atom_site_symmetry_multiplicity
 _atom_site_fract_x
 _atom_site_fract_y
 _atom_site_fract_z
 _atom_site_occupancy
  Dy  Dy0  1  0.500000  0.819431  0.206587  1
  Dy  Dy1  1  0.500000  0.180569  0.206587  1
  Dy  Dy2  1  0.000000  0.682215  0.796134  1
  Dy  Dy3  1  0.000000  0.317785  0.796134  1
  Y  Y4  1  0.000000  0.500000  0.524271  1
  Y  Y5  1  0.500000  0.000000  0.477920  1
  Ti  Ti6  1  0.500000  0.500000  0.151548  1
  Co  Co7  1  0.000000  0.000000  0.839928  1
  Co  Co8  1  0.500000  0.500000  0.702877  1
  Co  Co9  1  0.000000  0.000000  0.296590  1
  Co  Co10  1  0.000000  0.500000  0.986065  1
  Co  Co11  1  0.500000  0.000000  0.013758  1
  Co  Co12  1  0.500000  0.330298  0.992277  1
  Co  Co13  1  0.500000  0.669702  0.992277  1
  Co  Co14  1  0.000000  0.164590  0.004305  1
  Co  Co15  1  0.000000  0.835410  0.004305  1
  Co  Co16  1  0.500000  0.295822  0.431940  1
  Co  Co17  1  0.500000  0.704178  0.431940  1
  Co  Co18  1  0.000000  0.202711  0.569852  1
  Co  Co19  1  0.000000  0.797289  0.569852  1
  Co  Co20  1  0.500000  0.879759  0.708757  1
  Co  Co21  1  0.500000  0.120241  0.708757  1
  Co  Co22  1  0.000000  0.621555  0.292264  1
  Co  Co23  1  0.000000  0.378445  0.292264  1
  P  P24  1  0.500000  0.500000  0.882498  1
  P  P25  1  0.000000  0.000000  0.116928  1
  P  P26  1  0.500000  0.500000  0.351926  1
  P  P27  1  0.000000  0.000000  0.656657  1
  P  P28  1  0.500000  0.309779  0.616881  1
  P  P29  1  0.500000  0.690221  0.616881  1
  P  P30  1  0.000000  0.189280  0.385040  1
  P  P31  1  0.000000  0.810720  0.385040  1
  P  P32  1  0.500000  0.849777  0.890918  1
  P  P33  1  0.500000  0.150223  0.890918  1
  P  P34  1  0.000000  0.658644  0.104562  1
  P  P35  1  0.000000  0.341356  0.104562  1
