# generated using pymatgen
data_Er4Mn2(OsRu)3
_symmetry_space_group_name_H-M   'P 1'
_cell_length_a   5.22894765
_cell_length_b   5.26414479
_cell_length_c   8.86603000
_cell_angle_alpha   90.00000000
_cell_angle_beta   90.00000000
_cell_angle_gamma   120.58407681
_symmetry_Int_Tables_number   1
_chemical_formula_structural   Er4Mn2(OsRu)3
_chemical_formula_sum   'Er4 Mn2 Os3 Ru3'
_cell_volume   210.09498318
_cell_formula_units_Z   1
loop_
 _symmetry_equiv_pos_site_id
 _symmetry_equiv_pos_as_xyz
  1  'x, y, z'
loop_
 _atom_site_type_symbol
 _atom_site_label
 _atom_site_symmetry_multiplicity
 _atom_site_fract_x
 _atom_site_fract_y
 _atom_site_fract_z
 _atom_site_occupancy
  Er  Er0  1  0.333448  0.665070  0.435343  1
  Er  Er1  1  0.665244  0.331763  0.564153  1
  Er  Er2  1  0.665244  0.331763  0.935847  1
  Er  Er3  1  0.333448  0.665070  0.064657  1
  Mn  Mn4  1  0.168840  0.337310  0.750000  1
  Mn  Mn5  1  0.338117  0.173684  0.250000  1
  Os  Os6  1  0.174891  0.828840  0.750000  1
  Os  Os7  1  0.832860  0.666710  0.250000  1
  Os  Os8  1  0.659759  0.830309  0.750000  1
  Ru  Ru9  1  0.000287  0.994885  0.000393  1
  Ru  Ru10  1  0.827576  0.179713  0.250000  1
  Ru  Ru11  1  0.000287  0.994885  0.499607  1
