# generated using pymatgen
data_TbAl2Pd5
_symmetry_space_group_name_H-M   'P 1'
_cell_length_a   4.15744019
_cell_length_b   4.15744015
_cell_length_c   8.04285017
_cell_angle_alpha   104.97845122
_cell_angle_beta   104.97845017
_cell_angle_gamma   90.00000879
_symmetry_Int_Tables_number   1
_chemical_formula_structural   TbAl2Pd5
_chemical_formula_sum   'Tb1 Al2 Pd5'
_cell_volume   129.39620156
_cell_formula_units_Z   1
loop_
 _symmetry_equiv_pos_site_id
 _symmetry_equiv_pos_as_xyz
  1  'x, y, z'
loop_
 _atom_site_type_symbol
 _atom_site_label
 _atom_site_symmetry_multiplicity
 _atom_site_fract_x
 _atom_site_fract_y
 _atom_site_fract_z
 _atom_site_occupancy
  Tb  Tb0  1  0.000000  0.000000  0.000000  1
  Al  Al1  1  0.746874  0.746874  0.493747  1
  Al  Al2  1  0.253127  0.253127  0.506253  1
  Pd  Pd3  1  0.500001  0.500001  0.000000  1
  Pd  Pd4  1  0.644828  0.144827  0.289655  1
  Pd  Pd5  1  0.144827  0.644828  0.289655  1
  Pd  Pd6  1  0.855173  0.355173  0.710346  1
  Pd  Pd7  1  0.355173  0.855173  0.710346  1
