# generated using pymatgen
data_Ca9Pr9(SmSn8)2
_symmetry_space_group_name_H-M   'P 1'
_cell_length_a   8.02290657
_cell_length_b   8.54968479
_cell_length_c   16.11902199
_cell_angle_alpha   90.04172057
_cell_angle_beta   90.01635363
_cell_angle_gamma   89.99861917
_symmetry_Int_Tables_number   1
_chemical_formula_structural   Ca9Pr9(SmSn8)2
_chemical_formula_sum   'Ca9 Pr9 Sm2 Sn16'
_cell_volume   1105.65693235
_cell_formula_units_Z   1
loop_
 _symmetry_equiv_pos_site_id
 _symmetry_equiv_pos_as_xyz
  1  'x, y, z'
loop_
 _atom_site_type_symbol
 _atom_site_label
 _atom_site_symmetry_multiplicity
 _atom_site_fract_x
 _atom_site_fract_y
 _atom_site_fract_z
 _atom_site_occupancy
  Ca  Ca0  1  0.667953  0.171900  0.376462  1
  Ca  Ca1  1  0.169298  0.328061  0.124268  1
  Ca  Ca2  1  0.668284  0.172951  0.124248  1
  Ca  Ca3  1  0.168813  0.327779  0.376281  1
  Ca  Ca4  1  0.330555  0.828545  0.622199  1
  Ca  Ca5  1  0.161895  0.498819  0.748626  1
  Ca  Ca6  1  0.660698  0.001139  0.748348  1
  Ca  Ca7  1  0.838923  0.497389  0.250218  1
  Ca  Ca8  1  0.338475  0.003283  0.250426  1
  Pr  Pr9  1  0.833106  0.674409  0.875901  1
  Pr  Pr10  1  0.491062  0.313545  0.904937  1
  Pr  Pr11  1  0.993532  0.184881  0.595295  1
  Pr  Pr12  1  0.506914  0.687989  0.403260  1
  Pr  Pr13  1  0.008666  0.813570  0.098073  1
  Pr  Pr14  1  0.508495  0.686153  0.097339  1
  Pr  Pr15  1  0.007796  0.813730  0.403070  1
  Pr  Pr16  1  0.490996  0.314019  0.594515  1
  Pr  Pr17  1  0.993449  0.184162  0.904338  1
  Sm  Sm18  1  0.330863  0.827542  0.876704  1
  Sm  Sm19  1  0.830692  0.672544  0.623891  1
  Sn  Sn20  1  0.328343  0.034176  0.038603  1
  Sn  Sn21  1  0.828624  0.466078  0.461667  1
  Sn  Sn22  1  0.671899  0.963814  0.538677  1
  Sn  Sn23  1  0.172670  0.534452  0.961000  1
  Sn  Sn24  1  0.669608  0.965091  0.961485  1
  Sn  Sn25  1  0.168211  0.534138  0.539102  1
  Sn  Sn26  1  0.328725  0.034474  0.461035  1
  Sn  Sn27  1  0.829148  0.464669  0.038854  1
  Sn  Sn28  1  0.530899  0.602867  0.749872  1
  Sn  Sn29  1  0.033151  0.894274  0.749888  1
  Sn  Sn30  1  0.467339  0.398348  0.250804  1
  Sn  Sn31  1  0.967024  0.102526  0.250140  1
  Sn  Sn32  1  0.289197  0.142078  0.750457  1
  Sn  Sn33  1  0.788371  0.360457  0.750093  1
  Sn  Sn34  1  0.712933  0.858247  0.249784  1
  Sn  Sn35  1  0.213391  0.641901  0.250142  1
