# generated using pymatgen
data_PrNd3(Cl3O)2
_symmetry_space_group_name_H-M   'P 1'
_cell_length_a   8.20810552
_cell_length_b   8.20810476
_cell_length_c   10.63393583
_cell_angle_alpha   62.32853937
_cell_angle_beta   62.32854085
_cell_angle_gamma   29.01134677
_symmetry_Int_Tables_number   1
_chemical_formula_structural   PrNd3(Cl3O)2
_chemical_formula_sum   'Pr1 Nd3 Cl6 O2'
_cell_volume   304.87518440
_cell_formula_units_Z   1
loop_
 _symmetry_equiv_pos_site_id
 _symmetry_equiv_pos_as_xyz
  1  'x, y, z'
loop_
 _atom_site_type_symbol
 _atom_site_label
 _atom_site_symmetry_multiplicity
 _atom_site_fract_x
 _atom_site_fract_y
 _atom_site_fract_z
 _atom_site_occupancy
  Pr  Pr0  1  0.864077  0.864077  0.288925  1
  Nd  Nd1  1  0.134875  0.134875  0.712880  1
  Nd  Nd2  1  0.587740  0.587740  0.049096  1
  Nd  Nd3  1  0.413006  0.413006  0.949565  1
  Cl  Cl4  1  0.049808  0.049808  0.262919  1
  Cl  Cl5  1  0.951461  0.951461  0.736263  1
  Cl  Cl6  1  0.661260  0.661260  0.492297  1
  Cl  Cl7  1  0.336959  0.336959  0.511194  1
  Cl  Cl8  1  0.769152  0.769152  0.113848  1
  Cl  Cl9  1  0.230636  0.230636  0.884786  1
  O  O10  1  0.417381  0.417381  0.168496  1
  O  O11  1  0.583646  0.583646  0.829731  1
