# generated using pymatgen
data_Pr3Nd4SmSe12
_symmetry_space_group_name_H-M   'P 1'
_cell_length_a   4.19718900
_cell_length_b   11.19667921
_cell_length_c   11.54352300
_cell_angle_alpha   90.01004683
_cell_angle_beta   90.00000000
_cell_angle_gamma   90.00000000
_symmetry_Int_Tables_number   1
_chemical_formula_structural   Pr3Nd4SmSe12
_chemical_formula_sum   'Pr3 Nd4 Sm1 Se12'
_cell_volume   542.48299319
_cell_formula_units_Z   1
loop_
 _symmetry_equiv_pos_site_id
 _symmetry_equiv_pos_as_xyz
  1  'x, y, z'
loop_
 _atom_site_type_symbol
 _atom_site_label
 _atom_site_symmetry_multiplicity
 _atom_site_fract_x
 _atom_site_fract_y
 _atom_site_fract_z
 _atom_site_occupancy
  Pr  Pr0  1  0.250000  0.998305  0.694929  1
  Pr  Pr1  1  0.250000  0.501129  0.193016  1
  Pr  Pr2  1  0.250000  0.313154  0.511369  1
  Nd  Nd3  1  0.750000  0.002892  0.305654  1
  Nd  Nd4  1  0.750000  0.496809  0.806999  1
  Nd  Nd5  1  0.750000  0.686826  0.488690  1
  Nd  Nd6  1  0.750000  0.813624  0.988928  1
  Sm  Sm7  1  0.250000  0.186831  0.010991  1
  Se  Se8  1  0.750000  0.057867  0.882163  1
  Se  Se9  1  0.250000  0.945963  0.119216  1
  Se  Se10  1  0.250000  0.556156  0.621021  1
  Se  Se11  1  0.750000  0.444344  0.379350  1
  Se  Se12  1  0.250000  0.874652  0.454523  1
  Se  Se13  1  0.750000  0.124882  0.544608  1
  Se  Se14  1  0.750000  0.371119  0.043798  1
  Se  Se15  1  0.250000  0.625199  0.954687  1
  Se  Se16  1  0.250000  0.300345  0.773571  1
  Se  Se17  1  0.750000  0.699727  0.228354  1
  Se  Se18  1  0.750000  0.800819  0.728924  1
  Se  Se19  1  0.250000  0.199355  0.269207  1
