# generated using pymatgen
data_Dy3ErInPbAu4
_symmetry_space_group_name_H-M   'P 1'
_cell_length_a   8.08994410
_cell_length_b   8.09371109
_cell_length_c   3.67426500
_cell_angle_alpha   90.00000000
_cell_angle_beta   90.00000000
_cell_angle_gamma   90.22131442
_symmetry_Int_Tables_number   1
_chemical_formula_structural   Dy3ErInPbAu4
_chemical_formula_sum   'Dy3 Er1 In1 Pb1 Au4'
_cell_volume   240.58051721
_cell_formula_units_Z   1
loop_
 _symmetry_equiv_pos_site_id
 _symmetry_equiv_pos_as_xyz
  1  'x, y, z'
loop_
 _atom_site_type_symbol
 _atom_site_label
 _atom_site_symmetry_multiplicity
 _atom_site_fract_x
 _atom_site_fract_y
 _atom_site_fract_z
 _atom_site_occupancy
  Dy  Dy0  1  0.834490  0.671950  0.500000  1
  Dy  Dy1  1  0.671849  0.165234  0.500000  1
  Dy  Dy2  1  0.165611  0.328051  0.500000  1
  Er  Er3  1  0.328121  0.835245  0.500000  1
  In  In4  1  0.000375  0.999587  0.000000  1
  Pb  Pb5  1  0.499603  0.500341  0.000000  1
  Au  Au6  1  0.125198  0.631970  0.000000  1
  Au  Au7  1  0.629838  0.875505  0.000000  1
  Au  Au8  1  0.368719  0.122801  0.000000  1
  Au  Au9  1  0.876196  0.369316  0.000000  1
