# generated using pymatgen
data_Y4Al11Ga6SiIr6
_symmetry_space_group_name_H-M   'P 1'
_cell_length_a   7.52856799
_cell_length_b   7.51283085
_cell_length_c   9.56612683
_cell_angle_alpha   90.08472405
_cell_angle_beta   89.78660257
_cell_angle_gamma   119.79867259
_symmetry_Int_Tables_number   1
_chemical_formula_structural   Y4Al11Ga6SiIr6
_chemical_formula_sum   'Y4 Al11 Ga6 Si1 Ir6'
_cell_volume   469.52334262
_cell_formula_units_Z   1
loop_
 _symmetry_equiv_pos_site_id
 _symmetry_equiv_pos_as_xyz
  1  'x, y, z'
loop_
 _atom_site_type_symbol
 _atom_site_label
 _atom_site_symmetry_multiplicity
 _atom_site_fract_x
 _atom_site_fract_y
 _atom_site_fract_z
 _atom_site_occupancy
  Y  Y0  1  0.996937  0.664261  0.247299  1
  Y  Y1  1  0.002773  0.330303  0.753438  1
  Y  Y2  1  0.675378  0.003202  0.247251  1
  Y  Y3  1  0.329721  0.003344  0.750216  1
  Al  Al4  1  0.997413  0.669890  0.924977  1
  Al  Al5  1  0.998562  0.665946  0.572651  1
  Al  Al6  1  0.334216  0.000055  0.427077  1
  Al  Al7  1  0.002238  0.334420  0.430422  1
  Al  Al8  1  0.665200  0.998371  0.572796  1
  Al  Al9  1  0.660128  0.993195  0.924746  1
  Al  Al10  1  0.333836  0.000773  0.073732  1
  Al  Al11  1  0.334445  0.333756  0.556434  1
  Al  Al12  1  0.667110  0.667227  0.443531  1
  Al  Al13  1  0.665834  0.666535  0.057878  1
  Al  Al14  1  0.336916  0.334407  0.943666  1
  Ga  Ga15  1  0.130810  0.127768  0.250629  1
  Ga  Ga16  1  0.871799  0.873251  0.750049  1
  Ga  Ga17  1  0.343449  0.549048  0.251202  1
  Ga  Ga18  1  0.660870  0.451742  0.750151  1
  Ga  Ga19  1  0.546549  0.339588  0.249858  1
  Ga  Ga20  1  0.450809  0.659010  0.749968  1
  Si  Si21  1  0.999039  0.334386  0.070462  1
  Ir  Ir22  1  0.678726  0.328679  0.001110  1
  Ir  Ir23  1  0.318507  0.662168  0.001257  1
  Ir  Ir24  1  0.328019  0.670771  0.499876  1
  Ir  Ir25  1  0.672013  0.328621  0.498981  1
  Ir  Ir26  1  0.998873  0.008785  0.000929  1
  Ir  Ir27  1  0.999832  0.000500  0.499416  1
