# generated using pymatgen
data_YbHo3(In2Pd3)4
_symmetry_space_group_name_H-M   'P 1'
_cell_length_a   4.60492400
_cell_length_b   9.73394824
_cell_length_c   10.47034825
_cell_angle_alpha   90.02525509
_cell_angle_beta   90.00000000
_cell_angle_gamma   90.00000000
_symmetry_Int_Tables_number   1
_chemical_formula_structural   YbHo3(In2Pd3)4
_chemical_formula_sum   'Yb1 Ho3 In8 Pd12'
_cell_volume   469.32380625
_cell_formula_units_Z   1
loop_
 _symmetry_equiv_pos_site_id
 _symmetry_equiv_pos_as_xyz
  1  'x, y, z'
loop_
 _atom_site_type_symbol
 _atom_site_label
 _atom_site_symmetry_multiplicity
 _atom_site_fract_x
 _atom_site_fract_y
 _atom_site_fract_z
 _atom_site_occupancy
  Yb  Yb0  1  0.750000  0.947345  0.776471  1
  Ho  Ho1  1  0.250000  0.447002  0.723189  1
  Ho  Ho2  1  0.250000  0.052354  0.222834  1
  Ho  Ho3  1  0.750000  0.551979  0.276923  1
  In  In4  1  0.250000  0.889527  0.515031  1
  In  In5  1  0.250000  0.610247  0.014747  1
  In  In6  1  0.750000  0.110370  0.486155  1
  In  In7  1  0.750000  0.390030  0.984370  1
  In  In8  1  0.250000  0.160995  0.890563  1
  In  In9  1  0.250000  0.337962  0.391362  1
  In  In10  1  0.750000  0.837191  0.106899  1
  In  In11  1  0.750000  0.663063  0.609588  1
  Pd  Pd12  1  0.250000  0.154636  0.619976  1
  Pd  Pd13  1  0.250000  0.347889  0.121319  1
  Pd  Pd14  1  0.750000  0.848466  0.377376  1
  Pd  Pd15  1  0.750000  0.652171  0.879331  1
  Pd  Pd16  1  0.250000  0.742200  0.739852  1
  Pd  Pd17  1  0.250000  0.754290  0.240392  1
  Pd  Pd18  1  0.750000  0.253995  0.260150  1
  Pd  Pd19  1  0.750000  0.246235  0.759776  1
  Pd  Pd20  1  0.250000  0.894902  0.975710  1
  Pd  Pd21  1  0.250000  0.605712  0.473029  1
  Pd  Pd22  1  0.750000  0.106336  0.028648  1
  Pd  Pd23  1  0.750000  0.395103  0.526306  1
