# generated using pymatgen
data_Hf12Zn11PdC4
_symmetry_space_group_name_H-M   'P 1'
_cell_length_a   8.60792311
_cell_length_b   8.60792280
_cell_length_c   8.60792343
_cell_angle_alpha   59.63223611
_cell_angle_beta   59.63223521
_cell_angle_gamma   59.63224078
_symmetry_Int_Tables_number   1
_chemical_formula_structural   Hf12Zn11PdC4
_chemical_formula_sum   'Hf12 Zn11 Pd1 C4'
_cell_volume   447.23462247
_cell_formula_units_Z   1
loop_
 _symmetry_equiv_pos_site_id
 _symmetry_equiv_pos_as_xyz
  1  'x, y, z'
loop_
 _atom_site_type_symbol
 _atom_site_label
 _atom_site_symmetry_multiplicity
 _atom_site_fract_x
 _atom_site_fract_y
 _atom_site_fract_z
 _atom_site_occupancy
  Hf  Hf0  1  0.438831  0.438831  0.058502  1
  Hf  Hf1  1  0.061788  0.438347  0.061788  1
  Hf  Hf2  1  0.438347  0.061788  0.061788  1
  Hf  Hf3  1  0.061788  0.061788  0.438347  1
  Hf  Hf4  1  0.438831  0.058502  0.438831  1
  Hf  Hf5  1  0.058502  0.438831  0.438831  1
  Hf  Hf6  1  0.811169  0.811169  0.191498  1
  Hf  Hf7  1  0.188212  0.811653  0.188212  1
  Hf  Hf8  1  0.811653  0.188212  0.188212  1
  Hf  Hf9  1  0.188212  0.188212  0.811653  1
  Hf  Hf10  1  0.811169  0.191498  0.811169  1
  Hf  Hf11  1  0.191498  0.811169  0.811169  1
  Zn  Zn12  1  0.831813  0.831813  0.504354  1
  Zn  Zn13  1  0.831813  0.504354  0.831813  1
  Zn  Zn14  1  0.504354  0.831813  0.831813  1
  Zn  Zn15  1  0.832032  0.832032  0.832032  1
  Zn  Zn16  1  0.418187  0.418187  0.745646  1
  Zn  Zn17  1  0.418187  0.745646  0.418187  1
  Zn  Zn18  1  0.745646  0.418187  0.418187  1
  Zn  Zn19  1  0.417968  0.417968  0.417968  1
  Zn  Zn20  1  0.625000  0.625000  0.125000  1
  Zn  Zn21  1  0.625000  0.125000  0.625000  1
  Zn  Zn22  1  0.125000  0.625000  0.625000  1
  Pd  Pd23  1  0.625000  0.625000  0.625000  1
  C  C24  1  0.125000  0.125000  0.625000  1
  C  C25  1  0.125000  0.625000  0.125000  1
  C  C26  1  0.625000  0.125000  0.125000  1
  C  C27  1  0.125000  0.125000  0.125000  1
