# generated using pymatgen
data_Ho6VCo(P3Rh4)4
_symmetry_space_group_name_H-M   'P 1'
_cell_length_a   3.89001100
_cell_length_b   11.14020400
_cell_length_c   12.73803000
_cell_angle_alpha   90.00000000
_cell_angle_beta   90.00000000
_cell_angle_gamma   90.00000000
_symmetry_Int_Tables_number   1
_chemical_formula_structural   Ho6VCo(P3Rh4)4
_chemical_formula_sum   'Ho6 V1 Co1 P12 Rh16'
_cell_volume   552.00910418
_cell_formula_units_Z   1
loop_
 _symmetry_equiv_pos_site_id
 _symmetry_equiv_pos_as_xyz
  1  'x, y, z'
loop_
 _atom_site_type_symbol
 _atom_site_label
 _atom_site_symmetry_multiplicity
 _atom_site_fract_x
 _atom_site_fract_y
 _atom_site_fract_z
 _atom_site_occupancy
  Ho  Ho0  1  0.000000  0.500000  0.518972  1
  Ho  Ho1  1  0.500000  0.000000  0.477951  1
  Ho  Ho2  1  0.500000  0.817054  0.204139  1
  Ho  Ho3  1  0.500000  0.182946  0.204139  1
  Ho  Ho4  1  0.000000  0.685889  0.799254  1
  Ho  Ho5  1  0.000000  0.314111  0.799254  1
  V  V6  1  0.500000  0.500000  0.156570  1
  Co  Co7  1  0.500000  0.000000  0.023110  1
  P  P8  1  0.500000  0.315778  0.618756  1
  P  P9  1  0.500000  0.684222  0.618756  1
  P  P10  1  0.000000  0.185628  0.381439  1
  P  P11  1  0.000000  0.814372  0.381439  1
  P  P12  1  0.500000  0.500000  0.877184  1
  P  P13  1  0.000000  0.000000  0.121525  1
  P  P14  1  0.500000  0.856262  0.894487  1
  P  P15  1  0.500000  0.143738  0.894487  1
  P  P16  1  0.000000  0.654477  0.108479  1
  P  P17  1  0.000000  0.345523  0.108479  1
  P  P18  1  0.500000  0.500000  0.342152  1
  P  P19  1  0.000000  0.000000  0.649145  1
  Rh  Rh20  1  0.000000  0.500000  0.985145  1
  Rh  Rh21  1  0.500000  0.293001  0.431624  1
  Rh  Rh22  1  0.500000  0.706999  0.431624  1
  Rh  Rh23  1  0.000000  0.204411  0.569734  1
  Rh  Rh24  1  0.000000  0.795589  0.569734  1
  Rh  Rh25  1  0.500000  0.873572  0.710819  1
  Rh  Rh26  1  0.500000  0.126428  0.710819  1
  Rh  Rh27  1  0.000000  0.625643  0.288023  1
  Rh  Rh28  1  0.000000  0.374357  0.288023  1
  Rh  Rh29  1  0.500000  0.330088  0.991391  1
  Rh  Rh30  1  0.500000  0.669912  0.991391  1
  Rh  Rh31  1  0.000000  0.161438  0.009959  1
  Rh  Rh32  1  0.000000  0.838562  0.009959  1
  Rh  Rh33  1  0.000000  0.000000  0.832742  1
  Rh  Rh34  1  0.500000  0.500000  0.699692  1
  Rh  Rh35  1  0.000000  0.000000  0.299604  1
