# generated using pymatgen
data_Dy4Cr3TcB16
_symmetry_space_group_name_H-M   'P 1'
_cell_length_a   3.48863700
_cell_length_b   5.94507172
_cell_length_c   11.48836376
_cell_angle_alpha   89.93471694
_cell_angle_beta   90.00000000
_cell_angle_gamma   90.00000000
_symmetry_Int_Tables_number   1
_chemical_formula_structural   Dy4Cr3TcB16
_chemical_formula_sum   'Dy4 Cr3 Tc1 B16'
_cell_volume   238.27077493
_cell_formula_units_Z   1
loop_
 _symmetry_equiv_pos_site_id
 _symmetry_equiv_pos_as_xyz
  1  'x, y, z'
loop_
 _atom_site_type_symbol
 _atom_site_label
 _atom_site_symmetry_multiplicity
 _atom_site_fract_x
 _atom_site_fract_y
 _atom_site_fract_z
 _atom_site_occupancy
  Dy  Dy0  1  0.000000  0.624035  0.351343  1
  Dy  Dy1  1  0.000000  0.375638  0.650198  1
  Dy  Dy2  1  0.000000  0.125766  0.151784  1
  Dy  Dy3  1  0.000000  0.875162  0.847762  1
  Cr  Cr4  1  0.000000  0.371529  0.916381  1
  Cr  Cr5  1  0.000000  0.124588  0.419133  1
  Cr  Cr6  1  0.000000  0.875825  0.580952  1
  Tc  Tc7  1  0.000000  0.627258  0.083336  1
  B  B8  1  0.500000  0.783908  0.185945  1
  B  B9  1  0.500000  0.218061  0.814941  1
  B  B10  1  0.500000  0.281635  0.316959  1
  B  B11  1  0.500000  0.718181  0.683485  1
  B  B12  1  0.500000  0.864661  0.031290  1
  B  B13  1  0.500000  0.137025  0.966941  1
  B  B14  1  0.500000  0.362547  0.467947  1
  B  B15  1  0.500000  0.637556  0.532582  1
  B  B16  1  0.500000  0.887051  0.453448  1
  B  B17  1  0.500000  0.113664  0.546810  1
  B  B18  1  0.500000  0.384829  0.046184  1
  B  B19  1  0.500000  0.612571  0.951720  1
  B  B20  1  0.500000  0.976337  0.309334  1
  B  B21  1  0.500000  0.024251  0.691160  1
  B  B22  1  0.500000  0.473616  0.192862  1
  B  B23  1  0.500000  0.524308  0.807507  1
