# generated using pymatgen
data_Hf9Re3WSe
_symmetry_space_group_name_H-M   'P 1'
_cell_length_a   8.68489382
_cell_length_b   8.71171208
_cell_length_c   8.62637000
_cell_angle_alpha   90.00000000
_cell_angle_beta   90.00000000
_cell_angle_gamma   120.10219660
_symmetry_Int_Tables_number   1
_chemical_formula_structural   Hf9Re3WSe
_chemical_formula_sum   'Hf18 Re6 W2 Se2'
_cell_volume   564.64902412
_cell_formula_units_Z   2
loop_
 _symmetry_equiv_pos_site_id
 _symmetry_equiv_pos_as_xyz
  1  'x, y, z'
loop_
 _atom_site_type_symbol
 _atom_site_label
 _atom_site_symmetry_multiplicity
 _atom_site_fract_x
 _atom_site_fract_y
 _atom_site_fract_z
 _atom_site_occupancy
  Hf  Hf0  1  0.191694  0.809277  0.451411  1
  Hf  Hf1  1  0.191694  0.382417  0.451411  1
  Hf  Hf2  1  0.617731  0.808866  0.451126  1
  Hf  Hf3  1  0.807954  0.191230  0.551288  1
  Hf  Hf4  1  0.807954  0.616724  0.551288  1
  Hf  Hf5  1  0.382307  0.191154  0.550406  1
  Hf  Hf6  1  0.807954  0.191230  0.948712  1
  Hf  Hf7  1  0.807954  0.616724  0.948712  1
  Hf  Hf8  1  0.382307  0.191154  0.949594  1
  Hf  Hf9  1  0.191694  0.809277  0.048589  1
  Hf  Hf10  1  0.191694  0.382417  0.048589  1
  Hf  Hf11  1  0.617731  0.808866  0.048874  1
  Hf  Hf12  1  0.544798  0.453328  0.250000  1
  Hf  Hf13  1  0.544798  0.091471  0.250000  1
  Hf  Hf14  1  0.908539  0.454270  0.250000  1
  Hf  Hf15  1  0.453752  0.546379  0.750000  1
  Hf  Hf16  1  0.453752  0.907372  0.750000  1
  Hf  Hf17  1  0.092807  0.546404  0.750000  1
  Re  Re18  1  0.221949  0.110974  0.250000  1
  Re  Re19  1  0.110175  0.890065  0.750000  1
  Re  Re20  1  0.110175  0.220110  0.750000  1
  Re  Re21  1  0.779702  0.889851  0.750000  1
  Re  Re22  1  0.000407  0.000203  0.501687  1
  Re  Re23  1  0.000407  0.000203  0.998313  1
  W  W24  1  0.891130  0.109496  0.250000  1
  W  W25  1  0.891130  0.781634  0.250000  1
  Se  Se26  1  0.331814  0.665908  0.250000  1
  Se  Se27  1  0.665992  0.332996  0.750000  1
