# generated using pymatgen
data_EuTm2Ga8Ag3
_symmetry_space_group_name_H-M   'P 1'
_cell_length_a   4.37936319
_cell_length_b   8.37894377
_cell_length_c   8.37894357
_cell_angle_alpha   70.12009658
_cell_angle_beta   74.85092656
_cell_angle_gamma   74.85092395
_symmetry_Int_Tables_number   1
_chemical_formula_structural   EuTm2Ga8Ag3
_chemical_formula_sum   'Eu1 Tm2 Ga8 Ag3'
_cell_volume   274.00672800
_cell_formula_units_Z   1
loop_
 _symmetry_equiv_pos_site_id
 _symmetry_equiv_pos_as_xyz
  1  'x, y, z'
loop_
 _atom_site_type_symbol
 _atom_site_label
 _atom_site_symmetry_multiplicity
 _atom_site_fract_x
 _atom_site_fract_y
 _atom_site_fract_z
 _atom_site_occupancy
  Eu  Eu0  1  0.500000  0.500000  0.500000  1
  Tm  Tm1  1  0.200791  0.799209  0.799209  1
  Tm  Tm2  1  0.799209  0.200791  0.200791  1
  Ga  Ga3  1  0.354900  0.362100  0.928100  1
  Ga  Ga4  1  0.645100  0.637900  0.071900  1
  Ga  Ga5  1  0.354900  0.928100  0.362100  1
  Ga  Ga6  1  0.645100  0.071900  0.637900  1
  Ga  Ga7  1  0.160841  0.471042  0.207275  1
  Ga  Ga8  1  0.839159  0.528958  0.792725  1
  Ga  Ga9  1  0.160841  0.207275  0.471042  1
  Ga  Ga10  1  0.839159  0.792725  0.528958  1
  Ag  Ag11  1  0.500000  0.000000  0.000000  1
  Ag  Ag12  1  0.000000  0.809678  0.190322  1
  Ag  Ag13  1  0.000000  0.190322  0.809678  1
