# generated using pymatgen
data_TbTl3(SO4)6
_symmetry_space_group_name_H-M   'P 1'
_cell_length_a   8.67139033
_cell_length_b   8.67065480
_cell_length_c   9.36287300
_cell_angle_alpha   62.39810595
_cell_angle_beta   62.42953451
_cell_angle_gamma   60.04712107
_symmetry_Int_Tables_number   1
_chemical_formula_structural   TbTl3(SO4)6
_chemical_formula_sum   'Tb1 Tl3 S6 O24'
_cell_volume   515.36671138
_cell_formula_units_Z   1
loop_
 _symmetry_equiv_pos_site_id
 _symmetry_equiv_pos_as_xyz
  1  'x, y, z'
loop_
 _atom_site_type_symbol
 _atom_site_label
 _atom_site_symmetry_multiplicity
 _atom_site_fract_x
 _atom_site_fract_y
 _atom_site_fract_z
 _atom_site_occupancy
  Tb  Tb0  1  0.848323  0.848591  0.454556  1
  Tl  Tl1  1  0.649861  0.648991  0.052434  1
  Tl  Tl2  1  0.356971  0.356783  0.929126  1
  Tl  Tl3  1  0.154230  0.154512  0.537508  1
  S  S4  1  0.750053  0.445884  0.754450  1
  S  S5  1  0.048916  0.750070  0.754981  1
  S  S6  1  0.537363  0.957470  0.245494  1
  S  S7  1  0.957782  0.259654  0.245448  1
  S  S8  1  0.259817  0.537913  0.244995  1
  S  S9  1  0.446140  0.049152  0.754332  1
  O  O10  1  0.926407  0.690733  0.929938  1
  O  O11  1  0.455053  0.925846  0.928501  1
  O  O12  1  0.638683  0.985248  0.317442  1
  O  O13  1  0.342704  0.977623  0.358799  1
  O  O14  1  0.001720  0.954462  0.708847  1
  O  O15  1  0.709943  0.636221  0.633353  1
  O  O16  1  0.689971  0.454842  0.928631  1
  O  O17  1  0.636710  0.764087  0.232812  1
  O  O18  1  0.954303  0.334286  0.709687  1
  O  O19  1  0.247600  0.647024  0.753763  1
  O  O20  1  0.647141  0.350530  0.754133  1
  O  O21  1  0.017948  0.709130  0.635596  1
  O  O22  1  0.977949  0.321824  0.358113  1
  O  O23  1  0.366908  0.637690  0.231255  1
  O  O24  1  0.764613  0.365998  0.232160  1
  O  O25  1  0.059170  0.639284  0.317402  1
  O  O26  1  0.350703  0.247563  0.754087  1
  O  O27  1  0.289098  0.541885  0.074127  1
  O  O28  1  0.321183  0.343321  0.358583  1
  O  O29  1  0.985203  0.058703  0.318538  1
  O  O30  1  0.636427  0.020235  0.633395  1
  O  O31  1  0.334699  0.001140  0.709233  1
  O  O32  1  0.541695  0.094177  0.074114  1
  O  O33  1  0.094713  0.289123  0.074168  1
