# generated using pymatgen
data_LiYbZn3Ir
_symmetry_space_group_name_H-M   'P 1'
_cell_length_a   5.15436339
_cell_length_b   5.37335013
_cell_length_c   5.37335000
_cell_angle_alpha   60.00000079
_cell_angle_beta   58.58434446
_cell_angle_gamma   58.58435005
_symmetry_Int_Tables_number   1
_chemical_formula_structural   LiYbZn3Ir
_chemical_formula_sum   'Li1 Yb1 Zn3 Ir1'
_cell_volume   102.92436526
_cell_formula_units_Z   1
loop_
 _symmetry_equiv_pos_site_id
 _symmetry_equiv_pos_as_xyz
  1  'x, y, z'
loop_
 _atom_site_type_symbol
 _atom_site_label
 _atom_site_symmetry_multiplicity
 _atom_site_fract_x
 _atom_site_fract_y
 _atom_site_fract_z
 _atom_site_occupancy
  Li  Li0  1  0.521942  0.492686  0.492686  1
  Yb  Yb1  1  0.748251  0.750583  0.750583  1
  Zn  Zn2  1  0.119385  0.128952  0.128952  1
  Zn  Zn3  1  0.119385  0.128952  0.622712  1
  Zn  Zn4  1  0.119385  0.622712  0.128952  1
  Ir  Ir5  1  0.621653  0.126116  0.126116  1
