# generated using pymatgen
data_Tb2Pr8AlSi4Ge
_symmetry_space_group_name_H-M   'P 1'
_cell_length_a   7.74141500
_cell_length_b   9.18387484
_cell_length_c   7.74141500
_cell_angle_alpha   114.92729386
_cell_angle_beta   90.00000000
_cell_angle_gamma   114.92729386
_symmetry_Int_Tables_number   1
_chemical_formula_structural   Tb2Pr8AlSi4Ge
_chemical_formula_sum   'Tb2 Pr8 Al1 Si4 Ge1'
_cell_volume   441.93204478
_cell_formula_units_Z   1
loop_
 _symmetry_equiv_pos_site_id
 _symmetry_equiv_pos_as_xyz
  1  'x, y, z'
loop_
 _atom_site_type_symbol
 _atom_site_label
 _atom_site_symmetry_multiplicity
 _atom_site_fract_x
 _atom_site_fract_y
 _atom_site_fract_z
 _atom_site_occupancy
  Tb  Tb0  1  0.980097  0.960194  0.980097  1
  Tb  Tb1  1  0.519903  0.039806  0.519903  1
  Pr  Pr2  1  0.527105  0.717793  0.673971  1
  Pr  Pr3  1  0.190690  0.717793  0.043824  1
  Pr  Pr4  1  0.673971  0.717793  0.190690  1
  Pr  Pr5  1  0.043824  0.717793  0.527105  1
  Pr  Pr6  1  0.456176  0.282207  0.309310  1
  Pr  Pr7  1  0.826029  0.282207  0.972895  1
  Pr  Pr8  1  0.309310  0.282207  0.826029  1
  Pr  Pr9  1  0.972895  0.282207  0.456176  1
  Al  Al10  1  0.750000  0.500000  0.750000  1
  Si  Si11  1  0.881963  0.000000  0.618037  1
  Si  Si12  1  0.118037  0.000000  0.381963  1
  Si  Si13  1  0.618037  0.000000  0.118037  1
  Si  Si14  1  0.381963  0.000000  0.881963  1
  Ge  Ge15  1  0.250000  0.500000  0.250000  1
