# generated using pymatgen
data_Eu2Ni3As4Pd
_symmetry_space_group_name_H-M   'P 1'
_cell_length_a   4.27479400
_cell_length_b   4.27479400
_cell_length_c   9.76185000
_cell_angle_alpha   90.00000000
_cell_angle_beta   90.00000000
_cell_angle_gamma   90.00000000
_symmetry_Int_Tables_number   1
_chemical_formula_structural   Eu2Ni3As4Pd
_chemical_formula_sum   'Eu2 Ni3 As4 Pd1'
_cell_volume   178.38671677
_cell_formula_units_Z   1
loop_
 _symmetry_equiv_pos_site_id
 _symmetry_equiv_pos_as_xyz
  1  'x, y, z'
loop_
 _atom_site_type_symbol
 _atom_site_label
 _atom_site_symmetry_multiplicity
 _atom_site_fract_x
 _atom_site_fract_y
 _atom_site_fract_z
 _atom_site_occupancy
  Eu  Eu0  1  0.500000  0.000000  0.245761  1
  Eu  Eu1  1  0.000000  0.500000  0.754239  1
  Ni  Ni2  1  0.500000  0.000000  0.885730  1
  Ni  Ni3  1  0.000000  0.500000  0.114270  1
  Ni  Ni4  1  0.000000  0.000000  0.500000  1
  As  As5  1  0.000000  0.500000  0.358711  1
  As  As6  1  0.500000  0.500000  0.000000  1
  As  As7  1  0.000000  0.000000  0.000000  1
  As  As8  1  0.500000  0.000000  0.641289  1
  Pd  Pd9  1  0.500000  0.500000  0.500000  1
