# generated using pymatgen
data_Er20Si12P
_symmetry_space_group_name_H-M   'P 1'
_cell_length_a   6.27590572
_cell_length_b   8.41079858
_cell_length_c   14.63526800
_cell_angle_alpha   90.00000681
_cell_angle_beta   90.00000000
_cell_angle_gamma   89.91719748
_symmetry_Int_Tables_number   1
_chemical_formula_structural   Er20Si12P
_chemical_formula_sum   'Er20 Si12 P1'
_cell_volume   772.52736046
_cell_formula_units_Z   1
loop_
 _symmetry_equiv_pos_site_id
 _symmetry_equiv_pos_as_xyz
  1  'x, y, z'
loop_
 _atom_site_type_symbol
 _atom_site_label
 _atom_site_symmetry_multiplicity
 _atom_site_fract_x
 _atom_site_fract_y
 _atom_site_fract_z
 _atom_site_occupancy
  Er  Er0  1  0.500001  0.999999  0.335617  1
  Er  Er1  1  0.500001  0.500002  0.829510  1
  Er  Er2  1  0.500001  0.500002  0.170490  1
  Er  Er3  1  0.500001  0.999999  0.664383  1
  Er  Er4  1  0.000001  0.499999  0.165601  1
  Er  Er5  1  0.000001  0.000000  0.666877  1
  Er  Er6  1  0.000001  0.000000  0.333123  1
  Er  Er7  1  0.000001  0.499999  0.834399  1
  Er  Er8  1  0.747948  0.253712  0.000000  1
  Er  Er9  1  0.749296  0.744085  0.500000  1
  Er  Er10  1  0.751958  0.377960  0.379719  1
  Er  Er11  1  0.748639  0.871902  0.872316  1
  Er  Er12  1  0.748639  0.871902  0.127684  1
  Er  Er13  1  0.751958  0.377960  0.620281  1
  Er  Er14  1  0.252047  0.746286  0.000000  1
  Er  Er15  1  0.250699  0.255917  0.500000  1
  Er  Er16  1  0.251361  0.128099  0.127685  1
  Er  Er17  1  0.248042  0.622041  0.620281  1
  Er  Er18  1  0.248042  0.622041  0.379719  1
  Er  Er19  1  0.251361  0.128099  0.872315  1
  Si  Si20  1  0.744183  0.606348  0.000000  1
  Si  Si21  1  0.751867  0.106734  0.500000  1
  Si  Si22  1  0.748760  0.197676  0.198953  1
  Si  Si23  1  0.753219  0.695091  0.695103  1
  Si  Si24  1  0.753219  0.695091  0.304897  1
  Si  Si25  1  0.748760  0.197676  0.801047  1
  Si  Si26  1  0.255815  0.393652  0.000000  1
  Si  Si27  1  0.248133  0.893267  0.500000  1
  Si  Si28  1  0.246786  0.304910  0.304897  1
  Si  Si29  1  0.251238  0.802324  0.801047  1
  Si  Si30  1  0.251238  0.802324  0.198953  1
  Si  Si31  1  0.246786  0.304910  0.695103  1
  P  P32  1  0.499998  0.999998  0.000000  1
