# generated using pymatgen
data_Tm12GaFe3Sn
_symmetry_space_group_name_H-M   'P 1'
_cell_length_a   8.17859190
_cell_length_b   8.17859064
_cell_length_c   8.17859068
_cell_angle_alpha   108.49754494
_cell_angle_beta   109.39982582
_cell_angle_gamma   110.52265828
_symmetry_Int_Tables_number   1
_chemical_formula_structural   Tm12GaFe3Sn
_chemical_formula_sum   'Tm12 Ga1 Fe3 Sn1'
_cell_volume   420.99528102
_cell_formula_units_Z   1
loop_
 _symmetry_equiv_pos_site_id
 _symmetry_equiv_pos_as_xyz
  1  'x, y, z'
loop_
 _atom_site_type_symbol
 _atom_site_label
 _atom_site_symmetry_multiplicity
 _atom_site_fract_x
 _atom_site_fract_y
 _atom_site_fract_z
 _atom_site_occupancy
  Tm  Tm0  1  0.189649  0.418052  0.228403  1
  Tm  Tm1  1  0.810351  0.581948  0.771597  1
  Tm  Tm2  1  0.189649  0.961248  0.771597  1
  Tm  Tm3  1  0.940816  0.190981  0.749833  1
  Tm  Tm4  1  0.810351  0.038752  0.228403  1
  Tm  Tm5  1  0.059184  0.809019  0.250167  1
  Tm  Tm6  1  0.441148  0.190981  0.250167  1
  Tm  Tm7  1  0.558852  0.809019  0.749833  1
  Tm  Tm8  1  0.309901  0.304963  0.614865  1
  Tm  Tm9  1  0.690099  0.695037  0.385135  1
  Tm  Tm10  1  0.690099  0.304963  0.995061  1
  Tm  Tm11  1  0.309901  0.695037  0.004939  1
  Ga  Ga12  1  0.500000  0.000000  0.500000  1
  Fe  Fe13  1  0.385071  0.385071  0.000000  1
  Fe  Fe14  1  0.614929  0.614929  0.000000  1
  Fe  Fe15  1  0.000000  0.000000  0.000000  1
  Sn  Sn16  1  0.000000  0.500000  0.500000  1
