# generated using pymatgen
data_Dy10GaCu3B16
_symmetry_space_group_name_H-M   'P 1'
_cell_length_a   7.12842329
_cell_length_b   7.12845768
_cell_length_c   8.37471700
_cell_angle_alpha   90.00000000
_cell_angle_beta   90.00000000
_cell_angle_gamma   89.81272330
_symmetry_Int_Tables_number   1
_chemical_formula_structural   Dy10GaCu3B16
_chemical_formula_sum   'Dy10 Ga1 Cu3 B16'
_cell_volume   425.55615511
_cell_formula_units_Z   1
loop_
 _symmetry_equiv_pos_site_id
 _symmetry_equiv_pos_as_xyz
  1  'x, y, z'
loop_
 _atom_site_type_symbol
 _atom_site_label
 _atom_site_symmetry_multiplicity
 _atom_site_fract_x
 _atom_site_fract_y
 _atom_site_fract_z
 _atom_site_occupancy
  Dy  Dy0  1  0.681435  0.179902  0.215439  1
  Dy  Dy1  1  0.320098  0.818566  0.784560  1
  Dy  Dy2  1  0.320098  0.818566  0.215440  1
  Dy  Dy3  1  0.818684  0.681316  0.216061  1
  Dy  Dy4  1  0.818684  0.681316  0.783939  1
  Dy  Dy5  1  0.681435  0.179902  0.784561  1
  Dy  Dy6  1  0.180012  0.319987  0.784536  1
  Dy  Dy7  1  0.180012  0.319987  0.215464  1
  Dy  Dy8  1  0.007794  0.001584  0.500000  1
  Dy  Dy9  1  0.498421  0.492204  0.500000  1
  Ga  Ga10  1  0.610636  0.889363  0.500000  1
  Cu  Cu11  1  0.116945  0.616351  0.500000  1
  Cu  Cu12  1  0.883674  0.383037  0.500000  1
  Cu  Cu13  1  0.375774  0.124225  0.500000  1
  B  B14  1  0.172606  0.040191  0.000000  1
  B  B15  1  0.828482  0.959247  0.000000  1
  B  B16  1  0.959783  0.172451  0.000000  1
  B  B17  1  0.327549  0.540217  0.000000  1
  B  B18  1  0.041024  0.827078  0.000000  1
  B  B19  1  0.672922  0.458975  0.000000  1
  B  B20  1  0.540751  0.671518  0.000000  1
  B  B21  1  0.459808  0.327393  0.000000  1
  B  B22  1  0.089939  0.589767  0.000000  1
  B  B23  1  0.910232  0.410060  0.000000  1
  B  B24  1  0.410410  0.089588  0.000000  1
  B  B25  1  0.590747  0.909253  0.000000  1
  B  B26  1  0.000932  0.999909  0.157434  1
  B  B27  1  0.000932  0.999909  0.842566  1
  B  B28  1  0.500090  0.499068  0.842566  1
  B  B29  1  0.500090  0.499068  0.157434  1
