# generated using pymatgen
data_Tb3Er9Fe2I17
_symmetry_space_group_name_H-M   'P 1'
_cell_length_a   9.69755885
_cell_length_b   11.65666747
_cell_length_c   11.66230711
_cell_angle_alpha   93.45836585
_cell_angle_beta   104.81995930
_cell_angle_gamma   113.95675410
_symmetry_Int_Tables_number   1
_chemical_formula_structural   Tb3Er9Fe2I17
_chemical_formula_sum   'Tb3 Er9 Fe2 I17'
_cell_volume   1144.38494027
_cell_formula_units_Z   1
loop_
 _symmetry_equiv_pos_site_id
 _symmetry_equiv_pos_as_xyz
  1  'x, y, z'
loop_
 _atom_site_type_symbol
 _atom_site_label
 _atom_site_symmetry_multiplicity
 _atom_site_fract_x
 _atom_site_fract_y
 _atom_site_fract_z
 _atom_site_occupancy
  Tb  Tb0  1  0.054095  0.504807  0.320606  1
  Tb  Tb1  1  0.991558  0.807316  0.589894  1
  Tb  Tb2  1  0.657379  0.241143  0.279351  1
  Er  Er3  1  0.008263  0.191033  0.411288  1
  Er  Er4  1  0.216701  0.672744  0.978468  1
  Er  Er5  1  0.251762  0.973482  0.887111  1
  Er  Er6  1  0.343814  0.757469  0.719881  1
  Er  Er7  1  0.951937  0.501520  0.683091  1
  Er  Er8  1  0.747592  0.024143  0.111331  1
  Er  Er9  1  0.133641  0.285157  0.153914  1
  Er  Er10  1  0.780136  0.327803  0.016685  1
  Er  Er11  1  0.859593  0.713790  0.847217  1
  Fe  Fe12  1  0.103558  0.737853  0.785704  1
  Fe  Fe13  1  0.894812  0.262238  0.214335  1
  I  I14  1  0.784031  0.527099  0.418595  1
  I  I15  1  0.647727  0.420544  0.764162  1
  I  I16  1  0.843930  0.898441  0.327211  1
  I  I17  1  0.324144  0.214401  0.366251  1
  I  I18  1  0.156720  0.103368  0.672673  1
  I  I19  1  0.584788  0.053166  0.843688  1
  I  I20  1  0.764187  0.191917  0.540302  1
  I  I21  1  0.553717  0.714311  0.955674  1
  I  I22  1  0.352489  0.576912  0.232837  1
  I  I23  1  0.216292  0.470237  0.583293  1
  I  I24  1  0.055363  0.367898  0.898383  1
  I  I25  1  0.447559  0.285850  0.043059  1
  I  I26  1  0.002089  0.002138  0.001045  1
  I  I27  1  0.243702  0.811387  0.462440  1
  I  I28  1  0.416847  0.946528  0.155182  1
  I  I29  1  0.669294  0.784273  0.634145  1
  I  I30  1  0.942280  0.631032  0.102183  1
