# generated using pymatgen
data_Nd3YZn4(Ga7Pd3)2
_symmetry_space_group_name_H-M   'P 1'
_cell_length_a   7.67567120
_cell_length_b   7.71155585
_cell_length_c   9.61055300
_cell_angle_alpha   90.00000000
_cell_angle_beta   90.00000000
_cell_angle_gamma   119.30914641
_symmetry_Int_Tables_number   1
_chemical_formula_structural   Nd3YZn4(Ga7Pd3)2
_chemical_formula_sum   'Nd3 Y1 Zn4 Ga14 Pd6'
_cell_volume   496.04242345
_cell_formula_units_Z   1
loop_
 _symmetry_equiv_pos_site_id
 _symmetry_equiv_pos_as_xyz
  1  'x, y, z'
loop_
 _atom_site_type_symbol
 _atom_site_label
 _atom_site_symmetry_multiplicity
 _atom_site_fract_x
 _atom_site_fract_y
 _atom_site_fract_z
 _atom_site_occupancy
  Nd  Nd0  1  0.995691  0.669698  0.250000  1
  Nd  Nd1  1  0.004153  0.329859  0.750000  1
  Nd  Nd2  1  0.672474  0.998449  0.250000  1
  Y  Y3  1  0.326816  0.001276  0.750000  1
  Zn  Zn4  1  0.140007  0.138807  0.250000  1
  Zn  Zn5  1  0.861748  0.861693  0.750000  1
  Zn  Zn6  1  0.342238  0.542739  0.250000  1
  Zn  Zn7  1  0.656462  0.455498  0.750000  1
  Ga  Ga8  1  0.011710  0.336704  0.083826  1
  Ga  Ga9  1  0.990968  0.665715  0.914647  1
  Ga  Ga10  1  0.990968  0.665715  0.585353  1
  Ga  Ga11  1  0.332852  0.003381  0.418871  1
  Ga  Ga12  1  0.011710  0.336704  0.416174  1
  Ga  Ga13  1  0.664489  0.996250  0.584418  1
  Ga  Ga14  1  0.664489  0.996250  0.915582  1
  Ga  Ga15  1  0.332852  0.003381  0.081129  1
  Ga  Ga16  1  0.338157  0.332791  0.563201  1
  Ga  Ga17  1  0.661863  0.665054  0.439040  1
  Ga  Ga18  1  0.661863  0.665054  0.060960  1
  Ga  Ga19  1  0.338157  0.332791  0.936799  1
  Ga  Ga20  1  0.536746  0.341441  0.250000  1
  Ga  Ga21  1  0.462677  0.659339  0.750000  1
  Pd  Pd22  1  0.674519  0.326061  0.002904  1
  Pd  Pd23  1  0.325416  0.674276  0.995914  1
  Pd  Pd24  1  0.325416  0.674276  0.504086  1
  Pd  Pd25  1  0.674519  0.326061  0.497096  1
  Pd  Pd26  1  0.000521  0.000370  0.999280  1
  Pd  Pd27  1  0.000521  0.000370  0.500720  1
