# generated using pymatgen
data_VSb8W3Se4
_symmetry_space_group_name_H-M   'P 1'
_cell_length_a   6.60739600
_cell_length_b   6.55440308
_cell_length_c   18.73713549
_cell_angle_alpha   86.06548914
_cell_angle_beta   90.00000000
_cell_angle_gamma   90.00000000
_symmetry_Int_Tables_number   1
_chemical_formula_structural   VSb8W3Se4
_chemical_formula_sum   'V2 Sb16 W6 Se8'
_cell_volume   809.54667948
_cell_formula_units_Z   2
loop_
 _symmetry_equiv_pos_site_id
 _symmetry_equiv_pos_as_xyz
  1  'x, y, z'
loop_
 _atom_site_type_symbol
 _atom_site_label
 _atom_site_symmetry_multiplicity
 _atom_site_fract_x
 _atom_site_fract_y
 _atom_site_fract_z
 _atom_site_occupancy
  V  V0  1  0.875266  0.664656  0.492751  1
  V  V1  1  0.375266  0.335344  0.007249  1
  Sb  Sb2  1  0.402064  0.205139  0.273722  1
  Sb  Sb3  1  0.902064  0.794861  0.226278  1
  Sb  Sb4  1  0.597417  0.793907  0.725853  1
  Sb  Sb5  1  0.097417  0.206093  0.774147  1
  Sb  Sb6  1  0.848470  0.209681  0.273802  1
  Sb  Sb7  1  0.348470  0.790319  0.226198  1
  Sb  Sb8  1  0.152260  0.793258  0.725918  1
  Sb  Sb9  1  0.652260  0.206742  0.774082  1
  Sb  Sb10  1  0.375726  0.075470  0.425995  1
  Sb  Sb11  1  0.875726  0.924530  0.074005  1
  Sb  Sb12  1  0.629509  0.921086  0.573330  1
  Sb  Sb13  1  0.129509  0.078914  0.926670  1
  Sb  Sb14  1  0.874254  0.071634  0.425663  1
  Sb  Sb15  1  0.374254  0.928366  0.074337  1
  Sb  Sb16  1  0.120297  0.921285  0.573461  1
  Sb  Sb17  1  0.620297  0.078715  0.926539  1
  W  W18  1  0.123446  0.330955  0.506449  1
  W  W19  1  0.623446  0.669045  0.993551  1
  W  W20  1  0.626538  0.330970  0.506688  1
  W  W21  1  0.126538  0.669030  0.993312  1
  W  W22  1  0.374809  0.668718  0.493328  1
  W  W23  1  0.874809  0.331282  0.006672  1
  Se  Se24  1  0.875228  0.415237  0.600789  1
  Se  Se25  1  0.375228  0.584763  0.899211  1
  Se  Se26  1  0.120522  0.590432  0.399383  1
  Se  Se27  1  0.620522  0.409568  0.100617  1
  Se  Se28  1  0.629475  0.590572  0.399510  1
  Se  Se29  1  0.129475  0.409428  0.100490  1
  Se  Se30  1  0.374717  0.410190  0.601692  1
  Se  Se31  1  0.874717  0.589810  0.898308  1
