# generated using pymatgen
data_HfScFeB2Ru5
_symmetry_space_group_name_H-M   'P 1'
_cell_length_a   9.30688725
_cell_length_b   9.30688725
_cell_length_c   3.05033400
_cell_angle_alpha   90.00000000
_cell_angle_beta   90.00000000
_cell_angle_gamma   90.36898328
_symmetry_Int_Tables_number   1
_chemical_formula_structural   HfScFeB2Ru5
_chemical_formula_sum   'Hf2 Sc2 Fe2 B4 Ru10'
_cell_volume   264.20880984
_cell_formula_units_Z   2
loop_
 _symmetry_equiv_pos_site_id
 _symmetry_equiv_pos_as_xyz
  1  'x, y, z'
loop_
 _atom_site_type_symbol
 _atom_site_label
 _atom_site_symmetry_multiplicity
 _atom_site_fract_x
 _atom_site_fract_y
 _atom_site_fract_z
 _atom_site_occupancy
  Hf  Hf0  1  0.176107  0.323893  0.000000  1
  Hf  Hf1  1  0.823893  0.676107  0.000000  1
  Sc  Sc2  1  0.674231  0.174231  0.000000  1
  Sc  Sc3  1  0.325769  0.825769  0.000000  1
  Fe  Fe4  1  0.000000  0.000000  0.000000  1
  Fe  Fe5  1  0.500000  0.500000  0.000000  1
  B  B6  1  0.125638  0.625638  0.000000  1
  B  B7  1  0.874362  0.374362  0.000000  1
  B  B8  1  0.622942  0.877058  0.000000  1
  B  B9  1  0.377058  0.122942  0.000000  1
  Ru  Ru10  1  0.211961  0.072457  0.500000  1
  Ru  Ru11  1  0.788039  0.927543  0.500000  1
  Ru  Ru12  1  0.069029  0.786777  0.500000  1
  Ru  Ru13  1  0.713223  0.430971  0.500000  1
  Ru  Ru14  1  0.930971  0.213223  0.500000  1
  Ru  Ru15  1  0.286777  0.569029  0.500000  1
  Ru  Ru16  1  0.572457  0.711961  0.500000  1
  Ru  Ru17  1  0.427543  0.288039  0.500000  1
  Ru  Ru18  1  0.500000  0.000000  0.500000  1
  Ru  Ru19  1  0.000000  0.500000  0.500000  1
