# generated using pymatgen
data_KZn4Ir
_symmetry_space_group_name_H-M   'P 1'
_cell_length_a   7.02169830
_cell_length_b   7.02169850
_cell_length_c   5.14998900
_cell_angle_alpha   90.00000000
_cell_angle_beta   90.00000000
_cell_angle_gamma   104.54345764
_symmetry_Int_Tables_number   1
_chemical_formula_structural   KZn4Ir
_chemical_formula_sum   'K2 Zn8 Ir2'
_cell_volume   245.78021115
_cell_formula_units_Z   2
loop_
 _symmetry_equiv_pos_site_id
 _symmetry_equiv_pos_as_xyz
  1  'x, y, z'
loop_
 _atom_site_type_symbol
 _atom_site_label
 _atom_site_symmetry_multiplicity
 _atom_site_fract_x
 _atom_site_fract_y
 _atom_site_fract_z
 _atom_site_occupancy
  K  K0  1  0.652186  0.652186  0.250000  1
  K  K1  1  0.347814  0.347814  0.750000  1
  Zn  Zn2  1  0.952992  0.952992  0.750000  1
  Zn  Zn3  1  0.047008  0.047008  0.250000  1
  Zn  Zn4  1  0.522198  0.953859  0.754139  1
  Zn  Zn5  1  0.477802  0.046141  0.254139  1
  Zn  Zn6  1  0.953859  0.522198  0.745861  1
  Zn  Zn7  1  0.046141  0.477802  0.245861  1
  Zn  Zn8  1  0.784952  0.215048  0.000000  1
  Zn  Zn9  1  0.215048  0.784952  0.500000  1
  Ir  Ir10  1  0.804620  0.195380  0.500000  1
  Ir  Ir11  1  0.195380  0.804620  0.000000  1
