# generated using pymatgen
data_HoLuZr2(Al3Ir)6
_symmetry_space_group_name_H-M   'P 1'
_cell_length_a   7.51430325
_cell_length_b   7.50275860
_cell_length_c   9.34277900
_cell_angle_alpha   90.00000000
_cell_angle_beta   90.00000000
_cell_angle_gamma   119.73870347
_symmetry_Int_Tables_number   1
_chemical_formula_structural   HoLuZr2(Al3Ir)6
_chemical_formula_sum   'Ho1 Lu1 Zr2 Al18 Ir6'
_cell_volume   457.35547664
_cell_formula_units_Z   1
loop_
 _symmetry_equiv_pos_site_id
 _symmetry_equiv_pos_as_xyz
  1  'x, y, z'
loop_
 _atom_site_type_symbol
 _atom_site_label
 _atom_site_symmetry_multiplicity
 _atom_site_fract_x
 _atom_site_fract_y
 _atom_site_fract_z
 _atom_site_occupancy
  Ho  Ho0  1  0.670527  0.994255  0.250000  1
  Lu  Lu1  1  0.329200  0.005653  0.750000  1
  Zr  Zr2  1  0.995328  0.671179  0.250000  1
  Zr  Zr3  1  0.004811  0.328924  0.750000  1
  Al  Al4  1  0.126186  0.124387  0.250000  1
  Al  Al5  1  0.874417  0.875849  0.750000  1
  Al  Al6  1  0.999857  0.336804  0.075054  1
  Al  Al7  1  0.000613  0.663628  0.924348  1
  Al  Al8  1  0.000613  0.663628  0.575652  1
  Al  Al9  1  0.332562  0.998749  0.422539  1
  Al  Al10  1  0.999857  0.336804  0.424946  1
  Al  Al11  1  0.667015  0.001330  0.578424  1
  Al  Al12  1  0.667015  0.001330  0.921576  1
  Al  Al13  1  0.332562  0.998749  0.077461  1
  Al  Al14  1  0.331454  0.333206  0.557448  1
  Al  Al15  1  0.668568  0.666381  0.443119  1
  Al  Al16  1  0.668568  0.666381  0.056881  1
  Al  Al17  1  0.331454  0.333206  0.942552  1
  Al  Al18  1  0.334803  0.548118  0.250000  1
  Al  Al19  1  0.664709  0.451236  0.750000  1
  Al  Al20  1  0.553767  0.343043  0.250000  1
  Al  Al21  1  0.446002  0.657202  0.750000  1
  Ir  Ir22  1  0.671721  0.327149  0.999185  1
  Ir  Ir23  1  0.327963  0.672762  0.000423  1
  Ir  Ir24  1  0.327963  0.672762  0.499577  1
  Ir  Ir25  1  0.671721  0.327149  0.500815  1
  Ir  Ir26  1  0.000372  0.000068  0.999761  1
  Ir  Ir27  1  0.000372  0.000068  0.500239  1
