# generated using pymatgen
data_TmZr5(Ni3As2)6
_symmetry_space_group_name_H-M   'P 1'
_cell_length_a   3.79687900
_cell_length_b   10.74298500
_cell_length_c   12.60655700
_cell_angle_alpha   90.00000000
_cell_angle_beta   90.00000000
_cell_angle_gamma   90.00000000
_symmetry_Int_Tables_number   1
_chemical_formula_structural   TmZr5(Ni3As2)6
_chemical_formula_sum   'Tm1 Zr5 Ni18 As12'
_cell_volume   514.21911702
_cell_formula_units_Z   1
loop_
 _symmetry_equiv_pos_site_id
 _symmetry_equiv_pos_as_xyz
  1  'x, y, z'
loop_
 _atom_site_type_symbol
 _atom_site_label
 _atom_site_symmetry_multiplicity
 _atom_site_fract_x
 _atom_site_fract_y
 _atom_site_fract_z
 _atom_site_occupancy
  Tm  Tm0  1  0.500000  0.000000  0.474572  1
  Zr  Zr1  1  0.000000  0.500000  0.525282  1
  Zr  Zr2  1  0.500000  0.821305  0.206403  1
  Zr  Zr3  1  0.500000  0.178695  0.206403  1
  Zr  Zr4  1  0.000000  0.678482  0.792795  1
  Zr  Zr5  1  0.000000  0.321518  0.792795  1
  Ni  Ni6  1  0.500000  0.500000  0.159319  1
  Ni  Ni7  1  0.000000  0.000000  0.841506  1
  Ni  Ni8  1  0.500000  0.500000  0.698170  1
  Ni  Ni9  1  0.000000  0.000000  0.300173  1
  Ni  Ni10  1  0.000000  0.500000  0.982239  1
  Ni  Ni11  1  0.500000  0.000000  0.016768  1
  Ni  Ni12  1  0.500000  0.331946  0.996697  1
  Ni  Ni13  1  0.500000  0.668054  0.996697  1
  Ni  Ni14  1  0.000000  0.168593  0.003314  1
  Ni  Ni15  1  0.000000  0.831407  0.003314  1
  Ni  Ni16  1  0.500000  0.303582  0.429500  1
  Ni  Ni17  1  0.500000  0.696418  0.429500  1
  Ni  Ni18  1  0.000000  0.200061  0.571238  1
  Ni  Ni19  1  0.000000  0.799939  0.571238  1
  Ni  Ni20  1  0.500000  0.876692  0.707970  1
  Ni  Ni21  1  0.500000  0.123308  0.707970  1
  Ni  Ni22  1  0.000000  0.621893  0.293255  1
  Ni  Ni23  1  0.000000  0.378107  0.293255  1
  As  As24  1  0.500000  0.500000  0.875241  1
  As  As25  1  0.000000  0.000000  0.123826  1
  As  As26  1  0.500000  0.500000  0.349096  1
  As  As27  1  0.000000  0.000000  0.652562  1
  As  As28  1  0.500000  0.315949  0.615294  1
  As  As29  1  0.500000  0.684051  0.615294  1
  As  As30  1  0.000000  0.185553  0.383743  1
  As  As31  1  0.000000  0.814447  0.383743  1
  As  As32  1  0.500000  0.844682  0.887847  1
  As  As33  1  0.500000  0.155318  0.887847  1
  As  As34  1  0.000000  0.654392  0.112569  1
  As  As35  1  0.000000  0.345608  0.112569  1
