# generated using pymatgen
data_Y3Lu7Zn3Co
_symmetry_space_group_name_H-M   'P 1'
_cell_length_a   9.29913600
_cell_length_b   9.29913636
_cell_length_c   9.31176000
_cell_angle_alpha   90.00000000
_cell_angle_beta   90.00000000
_cell_angle_gamma   119.99999161
_symmetry_Int_Tables_number   1
_chemical_formula_structural   Y3Lu7Zn3Co
_chemical_formula_sum   'Y6 Lu14 Zn6 Co2'
_cell_volume   697.34494611
_cell_formula_units_Z   2
loop_
 _symmetry_equiv_pos_site_id
 _symmetry_equiv_pos_as_xyz
  1  'x, y, z'
loop_
 _atom_site_type_symbol
 _atom_site_label
 _atom_site_symmetry_multiplicity
 _atom_site_fract_x
 _atom_site_fract_y
 _atom_site_fract_z
 _atom_site_occupancy
  Y  Y0  1  0.541507  0.458493  0.250000  1
  Y  Y1  1  0.541507  0.083013  0.250000  1
  Y  Y2  1  0.916987  0.458493  0.250000  1
  Y  Y3  1  0.458493  0.541507  0.750000  1
  Y  Y4  1  0.458493  0.916987  0.750000  1
  Y  Y5  1  0.083013  0.541507  0.750000  1
  Lu  Lu6  1  0.000000  0.000000  0.500000  1
  Lu  Lu7  1  0.000000  0.000000  0.000000  1
  Lu  Lu8  1  0.209323  0.790677  0.436801  1
  Lu  Lu9  1  0.209323  0.418645  0.436801  1
  Lu  Lu10  1  0.581355  0.790677  0.436801  1
  Lu  Lu11  1  0.790677  0.209323  0.563199  1
  Lu  Lu12  1  0.790677  0.581355  0.563199  1
  Lu  Lu13  1  0.418645  0.209323  0.563199  1
  Lu  Lu14  1  0.790677  0.209323  0.936801  1
  Lu  Lu15  1  0.790677  0.581355  0.936801  1
  Lu  Lu16  1  0.418645  0.209323  0.936801  1
  Lu  Lu17  1  0.209323  0.790677  0.063199  1
  Lu  Lu18  1  0.209323  0.418645  0.063199  1
  Lu  Lu19  1  0.581355  0.790677  0.063199  1
  Zn  Zn20  1  0.886284  0.113716  0.250000  1
  Zn  Zn21  1  0.886284  0.772567  0.250000  1
  Zn  Zn22  1  0.227433  0.113716  0.250000  1
  Zn  Zn23  1  0.113716  0.886284  0.750000  1
  Zn  Zn24  1  0.113716  0.227433  0.750000  1
  Zn  Zn25  1  0.772567  0.886284  0.750000  1
  Co  Co26  1  0.333333  0.666667  0.250000  1
  Co  Co27  1  0.666667  0.333333  0.750000  1
