# generated using pymatgen
data_Sm2Zn2Co3Ni3B2
_symmetry_space_group_name_H-M   'P 1'
_cell_length_a   5.15739913
_cell_length_b   5.14912696
_cell_length_c   6.84951900
_cell_angle_alpha   90.00035749
_cell_angle_beta   89.99947442
_cell_angle_gamma   119.38993589
_symmetry_Int_Tables_number   1
_chemical_formula_structural   Sm2Zn2Co3Ni3B2
_chemical_formula_sum   'Sm2 Zn2 Co3 Ni3 B2'
_cell_volume   158.48645233
_cell_formula_units_Z   1
loop_
 _symmetry_equiv_pos_site_id
 _symmetry_equiv_pos_as_xyz
  1  'x, y, z'
loop_
 _atom_site_type_symbol
 _atom_site_label
 _atom_site_symmetry_multiplicity
 _atom_site_fract_x
 _atom_site_fract_y
 _atom_site_fract_z
 _atom_site_occupancy
  Sm  Sm0  1  0.999979  0.999999  0.996137  1
  Sm  Sm1  1  0.999986  0.000000  0.500497  1
  Zn  Zn2  1  0.330190  0.667165  0.999858  1
  Zn  Zn3  1  0.669770  0.332833  0.999858  1
  Co  Co4  1  0.999982  0.499995  0.300018  1
  Co  Co5  1  0.499982  0.999999  0.699201  1
  Co  Co6  1  0.999984  0.500002  0.701732  1
  Ni  Ni7  1  0.499987  0.000001  0.297534  1
  Ni  Ni8  1  0.499987  0.499998  0.299076  1
  Ni  Ni9  1  0.499983  0.500009  0.702280  1
  B  B10  1  0.323867  0.666943  0.501904  1
  B  B11  1  0.676101  0.333056  0.501902  1
