# generated using pymatgen
data_TbDy3ZnFe2Os5
_symmetry_space_group_name_H-M   'P 1'
_cell_length_a   5.27320132
_cell_length_b   5.28645920
_cell_length_c   9.29769982
_cell_angle_alpha   73.48367264
_cell_angle_beta   91.63870837
_cell_angle_gamma   120.08320076
_symmetry_Int_Tables_number   1
_chemical_formula_structural   TbDy3ZnFe2Os5
_chemical_formula_sum   'Tb1 Dy3 Zn1 Fe2 Os5'
_cell_volume   212.98463914
_cell_formula_units_Z   1
loop_
 _symmetry_equiv_pos_site_id
 _symmetry_equiv_pos_as_xyz
  1  'x, y, z'
loop_
 _atom_site_type_symbol
 _atom_site_label
 _atom_site_symmetry_multiplicity
 _atom_site_fract_x
 _atom_site_fract_y
 _atom_site_fract_z
 _atom_site_occupancy
  Tb  Tb0  1  0.874990  0.750044  0.374903  1
  Dy  Dy1  1  0.382291  0.756263  0.869765  1
  Dy  Dy2  1  0.992533  0.993685  0.005163  1
  Dy  Dy3  1  0.500204  0.999974  0.500255  1
  Zn  Zn4  1  0.687527  0.374995  0.937538  1
  Fe  Fe5  1  0.941427  0.374037  0.193352  1
  Fe  Fe6  1  0.433502  0.376098  0.681306  1
  Os  Os7  1  0.436417  0.370109  0.186527  1
  Os  Os8  1  0.938524  0.379772  0.688538  1
  Os  Os9  1  0.436417  0.879781  0.186527  1
  Os  Os10  1  0.938524  0.870212  0.688538  1
  Os  Os11  1  0.187644  0.375030  0.437584  1
