# generated using pymatgen
data_CsYbGaF6
_symmetry_space_group_name_H-M   'P 1'
_cell_length_a   7.79469600
_cell_length_b   7.54824100
_cell_length_c   10.26157600
_cell_angle_alpha   90.00000000
_cell_angle_beta   90.00000000
_cell_angle_gamma   90.00000000
_symmetry_Int_Tables_number   1
_chemical_formula_structural   CsYbGaF6
_chemical_formula_sum   'Cs4 Yb4 Ga4 F24'
_cell_volume   603.75258864
_cell_formula_units_Z   4
loop_
 _symmetry_equiv_pos_site_id
 _symmetry_equiv_pos_as_xyz
  1  'x, y, z'
loop_
 _atom_site_type_symbol
 _atom_site_label
 _atom_site_symmetry_multiplicity
 _atom_site_fract_x
 _atom_site_fract_y
 _atom_site_fract_z
 _atom_site_occupancy
  Cs  Cs0  1  0.025453  0.250000  0.626853  1
  Cs  Cs1  1  0.974547  0.750000  0.373147  1
  Cs  Cs2  1  0.474547  0.750000  0.126853  1
  Cs  Cs3  1  0.525453  0.250000  0.873147  1
  Yb  Yb4  1  0.205568  0.250000  0.244779  1
  Yb  Yb5  1  0.794432  0.750000  0.755221  1
  Yb  Yb6  1  0.294432  0.750000  0.744779  1
  Yb  Yb7  1  0.705568  0.250000  0.255221  1
  Ga  Ga8  1  0.000000  0.000000  0.000000  1
  Ga  Ga9  1  0.500000  0.000000  0.500000  1
  Ga  Ga10  1  0.000000  0.500000  0.000000  1
  Ga  Ga11  1  0.500000  0.500000  0.500000  1
  F  F12  1  0.302426  0.057927  0.399502  1
  F  F13  1  0.697574  0.942073  0.600498  1
  F  F14  1  0.197574  0.942073  0.899502  1
  F  F15  1  0.697574  0.557927  0.600498  1
  F  F16  1  0.802426  0.057927  0.100498  1
  F  F17  1  0.302426  0.442073  0.399502  1
  F  F18  1  0.802426  0.442073  0.100498  1
  F  F19  1  0.197574  0.557927  0.899502  1
  F  F20  1  0.577840  0.250000  0.496891  1
  F  F21  1  0.422160  0.750000  0.503109  1
  F  F22  1  0.922160  0.750000  0.996891  1
  F  F23  1  0.077840  0.250000  0.003109  1
  F  F24  1  0.131681  0.520508  0.155239  1
  F  F25  1  0.868319  0.479492  0.844761  1
  F  F26  1  0.368319  0.479492  0.655239  1
  F  F27  1  0.868319  0.020508  0.844761  1
  F  F28  1  0.631681  0.520508  0.344761  1
  F  F29  1  0.131681  0.979492  0.155239  1
  F  F30  1  0.631681  0.979492  0.344761  1
  F  F31  1  0.368319  0.020508  0.655239  1
  F  F32  1  0.457779  0.250000  0.153562  1
  F  F33  1  0.542221  0.750000  0.846438  1
  F  F34  1  0.042221  0.750000  0.653562  1
  F  F35  1  0.957779  0.250000  0.346438  1
