# generated using pymatgen
data_Ca8HfNb4(FeO8)3
_symmetry_space_group_name_H-M   'P 1'
_cell_length_a   5.51508422
_cell_length_b   9.71856315
_cell_length_c   9.71471400
_cell_angle_alpha   71.48826586
_cell_angle_beta   90.17110351
_cell_angle_gamma   90.14560958
_symmetry_Int_Tables_number   1
_chemical_formula_structural   Ca8HfNb4(FeO8)3
_chemical_formula_sum   'Ca8 Hf1 Nb4 Fe3 O24'
_cell_volume   493.75157461
_cell_formula_units_Z   1
loop_
 _symmetry_equiv_pos_site_id
 _symmetry_equiv_pos_as_xyz
  1  'x, y, z'
loop_
 _atom_site_type_symbol
 _atom_site_label
 _atom_site_symmetry_multiplicity
 _atom_site_fract_x
 _atom_site_fract_y
 _atom_site_fract_z
 _atom_site_occupancy
  Ca  Ca0  1  0.014079  0.343630  0.901283  1
  Ca  Ca1  1  0.010533  0.856462  0.401192  1
  Ca  Ca2  1  0.985918  0.656369  0.098717  1
  Ca  Ca3  1  0.989468  0.143537  0.598808  1
  Ca  Ca4  1  0.490251  0.601400  0.655537  1
  Ca  Ca5  1  0.484245  0.100450  0.154100  1
  Ca  Ca6  1  0.509748  0.398600  0.344463  1
  Ca  Ca7  1  0.515755  0.899549  0.845901  1
  Hf  Hf8  1  0.000000  0.500000  0.500000  1
  Nb  Nb9  1  0.995596  0.249071  0.246564  1
  Nb  Nb10  1  0.004405  0.750929  0.753435  1
  Nb  Nb11  1  0.503972  0.244779  0.756020  1
  Nb  Nb12  1  0.496029  0.755222  0.243979  1
  Fe  Fe13  1  0.500000  0.000000  0.500000  1
  Fe  Fe14  1  0.000001  0.000000  0.000000  1
  Fe  Fe15  1  0.500000  0.500000  0.000000  1
  O  O16  1  0.900044  0.143087  0.115273  1
  O  O17  1  0.904157  0.643532  0.609092  1
  O  O18  1  0.099952  0.856912  0.884727  1
  O  O19  1  0.095845  0.356468  0.390908  1
  O  O20  1  0.596205  0.390772  0.858677  1
  O  O21  1  0.593695  0.888949  0.359108  1
  O  O22  1  0.403796  0.609229  0.141322  1
  O  O23  1  0.406306  0.111052  0.640892  1
  O  O24  1  0.202230  0.374702  0.675892  1
  O  O25  1  0.202222  0.869208  0.181182  1
  O  O26  1  0.797771  0.625298  0.324109  1
  O  O27  1  0.797777  0.130791  0.818818  1
  O  O28  1  0.293586  0.328452  0.124889  1
  O  O29  1  0.290809  0.828843  0.622123  1
  O  O30  1  0.706413  0.671549  0.875111  1
  O  O31  1  0.709191  0.171157  0.377877  1
  O  O32  1  0.313878  0.131849  0.922671  1
  O  O33  1  0.306626  0.625317  0.424886  1
  O  O34  1  0.686122  0.868152  0.077329  1
  O  O35  1  0.693375  0.374683  0.575114  1
  O  O36  1  0.201730  0.577466  0.868280  1
  O  O37  1  0.204857  0.080996  0.370236  1
  O  O38  1  0.798271  0.422534  0.131720  1
  O  O39  1  0.795144  0.919003  0.629763  1
