# generated using pymatgen
data_RbYTaNb5Br18
_symmetry_space_group_name_H-M   'P 1'
_cell_length_a   10.78848291
_cell_length_b   10.78643326
_cell_length_c   10.78738903
_cell_angle_alpha   55.42366596
_cell_angle_beta   55.43853685
_cell_angle_gamma   55.42939200
_symmetry_Int_Tables_number   1
_chemical_formula_structural   RbYTaNb5Br18
_chemical_formula_sum   'Rb1 Y1 Ta1 Nb5 Br18'
_cell_volume   793.44283971
_cell_formula_units_Z   1
loop_
 _symmetry_equiv_pos_site_id
 _symmetry_equiv_pos_as_xyz
  1  'x, y, z'
loop_
 _atom_site_type_symbol
 _atom_site_label
 _atom_site_symmetry_multiplicity
 _atom_site_fract_x
 _atom_site_fract_y
 _atom_site_fract_z
 _atom_site_occupancy
  Rb  Rb0  1  0.221185  0.221759  0.221508  1
  Y  Y1  1  0.498107  0.498490  0.497612  1
  Ta  Ta2  1  0.810586  0.141364  0.917134  1
  Nb  Nb3  1  0.916605  0.808823  0.142580  1
  Nb  Nb4  1  0.142524  0.916454  0.808987  1
  Nb  Nb5  1  0.192444  0.857708  0.082910  1
  Nb  Nb6  1  0.082788  0.192087  0.858000  1
  Nb  Nb7  1  0.858069  0.082651  0.192188  1
  Br  Br8  1  0.862412  0.410063  0.727608  1
  Br  Br9  1  0.726339  0.863982  0.411947  1
  Br  Br10  1  0.411486  0.726644  0.864007  1
  Br  Br11  1  0.134967  0.588569  0.275992  1
  Br  Br12  1  0.276237  0.135268  0.588130  1
  Br  Br13  1  0.589409  0.275790  0.132711  1
  Br  Br14  1  0.533527  0.340354  0.806130  1
  Br  Br15  1  0.804629  0.531685  0.341951  1
  Br  Br16  1  0.341692  0.805081  0.531496  1
  Br  Br17  1  0.466281  0.659731  0.196079  1
  Br  Br18  1  0.196257  0.466036  0.659848  1
  Br  Br19  1  0.659615  0.196351  0.465998  1
  Br  Br20  1  0.663673  0.940777  0.069366  1
  Br  Br21  1  0.071378  0.663006  0.938286  1
  Br  Br22  1  0.935791  0.072564  0.665385  1
  Br  Br23  1  0.339516  0.060857  0.924949  1
  Br  Br24  1  0.925113  0.339894  0.060715  1
  Br  Br25  1  0.060511  0.925154  0.339621  1
