# generated using pymatgen
data_Tb2Gd3Sn3Se
_symmetry_space_group_name_H-M   'P 1'
_cell_length_a   9.27307400
_cell_length_b   9.27307480
_cell_length_c   6.81716400
_cell_angle_alpha   90.00000000
_cell_angle_beta   90.00000000
_cell_angle_gamma   120.00000429
_symmetry_Int_Tables_number   1
_chemical_formula_structural   Tb2Gd3Sn3Se
_chemical_formula_sum   'Tb4 Gd6 Sn6 Se2'
_cell_volume   507.67040106
_cell_formula_units_Z   2
loop_
 _symmetry_equiv_pos_site_id
 _symmetry_equiv_pos_as_xyz
  1  'x, y, z'
loop_
 _atom_site_type_symbol
 _atom_site_label
 _atom_site_symmetry_multiplicity
 _atom_site_fract_x
 _atom_site_fract_y
 _atom_site_fract_z
 _atom_site_occupancy
  Tb  Tb0  1  0.666667  0.333333  0.000000  1
  Tb  Tb1  1  0.333333  0.666667  0.000000  1
  Tb  Tb2  1  0.333333  0.666667  0.500000  1
  Tb  Tb3  1  0.666667  0.333333  0.500000  1
  Gd  Gd4  1  0.747104  0.747104  0.750000  1
  Gd  Gd5  1  0.252896  0.000000  0.750000  1
  Gd  Gd6  1  0.000000  0.252896  0.750000  1
  Gd  Gd7  1  0.252896  0.252896  0.250000  1
  Gd  Gd8  1  0.747104  0.000000  0.250000  1
  Gd  Gd9  1  0.000000  0.747104  0.250000  1
  Sn  Sn10  1  0.397040  0.397040  0.750000  1
  Sn  Sn11  1  0.602960  0.000000  0.750000  1
  Sn  Sn12  1  0.000000  0.602960  0.750000  1
  Sn  Sn13  1  0.602960  0.602960  0.250000  1
  Sn  Sn14  1  0.397040  0.000000  0.250000  1
  Sn  Sn15  1  0.000000  0.397040  0.250000  1
  Se  Se16  1  0.000000  0.000000  0.000000  1
  Se  Se17  1  0.000000  0.000000  0.500000  1
