# generated using pymatgen
data_Tb17Ho(MgIr6)2
_symmetry_space_group_name_H-M   'P 1'
_cell_length_a   10.86183600
_cell_length_b   10.86183600
_cell_length_c   6.31903300
_cell_angle_alpha   90.00000000
_cell_angle_beta   90.00000000
_cell_angle_gamma   90.00000000
_symmetry_Int_Tables_number   1
_chemical_formula_structural   Tb17Ho(MgIr6)2
_chemical_formula_sum   'Tb17 Ho1 Mg2 Ir12'
_cell_volume   745.51623560
_cell_formula_units_Z   1
loop_
 _symmetry_equiv_pos_site_id
 _symmetry_equiv_pos_as_xyz
  1  'x, y, z'
loop_
 _atom_site_type_symbol
 _atom_site_label
 _atom_site_symmetry_multiplicity
 _atom_site_fract_x
 _atom_site_fract_y
 _atom_site_fract_z
 _atom_site_occupancy
  Tb  Tb0  1  0.291180  0.089253  0.381295  1
  Tb  Tb1  1  0.284753  0.915216  0.878704  1
  Tb  Tb2  1  0.715247  0.084784  0.878704  1
  Tb  Tb3  1  0.708820  0.910747  0.381295  1
  Tb  Tb4  1  0.585046  0.784960  0.878750  1
  Tb  Tb5  1  0.589303  0.208035  0.381022  1
  Tb  Tb6  1  0.410697  0.791965  0.381022  1
  Tb  Tb7  1  0.414954  0.215040  0.878750  1
  Tb  Tb8  1  0.208035  0.410697  0.618978  1
  Tb  Tb9  1  0.215040  0.585046  0.121250  1
  Tb  Tb10  1  0.784960  0.414954  0.121250  1
  Tb  Tb11  1  0.791965  0.589303  0.618978  1
  Tb  Tb12  1  0.915216  0.715247  0.121296  1
  Tb  Tb13  1  0.910747  0.291180  0.618705  1
  Tb  Tb14  1  0.089253  0.708820  0.618705  1
  Tb  Tb15  1  0.084784  0.284753  0.121296  1
  Tb  Tb16  1  0.500000  0.500000  0.500000  1
  Ho  Ho17  1  0.000000  0.000000  0.500000  1
  Mg  Mg18  1  0.000000  0.000000  0.000000  1
  Mg  Mg19  1  0.500000  0.500000  0.000000  1
  Ir  Ir20  1  0.846572  0.152773  0.250873  1
  Ir  Ir21  1  0.847227  0.846572  0.749127  1
  Ir  Ir22  1  0.152773  0.153428  0.749127  1
  Ir  Ir23  1  0.153428  0.847227  0.250873  1
  Ir  Ir24  1  0.654751  0.346601  0.748981  1
  Ir  Ir25  1  0.653399  0.654751  0.251019  1
  Ir  Ir26  1  0.346601  0.345249  0.251019  1
  Ir  Ir27  1  0.345249  0.653399  0.748981  1
  Ir  Ir28  1  0.500000  0.000000  0.117933  1
  Ir  Ir29  1  0.500000  0.000000  0.627201  1
  Ir  Ir30  1  0.000000  0.500000  0.882067  1
  Ir  Ir31  1  0.000000  0.500000  0.372799  1
