# generated using pymatgen
data_Dy3Tm9TlCo4Ru
_symmetry_space_group_name_H-M   'P 1'
_cell_length_a   8.22071708
_cell_length_b   8.22071658
_cell_length_c   8.22029569
_cell_angle_alpha   110.94453619
_cell_angle_beta   111.04691688
_cell_angle_gamma   106.46564469
_symmetry_Int_Tables_number   1
_chemical_formula_structural   Dy3Tm9TlCo4Ru
_chemical_formula_sum   'Dy3 Tm9 Tl1 Co4 Ru1'
_cell_volume   426.75723339
_cell_formula_units_Z   1
loop_
 _symmetry_equiv_pos_site_id
 _symmetry_equiv_pos_as_xyz
  1  'x, y, z'
loop_
 _atom_site_type_symbol
 _atom_site_label
 _atom_site_symmetry_multiplicity
 _atom_site_fract_x
 _atom_site_fract_y
 _atom_site_fract_z
 _atom_site_occupancy
  Dy  Dy0  1  0.285203  0.185745  0.470949  1
  Dy  Dy1  1  0.715382  0.815043  0.530424  1
  Dy  Dy2  1  0.284877  0.813955  0.098831  1
  Tm  Tm3  1  0.716371  0.184988  0.901359  1
  Tm  Tm4  1  0.620390  0.313169  0.306193  1
  Tm  Tm5  1  0.380025  0.687326  0.693398  1
  Tm  Tm6  1  0.006071  0.313372  0.693398  1
  Tm  Tm7  1  0.993026  0.685804  0.306193  1
  Tm  Tm8  1  0.216285  0.410095  0.192801  1
  Tm  Tm9  1  0.782696  0.588682  0.806767  1
  Tm  Tm10  1  0.218086  0.024071  0.806767  1
  Tm  Tm11  1  0.782705  0.976515  0.192801  1
  Tl  Tl12  1  0.500130  0.499826  0.999956  1
  Co  Co13  1  0.998962  0.376867  0.375829  1
  Co  Co14  1  0.000291  0.622539  0.622830  1
  Co  Co15  1  0.388542  0.888888  0.501580  1
  Co  Co16  1  0.612691  0.113039  0.501580  1
  Ru  Ru17  1  0.998270  0.000073  0.998343  1
