# generated using pymatgen
data_Pr8Cu3Si12Hg
_symmetry_space_group_name_H-M   'P 1'
_cell_length_a   8.20543500
_cell_length_b   8.20543511
_cell_length_c   8.72979600
_cell_angle_alpha   90.00000000
_cell_angle_beta   90.00000000
_cell_angle_gamma   120.00000358
_symmetry_Int_Tables_number   1
_chemical_formula_structural   Pr8Cu3Si12Hg
_chemical_formula_sum   'Pr8 Cu3 Si12 Hg1'
_cell_volume   509.02362115
_cell_formula_units_Z   1
loop_
 _symmetry_equiv_pos_site_id
 _symmetry_equiv_pos_as_xyz
  1  'x, y, z'
loop_
 _atom_site_type_symbol
 _atom_site_label
 _atom_site_symmetry_multiplicity
 _atom_site_fract_x
 _atom_site_fract_y
 _atom_site_fract_z
 _atom_site_occupancy
  Pr  Pr0  1  0.497667  0.502333  0.746037  1
  Pr  Pr1  1  0.498479  0.501521  0.253532  1
  Pr  Pr2  1  0.004666  0.502333  0.746037  1
  Pr  Pr3  1  0.003042  0.501521  0.253532  1
  Pr  Pr4  1  0.497667  0.995334  0.746037  1
  Pr  Pr5  1  0.498479  0.996958  0.253532  1
  Pr  Pr6  1  0.000000  0.000000  0.746922  1
  Pr  Pr7  1  0.000000  0.000000  0.253964  1
  Cu  Cu8  1  0.333333  0.666667  0.001134  1
  Cu  Cu9  1  0.333333  0.666667  0.498802  1
  Cu  Cu10  1  0.666667  0.333333  0.500742  1
  Si  Si11  1  0.841943  0.158057  0.002061  1
  Si  Si12  1  0.171567  0.828433  0.999017  1
  Si  Si13  1  0.316114  0.158057  0.002061  1
  Si  Si14  1  0.168788  0.831212  0.499507  1
  Si  Si15  1  0.656868  0.828433  0.999017  1
  Si  Si16  1  0.830564  0.169436  0.500634  1
  Si  Si17  1  0.841943  0.683886  0.002061  1
  Si  Si18  1  0.662425  0.831212  0.499507  1
  Si  Si19  1  0.171567  0.343132  0.999017  1
  Si  Si20  1  0.338871  0.169436  0.500634  1
  Si  Si21  1  0.168788  0.337575  0.499507  1
  Si  Si22  1  0.830564  0.661129  0.500634  1
  Hg  Hg23  1  0.666667  0.333333  0.996066  1
