# generated using pymatgen
data_Pr7Nd3OsRu3
_symmetry_space_group_name_H-M   'P 1'
_cell_length_a   8.90966837
_cell_length_b   8.92603252
_cell_length_c   7.44499710
_cell_angle_alpha   83.86241081
_cell_angle_beta   83.84244011
_cell_angle_gamma   43.93736443
_symmetry_Int_Tables_number   1
_chemical_formula_structural   Pr7Nd3OsRu3
_chemical_formula_sum   'Pr7 Nd3 Os1 Ru3'
_cell_volume   408.08308292
_cell_formula_units_Z   1
loop_
 _symmetry_equiv_pos_site_id
 _symmetry_equiv_pos_as_xyz
  1  'x, y, z'
loop_
 _atom_site_type_symbol
 _atom_site_label
 _atom_site_symmetry_multiplicity
 _atom_site_fract_x
 _atom_site_fract_y
 _atom_site_fract_z
 _atom_site_occupancy
  Pr  Pr0  1  0.019149  0.796292  0.915504  1
  Pr  Pr1  1  0.202706  0.979758  0.586561  1
  Pr  Pr2  1  0.980731  0.203295  0.086194  1
  Pr  Pr3  1  0.795246  0.019919  0.414144  1
  Pr  Pr4  1  0.358785  0.209625  0.813780  1
  Pr  Pr5  1  0.794434  0.639753  0.684030  1
  Pr  Pr6  1  0.639296  0.792565  0.185468  1
  Nd  Nd7  1  0.208025  0.359617  0.314955  1
  Nd  Nd8  1  0.573432  0.426348  0.749762  1
  Nd  Nd9  1  0.424981  0.573823  0.251248  1
  Os  Os10  1  0.179572  0.600509  0.573888  1
  Ru  Ru11  1  0.397462  0.823616  0.925304  1
  Ru  Ru12  1  0.825790  0.396752  0.423833  1
  Ru  Ru13  1  0.600390  0.178127  0.075327  1
