# generated using pymatgen
data_CeTh3(B10Rh)2
_symmetry_space_group_name_H-M   'P 1'
_cell_length_a   4.19306700
_cell_length_b   5.72279237
_cell_length_c   11.43576390
_cell_angle_alpha   89.99333543
_cell_angle_beta   90.00000000
_cell_angle_gamma   90.00000000
_symmetry_Int_Tables_number   1
_chemical_formula_structural   CeTh3(B10Rh)2
_chemical_formula_sum   'Ce1 Th3 B20 Rh2'
_cell_volume   274.41318176
_cell_formula_units_Z   1
loop_
 _symmetry_equiv_pos_site_id
 _symmetry_equiv_pos_as_xyz
  1  'x, y, z'
loop_
 _atom_site_type_symbol
 _atom_site_label
 _atom_site_symmetry_multiplicity
 _atom_site_fract_x
 _atom_site_fract_y
 _atom_site_fract_z
 _atom_site_occupancy
  Ce  Ce0  1  0.500000  0.199631  0.362543  1
  Th  Th1  1  0.500000  0.298304  0.863616  1
  Th  Th2  1  0.500000  0.701545  0.137984  1
  Th  Th3  1  0.500000  0.797709  0.634484  1
  B  B4  1  0.000000  0.118873  0.542580  1
  B  B5  1  0.000000  0.883150  0.456371  1
  B  B6  1  0.000000  0.618003  0.957000  1
  B  B7  1  0.000000  0.381971  0.043407  1
  B  B8  1  0.000000  0.137642  0.697266  1
  B  B9  1  0.000000  0.862092  0.302516  1
  B  B10  1  0.302119  0.217324  0.119603  1
  B  B11  1  0.301951  0.782891  0.880734  1
  B  B12  1  0.697899  0.717540  0.381469  1
  B  B13  1  0.698053  0.283202  0.618631  1
  B  B14  1  0.698049  0.782891  0.880734  1
  B  B15  1  0.697881  0.217324  0.119603  1
  B  B16  1  0.301947  0.283202  0.618631  1
  B  B17  1  0.302101  0.717540  0.381469  1
  B  B18  1  0.000000  0.053195  0.192979  1
  B  B19  1  0.000000  0.946683  0.807108  1
  B  B20  1  0.000000  0.553000  0.307882  1
  B  B21  1  0.000000  0.446316  0.692674  1
  B  B22  1  0.000000  0.361703  0.198264  1
  B  B23  1  0.000000  0.637425  0.802328  1
  Rh  Rh24  1  0.000000  0.500539  0.500040  1
  Rh  Rh25  1  0.000000  0.000309  0.000081  1
