# generated using pymatgen
data_Y7Ho5Co4SnRh
_symmetry_space_group_name_H-M   'P 1'
_cell_length_a   8.31533588
_cell_length_b   8.31533852
_cell_length_c   8.30469572
_cell_angle_alpha   110.98733306
_cell_angle_beta   110.54157351
_cell_angle_gamma   106.96927922
_symmetry_Int_Tables_number   1
_chemical_formula_structural   Y7Ho5Co4SnRh
_chemical_formula_sum   'Y7 Ho5 Co4 Sn1 Rh1'
_cell_volume   441.09393842
_cell_formula_units_Z   1
loop_
 _symmetry_equiv_pos_site_id
 _symmetry_equiv_pos_as_xyz
  1  'x, y, z'
loop_
 _atom_site_type_symbol
 _atom_site_label
 _atom_site_symmetry_multiplicity
 _atom_site_fract_x
 _atom_site_fract_y
 _atom_site_fract_z
 _atom_site_occupancy
  Y  Y0  1  0.409612  0.214091  0.195138  1
  Y  Y1  1  0.591335  0.786553  0.805457  1
  Y  Y2  1  0.018904  0.214123  0.805457  1
  Y  Y3  1  0.981048  0.785527  0.195138  1
  Y  Y4  1  0.185997  0.289833  0.475829  1
  Y  Y5  1  0.813738  0.709802  0.523541  1
  Y  Y6  1  0.186020  0.709680  0.895699  1
  Ho  Ho7  1  0.815203  0.290341  0.105545  1
  Ho  Ho8  1  0.313784  0.621518  0.307453  1
  Ho  Ho9  1  0.686025  0.378093  0.692967  1
  Ho  Ho10  1  0.314874  0.006942  0.692967  1
  Ho  Ho11  1  0.685935  0.993670  0.307453  1
  Co  Co12  1  0.379659  0.000114  0.379773  1
  Co  Co13  1  0.620345  0.000219  0.620564  1
  Co  Co14  1  0.110416  0.610840  0.498078  1
  Co  Co15  1  0.887238  0.387662  0.498078  1
  Sn  Sn16  1  0.499830  0.500086  0.999916  1
  Rh  Rh17  1  0.000038  0.000907  0.000945  1
