# generated using pymatgen
data_CeY2Al7Cu2
_symmetry_space_group_name_H-M   'P 1'
_cell_length_a   9.13184313
_cell_length_b   9.13184344
_cell_length_c   9.13184400
_cell_angle_alpha   35.21086450
_cell_angle_beta   35.21086177
_cell_angle_gamma   35.21085832
_symmetry_Int_Tables_number   1
_chemical_formula_structural   CeY2Al7Cu2
_chemical_formula_sum   'Ce1 Y2 Al7 Cu2'
_cell_volume   226.12871402
_cell_formula_units_Z   1
loop_
 _symmetry_equiv_pos_site_id
 _symmetry_equiv_pos_as_xyz
  1  'x, y, z'
loop_
 _atom_site_type_symbol
 _atom_site_label
 _atom_site_symmetry_multiplicity
 _atom_site_fract_x
 _atom_site_fract_y
 _atom_site_fract_z
 _atom_site_occupancy
  Ce  Ce0  1  0.000000  0.000000  0.000000  1
  Y  Y1  1  0.858950  0.858950  0.858950  1
  Y  Y2  1  0.141050  0.141050  0.141050  1
  Al  Al3  1  0.417815  0.417815  0.926838  1
  Al  Al4  1  0.926838  0.417815  0.417815  1
  Al  Al5  1  0.417815  0.926838  0.417815  1
  Al  Al6  1  0.500000  0.500000  0.500000  1
  Al  Al7  1  0.582185  0.073162  0.582185  1
  Al  Al8  1  0.073162  0.582185  0.582185  1
  Al  Al9  1  0.582185  0.582185  0.073162  1
  Cu  Cu10  1  0.664553  0.664553  0.664553  1
  Cu  Cu11  1  0.335447  0.335447  0.335447  1
