# generated using pymatgen
data_SmEr2ZnGa7Ag3
_symmetry_space_group_name_H-M   'P 1'
_cell_length_a   4.33395650
_cell_length_b   8.35591104
_cell_length_c   8.38201868
_cell_angle_alpha   70.11986083
_cell_angle_beta   75.01732717
_cell_angle_gamma   74.96940267
_symmetry_Int_Tables_number   1
_chemical_formula_structural   SmEr2ZnGa7Ag3
_chemical_formula_sum   'Sm1 Er2 Zn1 Ga7 Ag3'
_cell_volume   270.79972662
_cell_formula_units_Z   1
loop_
 _symmetry_equiv_pos_site_id
 _symmetry_equiv_pos_as_xyz
  1  'x, y, z'
loop_
 _atom_site_type_symbol
 _atom_site_label
 _atom_site_symmetry_multiplicity
 _atom_site_fract_x
 _atom_site_fract_y
 _atom_site_fract_z
 _atom_site_occupancy
  Sm  Sm0  1  0.498857  0.500584  0.501703  1
  Er  Er1  1  0.201858  0.796466  0.799818  1
  Er  Er2  1  0.799468  0.202705  0.198358  1
  Zn  Zn3  1  0.356256  0.365077  0.922410  1
  Ga  Ga4  1  0.644022  0.638556  0.073399  1
  Ga  Ga5  1  0.355435  0.927895  0.361234  1
  Ga  Ga6  1  0.642782  0.073920  0.640516  1
  Ga  Ga7  1  0.162877  0.469196  0.205051  1
  Ga  Ga8  1  0.841213  0.525384  0.792189  1
  Ga  Ga9  1  0.158756  0.210049  0.472441  1
  Ga  Ga10  1  0.840420  0.789751  0.529406  1
  Ag  Ag11  1  0.498724  0.001487  0.001065  1
  Ag  Ag12  1  0.000210  0.805238  0.194343  1
  Ag  Ag13  1  0.999121  0.193691  0.808067  1
