# generated using pymatgen
data_Tb3YAl14(Ga2Ir3)2
_symmetry_space_group_name_H-M   'P 1'
_cell_length_a   7.53971406
_cell_length_b   7.53901090
_cell_length_c   9.55958100
_cell_angle_alpha   90.00000000
_cell_angle_beta   90.00000000
_cell_angle_gamma   119.51581473
_symmetry_Int_Tables_number   1
_chemical_formula_structural   Tb3YAl14(Ga2Ir3)2
_chemical_formula_sum   'Tb3 Y1 Al14 Ga4 Ir6'
_cell_volume   472.86485534
_cell_formula_units_Z   1
loop_
 _symmetry_equiv_pos_site_id
 _symmetry_equiv_pos_as_xyz
  1  'x, y, z'
loop_
 _atom_site_type_symbol
 _atom_site_label
 _atom_site_symmetry_multiplicity
 _atom_site_fract_x
 _atom_site_fract_y
 _atom_site_fract_z
 _atom_site_occupancy
  Tb  Tb0  1  0.996970  0.672718  0.250000  1
  Tb  Tb1  1  0.003049  0.327270  0.750000  1
  Tb  Tb2  1  0.669896  0.993393  0.250000  1
  Y  Y3  1  0.330138  0.006560  0.750000  1
  Al  Al4  1  0.001335  0.334884  0.072740  1
  Al  Al5  1  0.998728  0.665195  0.927270  1
  Al  Al6  1  0.998728  0.665195  0.572730  1
  Al  Al7  1  0.335323  0.001960  0.427176  1
  Al  Al8  1  0.001335  0.334884  0.427260  1
  Al  Al9  1  0.664593  0.998027  0.572869  1
  Al  Al10  1  0.664593  0.998027  0.927131  1
  Al  Al11  1  0.335323  0.001960  0.072824  1
  Al  Al12  1  0.333843  0.334095  0.553252  1
  Al  Al13  1  0.666158  0.665829  0.446759  1
  Al  Al14  1  0.666158  0.665829  0.053241  1
  Al  Al15  1  0.333843  0.334095  0.946748  1
  Al  Al16  1  0.548288  0.338886  0.250000  1
  Al  Al17  1  0.451619  0.661113  0.750000  1
  Ga  Ga18  1  0.130148  0.130755  0.250000  1
  Ga  Ga19  1  0.869885  0.869380  0.750000  1
  Ga  Ga20  1  0.338468  0.545832  0.250000  1
  Ga  Ga21  1  0.661614  0.454176  0.750000  1
  Ir  Ir22  1  0.671108  0.328061  0.002402  1
  Ir  Ir23  1  0.328848  0.671906  0.997532  1
  Ir  Ir24  1  0.328848  0.671906  0.502468  1
  Ir  Ir25  1  0.671108  0.328061  0.497598  1
  Ir  Ir26  1  0.000024  0.000002  0.999975  1
  Ir  Ir27  1  0.000024  0.000002  0.500025  1
