# generated using pymatgen
data_Th2Al4ZnCu
_symmetry_space_group_name_H-M   'P 1'
_cell_length_a   9.33153899
_cell_length_b   9.33153741
_cell_length_c   4.29340000
_cell_angle_alpha   90.00000000
_cell_angle_beta   90.00000000
_cell_angle_gamma   153.93200010
_symmetry_Int_Tables_number   1
_chemical_formula_structural   Th2Al4ZnCu
_chemical_formula_sum   'Th2 Al4 Zn1 Cu1'
_cell_volume   164.28767723
_cell_formula_units_Z   1
loop_
 _symmetry_equiv_pos_site_id
 _symmetry_equiv_pos_as_xyz
  1  'x, y, z'
loop_
 _atom_site_type_symbol
 _atom_site_label
 _atom_site_symmetry_multiplicity
 _atom_site_fract_x
 _atom_site_fract_y
 _atom_site_fract_z
 _atom_site_occupancy
  Th  Th0  1  0.896727  0.103273  0.750000  1
  Th  Th1  1  0.104455  0.895545  0.250000  1
  Al  Al2  1  0.254319  0.745681  0.750000  1
  Al  Al3  1  0.752701  0.247299  0.250000  1
  Al  Al4  1  0.534156  0.465844  0.750000  1
  Al  Al5  1  0.460900  0.539100  0.250000  1
  Zn  Zn6  1  0.669904  0.330096  0.750000  1
  Cu  Cu7  1  0.326838  0.673162  0.250000  1
