# generated using pymatgen
data_NdGaHgPd3
_symmetry_space_group_name_H-M   'P 1'
_cell_length_a   5.56451828
_cell_length_b   5.56451935
_cell_length_c   5.25434000
_cell_angle_alpha   58.02721736
_cell_angle_beta   58.02721048
_cell_angle_gamma   60.00000684
_symmetry_Int_Tables_number   1
_chemical_formula_structural   NdGaHgPd3
_chemical_formula_sum   'Nd1 Ga1 Hg1 Pd3'
_cell_volume   111.49186777
_cell_formula_units_Z   1
loop_
 _symmetry_equiv_pos_site_id
 _symmetry_equiv_pos_as_xyz
  1  'x, y, z'
loop_
 _atom_site_type_symbol
 _atom_site_label
 _atom_site_symmetry_multiplicity
 _atom_site_fract_x
 _atom_site_fract_y
 _atom_site_fract_z
 _atom_site_occupancy
  Nd  Nd0  1  0.246584  0.246584  0.260247  1
  Ga  Ga1  1  0.629362  0.629362  0.111913  1
  Hg  Hg2  1  0.993930  0.993930  0.018210  1
  Pd  Pd3  1  0.626842  0.126440  0.619877  1
  Pd  Pd4  1  0.126440  0.626842  0.619877  1
  Pd  Pd5  1  0.626842  0.626842  0.619877  1
