# generated using pymatgen
data_ErTh3(CdPd2)2
_symmetry_space_group_name_H-M   'P 1'
_cell_length_a   7.87842434
_cell_length_b   7.87842434
_cell_length_c   3.81121500
_cell_angle_alpha   90.00000000
_cell_angle_beta   90.00000000
_cell_angle_gamma   90.49444373
_symmetry_Int_Tables_number   1
_chemical_formula_structural   ErTh3(CdPd2)2
_chemical_formula_sum   'Er1 Th3 Cd2 Pd4'
_cell_volume   236.55166808
_cell_formula_units_Z   1
loop_
 _symmetry_equiv_pos_site_id
 _symmetry_equiv_pos_as_xyz
  1  'x, y, z'
loop_
 _atom_site_type_symbol
 _atom_site_label
 _atom_site_symmetry_multiplicity
 _atom_site_fract_x
 _atom_site_fract_y
 _atom_site_fract_z
 _atom_site_occupancy
  Er  Er0  1  0.825597  0.674403  0.500000  1
  Th  Th1  1  0.676422  0.172406  0.500000  1
  Th  Th2  1  0.327594  0.823578  0.500000  1
  Th  Th3  1  0.171162  0.328838  0.500000  1
  Cd  Cd4  1  0.998020  0.995907  0.000000  1
  Cd  Cd5  1  0.504093  0.501980  0.000000  1
  Pd  Pd6  1  0.127191  0.628254  0.000000  1
  Pd  Pd7  1  0.871746  0.372809  0.000000  1
  Pd  Pd8  1  0.626768  0.873232  0.000000  1
  Pd  Pd9  1  0.371407  0.128593  0.000000  1
