# generated using pymatgen
data_PrSeO3F
_symmetry_space_group_name_H-M   'P 1'
_cell_length_a   4.63082824
_cell_length_b   7.32629100
_cell_length_c   6.82536256
_cell_angle_alpha   93.18524054
_cell_angle_beta   96.41266430
_cell_angle_gamma   94.86015619
_symmetry_Int_Tables_number   1
_chemical_formula_structural   PrSeO3F
_chemical_formula_sum   'Pr2 Se2 O6 F2'
_cell_volume   228.79148780
_cell_formula_units_Z   2
loop_
 _symmetry_equiv_pos_site_id
 _symmetry_equiv_pos_as_xyz
  1  'x, y, z'
loop_
 _atom_site_type_symbol
 _atom_site_label
 _atom_site_symmetry_multiplicity
 _atom_site_fract_x
 _atom_site_fract_y
 _atom_site_fract_z
 _atom_site_occupancy
  Pr  Pr0  1  0.464439  0.240739  0.353874  1
  Pr  Pr1  1  0.535557  0.759262  0.646126  1
  Se  Se2  1  0.313135  0.719641  0.155178  1
  Se  Se3  1  0.686867  0.280358  0.844820  1
  O  O4  1  0.431356  0.235372  0.999464  1
  O  O5  1  0.368754  0.909690  0.326432  1
  O  O6  1  0.478605  0.574080  0.319795  1
  O  O7  1  0.521392  0.425919  0.680206  1
  O  O8  1  0.631245  0.090308  0.673566  1
  O  O9  1  0.568644  0.764625  0.000536  1
  F  F10  1  0.961857  0.259803  0.323589  1
  F  F11  1  0.038150  0.740207  0.676411  1
