# generated using pymatgen
data_BaPmAg3Sn
_symmetry_space_group_name_H-M   'P 1'
_cell_length_a   4.88325900
_cell_length_b   4.88325895
_cell_length_c   8.20529700
_cell_angle_alpha   90.00000000
_cell_angle_beta   90.00000000
_cell_angle_gamma   120.00000712
_symmetry_Int_Tables_number   1
_chemical_formula_structural   BaPmAg3Sn
_chemical_formula_sum   'Ba1 Pm1 Ag3 Sn1'
_cell_volume   169.45111068
_cell_formula_units_Z   1
loop_
 _symmetry_equiv_pos_site_id
 _symmetry_equiv_pos_as_xyz
  1  'x, y, z'
loop_
 _atom_site_type_symbol
 _atom_site_label
 _atom_site_symmetry_multiplicity
 _atom_site_fract_x
 _atom_site_fract_y
 _atom_site_fract_z
 _atom_site_occupancy
  Ba  Ba0  1  0.000000  0.000000  0.993796  1
  Pm  Pm1  1  0.000000  0.000000  0.505900  1
  Ag  Ag2  1  0.333333  0.666666  0.302076  1
  Ag  Ag3  1  0.666667  0.333333  0.697781  1
  Ag  Ag4  1  0.333333  0.666666  0.703785  1
  Sn  Sn5  1  0.666667  0.333333  0.296661  1
