# generated using pymatgen
data_PrY2ThAl16(GaIr3)2
_symmetry_space_group_name_H-M   'P 1'
_cell_length_a   7.60555700
_cell_length_b   7.60785884
_cell_length_c   9.53037200
_cell_angle_alpha   90.00000000
_cell_angle_beta   90.00000000
_cell_angle_gamma   119.45949563
_symmetry_Int_Tables_number   1
_chemical_formula_structural   PrY2ThAl16(GaIr3)2
_chemical_formula_sum   'Pr1 Y2 Th1 Al16 Ga2 Ir6'
_cell_volume   480.14638017
_cell_formula_units_Z   1
loop_
 _symmetry_equiv_pos_site_id
 _symmetry_equiv_pos_as_xyz
  1  'x, y, z'
loop_
 _atom_site_type_symbol
 _atom_site_label
 _atom_site_symmetry_multiplicity
 _atom_site_fract_x
 _atom_site_fract_y
 _atom_site_fract_z
 _atom_site_occupancy
  Pr  Pr0  1  0.669744  0.990569  0.250000  1
  Y  Y1  1  0.004080  0.328166  0.750000  1
  Y  Y2  1  0.327527  0.002952  0.750000  1
  Th  Th3  1  0.997018  0.673594  0.250000  1
  Al  Al4  1  0.871435  0.872205  0.750000  1
  Al  Al5  1  0.002853  0.332761  0.069227  1
  Al  Al6  1  0.999164  0.663954  0.918842  1
  Al  Al7  1  0.999164  0.663954  0.581158  1
  Al  Al8  1  0.338661  0.006739  0.430766  1
  Al  Al9  1  0.002853  0.332761  0.430773  1
  Al  Al10  1  0.664462  0.000643  0.578510  1
  Al  Al11  1  0.664462  0.000643  0.921490  1
  Al  Al12  1  0.338661  0.006739  0.069234  1
  Al  Al13  1  0.332229  0.332289  0.559376  1
  Al  Al14  1  0.663490  0.664688  0.460512  1
  Al  Al15  1  0.663490  0.664688  0.039488  1
  Al  Al16  1  0.332229  0.332289  0.940624  1
  Al  Al17  1  0.659174  0.449339  0.750000  1
  Al  Al18  1  0.545873  0.340278  0.250000  1
  Al  Al19  1  0.449207  0.660148  0.750000  1
  Ga  Ga20  1  0.134798  0.135924  0.250000  1
  Ga  Ga21  1  0.341049  0.543727  0.250000  1
  Ir  Ir22  1  0.672119  0.330332  0.000187  1
  Ir  Ir23  1  0.326046  0.671116  0.997867  1
  Ir  Ir24  1  0.326046  0.671116  0.502133  1
  Ir  Ir25  1  0.672119  0.330332  0.499813  1
  Ir  Ir26  1  0.001021  0.999027  0.997666  1
  Ir  Ir27  1  0.001021  0.999027  0.502334  1
