# generated using pymatgen
data_Ac3Tm(MgIr)4
_symmetry_space_group_name_H-M   'P 1'
_cell_length_a   4.26760000
_cell_length_b   7.45684373
_cell_length_c   8.93359400
_cell_angle_alpha   90.10994542
_cell_angle_beta   90.00000000
_cell_angle_gamma   90.00000000
_symmetry_Int_Tables_number   1
_chemical_formula_structural   Ac3Tm(MgIr)4
_chemical_formula_sum   'Ac3 Tm1 Mg4 Ir4'
_cell_volume   284.29168666
_cell_formula_units_Z   1
loop_
 _symmetry_equiv_pos_site_id
 _symmetry_equiv_pos_as_xyz
  1  'x, y, z'
loop_
 _atom_site_type_symbol
 _atom_site_label
 _atom_site_symmetry_multiplicity
 _atom_site_fract_x
 _atom_site_fract_y
 _atom_site_fract_z
 _atom_site_occupancy
  Ac  Ac0  1  0.250000  0.536880  0.181964  1
  Ac  Ac1  1  0.750000  0.460557  0.815915  1
  Ac  Ac2  1  0.750000  0.965301  0.675481  1
  Tm  Tm3  1  0.250000  0.043042  0.325338  1
  Mg  Mg4  1  0.250000  0.637975  0.548798  1
  Mg  Mg5  1  0.750000  0.362003  0.437303  1
  Mg  Mg6  1  0.750000  0.870607  0.064215  1
  Mg  Mg7  1  0.250000  0.123535  0.958531  1
  Ir  Ir8  1  0.250000  0.756906  0.873848  1
  Ir  Ir9  1  0.750000  0.226618  0.138529  1
  Ir  Ir10  1  0.750000  0.757890  0.370176  1
  Ir  Ir11  1  0.250000  0.258688  0.609901  1
