# generated using pymatgen
data_Mn3CoP6SN12
_symmetry_space_group_name_H-M   'P 1'
_cell_length_a   7.17986778
_cell_length_b   7.20519009
_cell_length_c   7.20518956
_cell_angle_alpha   109.54230764
_cell_angle_beta   109.40004838
_cell_angle_gamma   109.40004303
_symmetry_Int_Tables_number   1
_chemical_formula_structural   Mn3CoP6SN12
_chemical_formula_sum   'Mn3 Co1 P6 S1 N12'
_cell_volume   287.18787893
_cell_formula_units_Z   1
loop_
 _symmetry_equiv_pos_site_id
 _symmetry_equiv_pos_as_xyz
  1  'x, y, z'
loop_
 _atom_site_type_symbol
 _atom_site_label
 _atom_site_symmetry_multiplicity
 _atom_site_fract_x
 _atom_site_fract_y
 _atom_site_fract_z
 _atom_site_occupancy
  Mn  Mn0  1  0.000905  0.671524  0.000000  1
  Mn  Mn1  1  0.329381  0.328477  0.328477  1
  Mn  Mn2  1  0.000905  0.000000  0.671524  1
  Co  Co3  1  0.660285  0.000000  0.000000  1
  P  P4  1  0.751146  0.498309  0.248824  1
  P  P5  1  0.502323  0.751176  0.249486  1
  P  P6  1  0.751146  0.248824  0.498309  1
  P  P7  1  0.252837  0.750514  0.501691  1
  P  P8  1  0.502323  0.249486  0.751176  1
  P  P9  1  0.252837  0.501691  0.750514  1
  S  S10  1  0.979693  0.000000  0.000000  1
  N  N11  1  0.728623  0.443069  0.000000  1
  N  N12  1  0.445220  0.730334  0.000000  1
  N  N13  1  0.714887  0.269667  0.269667  1
  N  N14  1  0.275942  0.718787  0.274992  1
  N  N15  1  0.557155  0.556205  0.281214  1
  N  N16  1  0.728623  0.000000  0.443069  1
  N  N17  1  0.000950  0.725009  0.443794  1
  N  N18  1  0.557155  0.281214  0.556205  1
  N  N19  1  0.285554  0.556930  0.556930  1
  N  N20  1  0.275942  0.274992  0.718787  1
  N  N21  1  0.445220  0.000000  0.730334  1
  N  N22  1  0.000950  0.443794  0.725009  1
