# generated using pymatgen
data_Yb20(TlAg3)3
_symmetry_space_group_name_H-M   'P 1'
_cell_length_a   8.06314000
_cell_length_b   8.06314000
_cell_length_c   14.49106700
_cell_angle_alpha   90.00000000
_cell_angle_beta   90.00000000
_cell_angle_gamma   90.00000000
_symmetry_Int_Tables_number   1
_chemical_formula_structural   Yb20(TlAg3)3
_chemical_formula_sum   'Yb20 Tl3 Ag9'
_cell_volume   942.12551448
_cell_formula_units_Z   1
loop_
 _symmetry_equiv_pos_site_id
 _symmetry_equiv_pos_as_xyz
  1  'x, y, z'
loop_
 _atom_site_type_symbol
 _atom_site_label
 _atom_site_symmetry_multiplicity
 _atom_site_fract_x
 _atom_site_fract_y
 _atom_site_fract_z
 _atom_site_occupancy
  Yb  Yb0  1  0.000000  0.000000  0.754430  1
  Yb  Yb1  1  0.500000  0.500000  0.251355  1
  Yb  Yb2  1  0.000000  0.000000  0.245570  1
  Yb  Yb3  1  0.500000  0.500000  0.748645  1
  Yb  Yb4  1  0.170718  0.662764  0.105582  1
  Yb  Yb5  1  0.668410  0.166438  0.608228  1
  Yb  Yb6  1  0.829282  0.337236  0.105582  1
  Yb  Yb7  1  0.331590  0.833562  0.608228  1
  Yb  Yb8  1  0.337236  0.170718  0.105582  1
  Yb  Yb9  1  0.833562  0.668410  0.608228  1
  Yb  Yb10  1  0.662764  0.829282  0.105582  1
  Yb  Yb11  1  0.166438  0.331590  0.608228  1
  Yb  Yb12  1  0.337236  0.829282  0.894418  1
  Yb  Yb13  1  0.833562  0.331590  0.391772  1
  Yb  Yb14  1  0.662764  0.170718  0.894418  1
  Yb  Yb15  1  0.166438  0.668410  0.391772  1
  Yb  Yb16  1  0.170718  0.337236  0.894418  1
  Yb  Yb17  1  0.668410  0.833562  0.391772  1
  Yb  Yb18  1  0.829282  0.662764  0.894418  1
  Yb  Yb19  1  0.331590  0.166438  0.391772  1
  Tl  Tl20  1  0.000000  0.000000  0.500000  1
  Tl  Tl21  1  0.000000  0.000000  0.000000  1
  Tl  Tl22  1  0.500000  0.500000  0.500000  1
  Ag  Ag23  1  0.627683  0.128213  0.248616  1
  Ag  Ag24  1  0.128213  0.627683  0.751384  1
  Ag  Ag25  1  0.871787  0.372317  0.751384  1
  Ag  Ag26  1  0.372317  0.871787  0.248616  1
  Ag  Ag27  1  0.372317  0.128213  0.751384  1
  Ag  Ag28  1  0.871787  0.627683  0.248616  1
  Ag  Ag29  1  0.128213  0.372317  0.248616  1
  Ag  Ag30  1  0.627683  0.871787  0.751384  1
  Ag  Ag31  1  0.500000  0.500000  0.000000  1
