# generated using pymatgen
data_Dy3Ho2Sn2Bi
_symmetry_space_group_name_H-M   'P 1'
_cell_length_a   9.02157002
_cell_length_b   9.01537345
_cell_length_c   6.48660700
_cell_angle_alpha   90.00000000
_cell_angle_beta   90.00000000
_cell_angle_gamma   119.97728401
_symmetry_Int_Tables_number   1
_chemical_formula_structural   Dy3Ho2Sn2Bi
_chemical_formula_sum   'Dy6 Ho4 Sn4 Bi2'
_cell_volume   456.99708422
_cell_formula_units_Z   2
loop_
 _symmetry_equiv_pos_site_id
 _symmetry_equiv_pos_as_xyz
  1  'x, y, z'
loop_
 _atom_site_type_symbol
 _atom_site_label
 _atom_site_symmetry_multiplicity
 _atom_site_fract_x
 _atom_site_fract_y
 _atom_site_fract_z
 _atom_site_occupancy
  Dy  Dy0  1  0.994966  0.757270  0.750000  1
  Dy  Dy1  1  0.994966  0.237696  0.250000  1
  Dy  Dy2  1  0.764846  0.764500  0.250000  1
  Dy  Dy3  1  0.764846  0.000346  0.750000  1
  Dy  Dy4  1  0.236492  0.241911  0.750000  1
  Dy  Dy5  1  0.236492  0.994580  0.250000  1
  Ho  Ho6  1  0.331183  0.665592  0.500000  1
  Ho  Ho7  1  0.672931  0.336466  0.000000  1
  Ho  Ho8  1  0.672931  0.336466  0.500000  1
  Ho  Ho9  1  0.331183  0.665592  0.000000  1
  Sn  Sn10  1  0.000905  0.604541  0.250000  1
  Sn  Sn11  1  0.000905  0.396364  0.750000  1
  Sn  Sn12  1  0.604191  0.604846  0.750000  1
  Sn  Sn13  1  0.604191  0.999345  0.250000  1
  Bi  Bi14  1  0.394485  0.001427  0.750000  1
  Bi  Bi15  1  0.394485  0.393058  0.250000  1
