# generated using pymatgen
data_Eu(NiB)2
_symmetry_space_group_name_H-M   'P 1'
_cell_length_a   5.06977908
_cell_length_b   5.06977853
_cell_length_c   6.86188768
_cell_angle_alpha   59.40017181
_cell_angle_beta   59.40018009
_cell_angle_gamma   65.02023959
_symmetry_Int_Tables_number   1
_chemical_formula_structural   Eu(NiB)2
_chemical_formula_sum   'Eu2 Ni4 B4'
_cell_volume   127.45928335
_cell_formula_units_Z   2
loop_
 _symmetry_equiv_pos_site_id
 _symmetry_equiv_pos_as_xyz
  1  'x, y, z'
loop_
 _atom_site_type_symbol
 _atom_site_label
 _atom_site_symmetry_multiplicity
 _atom_site_fract_x
 _atom_site_fract_y
 _atom_site_fract_z
 _atom_site_occupancy
  Eu  Eu0  1  0.121576  0.878424  0.750000  1
  Eu  Eu1  1  0.878424  0.121576  0.250000  1
  Ni  Ni2  1  0.467653  0.283744  0.701336  1
  Ni  Ni3  1  0.716256  0.532347  0.798664  1
  Ni  Ni4  1  0.532347  0.716256  0.298664  1
  Ni  Ni5  1  0.283744  0.467653  0.201336  1
  B  B6  1  0.153620  0.499479  0.526237  1
  B  B7  1  0.500521  0.846380  0.973763  1
  B  B8  1  0.846380  0.500521  0.473763  1
  B  B9  1  0.499479  0.153620  0.026237  1
