# generated using pymatgen
data_Dy2Y6CdHgIrPt
_symmetry_space_group_name_H-M   'P 1'
_cell_length_a   9.67676521
_cell_length_b   9.67676433
_cell_length_c   9.65621900
_cell_angle_alpha   60.07020539
_cell_angle_beta   60.07020837
_cell_angle_gamma   60.19090897
_symmetry_Int_Tables_number   1
_chemical_formula_structural   Dy2Y6CdHgIrPt
_chemical_formula_sum   'Dy4 Y12 Cd2 Hg2 Ir2 Pt2'
_cell_volume   640.96828269
_cell_formula_units_Z   2
loop_
 _symmetry_equiv_pos_site_id
 _symmetry_equiv_pos_as_xyz
  1  'x, y, z'
loop_
 _atom_site_type_symbol
 _atom_site_label
 _atom_site_symmetry_multiplicity
 _atom_site_fract_x
 _atom_site_fract_y
 _atom_site_fract_z
 _atom_site_occupancy
  Dy  Dy0  1  0.350906  0.350906  0.346232  1
  Dy  Dy1  1  0.350906  0.350906  0.951957  1
  Dy  Dy2  1  0.357764  0.940523  0.350857  1
  Dy  Dy3  1  0.940523  0.357764  0.350857  1
  Y  Y4  1  0.806147  0.190606  0.191079  1
  Y  Y5  1  0.190606  0.806147  0.812168  1
  Y  Y6  1  0.190606  0.806147  0.191079  1
  Y  Y7  1  0.806147  0.190606  0.812168  1
  Y  Y8  1  0.191220  0.191220  0.808780  1
  Y  Y9  1  0.810141  0.810141  0.189859  1
  Y  Y10  1  0.937439  0.563696  0.561404  1
  Y  Y11  1  0.563696  0.937439  0.937460  1
  Y  Y12  1  0.563696  0.937439  0.561404  1
  Y  Y13  1  0.937439  0.563696  0.937460  1
  Y  Y14  1  0.562366  0.562366  0.937634  1
  Y  Y15  1  0.937746  0.937746  0.562254  1
  Cd  Cd16  1  0.579800  0.257270  0.581466  1
  Cd  Cd17  1  0.257270  0.579800  0.581466  1
  Hg  Hg18  1  0.584337  0.584337  0.586920  1
  Hg  Hg19  1  0.584337  0.584337  0.244407  1
  Ir  Ir20  1  0.140908  0.571301  0.143897  1
  Ir  Ir21  1  0.571301  0.140908  0.143897  1
  Pt  Pt22  1  0.142351  0.142351  0.146313  1
  Pt  Pt23  1  0.142351  0.142351  0.568985  1
