# generated using pymatgen
data_MgMnCo4P3
_symmetry_space_group_name_H-M   'P 1'
_cell_length_a   3.56285500
_cell_length_b   10.16462600
_cell_length_c   11.68495300
_cell_angle_alpha   90.00000000
_cell_angle_beta   90.00000000
_cell_angle_gamma   90.00000000
_symmetry_Int_Tables_number   1
_chemical_formula_structural   MgMnCo4P3
_chemical_formula_sum   'Mg4 Mn4 Co16 P12'
_cell_volume   423.17160780
_cell_formula_units_Z   4
loop_
 _symmetry_equiv_pos_site_id
 _symmetry_equiv_pos_as_xyz
  1  'x, y, z'
loop_
 _atom_site_type_symbol
 _atom_site_label
 _atom_site_symmetry_multiplicity
 _atom_site_fract_x
 _atom_site_fract_y
 _atom_site_fract_z
 _atom_site_occupancy
  Mg  Mg0  1  0.250000  0.580512  0.705225  1
  Mg  Mg1  1  0.250000  0.919488  0.205225  1
  Mg  Mg2  1  0.750000  0.419488  0.294775  1
  Mg  Mg3  1  0.750000  0.080512  0.794775  1
  Mn  Mn4  1  0.250000  0.713903  0.989443  1
  Mn  Mn5  1  0.250000  0.786097  0.489443  1
  Mn  Mn6  1  0.750000  0.286097  0.010557  1
  Mn  Mn7  1  0.750000  0.213903  0.510557  1
  Co  Co8  1  0.250000  0.407984  0.484218  1
  Co  Co9  1  0.250000  0.092016  0.984218  1
  Co  Co10  1  0.750000  0.592016  0.515782  1
  Co  Co11  1  0.750000  0.907984  0.015782  1
  Co  Co12  1  0.250000  0.221536  0.177212  1
  Co  Co13  1  0.250000  0.278465  0.677212  1
  Co  Co14  1  0.750000  0.778465  0.822788  1
  Co  Co15  1  0.750000  0.721535  0.322788  1
  Co  Co16  1  0.250000  0.885152  0.701207  1
  Co  Co17  1  0.250000  0.614848  0.201207  1
  Co  Co18  1  0.750000  0.114848  0.298793  1
  Co  Co19  1  0.750000  0.385152  0.798793  1
  Co  Co20  1  0.250000  0.466020  0.931001  1
  Co  Co21  1  0.250000  0.033980  0.431001  1
  Co  Co22  1  0.750000  0.533980  0.068999  1
  Co  Co23  1  0.750000  0.966020  0.568999  1
  P  P24  1  0.250000  0.417961  0.114060  1
  P  P25  1  0.250000  0.082039  0.614060  1
  P  P26  1  0.750000  0.582039  0.885940  1
  P  P27  1  0.750000  0.917961  0.385940  1
  P  P28  1  0.250000  0.264683  0.866987  1
  P  P29  1  0.250000  0.235317  0.366987  1
  P  P30  1  0.750000  0.735317  0.133013  1
  P  P31  1  0.750000  0.764683  0.633013  1
  P  P32  1  0.250000  0.596846  0.389390  1
  P  P33  1  0.250000  0.903154  0.889390  1
  P  P34  1  0.750000  0.403154  0.610610  1
  P  P35  1  0.750000  0.096846  0.110610  1
