# generated using pymatgen
data_Tb16Al4Pd3Ru
_symmetry_space_group_name_H-M   'P 1'
_cell_length_a   9.60081466
_cell_length_b   9.65728934
_cell_length_c   9.60081400
_cell_angle_alpha   60.19325396
_cell_angle_beta   59.99999537
_cell_angle_gamma   60.19325155
_symmetry_Int_Tables_number   1
_chemical_formula_structural   Tb16Al4Pd3Ru
_chemical_formula_sum   'Tb16 Al4 Pd3 Ru1'
_cell_volume   631.27529820
_cell_formula_units_Z   1
loop_
 _symmetry_equiv_pos_site_id
 _symmetry_equiv_pos_as_xyz
  1  'x, y, z'
loop_
 _atom_site_type_symbol
 _atom_site_label
 _atom_site_symmetry_multiplicity
 _atom_site_fract_x
 _atom_site_fract_y
 _atom_site_fract_z
 _atom_site_occupancy
  Tb  Tb0  1  0.106362  0.680915  0.106362  1
  Tb  Tb1  1  0.942870  0.942077  0.557526  1
  Tb  Tb2  1  0.941394  0.553290  0.941394  1
  Tb  Tb3  1  0.313597  0.689290  0.313597  1
  Tb  Tb4  1  0.941394  0.553290  0.563920  1
  Tb  Tb5  1  0.309560  0.316686  0.686876  1
  Tb  Tb6  1  0.101690  0.108480  0.101690  1
  Tb  Tb7  1  0.563920  0.553290  0.941394  1
  Tb  Tb8  1  0.101690  0.108480  0.688140  1
  Tb  Tb9  1  0.686876  0.316686  0.686876  1
  Tb  Tb10  1  0.683516  0.689290  0.313597  1
  Tb  Tb11  1  0.686876  0.316686  0.309560  1
  Tb  Tb12  1  0.313597  0.689290  0.683516  1
  Tb  Tb13  1  0.557526  0.942077  0.557526  1
  Tb  Tb14  1  0.688140  0.108480  0.101690  1
  Tb  Tb15  1  0.557526  0.942077  0.942870  1
  Al  Al16  1  0.327885  0.327238  0.327885  1
  Al  Al17  1  0.016991  0.327238  0.327885  1
  Al  Al18  1  0.328602  0.014194  0.328602  1
  Al  Al19  1  0.327885  0.327238  0.016991  1
  Pd  Pd20  1  0.895884  0.891811  0.895884  1
  Pd  Pd21  1  0.895884  0.891811  0.316421  1
  Pd  Pd22  1  0.316421  0.891811  0.895884  1
  Ru  Ru23  1  0.893911  0.318269  0.893911  1
