# generated using pymatgen
data_Nd4Ga18(OsPt)3
_symmetry_space_group_name_H-M   'P 1'
_cell_length_a   7.67933770
_cell_length_b   7.67933731
_cell_length_c   9.66104602
_cell_angle_alpha   89.96737428
_cell_angle_beta   89.96737579
_cell_angle_gamma   119.43294762
_symmetry_Int_Tables_number   1
_chemical_formula_structural   Nd4Ga18(OsPt)3
_chemical_formula_sum   'Nd4 Ga18 Os3 Pt3'
_cell_volume   496.19835572
_cell_formula_units_Z   1
loop_
 _symmetry_equiv_pos_site_id
 _symmetry_equiv_pos_as_xyz
  1  'x, y, z'
loop_
 _atom_site_type_symbol
 _atom_site_label
 _atom_site_symmetry_multiplicity
 _atom_site_fract_x
 _atom_site_fract_y
 _atom_site_fract_z
 _atom_site_occupancy
  Nd  Nd0  1  0.999627  0.670693  0.250788  1
  Nd  Nd1  1  0.003009  0.331933  0.749287  1
  Nd  Nd2  1  0.668067  0.996991  0.250713  1
  Nd  Nd3  1  0.329307  0.000373  0.749212  1
  Ga  Ga4  1  0.123874  0.125918  0.250444  1
  Ga  Ga5  1  0.874082  0.876126  0.749556  1
  Ga  Ga6  1  0.002558  0.330685  0.079215  1
  Ga  Ga7  1  0.996458  0.669644  0.919804  1
  Ga  Ga8  1  0.991284  0.664357  0.577884  1
  Ga  Ga9  1  0.335643  0.008716  0.422116  1
  Ga  Ga10  1  0.998012  0.331240  0.422101  1
  Ga  Ga11  1  0.668760  0.001988  0.577899  1
  Ga  Ga12  1  0.669315  0.997442  0.920785  1
  Ga  Ga13  1  0.330356  0.003542  0.080196  1
  Ga  Ga14  1  0.331737  0.325623  0.557060  1
  Ga  Ga15  1  0.674377  0.668263  0.442940  1
  Ga  Ga16  1  0.672822  0.672769  0.061001  1
  Ga  Ga17  1  0.327231  0.327178  0.938999  1
  Ga  Ga18  1  0.341794  0.541389  0.250392  1
  Ga  Ga19  1  0.656726  0.452220  0.746073  1
  Ga  Ga20  1  0.547780  0.343274  0.253927  1
  Ga  Ga21  1  0.458611  0.658206  0.749608  1
  Os  Os22  1  0.671144  0.328856  0.500000  1
  Os  Os23  1  0.999945  0.000055  0.000000  1
  Os  Os24  1  0.999304  0.000696  0.500000  1
  Pt  Pt25  1  0.670296  0.329704  0.000000  1
  Pt  Pt26  1  0.329479  0.670521  0.000000  1
  Pt  Pt27  1  0.328402  0.671598  0.500000  1
