# generated using pymatgen
data_Ho8P(Pd3Pt5)3
_symmetry_space_group_name_H-M   'P 1'
_cell_length_a   8.33738736
_cell_length_b   8.33738672
_cell_length_c   8.33738700
_cell_angle_alpha   90.01689175
_cell_angle_beta   90.01689175
_cell_angle_gamma   89.98311015
_symmetry_Int_Tables_number   1
_chemical_formula_structural   Ho8P(Pd3Pt5)3
_chemical_formula_sum   'Ho8 P1 Pd9 Pt15'
_cell_volume   579.54855895
_cell_formula_units_Z   1
loop_
 _symmetry_equiv_pos_site_id
 _symmetry_equiv_pos_as_xyz
  1  'x, y, z'
loop_
 _atom_site_type_symbol
 _atom_site_label
 _atom_site_symmetry_multiplicity
 _atom_site_fract_x
 _atom_site_fract_y
 _atom_site_fract_z
 _atom_site_occupancy
  Ho  Ho0  1  0.255892  0.255892  0.744108  1
  Ho  Ho1  1  0.255826  0.744044  0.255956  1
  Ho  Ho2  1  0.744044  0.255826  0.255956  1
  Ho  Ho3  1  0.744044  0.744044  0.744174  1
  Ho  Ho4  1  0.744155  0.744155  0.255845  1
  Ho  Ho5  1  0.744181  0.255932  0.744068  1
  Ho  Ho6  1  0.255932  0.744181  0.744068  1
  Ho  Ho7  1  0.255932  0.255932  0.255819  1
  P  P8  1  0.000354  0.000354  0.999646  1
  Pd  Pd9  1  0.500010  0.500010  0.251841  1
  Pd  Pd10  1  0.500010  0.748159  0.499990  1
  Pd  Pd11  1  0.748159  0.500010  0.499990  1
  Pd  Pd12  1  0.999923  0.999923  0.726221  1
  Pd  Pd13  1  0.999923  0.273779  0.000077  1
  Pd  Pd14  1  0.273779  0.999923  0.000077  1
  Pd  Pd15  1  0.999768  0.999768  0.273269  1
  Pd  Pd16  1  0.999768  0.726731  0.000232  1
  Pd  Pd17  1  0.726731  0.999768  0.000232  1
  Pt  Pt18  1  0.499958  0.499958  0.748311  1
  Pt  Pt19  1  0.499958  0.251689  0.500042  1
  Pt  Pt20  1  0.251689  0.499958  0.500042  1
  Pt  Pt21  1  0.999914  0.500147  0.744938  1
  Pt  Pt22  1  0.500147  0.255062  0.000086  1
  Pt  Pt23  1  0.255062  0.999914  0.499853  1
  Pt  Pt24  1  0.999914  0.255062  0.499853  1
  Pt  Pt25  1  0.500147  0.999914  0.744938  1
  Pt  Pt26  1  0.255062  0.500147  0.000086  1
  Pt  Pt27  1  0.999956  0.500039  0.255136  1
  Pt  Pt28  1  0.500039  0.744864  0.000044  1
  Pt  Pt29  1  0.999956  0.744864  0.499961  1
  Pt  Pt30  1  0.500039  0.999956  0.255136  1
  Pt  Pt31  1  0.744864  0.999956  0.499961  1
  Pt  Pt32  1  0.744864  0.500039  0.000044  1
