# generated using pymatgen
data_ErNp5Al18
_symmetry_space_group_name_H-M   'P 1'
_cell_length_a   14.66223538
_cell_length_b   14.66223504
_cell_length_c   14.66223652
_cell_angle_alpha   23.95307770
_cell_angle_beta   23.95308045
_cell_angle_gamma   23.95308018
_symmetry_Int_Tables_number   1
_chemical_formula_structural   ErNp5Al18
_chemical_formula_sum   'Er1 Np5 Al18'
_cell_volume   456.49340521
_cell_formula_units_Z   1
loop_
 _symmetry_equiv_pos_site_id
 _symmetry_equiv_pos_as_xyz
  1  'x, y, z'
loop_
 _atom_site_type_symbol
 _atom_site_label
 _atom_site_symmetry_multiplicity
 _atom_site_fract_x
 _atom_site_fract_y
 _atom_site_fract_z
 _atom_site_occupancy
  Er  Er0  1  0.609641  0.609641  0.609641  1
  Np  Np1  1  0.999742  0.999742  0.999742  1
  Np  Np2  1  0.500386  0.500386  0.500386  1
  Np  Np3  1  0.110026  0.110026  0.110026  1
  Np  Np4  1  0.890699  0.890699  0.890699  1
  Np  Np5  1  0.390456  0.390456  0.390456  1
  Al  Al6  1  0.914480  0.375866  0.375866  1
  Al  Al7  1  0.411361  0.876797  0.876797  1
  Al  Al8  1  0.375866  0.375866  0.914480  1
  Al  Al9  1  0.876797  0.876797  0.411361  1
  Al  Al10  1  0.375866  0.914480  0.375866  1
  Al  Al11  1  0.876797  0.411361  0.876797  1
  Al  Al12  1  0.588500  0.122668  0.122668  1
  Al  Al13  1  0.088866  0.622796  0.622796  1
  Al  Al14  1  0.122668  0.122668  0.588500  1
  Al  Al15  1  0.622796  0.622796  0.088866  1
  Al  Al16  1  0.122668  0.588500  0.122668  1
  Al  Al17  1  0.622796  0.088866  0.622796  1
  Al  Al18  1  0.497907  0.497907  0.003775  1
  Al  Al19  1  0.000461  0.000461  0.499085  1
  Al  Al20  1  0.497907  0.003775  0.497907  1
  Al  Al21  1  0.000461  0.499085  0.000461  1
  Al  Al22  1  0.003775  0.497907  0.497907  1
  Al  Al23  1  0.499085  0.000461  0.000461  1
