# generated using pymatgen
data_Be10RhAu
_symmetry_space_group_name_H-M   'P 1'
_cell_length_a   4.26042800
_cell_length_b   4.26042810
_cell_length_c   6.92008800
_cell_angle_alpha   90.00000000
_cell_angle_beta   90.00000000
_cell_angle_gamma   119.99999919
_symmetry_Int_Tables_number   1
_chemical_formula_structural   Be10RhAu
_chemical_formula_sum   'Be10 Rh1 Au1'
_cell_volume   108.77991714
_cell_formula_units_Z   1
loop_
 _symmetry_equiv_pos_site_id
 _symmetry_equiv_pos_as_xyz
  1  'x, y, z'
loop_
 _atom_site_type_symbol
 _atom_site_label
 _atom_site_symmetry_multiplicity
 _atom_site_fract_x
 _atom_site_fract_y
 _atom_site_fract_z
 _atom_site_occupancy
  Be  Be0  1  0.334846  0.167424  0.045455  1
  Be  Be1  1  0.832578  0.167424  0.045455  1
  Be  Be2  1  0.832577  0.665154  0.045455  1
  Be  Be3  1  0.000000  0.000000  0.302059  1
  Be  Be4  1  0.666667  0.333333  0.382150  1
  Be  Be5  1  0.165824  0.331646  0.558470  1
  Be  Be6  1  0.165823  0.834178  0.558470  1
  Be  Be7  1  0.668356  0.834178  0.558470  1
  Be  Be8  1  0.000000  0.000000  0.802312  1
  Be  Be9  1  0.333333  0.666666  0.843301  1
  Rh  Rh10  1  0.666667  0.333333  0.744357  1
  Au  Au11  1  0.333333  0.666666  0.242182  1
