# generated using pymatgen
data_SrEu3(SiPt)4
_symmetry_space_group_name_H-M   'P 1'
_cell_length_a   6.48531491
_cell_length_b   6.48531491
_cell_length_c   6.48531491
_cell_angle_alpha   89.95712442
_cell_angle_beta   89.95712442
_cell_angle_gamma   90.04287558
_symmetry_Int_Tables_number   1
_chemical_formula_structural   SrEu3(SiPt)4
_chemical_formula_sum   'Sr1 Eu3 Si4 Pt4'
_cell_volume   272.76763743
_cell_formula_units_Z   1
loop_
 _symmetry_equiv_pos_site_id
 _symmetry_equiv_pos_as_xyz
  1  'x, y, z'
loop_
 _atom_site_type_symbol
 _atom_site_label
 _atom_site_symmetry_multiplicity
 _atom_site_fract_x
 _atom_site_fract_y
 _atom_site_fract_z
 _atom_site_occupancy
  Sr  Sr0  1  0.371628  0.871628  0.628372  1
  Eu  Eu1  1  0.872235  0.627810  0.372373  1
  Eu  Eu2  1  0.627627  0.372235  0.872190  1
  Eu  Eu3  1  0.127810  0.127627  0.127765  1
  Si  Si4  1  0.668395  0.168395  0.331605  1
  Si  Si5  1  0.162897  0.337046  0.664148  1
  Si  Si6  1  0.335852  0.662897  0.162954  1
  Si  Si7  1  0.837046  0.835852  0.837103  1
  Pt  Pt8  1  0.082287  0.582287  0.917713  1
  Pt  Pt9  1  0.585365  0.915057  0.086201  1
  Pt  Pt10  1  0.913799  0.085365  0.584943  1
  Pt  Pt11  1  0.415057  0.413799  0.414635  1
