# generated using pymatgen
data_Tb2Ga2CoNi5B2
_symmetry_space_group_name_H-M   'P 1'
_cell_length_a   5.20131485
_cell_length_b   5.21204443
_cell_length_c   6.71739200
_cell_angle_alpha   90.00057491
_cell_angle_beta   89.99920243
_cell_angle_gamma   120.07090247
_symmetry_Int_Tables_number   1
_chemical_formula_structural   Tb2Ga2CoNi5B2
_chemical_formula_sum   'Tb2 Ga2 Co1 Ni5 B2'
_cell_volume   157.59478678
_cell_formula_units_Z   1
loop_
 _symmetry_equiv_pos_site_id
 _symmetry_equiv_pos_as_xyz
  1  'x, y, z'
loop_
 _atom_site_type_symbol
 _atom_site_label
 _atom_site_symmetry_multiplicity
 _atom_site_fract_x
 _atom_site_fract_y
 _atom_site_fract_z
 _atom_site_occupancy
  Tb  Tb0  1  0.999975  0.000003  0.995264  1
  Tb  Tb1  1  0.999988  0.000003  0.500189  1
  Ga  Ga2  1  0.329802  0.664912  0.000022  1
  Ga  Ga3  1  0.670152  0.335090  0.000026  1
  Co  Co4  1  0.999980  0.499999  0.702003  1
  Ni  Ni5  1  0.499996  0.999997  0.296045  1
  Ni  Ni6  1  0.499989  0.499998  0.296060  1
  Ni  Ni7  1  0.999988  0.499989  0.298655  1
  Ni  Ni8  1  0.499975  0.000000  0.704484  1
  Ni  Ni9  1  0.499981  0.500003  0.704621  1
  B  B10  1  0.329507  0.664725  0.501316  1
  B  B11  1  0.670464  0.335280  0.501317  1
