# generated using pymatgen
data_Mn4AlVW2
_symmetry_space_group_name_H-M   'P 1'
_cell_length_a   4.16625300
_cell_length_b   5.88131300
_cell_length_c   12.47912701
_cell_angle_alpha   89.99658718
_cell_angle_beta   89.99961464
_cell_angle_gamma   90.00046759
_symmetry_Int_Tables_number   1
_chemical_formula_structural   Mn4AlVW2
_chemical_formula_sum   'Mn12 Al3 V3 W6'
_cell_volume   305.77652194
_cell_formula_units_Z   3
loop_
 _symmetry_equiv_pos_site_id
 _symmetry_equiv_pos_as_xyz
  1  'x, y, z'
loop_
 _atom_site_type_symbol
 _atom_site_label
 _atom_site_symmetry_multiplicity
 _atom_site_fract_x
 _atom_site_fract_y
 _atom_site_fract_z
 _atom_site_occupancy
  Mn  Mn0  1  0.500004  0.247932  0.003001  1
  Mn  Mn1  1  0.499952  0.752097  0.002978  1
  Mn  Mn2  1  0.999962  0.250440  0.166628  1
  Mn  Mn3  1  0.999959  0.749549  0.166638  1
  Mn  Mn4  1  0.499938  0.247797  0.330252  1
  Mn  Mn5  1  0.499966  0.752211  0.330292  1
  Mn  Mn6  1  0.000017  0.247599  0.495841  1
  Mn  Mn7  1  0.000018  0.752456  0.495836  1
  Mn  Mn8  1  0.500039  0.251384  0.666736  1
  Mn  Mn9  1  0.500093  0.748598  0.666730  1
  Mn  Mn10  1  0.000021  0.247577  0.837558  1
  Mn  Mn11  1  0.000043  0.752366  0.837539  1
  Al  Al12  1  0.500002  0.500013  0.500086  1
  Al  Al13  1  0.000051  0.999968  0.666732  1
  Al  Al14  1  0.500028  0.499985  0.833233  1
  V  V15  1  0.999992  0.000050  0.998030  1
  V  V16  1  0.499960  0.499956  0.166656  1
  V  V17  1  0.999958  0.000038  0.335241  1
  W  W18  1  0.999987  0.499962  0.997084  1
  W  W19  1  0.499963  0.000033  0.166645  1
  W  W20  1  0.999961  0.499990  0.336206  1
  W  W21  1  0.500003  0.000008  0.504363  1
  W  W22  1  0.000043  0.499999  0.666698  1
  W  W23  1  0.500037  0.999996  0.828997  1
