# generated using pymatgen
data_DyTmZn4Ru
_symmetry_space_group_name_H-M   'P 1'
_cell_length_a   6.94798000
_cell_length_b   6.94798000
_cell_length_c   5.25296500
_cell_angle_alpha   90.00000000
_cell_angle_beta   90.00000000
_cell_angle_gamma   90.00000000
_symmetry_Int_Tables_number   1
_chemical_formula_structural   DyTmZn4Ru
_chemical_formula_sum   'Dy2 Tm2 Zn8 Ru2'
_cell_volume   253.58387060
_cell_formula_units_Z   2
loop_
 _symmetry_equiv_pos_site_id
 _symmetry_equiv_pos_as_xyz
  1  'x, y, z'
loop_
 _atom_site_type_symbol
 _atom_site_label
 _atom_site_symmetry_multiplicity
 _atom_site_fract_x
 _atom_site_fract_y
 _atom_site_fract_z
 _atom_site_occupancy
  Dy  Dy0  1  0.000000  0.500000  0.766293  1
  Dy  Dy1  1  0.500000  0.000000  0.233707  1
  Tm  Tm2  1  0.000000  0.000000  0.000000  1
  Tm  Tm3  1  0.500000  0.500000  0.000000  1
  Zn  Zn4  1  0.188068  0.688068  0.286952  1
  Zn  Zn5  1  0.811932  0.688068  0.286952  1
  Zn  Zn6  1  0.811932  0.311932  0.286952  1
  Zn  Zn7  1  0.311932  0.188068  0.713048  1
  Zn  Zn8  1  0.188068  0.311932  0.286952  1
  Zn  Zn9  1  0.688068  0.188068  0.713048  1
  Zn  Zn10  1  0.688068  0.811932  0.713048  1
  Zn  Zn11  1  0.311932  0.811932  0.713048  1
  Ru  Ru12  1  0.500000  0.500000  0.500000  1
  Ru  Ru13  1  0.000000  0.000000  0.500000  1
