# generated using pymatgen
data_MnZn(IrS2)4
_symmetry_space_group_name_H-M   'P 1'
_cell_length_a   7.13490167
_cell_length_b   7.13490199
_cell_length_c   7.13490200
_cell_angle_alpha   59.99999994
_cell_angle_beta   59.99999845
_cell_angle_gamma   59.99999778
_symmetry_Int_Tables_number   1
_chemical_formula_structural   MnZn(IrS2)4
_chemical_formula_sum   'Mn1 Zn1 Ir4 S8'
_cell_volume   256.83192416
_cell_formula_units_Z   1
loop_
 _symmetry_equiv_pos_site_id
 _symmetry_equiv_pos_as_xyz
  1  'x, y, z'
loop_
 _atom_site_type_symbol
 _atom_site_label
 _atom_site_symmetry_multiplicity
 _atom_site_fract_x
 _atom_site_fract_y
 _atom_site_fract_z
 _atom_site_occupancy
  Mn  Mn0  1  0.750000  0.750000  0.750000  1
  Zn  Zn1  1  0.500000  0.500000  0.500000  1
  Ir  Ir2  1  0.625426  0.124858  0.124858  1
  Ir  Ir3  1  0.124858  0.625426  0.124858  1
  Ir  Ir4  1  0.124858  0.124858  0.625426  1
  Ir  Ir5  1  0.124858  0.124858  0.124858  1
  S  S6  1  0.332964  0.889012  0.889012  1
  S  S7  1  0.889012  0.332964  0.889012  1
  S  S8  1  0.889012  0.889012  0.332964  1
  S  S9  1  0.889012  0.889012  0.889012  1
  S  S10  1  0.918149  0.360617  0.360617  1
  S  S11  1  0.360617  0.918149  0.360617  1
  S  S12  1  0.360617  0.360617  0.918149  1
  S  S13  1  0.360617  0.360617  0.360617  1
