# generated using pymatgen
data_Li2NdYSb4
_symmetry_space_group_name_H-M   'P 1'
_cell_length_a   4.29522800
_cell_length_b   4.29522800
_cell_length_c   10.97033000
_cell_angle_alpha   90.00000000
_cell_angle_beta   90.00000000
_cell_angle_gamma   90.00000000
_symmetry_Int_Tables_number   1
_chemical_formula_structural   Li2NdYSb4
_chemical_formula_sum   'Li2 Nd1 Y1 Sb4'
_cell_volume   202.39143795
_cell_formula_units_Z   1
loop_
 _symmetry_equiv_pos_site_id
 _symmetry_equiv_pos_as_xyz
  1  'x, y, z'
loop_
 _atom_site_type_symbol
 _atom_site_label
 _atom_site_symmetry_multiplicity
 _atom_site_fract_x
 _atom_site_fract_y
 _atom_site_fract_z
 _atom_site_occupancy
  Li  Li0  1  0.500000  0.500000  0.497974  1
  Li  Li1  1  0.000000  0.000000  0.497974  1
  Nd  Nd2  1  0.000000  0.500000  0.768103  1
  Y  Y3  1  0.500000  0.000000  0.232564  1
  Sb  Sb4  1  0.000000  0.000000  0.004361  1
  Sb  Sb5  1  0.500000  0.500000  0.004361  1
  Sb  Sb6  1  0.000000  0.500000  0.331684  1
  Sb  Sb7  1  0.500000  0.000000  0.662978  1
