# generated using pymatgen
data_Sc(NbRe6)4
_symmetry_space_group_name_H-M   'P 1'
_cell_length_a   8.42506679
_cell_length_b   8.42506565
_cell_length_c   8.42506600
_cell_angle_alpha   109.47122628
_cell_angle_beta   109.47122355
_cell_angle_gamma   109.47121705
_symmetry_Int_Tables_number   1
_chemical_formula_structural   Sc(NbRe6)4
_chemical_formula_sum   'Sc1 Nb4 Re24'
_cell_volume   460.36048651
_cell_formula_units_Z   1
loop_
 _symmetry_equiv_pos_site_id
 _symmetry_equiv_pos_as_xyz
  1  'x, y, z'
loop_
 _atom_site_type_symbol
 _atom_site_label
 _atom_site_symmetry_multiplicity
 _atom_site_fract_x
 _atom_site_fract_y
 _atom_site_fract_z
 _atom_site_occupancy
  Sc  Sc0  1  0.000000  0.000000  0.000000  1
  Nb  Nb1  1  0.367943  0.367943  0.367943  1
  Nb  Nb2  1  0.000000  0.632057  0.000000  1
  Nb  Nb3  1  0.632057  0.000000  0.000000  1
  Nb  Nb4  1  0.000000  0.000000  0.632057  1
  Re  Re5  1  0.000000  0.399436  0.681637  1
  Re  Re6  1  0.282202  0.600564  0.600564  1
  Re  Re7  1  0.717798  0.318363  0.318363  1
  Re  Re8  1  0.318363  0.717798  0.318363  1
  Re  Re9  1  0.681637  0.000000  0.399436  1
  Re  Re10  1  0.000000  0.681637  0.399436  1
  Re  Re11  1  0.600564  0.600564  0.282202  1
  Re  Re12  1  0.805501  0.805501  0.181756  1
  Re  Re13  1  0.376255  0.194499  0.000000  1
  Re  Re14  1  0.194499  0.376255  0.000000  1
  Re  Re15  1  0.623745  0.818244  0.623745  1
  Re  Re16  1  0.376255  0.000000  0.194499  1
  Re  Re17  1  0.000000  0.376255  0.194499  1
  Re  Re18  1  0.818244  0.623745  0.623745  1
  Re  Re19  1  0.181756  0.805501  0.805501  1
  Re  Re20  1  0.805501  0.181756  0.805501  1
  Re  Re21  1  0.194499  0.000000  0.376255  1
  Re  Re22  1  0.000000  0.194499  0.376255  1
  Re  Re23  1  0.623745  0.623745  0.818244  1
  Re  Re24  1  0.399436  0.000000  0.681637  1
  Re  Re25  1  0.600564  0.282202  0.600564  1
  Re  Re26  1  0.681637  0.399436  0.000000  1
  Re  Re27  1  0.399436  0.681637  0.000000  1
  Re  Re28  1  0.318363  0.318363  0.717798  1
