# generated using pymatgen
data_Zr6TaTi3(Si3N)2
_symmetry_space_group_name_H-M   'P 1'
_cell_length_a   7.78502000
_cell_length_b   7.78501992
_cell_length_c   5.38170700
_cell_angle_alpha   90.00000000
_cell_angle_beta   90.00000000
_cell_angle_gamma   120.00000033
_symmetry_Int_Tables_number   1
_chemical_formula_structural   Zr6TaTi3(Si3N)2
_chemical_formula_sum   'Zr6 Ta1 Ti3 Si6 N2'
_cell_volume   282.46857609
_cell_formula_units_Z   1
loop_
 _symmetry_equiv_pos_site_id
 _symmetry_equiv_pos_as_xyz
  1  'x, y, z'
loop_
 _atom_site_type_symbol
 _atom_site_label
 _atom_site_symmetry_multiplicity
 _atom_site_fract_x
 _atom_site_fract_y
 _atom_site_fract_z
 _atom_site_occupancy
  Zr  Zr0  1  0.237406  0.999459  0.749989  1
  Zr  Zr1  1  0.762052  0.999459  0.250011  1
  Zr  Zr2  1  0.000541  0.237948  0.749989  1
  Zr  Zr3  1  0.000541  0.762594  0.250011  1
  Zr  Zr4  1  0.762052  0.762594  0.749989  1
  Zr  Zr5  1  0.237406  0.237948  0.250011  1
  Ta  Ta6  1  0.333333  0.666667  0.500000  1
  Ti  Ti7  1  0.666667  0.333333  0.500000  1
  Ti  Ti8  1  0.666667  0.333333  0.000000  1
  Ti  Ti9  1  0.333333  0.666667  0.000000  1
  Si  Si10  1  0.590175  0.001250  0.750976  1
  Si  Si11  1  0.411075  0.001250  0.249024  1
  Si  Si12  1  0.998750  0.588925  0.750976  1
  Si  Si13  1  0.998750  0.409825  0.249024  1
  Si  Si14  1  0.411075  0.409825  0.750976  1
  Si  Si15  1  0.590175  0.588925  0.249024  1
  N  N16  1  0.000000  0.000000  0.500000  1
  N  N17  1  0.000000  0.000000  0.000000  1
