# generated using pymatgen
data_NdEu8ThRu4
_symmetry_space_group_name_H-M   'P 1'
_cell_length_a   9.01326455
_cell_length_b   9.01326422
_cell_length_c   7.37110500
_cell_angle_alpha   83.48754607
_cell_angle_beta   83.48754631
_cell_angle_gamma   43.30172101
_symmetry_Int_Tables_number   1
_chemical_formula_structural   NdEu8ThRu4
_chemical_formula_sum   'Nd1 Eu8 Th1 Ru4'
_cell_volume   407.62604508
_cell_formula_units_Z   1
loop_
 _symmetry_equiv_pos_site_id
 _symmetry_equiv_pos_as_xyz
  1  'x, y, z'
loop_
 _atom_site_type_symbol
 _atom_site_label
 _atom_site_symmetry_multiplicity
 _atom_site_fract_x
 _atom_site_fract_y
 _atom_site_fract_z
 _atom_site_occupancy
  Nd  Nd0  1  0.428711  0.571289  0.250000  1
  Eu  Eu1  1  0.020112  0.798425  0.918836  1
  Eu  Eu2  1  0.201575  0.979888  0.581164  1
  Eu  Eu3  1  0.979543  0.201503  0.083174  1
  Eu  Eu4  1  0.798497  0.020457  0.416826  1
  Eu  Eu5  1  0.359615  0.205255  0.814262  1
  Eu  Eu6  1  0.794745  0.640385  0.685738  1
  Eu  Eu7  1  0.637447  0.792054  0.185010  1
  Eu  Eu8  1  0.207946  0.362553  0.314990  1
  Th  Th9  1  0.570754  0.429246  0.750000  1
  Ru  Ru10  1  0.198178  0.592434  0.573298  1
  Ru  Ru11  1  0.407566  0.801822  0.926702  1
  Ru  Ru12  1  0.796505  0.401196  0.453792  1
  Ru  Ru13  1  0.598804  0.203495  0.046208  1
