# generated using pymatgen
data_Dy2SnRh5
_symmetry_space_group_name_H-M   'P 1'
_cell_length_a   5.73694566
_cell_length_b   5.73694512
_cell_length_c   8.57099200
_cell_angle_alpha   90.00000000
_cell_angle_beta   90.00000000
_cell_angle_gamma   97.25260587
_symmetry_Int_Tables_number   1
_chemical_formula_structural   Dy2SnRh5
_chemical_formula_sum   'Dy4 Sn2 Rh10'
_cell_volume   279.83616930
_cell_formula_units_Z   2
loop_
 _symmetry_equiv_pos_site_id
 _symmetry_equiv_pos_as_xyz
  1  'x, y, z'
loop_
 _atom_site_type_symbol
 _atom_site_label
 _atom_site_symmetry_multiplicity
 _atom_site_fract_x
 _atom_site_fract_y
 _atom_site_fract_z
 _atom_site_occupancy
  Dy  Dy0  1  0.780143  0.219857  0.500000  1
  Dy  Dy1  1  0.219857  0.780143  0.000000  1
  Dy  Dy2  1  0.219857  0.780143  0.500000  1
  Dy  Dy3  1  0.780143  0.219857  0.000000  1
  Sn  Sn4  1  0.502464  0.502464  0.750000  1
  Sn  Sn5  1  0.497536  0.497536  0.250000  1
  Rh  Rh6  1  0.723892  0.723892  0.001168  1
  Rh  Rh7  1  0.723892  0.723892  0.498832  1
  Rh  Rh8  1  0.276108  0.276108  0.998832  1
  Rh  Rh9  1  0.276108  0.276108  0.501168  1
  Rh  Rh10  1  0.499860  0.000489  0.750000  1
  Rh  Rh11  1  0.500140  0.999511  0.250000  1
  Rh  Rh12  1  0.000423  0.000423  0.250000  1
  Rh  Rh13  1  0.999577  0.999577  0.750000  1
  Rh  Rh14  1  0.000489  0.499860  0.750000  1
  Rh  Rh15  1  0.999511  0.500140  0.250000  1
