# generated using pymatgen
data_TbY(CoOs)2
_symmetry_space_group_name_H-M   'P 1'
_cell_length_a   5.24159695
_cell_length_b   5.24159713
_cell_length_c   5.26824700
_cell_angle_alpha   59.83167590
_cell_angle_beta   59.83167479
_cell_angle_gamma   58.21912578
_symmetry_Int_Tables_number   1
_chemical_formula_structural   TbY(CoOs)2
_chemical_formula_sum   'Tb1 Y1 Co2 Os2'
_cell_volume   100.64902873
_cell_formula_units_Z   1
loop_
 _symmetry_equiv_pos_site_id
 _symmetry_equiv_pos_as_xyz
  1  'x, y, z'
loop_
 _atom_site_type_symbol
 _atom_site_label
 _atom_site_symmetry_multiplicity
 _atom_site_fract_x
 _atom_site_fract_y
 _atom_site_fract_z
 _atom_site_occupancy
  Tb  Tb0  1  0.247485  0.247485  0.252515  1
  Y  Y1  1  0.002842  0.002842  0.997158  1
  Co  Co2  1  0.624919  0.624919  0.124753  1
  Co  Co3  1  0.624919  0.624919  0.625409  1
  Os  Os4  1  0.124990  0.624845  0.625083  1
  Os  Os5  1  0.624845  0.124990  0.625083  1
