# generated using pymatgen
data_Ag2B3Ir4
_symmetry_space_group_name_H-M   'P 1'
_cell_length_a   14.19890171
_cell_length_b   14.19890151
_cell_length_c   2.79150500
_cell_angle_alpha   90.00000000
_cell_angle_beta   90.00000000
_cell_angle_gamma   168.15039973
_symmetry_Int_Tables_number   1
_chemical_formula_structural   Ag2B3Ir4
_chemical_formula_sum   'Ag2 B3 Ir4'
_cell_volume   115.56560366
_cell_formula_units_Z   1
loop_
 _symmetry_equiv_pos_site_id
 _symmetry_equiv_pos_as_xyz
  1  'x, y, z'
loop_
 _atom_site_type_symbol
 _atom_site_label
 _atom_site_symmetry_multiplicity
 _atom_site_fract_x
 _atom_site_fract_y
 _atom_site_fract_z
 _atom_site_occupancy
  Ag  Ag0  1  0.286788  0.713212  0.500000  1
  Ag  Ag1  1  0.710874  0.289126  0.000000  1
  B  B2  1  0.392866  0.607134  0.500000  1
  B  B3  1  0.603916  0.396084  0.000000  1
  B  B4  1  0.990881  0.009119  0.500000  1
  Ir  Ir5  1  0.134323  0.865677  0.500000  1
  Ir  Ir6  1  0.864115  0.135885  0.000000  1
  Ir  Ir7  1  0.544394  0.455606  0.500000  1
  Ir  Ir8  1  0.455843  0.544157  0.000000  1
