# generated using pymatgen
data_Th3AlZn2Pd3
_symmetry_space_group_name_H-M   'P 1'
_cell_length_a   7.30784426
_cell_length_b   7.21184663
_cell_length_c   4.20237200
_cell_angle_alpha   90.00000000
_cell_angle_beta   90.00000000
_cell_angle_gamma   119.56640934
_symmetry_Int_Tables_number   1
_chemical_formula_structural   Th3AlZn2Pd3
_chemical_formula_sum   'Th3 Al1 Zn2 Pd3'
_cell_volume   192.63795323
_cell_formula_units_Z   1
loop_
 _symmetry_equiv_pos_site_id
 _symmetry_equiv_pos_as_xyz
  1  'x, y, z'
loop_
 _atom_site_type_symbol
 _atom_site_label
 _atom_site_symmetry_multiplicity
 _atom_site_fract_x
 _atom_site_fract_y
 _atom_site_fract_z
 _atom_site_occupancy
  Th  Th0  1  0.417788  0.414997  0.500000  1
  Th  Th1  1  0.582212  0.997208  0.500000  1
  Th  Th2  1  0.000000  0.589585  0.500000  1
  Al  Al3  1  0.000000  0.227633  0.000000  1
  Zn  Zn4  1  0.762830  0.764456  0.000000  1
  Zn  Zn5  1  0.237170  0.001626  0.000000  1
  Pd  Pd6  1  0.676456  0.334257  0.000000  1
  Pd  Pd7  1  0.323544  0.657802  0.000000  1
  Pd  Pd8  1  0.000000  0.012436  0.500000  1
