# generated using pymatgen
data_TbY5Er10(CdPd)4
_symmetry_space_group_name_H-M   'P 1'
_cell_length_a   9.66048744
_cell_length_b   9.66007901
_cell_length_c   9.66007848
_cell_angle_alpha   60.03222422
_cell_angle_beta   60.00248237
_cell_angle_gamma   60.00249307
_symmetry_Int_Tables_number   1
_chemical_formula_structural   TbY5Er10(CdPd)4
_chemical_formula_sum   'Tb1 Y5 Er10 Cd4 Pd4'
_cell_volume   637.62798123
_cell_formula_units_Z   1
loop_
 _symmetry_equiv_pos_site_id
 _symmetry_equiv_pos_as_xyz
  1  'x, y, z'
loop_
 _atom_site_type_symbol
 _atom_site_label
 _atom_site_symmetry_multiplicity
 _atom_site_fract_x
 _atom_site_fract_y
 _atom_site_fract_z
 _atom_site_occupancy
  Tb  Tb0  1  0.351495  0.354208  0.354208  1
  Y  Y1  1  0.563884  0.936082  0.936082  1
  Y  Y2  1  0.566012  0.934070  0.564859  1
  Y  Y3  1  0.935097  0.564646  0.934376  1
  Y  Y4  1  0.566012  0.564859  0.934070  1
  Y  Y5  1  0.935097  0.934376  0.564646  1
  Er  Er6  1  0.353837  0.356456  0.935809  1
  Er  Er7  1  0.353837  0.935809  0.356456  1
  Er  Er8  1  0.940787  0.353959  0.353959  1
  Er  Er9  1  0.810970  0.189212  0.189212  1
  Er  Er10  1  0.187864  0.812210  0.812210  1
  Er  Er11  1  0.187776  0.812259  0.188833  1
  Er  Er12  1  0.811051  0.189173  0.811739  1
  Er  Er13  1  0.187776  0.188833  0.812259  1
  Er  Er14  1  0.811051  0.811739  0.189173  1
  Er  Er15  1  0.934789  0.565175  0.565175  1
  Cd  Cd16  1  0.583786  0.581335  0.581335  1
  Cd  Cd17  1  0.582864  0.581205  0.254120  1
  Cd  Cd18  1  0.582864  0.254120  0.581205  1
  Cd  Cd19  1  0.253444  0.581709  0.581709  1
  Pd  Pd20  1  0.146484  0.144455  0.144455  1
  Pd  Pd21  1  0.143776  0.142572  0.568032  1
  Pd  Pd22  1  0.143776  0.568032  0.142572  1
  Pd  Pd23  1  0.565668  0.143505  0.143505  1
