# generated using pymatgen
data_Ho6Al24ZnGaFe6
_symmetry_space_group_name_H-M   'P 1'
_cell_length_a   8.75087380
_cell_length_b   8.77352779
_cell_length_c   9.35657166
_cell_angle_alpha   90.22714931
_cell_angle_beta   89.37256379
_cell_angle_gamma   119.94674539
_symmetry_Int_Tables_number   1
_chemical_formula_structural   Ho6Al24ZnGaFe6
_chemical_formula_sum   'Ho6 Al24 Zn1 Ga1 Fe6'
_cell_volume   622.41373507
_cell_formula_units_Z   1
loop_
 _symmetry_equiv_pos_site_id
 _symmetry_equiv_pos_as_xyz
  1  'x, y, z'
loop_
 _atom_site_type_symbol
 _atom_site_label
 _atom_site_symmetry_multiplicity
 _atom_site_fract_x
 _atom_site_fract_y
 _atom_site_fract_z
 _atom_site_occupancy
  Ho  Ho0  1  0.192095  0.386079  0.251154  1
  Ho  Ho1  1  0.807905  0.613921  0.748846  1
  Ho  Ho2  1  0.611097  0.804638  0.240759  1
  Ho  Ho3  1  0.388903  0.195362  0.759241  1
  Ho  Ho4  1  0.192527  0.803192  0.259409  1
  Ho  Ho5  1  0.807473  0.196808  0.740591  1
  Al  Al6  1  0.325376  0.674319  0.020148  1
  Al  Al7  1  0.674624  0.325681  0.979852  1
  Al  Al8  1  0.647116  0.323756  0.519271  1
  Al  Al9  1  0.352884  0.676244  0.480729  1
  Al  Al10  1  0.174653  0.316741  0.577796  1
  Al  Al11  1  0.825347  0.683259  0.422204  1
  Al  Al12  1  0.678934  0.840572  0.575356  1
  Al  Al13  1  0.854015  0.682106  0.076014  1
  Al  Al14  1  0.321066  0.159428  0.424644  1
  Al  Al15  1  0.145985  0.317894  0.923986  1
  Al  Al16  1  0.175226  0.857082  0.581328  1
  Al  Al17  1  0.319648  0.146493  0.080633  1
  Al  Al18  1  0.824774  0.142918  0.418672  1
  Al  Al19  1  0.680352  0.853507  0.919367  1
  Al  Al20  1  0.837781  0.159648  0.072969  1
  Al  Al21  1  0.162219  0.840352  0.927031  1
  Al  Al22  1  0.556359  0.113178  0.249892  1
  Al  Al23  1  0.443641  0.886822  0.750108  1
  Al  Al24  1  0.871732  0.434435  0.235519  1
  Al  Al25  1  0.128268  0.565565  0.764481  1
  Al  Al26  1  0.561159  0.436460  0.260930  1
  Al  Al27  1  0.438841  0.563540  0.739070  1
  Al  Al28  1  0.001188  0.001194  0.249974  1
  Al  Al29  1  0.998812  0.998806  0.750026  1
  Zn  Zn30  1  0.500000  0.500000  0.000000  1
  Ga  Ga31  1  0.000000  0.500000  0.500000  1
  Fe  Fe32  1  0.500000  0.000000  0.000000  1
  Fe  Fe33  1  0.000000  0.500000  0.000000  1
  Fe  Fe34  1  0.500000  0.000000  0.500000  1
  Fe  Fe35  1  0.500000  0.500000  0.500000  1
  Fe  Fe36  1  0.000000  0.000000  0.000000  1
  Fe  Fe37  1  0.000000  0.000000  0.500000  1
