# generated using pymatgen
data_Ho2Ga9NiIrRu
_symmetry_space_group_name_H-M   'P 1'
_cell_length_a   7.54243196
_cell_length_b   7.54243197
_cell_length_c   9.46922346
_cell_angle_alpha   89.88870119
_cell_angle_beta   89.88870083
_cell_angle_gamma   120.49607016
_symmetry_Int_Tables_number   1
_chemical_formula_structural   Ho2Ga9NiIrRu
_chemical_formula_sum   'Ho4 Ga18 Ni2 Ir2 Ru2'
_cell_volume   464.16434197
_cell_formula_units_Z   2
loop_
 _symmetry_equiv_pos_site_id
 _symmetry_equiv_pos_as_xyz
  1  'x, y, z'
loop_
 _atom_site_type_symbol
 _atom_site_label
 _atom_site_symmetry_multiplicity
 _atom_site_fract_x
 _atom_site_fract_y
 _atom_site_fract_z
 _atom_site_occupancy
  Ho  Ho0  1  0.995652  0.659657  0.250086  1
  Ho  Ho1  1  0.004348  0.340343  0.749914  1
  Ho  Ho2  1  0.659657  0.995652  0.250086  1
  Ho  Ho3  1  0.340343  0.004348  0.749914  1
  Ga  Ga4  1  0.112471  0.112471  0.249981  1
  Ga  Ga5  1  0.887529  0.887529  0.750019  1
  Ga  Ga6  1  0.999771  0.326090  0.078537  1
  Ga  Ga7  1  0.000229  0.673910  0.921463  1
  Ga  Ga8  1  0.999939  0.672478  0.576932  1
  Ga  Ga9  1  0.327522  0.000061  0.423068  1
  Ga  Ga10  1  0.000061  0.327522  0.423068  1
  Ga  Ga11  1  0.672478  0.999939  0.576932  1
  Ga  Ga12  1  0.673910  0.000229  0.921463  1
  Ga  Ga13  1  0.326090  0.999771  0.078537  1
  Ga  Ga14  1  0.332589  0.332589  0.561933  1
  Ga  Ga15  1  0.667411  0.667411  0.438067  1
  Ga  Ga16  1  0.671198  0.671198  0.064972  1
  Ga  Ga17  1  0.328802  0.328802  0.935028  1
  Ga  Ga18  1  0.336011  0.543600  0.251582  1
  Ga  Ga19  1  0.663989  0.456400  0.748418  1
  Ga  Ga20  1  0.543600  0.336011  0.251582  1
  Ga  Ga21  1  0.456400  0.663989  0.748418  1
  Ni  Ni22  1  0.000000  0.000000  0.000000  1
  Ni  Ni23  1  0.000000  0.000000  0.500000  1
  Ir  Ir24  1  0.672441  0.327559  0.000000  1
  Ir  Ir25  1  0.327559  0.672441  0.000000  1
  Ru  Ru26  1  0.326686  0.673314  0.500000  1
  Ru  Ru27  1  0.673314  0.326686  0.500000  1
