# generated using pymatgen
data_LaDyFe3Tc14C3
_symmetry_space_group_name_H-M   'P 1'
_cell_length_a   6.91329465
_cell_length_b   6.91329473
_cell_length_c   6.91329418
_cell_angle_alpha   82.61252862
_cell_angle_beta   82.61251746
_cell_angle_gamma   82.61251518
_symmetry_Int_Tables_number   1
_chemical_formula_structural   LaDyFe3Tc14C3
_chemical_formula_sum   'La1 Dy1 Fe3 Tc14 C3'
_cell_volume   322.83316758
_cell_formula_units_Z   1
loop_
 _symmetry_equiv_pos_site_id
 _symmetry_equiv_pos_as_xyz
  1  'x, y, z'
loop_
 _atom_site_type_symbol
 _atom_site_label
 _atom_site_symmetry_multiplicity
 _atom_site_fract_x
 _atom_site_fract_y
 _atom_site_fract_z
 _atom_site_occupancy
  La  La0  1  0.649513  0.649513  0.649513  1
  Dy  Dy1  1  0.347154  0.347154  0.347154  1
  Fe  Fe2  1  0.998962  0.998962  0.500683  1
  Fe  Fe3  1  0.500683  0.998962  0.998962  1
  Fe  Fe4  1  0.998962  0.500683  0.998962  1
  Tc  Tc5  1  0.723985  0.275229  0.001045  1
  Tc  Tc6  1  0.001045  0.723985  0.275229  1
  Tc  Tc7  1  0.275229  0.001045  0.723985  1
  Tc  Tc8  1  0.001045  0.275229  0.723985  1
  Tc  Tc9  1  0.723985  0.001045  0.275229  1
  Tc  Tc10  1  0.275229  0.723985  0.001045  1
  Tc  Tc11  1  0.346077  0.346077  0.865909  1
  Tc  Tc12  1  0.865909  0.346077  0.346077  1
  Tc  Tc13  1  0.346077  0.865909  0.346077  1
  Tc  Tc14  1  0.651988  0.651988  0.139838  1
  Tc  Tc15  1  0.139838  0.651988  0.651988  1
  Tc  Tc16  1  0.651988  0.139838  0.651988  1
  Tc  Tc17  1  0.900420  0.900420  0.900420  1
  Tc  Tc18  1  0.100389  0.100389  0.100389  1
  C  C19  1  0.495263  0.495263  0.010993  1
  C  C20  1  0.010993  0.495263  0.495263  1
  C  C21  1  0.495263  0.010993  0.495263  1
