# generated using pymatgen
data_Ti12Al7Ga(PtC)4
_symmetry_space_group_name_H-M   'P 1'
_cell_length_a   8.24095442
_cell_length_b   8.23515986
_cell_length_c   8.24095500
_cell_angle_alpha   59.97672285
_cell_angle_beta   60.00000168
_cell_angle_gamma   59.97671997
_symmetry_Int_Tables_number   1
_chemical_formula_structural   Ti12Al7Ga(PtC)4
_chemical_formula_sum   'Ti12 Al7 Ga1 Pt4 C4'
_cell_volume   395.32947706
_cell_formula_units_Z   1
loop_
 _symmetry_equiv_pos_site_id
 _symmetry_equiv_pos_as_xyz
  1  'x, y, z'
loop_
 _atom_site_type_symbol
 _atom_site_label
 _atom_site_symmetry_multiplicity
 _atom_site_fract_x
 _atom_site_fract_y
 _atom_site_fract_z
 _atom_site_occupancy
  Ti  Ti0  1  0.935005  0.934551  0.565222  1
  Ti  Ti1  1  0.685562  0.314591  0.314285  1
  Ti  Ti2  1  0.315076  0.684045  0.685802  1
  Ti  Ti3  1  0.685802  0.684045  0.315076  1
  Ti  Ti4  1  0.685562  0.314591  0.685562  1
  Ti  Ti5  1  0.315076  0.684045  0.315076  1
  Ti  Ti6  1  0.565222  0.934551  0.565222  1
  Ti  Ti7  1  0.565222  0.934551  0.935005  1
  Ti  Ti8  1  0.935628  0.565102  0.563641  1
  Ti  Ti9  1  0.935628  0.565102  0.935628  1
  Ti  Ti10  1  0.314285  0.314591  0.685562  1
  Ti  Ti11  1  0.563641  0.565102  0.935628  1
  Al  Al12  1  0.335747  0.335848  0.992658  1
  Al  Al13  1  0.992658  0.335848  0.335747  1
  Al  Al14  1  0.335747  0.335848  0.335747  1
  Al  Al15  1  0.256982  0.914738  0.914140  1
  Al  Al16  1  0.914140  0.914738  0.914140  1
  Al  Al17  1  0.914140  0.914738  0.256982  1
  Al  Al18  1  0.335569  0.993293  0.335569  1
  Ga  Ga19  1  0.911578  0.265266  0.911578  1
  Pt  Pt20  1  0.124781  0.625657  0.124781  1
  Pt  Pt21  1  0.126611  0.122957  0.623821  1
  Pt  Pt22  1  0.623821  0.122957  0.126611  1
  Pt  Pt23  1  0.126611  0.122957  0.126611  1
  C  C24  1  0.624916  0.125252  0.624916  1
  C  C25  1  0.625002  0.625011  0.124985  1
  C  C26  1  0.124985  0.625011  0.625002  1
  C  C27  1  0.625002  0.625011  0.625002  1
