# generated using pymatgen
data_Ba4La7BiSe16
_symmetry_space_group_name_H-M   'P 1'
_cell_length_a   4.42291100
_cell_length_b   13.07270270
_cell_length_c   15.76552374
_cell_angle_alpha   89.69662672
_cell_angle_beta   90.00000000
_cell_angle_gamma   90.00000000
_symmetry_Int_Tables_number   1
_chemical_formula_structural   Ba4La7BiSe16
_chemical_formula_sum   'Ba4 La7 Bi1 Se16'
_cell_volume   911.54035442
_cell_formula_units_Z   1
loop_
 _symmetry_equiv_pos_site_id
 _symmetry_equiv_pos_as_xyz
  1  'x, y, z'
loop_
 _atom_site_type_symbol
 _atom_site_label
 _atom_site_symmetry_multiplicity
 _atom_site_fract_x
 _atom_site_fract_y
 _atom_site_fract_z
 _atom_site_occupancy
  Ba  Ba0  1  0.250000  0.755448  0.339546  1
  Ba  Ba1  1  0.250000  0.256538  0.163244  1
  Ba  Ba2  1  0.750000  0.241770  0.658359  1
  Ba  Ba3  1  0.750000  0.743529  0.838254  1
  La  La4  1  0.250000  0.426380  0.392215  1
  La  La5  1  0.250000  0.929918  0.110606  1
  La  La6  1  0.750000  0.571017  0.609838  1
  La  La7  1  0.750000  0.071373  0.890287  1
  La  La8  1  0.250000  0.418523  0.898287  1
  La  La9  1  0.250000  0.922567  0.599468  1
  La  La10  1  0.750000  0.580631  0.102571  1
  Bi  Bi11  1  0.750000  0.078683  0.397426  1
  Se  Se12  1  0.250000  0.207038  0.820575  1
  Se  Se13  1  0.250000  0.709059  0.676273  1
  Se  Se14  1  0.750000  0.793297  0.179245  1
  Se  Se15  1  0.750000  0.290519  0.325073  1
  Se  Se16  1  0.250000  0.133165  0.522526  1
  Se  Se17  1  0.250000  0.631026  0.975202  1
  Se  Se18  1  0.750000  0.869688  0.471070  1
  Se  Se19  1  0.750000  0.368333  0.025567  1
  Se  Se20  1  0.250000  0.519739  0.216974  1
  Se  Se21  1  0.250000  0.024184  0.285303  1
  Se  Se22  1  0.750000  0.478265  0.783746  1
  Se  Se23  1  0.750000  0.978976  0.715362  1
  Se  Se24  1  0.250000  0.417316  0.580793  1
  Se  Se25  1  0.250000  0.917409  0.921738  1
  Se  Se26  1  0.750000  0.582274  0.419912  1
  Se  Se27  1  0.750000  0.083332  0.080538  1
