# generated using pymatgen
data_Nb6ReSi6Mo2Ru3
_symmetry_space_group_name_H-M   'P 1'
_cell_length_a   7.55185467
_cell_length_b   7.56267985
_cell_length_c   7.55243212
_cell_angle_alpha   126.94567469
_cell_angle_beta   124.65314647
_cell_angle_gamma   80.16750708
_symmetry_Int_Tables_number   1
_chemical_formula_structural   Nb6ReSi6Mo2Ru3
_chemical_formula_sum   'Nb6 Re1 Si6 Mo2 Ru3'
_cell_volume   273.81527001
_cell_formula_units_Z   1
loop_
 _symmetry_equiv_pos_site_id
 _symmetry_equiv_pos_as_xyz
  1  'x, y, z'
loop_
 _atom_site_type_symbol
 _atom_site_label
 _atom_site_symmetry_multiplicity
 _atom_site_fract_x
 _atom_site_fract_y
 _atom_site_fract_z
 _atom_site_occupancy
  Nb  Nb0  1  0.555401  0.091113  0.032077  1
  Nb  Nb1  1  0.440321  0.478609  0.537075  1
  Nb  Nb2  1  0.958587  0.496122  0.036328  1
  Nb  Nb3  1  0.041899  0.065275  0.529103  1
  Nb  Nb4  1  0.758589  0.920364  0.667825  1
  Nb  Nb5  1  0.246480  0.915039  0.163707  1
  Re  Re6  1  0.160366  0.749594  0.656175  1
  Si  Si7  1  0.772490  0.544956  0.266946  1
  Si  Si8  1  0.220612  0.488155  0.770020  1
  Si  Si9  1  0.338494  0.818362  0.491955  1
  Si  Si10  1  0.667321  0.159196  0.484523  1
  Si  Si11  1  0.825275  0.818080  0.983745  1
  Si  Si12  1  0.175171  0.163580  0.995782  1
  Mo  Mo13  1  0.504127  0.249275  0.750531  1
  Mo  Mo14  1  0.999965  0.247982  0.248705  1
  Ru  Ru15  1  0.838963  0.493995  0.588753  1
  Ru  Ru16  1  0.586887  0.747211  0.081500  1
  Ru  Ru17  1  0.409052  0.495293  0.157447  1
