# generated using pymatgen
data_HoTm(Be12Ni)2
_symmetry_space_group_name_H-M   'P 1'
_cell_length_a   7.23378206
_cell_length_b   7.29705920
_cell_length_c   7.20773206
_cell_angle_alpha   59.82673651
_cell_angle_beta   59.57506774
_cell_angle_gamma   59.47380527
_symmetry_Int_Tables_number   1
_chemical_formula_structural   HoTm(Be12Ni)2
_chemical_formula_sum   'Ho1 Tm1 Be24 Ni2'
_cell_volume   266.73080759
_cell_formula_units_Z   1
loop_
 _symmetry_equiv_pos_site_id
 _symmetry_equiv_pos_as_xyz
  1  'x, y, z'
loop_
 _atom_site_type_symbol
 _atom_site_label
 _atom_site_symmetry_multiplicity
 _atom_site_fract_x
 _atom_site_fract_y
 _atom_site_fract_z
 _atom_site_occupancy
  Ho  Ho0  1  0.248729  0.251271  0.248729  1
  Tm  Tm1  1  0.751568  0.748432  0.751571  1
  Be  Be2  1  0.499999  0.500005  0.499994  1
  Be  Be3  1  0.999961  0.000039  0.999962  1
  Be  Be4  1  0.568488  0.787546  0.431700  1
  Be  Be5  1  0.431700  0.212263  0.568488  1
  Be  Be6  1  0.294506  0.935309  0.705756  1
  Be  Be7  1  0.705754  0.064428  0.294508  1
  Be  Be8  1  0.932236  0.284898  0.067544  1
  Be  Be9  1  0.067540  0.715322  0.932241  1
  Be  Be10  1  0.205685  0.798017  0.560584  1
  Be  Be11  1  0.794125  0.201754  0.439639  1
  Be  Be12  1  0.439642  0.564485  0.794125  1
  Be  Be13  1  0.560586  0.435717  0.205686  1
  Be  Be14  1  0.711055  0.284010  0.935481  1
  Be  Be15  1  0.289160  0.716112  0.064323  1
  Be  Be16  1  0.064324  0.930404  0.289160  1
  Be  Be17  1  0.935481  0.069452  0.711055  1
  Be  Be18  1  0.561843  0.206787  0.795158  1
  Be  Be19  1  0.438375  0.793034  0.204578  1
  Be  Be20  1  0.795159  0.436211  0.561841  1
  Be  Be21  1  0.204577  0.564012  0.438376  1
  Be  Be22  1  0.936363  0.710781  0.289667  1
  Be  Be23  1  0.063393  0.289427  0.710584  1
  Be  Be24  1  0.289670  0.063182  0.936364  1
  Be  Be25  1  0.710583  0.936595  0.063397  1
  Ni  Ni26  1  0.800033  0.558931  0.199456  1
  Ni  Ni27  1  0.199464  0.441580  0.800033  1
