# generated using pymatgen
data_Nd2Fe3Tc14C3
_symmetry_space_group_name_H-M   'P 1'
_cell_length_a   6.92893767
_cell_length_b   6.92893786
_cell_length_c   6.92893726
_cell_angle_alpha   82.72869877
_cell_angle_beta   82.72869669
_cell_angle_gamma   82.72870779
_symmetry_Int_Tables_number   1
_chemical_formula_structural   Nd2Fe3Tc14C3
_chemical_formula_sum   'Nd2 Fe3 Tc14 C3'
_cell_volume   325.25815458
_cell_formula_units_Z   1
loop_
 _symmetry_equiv_pos_site_id
 _symmetry_equiv_pos_as_xyz
  1  'x, y, z'
loop_
 _atom_site_type_symbol
 _atom_site_label
 _atom_site_symmetry_multiplicity
 _atom_site_fract_x
 _atom_site_fract_y
 _atom_site_fract_z
 _atom_site_occupancy
  Nd  Nd0  1  0.650495  0.650495  0.650495  1
  Nd  Nd1  1  0.349505  0.349505  0.349505  1
  Fe  Fe2  1  0.000000  0.000000  0.500000  1
  Fe  Fe3  1  0.500000  0.000000  0.000000  1
  Fe  Fe4  1  0.000000  0.500000  0.000000  1
  Tc  Tc5  1  0.724370  0.275630  0.000000  1
  Tc  Tc6  1  0.000000  0.724370  0.275630  1
  Tc  Tc7  1  0.275630  0.000000  0.724370  1
  Tc  Tc8  1  0.000000  0.275630  0.724370  1
  Tc  Tc9  1  0.724370  0.000000  0.275630  1
  Tc  Tc10  1  0.275630  0.724370  0.000000  1
  Tc  Tc11  1  0.346669  0.863420  0.346669  1
  Tc  Tc12  1  0.346669  0.346669  0.863420  1
  Tc  Tc13  1  0.863420  0.346669  0.346669  1
  Tc  Tc14  1  0.653331  0.136580  0.653331  1
  Tc  Tc15  1  0.653331  0.653331  0.136580  1
  Tc  Tc16  1  0.136580  0.653331  0.653331  1
  Tc  Tc17  1  0.900089  0.900089  0.900089  1
  Tc  Tc18  1  0.099911  0.099911  0.099911  1
  C  C19  1  0.500000  0.500000  0.000000  1
  C  C20  1  0.000000  0.500000  0.500000  1
  C  C21  1  0.500000  0.000000  0.500000  1
