# generated using pymatgen
data_Hf3Ti2VSn2
_symmetry_space_group_name_H-M   'P 1'
_cell_length_a   8.18954517
_cell_length_b   8.18954663
_cell_length_c   5.58207100
_cell_angle_alpha   90.00000000
_cell_angle_beta   90.00000000
_cell_angle_gamma   120.90579810
_symmetry_Int_Tables_number   1
_chemical_formula_structural   Hf3Ti2VSn2
_chemical_formula_sum   'Hf6 Ti4 V2 Sn4'
_cell_volume   321.22462684
_cell_formula_units_Z   2
loop_
 _symmetry_equiv_pos_site_id
 _symmetry_equiv_pos_as_xyz
  1  'x, y, z'
loop_
 _atom_site_type_symbol
 _atom_site_label
 _atom_site_symmetry_multiplicity
 _atom_site_fract_x
 _atom_site_fract_y
 _atom_site_fract_z
 _atom_site_occupancy
  Hf  Hf0  1  0.242502  0.025278  0.250000  1
  Hf  Hf1  1  0.757498  0.974722  0.750000  1
  Hf  Hf2  1  0.025278  0.242502  0.250000  1
  Hf  Hf3  1  0.974722  0.757498  0.750000  1
  Hf  Hf4  1  0.749750  0.749750  0.250000  1
  Hf  Hf5  1  0.250250  0.250250  0.750000  1
  Ti  Ti6  1  0.354691  0.645309  0.000000  1
  Ti  Ti7  1  0.645309  0.354691  0.000000  1
  Ti  Ti8  1  0.645309  0.354691  0.500000  1
  Ti  Ti9  1  0.354691  0.645309  0.500000  1
  V  V10  1  0.405932  0.405932  0.250000  1
  V  V11  1  0.594068  0.594068  0.750000  1
  Sn  Sn12  1  0.608180  0.015150  0.250000  1
  Sn  Sn13  1  0.391820  0.984850  0.750000  1
  Sn  Sn14  1  0.015150  0.608180  0.250000  1
  Sn  Sn15  1  0.984850  0.391820  0.750000  1
