# generated using pymatgen
data_KBa(SbAu)2
_symmetry_space_group_name_H-M   'P 1'
_cell_length_a   4.71630900
_cell_length_b   4.71631013
_cell_length_c   10.21379300
_cell_angle_alpha   90.00000000
_cell_angle_beta   90.00000000
_cell_angle_gamma   119.99998506
_symmetry_Int_Tables_number   1
_chemical_formula_structural   KBa(SbAu)2
_chemical_formula_sum   'K1 Ba1 Sb2 Au2'
_cell_volume   196.75344960
_cell_formula_units_Z   1
loop_
 _symmetry_equiv_pos_site_id
 _symmetry_equiv_pos_as_xyz
  1  'x, y, z'
loop_
 _atom_site_type_symbol
 _atom_site_label
 _atom_site_symmetry_multiplicity
 _atom_site_fract_x
 _atom_site_fract_y
 _atom_site_fract_z
 _atom_site_occupancy
  K  K0  1  0.000000  0.000000  0.000000  1
  Ba  Ba1  1  0.000000  0.000000  0.500000  1
  Sb  Sb2  1  0.666667  0.333333  0.256202  1
  Sb  Sb3  1  0.333333  0.666667  0.743798  1
  Au  Au4  1  0.333333  0.666667  0.256575  1
  Au  Au5  1  0.666667  0.333333  0.743425  1
