# generated using pymatgen
data_YbY6CuI12
_symmetry_space_group_name_H-M   'P 1'
_cell_length_a   9.75487750
_cell_length_b   9.75487709
_cell_length_c   9.75487700
_cell_angle_alpha   106.88686883
_cell_angle_beta   106.88686810
_cell_angle_gamma   106.88687377
_symmetry_Int_Tables_number   1
_chemical_formula_structural   YbY6CuI12
_chemical_formula_sum   'Yb1 Y6 Cu1 I12'
_cell_volume   775.42962865
_cell_formula_units_Z   1
loop_
 _symmetry_equiv_pos_site_id
 _symmetry_equiv_pos_as_xyz
  1  'x, y, z'
loop_
 _atom_site_type_symbol
 _atom_site_label
 _atom_site_symmetry_multiplicity
 _atom_site_fract_x
 _atom_site_fract_y
 _atom_site_fract_z
 _atom_site_occupancy
  Yb  Yb0  1  0.500000  0.500000  0.500000  1
  Y  Y1  1  0.025387  0.098269  0.301566  1
  Y  Y2  1  0.098269  0.301566  0.025387  1
  Y  Y3  1  0.301566  0.025387  0.098269  1
  Y  Y4  1  0.974613  0.901731  0.698434  1
  Y  Y5  1  0.901731  0.698434  0.974613  1
  Y  Y6  1  0.698434  0.974613  0.901731  1
  Cu  Cu7  1  0.000000  0.000000  0.000000  1
  I  I8  1  0.150912  0.457509  0.379197  1
  I  I9  1  0.457509  0.379197  0.150912  1
  I  I10  1  0.379197  0.150912  0.457509  1
  I  I11  1  0.849088  0.542491  0.620803  1
  I  I12  1  0.542491  0.620803  0.849088  1
  I  I13  1  0.620803  0.849088  0.542491  1
  I  I14  1  0.678252  0.072010  0.223691  1
  I  I15  1  0.072010  0.223691  0.678252  1
  I  I16  1  0.223691  0.678252  0.072010  1
  I  I17  1  0.321748  0.927990  0.776309  1
  I  I18  1  0.927990  0.776309  0.321748  1
  I  I19  1  0.776309  0.321748  0.927990  1
