# generated using pymatgen
data_Dy3Er3(AlC3)2
_symmetry_space_group_name_H-M   'P 1'
_cell_length_a   3.55231000
_cell_length_b   7.01430872
_cell_length_c   9.95234646
_cell_angle_alpha   89.91963818
_cell_angle_beta   90.00000000
_cell_angle_gamma   90.00000000
_symmetry_Int_Tables_number   1
_chemical_formula_structural   Dy3Er3(AlC3)2
_chemical_formula_sum   'Dy3 Er3 Al2 C6'
_cell_volume   247.98236282
_cell_formula_units_Z   1
loop_
 _symmetry_equiv_pos_site_id
 _symmetry_equiv_pos_as_xyz
  1  'x, y, z'
loop_
 _atom_site_type_symbol
 _atom_site_label
 _atom_site_symmetry_multiplicity
 _atom_site_fract_x
 _atom_site_fract_y
 _atom_site_fract_z
 _atom_site_occupancy
  Dy  Dy0  1  0.500000  0.509233  0.199818  1
  Dy  Dy1  1  0.000000  0.750206  0.458776  1
  Dy  Dy2  1  0.000000  0.249985  0.541429  1
  Er  Er3  1  0.500000  0.488488  0.799563  1
  Er  Er4  1  0.500000  0.989002  0.200662  1
  Er  Er5  1  0.500000  0.011335  0.799245  1
  Al  Al6  1  0.000000  0.751053  0.004518  1
  Al  Al7  1  0.000000  0.248851  0.994589  1
  C  C8  1  0.500000  0.509676  0.567289  1
  C  C9  1  0.500000  0.490505  0.434501  1
  C  C10  1  0.500000  0.990603  0.566428  1
  C  C11  1  0.500000  0.009505  0.433632  1
  C  C12  1  0.000000  0.751729  0.207915  1
  C  C13  1  0.000000  0.249829  0.791635  1
