# generated using pymatgen
data_La3Pr3WO12
_symmetry_space_group_name_H-M   'P 1'
_cell_length_a   6.81741261
_cell_length_b   6.81759868
_cell_length_c   6.81768915
_cell_angle_alpha   98.48186652
_cell_angle_beta   98.44941507
_cell_angle_gamma   98.44098988
_symmetry_Int_Tables_number   1
_chemical_formula_structural   La3Pr3WO12
_chemical_formula_sum   'La3 Pr3 W1 O12'
_cell_volume   305.37699124
_cell_formula_units_Z   1
loop_
 _symmetry_equiv_pos_site_id
 _symmetry_equiv_pos_as_xyz
  1  'x, y, z'
loop_
 _atom_site_type_symbol
 _atom_site_label
 _atom_site_symmetry_multiplicity
 _atom_site_fract_x
 _atom_site_fract_y
 _atom_site_fract_z
 _atom_site_occupancy
  La  La0  1  0.306997  0.605510  0.143981  1
  La  La1  1  0.606638  0.143111  0.308948  1
  La  La2  1  0.856329  0.691980  0.396295  1
  Pr  Pr3  1  0.143886  0.306704  0.612860  1
  Pr  Pr4  1  0.389552  0.856109  0.694400  1
  Pr  Pr5  1  0.692342  0.387827  0.856318  1
  W  W6  1  0.999148  0.999866  0.999038  1
  O  O7  1  0.064857  0.287203  0.963564  1
  O  O8  1  0.036453  0.935776  0.712177  1
  O  O9  1  0.407342  0.558936  0.825105  1
  O  O10  1  0.177458  0.593615  0.441759  1
  O  O11  1  0.714334  0.030893  0.927090  1
  O  O12  1  0.440608  0.176802  0.596484  1
  O  O13  1  0.560199  0.822251  0.408980  1
  O  O14  1  0.284420  0.968486  0.065331  1
  O  O15  1  0.822953  0.405178  0.561024  1
  O  O16  1  0.595494  0.438640  0.179721  1
  O  O17  1  0.975175  0.074214  0.282458  1
  O  O18  1  0.925813  0.716901  0.024467  1
