# generated using pymatgen
data_Ti6V4Ga4SiGe
_symmetry_space_group_name_H-M   'P 1'
_cell_length_a   7.48393804
_cell_length_b   7.48237274
_cell_length_c   5.04798900
_cell_angle_alpha   90.00000000
_cell_angle_beta   90.00000000
_cell_angle_gamma   120.01671552
_symmetry_Int_Tables_number   1
_chemical_formula_structural   Ti6V4Ga4SiGe
_chemical_formula_sum   'Ti6 V4 Ga4 Si1 Ge1'
_cell_volume   244.76278047
_cell_formula_units_Z   1
loop_
 _symmetry_equiv_pos_site_id
 _symmetry_equiv_pos_as_xyz
  1  'x, y, z'
loop_
 _atom_site_type_symbol
 _atom_site_label
 _atom_site_symmetry_multiplicity
 _atom_site_fract_x
 _atom_site_fract_y
 _atom_site_fract_z
 _atom_site_occupancy
  Ti  Ti0  1  0.757791  0.757619  0.750000  1
  Ti  Ti1  1  0.245177  0.000409  0.750000  1
  Ti  Ti2  1  0.000538  0.247035  0.750000  1
  Ti  Ti3  1  0.240817  0.244772  0.250000  1
  Ti  Ti4  1  0.758021  0.004639  0.250000  1
  Ti  Ti5  1  0.000592  0.752040  0.250000  1
  V  V6  1  0.669976  0.331954  0.002207  1
  V  V7  1  0.328371  0.664727  0.002251  1
  V  V8  1  0.328371  0.664727  0.497749  1
  V  V9  1  0.669976  0.331954  0.497793  1
  Ga  Ga10  1  0.402143  0.401318  0.750000  1
  Ga  Ga11  1  0.600652  0.997581  0.750000  1
  Ga  Ga12  1  0.998517  0.600354  0.750000  1
  Ga  Ga13  1  0.601148  0.601610  0.250000  1
  Si  Si14  1  0.000559  0.398246  0.250000  1
  Ge  Ge15  1  0.397353  0.001015  0.250000  1
