# generated using pymatgen
data_Ho5Lu15(Zn3Ir)2
_symmetry_space_group_name_H-M   'P 1'
_cell_length_a   9.32367500
_cell_length_b   9.32347503
_cell_length_c   9.41358600
_cell_angle_alpha   90.00000000
_cell_angle_beta   90.00000000
_cell_angle_gamma   119.91613564
_symmetry_Int_Tables_number   1
_chemical_formula_structural   Ho5Lu15(Zn3Ir)2
_chemical_formula_sum   'Ho5 Lu15 Zn6 Ir2'
_cell_volume   709.27892435
_cell_formula_units_Z   1
loop_
 _symmetry_equiv_pos_site_id
 _symmetry_equiv_pos_as_xyz
  1  'x, y, z'
loop_
 _atom_site_type_symbol
 _atom_site_label
 _atom_site_symmetry_multiplicity
 _atom_site_fract_x
 _atom_site_fract_y
 _atom_site_fract_z
 _atom_site_occupancy
  Ho  Ho0  1  0.539953  0.081553  0.250000  1
  Ho  Ho1  1  0.918403  0.460039  0.250000  1
  Ho  Ho2  1  0.459594  0.540391  0.750000  1
  Ho  Ho3  1  0.459731  0.920212  0.750000  1
  Ho  Ho4  1  0.079770  0.540264  0.750000  1
  Lu  Lu5  1  0.000248  0.999748  0.499967  1
  Lu  Lu6  1  0.000248  0.999748  0.000033  1
  Lu  Lu7  1  0.206789  0.793198  0.442135  1
  Lu  Lu8  1  0.207481  0.412766  0.441897  1
  Lu  Lu9  1  0.587227  0.792508  0.441907  1
  Lu  Lu10  1  0.793317  0.206667  0.557234  1
  Lu  Lu11  1  0.792087  0.586078  0.556720  1
  Lu  Lu12  1  0.413923  0.207899  0.556715  1
  Lu  Lu13  1  0.793317  0.206667  0.942766  1
  Lu  Lu14  1  0.792087  0.586078  0.943280  1
  Lu  Lu15  1  0.413923  0.207899  0.943285  1
  Lu  Lu16  1  0.206789  0.793198  0.057865  1
  Lu  Lu17  1  0.207481  0.412766  0.058103  1
  Lu  Lu18  1  0.587227  0.792508  0.058093  1
  Lu  Lu19  1  0.539803  0.460220  0.250000  1
  Zn  Zn20  1  0.887629  0.112424  0.250000  1
  Zn  Zn21  1  0.884940  0.773843  0.250000  1
  Zn  Zn22  1  0.226193  0.115061  0.250000  1
  Zn  Zn23  1  0.112205  0.887846  0.750000  1
  Zn  Zn24  1  0.113507  0.225053  0.750000  1
  Zn  Zn25  1  0.775012  0.886502  0.750000  1
  Ir  Ir26  1  0.334068  0.665907  0.250000  1
  Ir  Ir27  1  0.667051  0.332959  0.750000  1
