# generated using pymatgen
data_Pr2Nd4Cd23Te
_symmetry_space_group_name_H-M   'P 1'
_cell_length_a   10.11181892
_cell_length_b   10.09679636
_cell_length_c   10.09679500
_cell_angle_alpha   60.10075408
_cell_angle_beta   59.95046829
_cell_angle_gamma   59.95046728
_symmetry_Int_Tables_number   1
_chemical_formula_structural   Pr2Nd4Cd23Te
_chemical_formula_sum   'Pr2 Nd4 Cd23 Te1'
_cell_volume   728.92857176
_cell_formula_units_Z   1
loop_
 _symmetry_equiv_pos_site_id
 _symmetry_equiv_pos_as_xyz
  1  'x, y, z'
loop_
 _atom_site_type_symbol
 _atom_site_label
 _atom_site_symmetry_multiplicity
 _atom_site_fract_x
 _atom_site_fract_y
 _atom_site_fract_z
 _atom_site_occupancy
  Pr  Pr0  1  0.782139  0.782058  0.217930  1
  Pr  Pr1  1  0.217861  0.782070  0.217942  1
  Nd  Nd2  1  0.781541  0.218506  0.218431  1
  Nd  Nd3  1  0.218088  0.218169  0.781847  1
  Nd  Nd4  1  0.781912  0.218153  0.781831  1
  Nd  Nd5  1  0.218459  0.781569  0.781494  1
  Cd  Cd6  1  0.833755  0.834847  0.497653  1
  Cd  Cd7  1  0.834675  0.495660  0.834999  1
  Cd  Cd8  1  0.496533  0.834627  0.833945  1
  Cd  Cd9  1  0.834907  0.834628  0.833947  1
  Cd  Cd10  1  0.165325  0.165001  0.504340  1
  Cd  Cd11  1  0.166245  0.502347  0.165153  1
  Cd  Cd12  1  0.503467  0.166055  0.165373  1
  Cd  Cd13  1  0.165093  0.166053  0.165372  1
  Cd  Cd14  1  0.623202  0.622886  0.130708  1
  Cd  Cd15  1  0.622317  0.131943  0.623424  1
  Cd  Cd16  1  0.131335  0.622088  0.623449  1
  Cd  Cd17  1  0.623125  0.622087  0.623448  1
  Cd  Cd18  1  0.377683  0.376576  0.868057  1
  Cd  Cd19  1  0.376798  0.869292  0.377114  1
  Cd  Cd20  1  0.868665  0.376551  0.377912  1
  Cd  Cd21  1  0.376875  0.376552  0.377913  1
  Cd  Cd22  1  0.999955  0.000271  0.500017  1
  Cd  Cd23  1  0.499757  0.000271  0.500017  1
  Cd  Cd24  1  0.000000  0.499793  0.500207  1
  Cd  Cd25  1  0.500243  0.499983  0.999729  1
  Cd  Cd26  1  0.000045  0.499983  0.999729  1
  Cd  Cd27  1  0.500000  0.000245  0.999755  1
  Cd  Cd28  1  0.500000  0.500500  0.499500  1
  Te  Te29  1  0.000000  0.001232  0.998768  1
