# generated using pymatgen
data_YTh2(Si3Pd10)2
_symmetry_space_group_name_H-M   'P 1'
_cell_length_a   8.74936581
_cell_length_b   8.74936582
_cell_length_c   8.74936500
_cell_angle_alpha   59.99999934
_cell_angle_beta   59.99999927
_cell_angle_gamma   59.99999521
_symmetry_Int_Tables_number   1
_chemical_formula_structural   YTh2(Si3Pd10)2
_chemical_formula_sum   'Y1 Th2 Si6 Pd20'
_cell_volume   473.60324173
_cell_formula_units_Z   1
loop_
 _symmetry_equiv_pos_site_id
 _symmetry_equiv_pos_as_xyz
  1  'x, y, z'
loop_
 _atom_site_type_symbol
 _atom_site_label
 _atom_site_symmetry_multiplicity
 _atom_site_fract_x
 _atom_site_fract_y
 _atom_site_fract_z
 _atom_site_occupancy
  Y  Y0  1  0.000000  0.000000  0.000000  1
  Th  Th1  1  0.750000  0.750000  0.750000  1
  Th  Th2  1  0.250000  0.250000  0.250000  1
  Si  Si3  1  0.735095  0.735095  0.264905  1
  Si  Si4  1  0.264905  0.735095  0.264905  1
  Si  Si5  1  0.735095  0.264905  0.264905  1
  Si  Si6  1  0.264905  0.264905  0.735095  1
  Si  Si7  1  0.735095  0.264905  0.735095  1
  Si  Si8  1  0.264905  0.735095  0.735095  1
  Pd  Pd9  1  0.615760  0.615760  0.152720  1
  Pd  Pd10  1  0.615760  0.152720  0.615760  1
  Pd  Pd11  1  0.152720  0.615760  0.615760  1
  Pd  Pd12  1  0.615760  0.615760  0.615760  1
  Pd  Pd13  1  0.384240  0.384240  0.847280  1
  Pd  Pd14  1  0.384240  0.847280  0.384240  1
  Pd  Pd15  1  0.847280  0.384240  0.384240  1
  Pd  Pd16  1  0.384240  0.384240  0.384240  1
  Pd  Pd17  1  0.000000  0.000000  0.347000  1
  Pd  Pd18  1  0.653000  0.000000  0.347000  1
  Pd  Pd19  1  0.000000  0.653000  0.347000  1
  Pd  Pd20  1  0.653000  0.347000  0.000000  1
  Pd  Pd21  1  0.000000  0.347000  0.000000  1
  Pd  Pd22  1  0.000000  0.347000  0.653000  1
  Pd  Pd23  1  0.347000  0.653000  0.000000  1
  Pd  Pd24  1  0.347000  0.000000  0.653000  1
  Pd  Pd25  1  0.347000  0.000000  0.000000  1
  Pd  Pd26  1  0.000000  0.000000  0.653000  1
  Pd  Pd27  1  0.000000  0.653000  0.000000  1
  Pd  Pd28  1  0.653000  0.000000  0.000000  1
