# generated using pymatgen
data_Ho6Al24NiOs5Pd2
_symmetry_space_group_name_H-M   'P 1'
_cell_length_a   8.80459498
_cell_length_b   8.80806939
_cell_length_c   9.50183736
_cell_angle_alpha   89.78199528
_cell_angle_beta   89.87971313
_cell_angle_gamma   119.43887673
_symmetry_Int_Tables_number   1
_chemical_formula_structural   Ho6Al24NiOs5Pd2
_chemical_formula_sum   'Ho6 Al24 Ni1 Os5 Pd2'
_cell_volume   641.72450419
_cell_formula_units_Z   1
loop_
 _symmetry_equiv_pos_site_id
 _symmetry_equiv_pos_as_xyz
  1  'x, y, z'
loop_
 _atom_site_type_symbol
 _atom_site_label
 _atom_site_symmetry_multiplicity
 _atom_site_fract_x
 _atom_site_fract_y
 _atom_site_fract_z
 _atom_site_occupancy
  Ho  Ho0  1  0.186911  0.382144  0.251457  1
  Ho  Ho1  1  0.813089  0.617856  0.748543  1
  Ho  Ho2  1  0.615336  0.815278  0.252143  1
  Ho  Ho3  1  0.384664  0.184722  0.747857  1
  Ho  Ho4  1  0.195711  0.809894  0.249466  1
  Ho  Ho5  1  0.804289  0.190106  0.750534  1
  Al  Al6  1  0.340033  0.666657  0.027747  1
  Al  Al7  1  0.659967  0.333343  0.972253  1
  Al  Al8  1  0.669981  0.332183  0.524730  1
  Al  Al9  1  0.330019  0.667817  0.475270  1
  Al  Al10  1  0.157877  0.324398  0.578033  1
  Al  Al11  1  0.842123  0.675602  0.421967  1
  Al  Al12  1  0.675161  0.841030  0.577866  1
  Al  Al13  1  0.832071  0.675238  0.078710  1
  Al  Al14  1  0.324839  0.158970  0.422134  1
  Al  Al15  1  0.167929  0.324762  0.921290  1
  Al  Al16  1  0.163951  0.835183  0.575184  1
  Al  Al17  1  0.327254  0.163703  0.074945  1
  Al  Al18  1  0.836049  0.164817  0.424816  1
  Al  Al19  1  0.672746  0.836297  0.925055  1
  Al  Al20  1  0.831917  0.159438  0.076778  1
  Al  Al21  1  0.168083  0.840562  0.923222  1
  Al  Al22  1  0.561188  0.125252  0.248788  1
  Al  Al23  1  0.438812  0.874748  0.751212  1
  Al  Al24  1  0.874631  0.438621  0.251953  1
  Al  Al25  1  0.125369  0.561379  0.748047  1
  Al  Al26  1  0.559754  0.440585  0.242762  1
  Al  Al27  1  0.440246  0.559415  0.757238  1
  Al  Al28  1  0.998587  0.001763  0.250083  1
  Al  Al29  1  0.001413  0.998237  0.749917  1
  Ni  Ni30  1  0.500000  0.500000  0.000000  1
  Os  Os31  1  0.500000  0.000000  0.000000  1
  Os  Os32  1  0.500000  0.000000  0.500000  1
  Os  Os33  1  0.000000  0.500000  0.500000  1
  Os  Os34  1  0.000000  0.000000  0.000000  1
  Os  Os35  1  0.000000  0.000000  0.500000  1
  Pd  Pd36  1  0.000000  0.500000  0.000000  1
  Pd  Pd37  1  0.500000  0.500000  0.500000  1
