# generated using pymatgen
data_SrTcRuF12
_symmetry_space_group_name_H-M   'P 1'
_cell_length_a   5.60952393
_cell_length_b   5.57517716
_cell_length_c   10.09890090
_cell_angle_alpha   96.50116181
_cell_angle_beta   95.52252427
_cell_angle_gamma   119.12995522
_symmetry_Int_Tables_number   1
_chemical_formula_structural   SrTcRuF12
_chemical_formula_sum   'Sr1 Tc1 Ru1 F12'
_cell_volume   269.91217881
_cell_formula_units_Z   1
loop_
 _symmetry_equiv_pos_site_id
 _symmetry_equiv_pos_as_xyz
  1  'x, y, z'
loop_
 _atom_site_type_symbol
 _atom_site_label
 _atom_site_symmetry_multiplicity
 _atom_site_fract_x
 _atom_site_fract_y
 _atom_site_fract_z
 _atom_site_occupancy
  Sr  Sr0  1  0.972378  0.944963  0.876260  1
  Tc  Tc1  1  0.214506  0.504757  0.597928  1
  Ru  Ru2  1  0.382782  0.689935  0.128381  1
  F  F3  1  0.373837  0.990270  0.223047  1
  F  F4  1  0.547910  0.595914  0.727639  1
  F  F5  1  0.072773  0.629903  0.994542  1
  F  F6  1  0.131755  0.435500  0.220102  1
  F  F7  1  0.375558  0.378834  0.013677  1
  F  F8  1  0.222341  0.209364  0.497086  1
  F  F9  1  0.686986  0.745516  0.246310  1
  F  F10  1  0.192762  0.797668  0.716313  1
  F  F11  1  0.886234  0.407263  0.484928  1
  F  F12  1  0.007494  0.262791  0.720038  1
  F  F13  1  0.450556  0.784304  0.513731  1
  F  F14  1  0.630126  0.933022  0.018015  1
