# generated using pymatgen
data_Li2Mg2Ta7WN12
_symmetry_space_group_name_H-M   'P 1'
_cell_length_a   5.21284292
_cell_length_b   5.20192650
_cell_length_c   10.41796400
_cell_angle_alpha   90.00000000
_cell_angle_beta   90.00000000
_cell_angle_gamma   119.91171877
_symmetry_Int_Tables_number   1
_chemical_formula_structural   Li2Mg2Ta7WN12
_chemical_formula_sum   'Li2 Mg2 Ta7 W1 N12'
_cell_volume   244.87135682
_cell_formula_units_Z   1
loop_
 _symmetry_equiv_pos_site_id
 _symmetry_equiv_pos_as_xyz
  1  'x, y, z'
loop_
 _atom_site_type_symbol
 _atom_site_label
 _atom_site_symmetry_multiplicity
 _atom_site_fract_x
 _atom_site_fract_y
 _atom_site_fract_z
 _atom_site_occupancy
  Li  Li0  1  0.332880  0.666226  0.000401  1
  Li  Li1  1  0.332880  0.666226  0.499599  1
  Mg  Mg2  1  0.666362  0.333329  0.498913  1
  Mg  Mg3  1  0.666362  0.333329  0.001087  1
  Ta  Ta4  1  0.654256  0.995992  0.750000  1
  Ta  Ta5  1  0.342292  0.345591  0.750000  1
  Ta  Ta6  1  0.000092  0.999678  0.503328  1
  Ta  Ta7  1  0.000092  0.999678  0.996672  1
  Ta  Ta8  1  0.658769  0.662082  0.250000  1
  Ta  Ta9  1  0.337134  0.996336  0.250000  1
  Ta  Ta10  1  0.003913  0.657708  0.750000  1
  W  W11  1  0.003479  0.341833  0.250000  1
  N  N12  1  0.673966  0.671458  0.621752  1
  N  N13  1  0.673966  0.671458  0.878248  1
  N  N14  1  0.326150  0.325819  0.123037  1
  N  N15  1  0.326150  0.325819  0.376963  1
  N  N16  1  0.328633  0.002227  0.878249  1
  N  N17  1  0.328633  0.002227  0.621751  1
  N  N18  1  0.997527  0.670661  0.376968  1
  N  N19  1  0.997527  0.670661  0.123032  1
  N  N20  1  0.676702  0.005144  0.123086  1
  N  N21  1  0.676702  0.005144  0.376914  1
  N  N22  1  0.997769  0.325686  0.878545  1
  N  N23  1  0.997769  0.325686  0.621455  1
