# generated using pymatgen
data_Ta3Mn(BOs2)2
_symmetry_space_group_name_H-M   'P 1'
_cell_length_a   9.36762000
_cell_length_b   9.36762000
_cell_length_c   3.03875600
_cell_angle_alpha   90.00000000
_cell_angle_beta   90.00000000
_cell_angle_gamma   90.00000000
_symmetry_Int_Tables_number   1
_chemical_formula_structural   Ta3Mn(BOs2)2
_chemical_formula_sum   'Ta6 Mn2 B4 Os8'
_cell_volume   266.65784171
_cell_formula_units_Z   2
loop_
 _symmetry_equiv_pos_site_id
 _symmetry_equiv_pos_as_xyz
  1  'x, y, z'
loop_
 _atom_site_type_symbol
 _atom_site_label
 _atom_site_symmetry_multiplicity
 _atom_site_fract_x
 _atom_site_fract_y
 _atom_site_fract_z
 _atom_site_occupancy
  Ta  Ta0  1  0.830518  0.669482  0.000000  1
  Ta  Ta1  1  0.169482  0.330518  0.000000  1
  Ta  Ta2  1  0.330518  0.830518  0.000000  1
  Ta  Ta3  1  0.669482  0.169482  0.000000  1
  Ta  Ta4  1  0.500000  0.500000  0.000000  1
  Ta  Ta5  1  0.000000  0.000000  0.000000  1
  Mn  Mn6  1  0.500000  0.000000  0.500000  1
  Mn  Mn7  1  0.000000  0.500000  0.500000  1
  B  B8  1  0.611829  0.888171  0.000000  1
  B  B9  1  0.388171  0.111829  0.000000  1
  B  B10  1  0.111829  0.611829  0.000000  1
  B  B11  1  0.888171  0.388171  0.000000  1
  Os  Os12  1  0.570117  0.721511  0.500000  1
  Os  Os13  1  0.429883  0.278489  0.500000  1
  Os  Os14  1  0.070117  0.778489  0.500000  1
  Os  Os15  1  0.929883  0.221511  0.500000  1
  Os  Os16  1  0.278489  0.570117  0.500000  1
  Os  Os17  1  0.721511  0.429883  0.500000  1
  Os  Os18  1  0.221511  0.070117  0.500000  1
  Os  Os19  1  0.778489  0.929883  0.500000  1
