# generated using pymatgen
data_Eu4Er3Tm5Se16
_symmetry_space_group_name_H-M   'P 1'
_cell_length_a   4.10749400
_cell_length_b   12.47992641
_cell_length_c   14.82044700
_cell_angle_alpha   90.09292718
_cell_angle_beta   90.00000000
_cell_angle_gamma   90.00000000
_symmetry_Int_Tables_number   1
_chemical_formula_structural   Eu4Er3Tm5Se16
_chemical_formula_sum   'Eu4 Er3 Tm5 Se16'
_cell_volume   759.71323744
_cell_formula_units_Z   1
loop_
 _symmetry_equiv_pos_site_id
 _symmetry_equiv_pos_as_xyz
  1  'x, y, z'
loop_
 _atom_site_type_symbol
 _atom_site_label
 _atom_site_symmetry_multiplicity
 _atom_site_fract_x
 _atom_site_fract_y
 _atom_site_fract_z
 _atom_site_occupancy
  Eu  Eu0  1  0.750000  0.741698  0.164709  1
  Eu  Eu1  1  0.750000  0.240540  0.333911  1
  Eu  Eu2  1  0.250000  0.258403  0.835742  1
  Eu  Eu3  1  0.250000  0.759106  0.664804  1
  Er  Er4  1  0.750000  0.564177  0.388476  1
  Er  Er5  1  0.250000  0.936009  0.889235  1
  Er  Er6  1  0.250000  0.435564  0.611279  1
  Tm  Tm7  1  0.750000  0.081964  0.597329  1
  Tm  Tm8  1  0.750000  0.582390  0.902746  1
  Tm  Tm9  1  0.250000  0.918432  0.402431  1
  Tm  Tm10  1  0.250000  0.417647  0.097036  1
  Tm  Tm11  1  0.750000  0.063140  0.111894  1
  Se  Se12  1  0.750000  0.292197  0.675162  1
  Se  Se13  1  0.750000  0.792766  0.825391  1
  Se  Se14  1  0.250000  0.707843  0.324938  1
  Se  Se15  1  0.250000  0.206522  0.172970  1
  Se  Se16  1  0.750000  0.369277  0.968888  1
  Se  Se17  1  0.750000  0.868927  0.530170  1
  Se  Se18  1  0.250000  0.631290  0.030953  1
  Se  Se19  1  0.250000  0.131494  0.469394  1
  Se  Se20  1  0.750000  0.975334  0.285571  1
  Se  Se21  1  0.750000  0.473621  0.214233  1
  Se  Se22  1  0.250000  0.025594  0.714789  1
  Se  Se23  1  0.250000  0.525602  0.785701  1
  Se  Se24  1  0.750000  0.090961  0.923206  1
  Se  Se25  1  0.750000  0.590527  0.578686  1
  Se  Se26  1  0.250000  0.909728  0.079291  1
  Se  Se27  1  0.250000  0.409244  0.421065  1
