# generated using pymatgen
data_LiTb2Nd(Co4P3)2
_symmetry_space_group_name_H-M   'P 1'
_cell_length_a   3.73706600
_cell_length_b   10.62017500
_cell_length_c   12.23973900
_cell_angle_alpha   90.00000000
_cell_angle_beta   90.00000000
_cell_angle_gamma   90.00000000
_symmetry_Int_Tables_number   1
_chemical_formula_structural   LiTb2Nd(Co4P3)2
_chemical_formula_sum   'Li2 Tb4 Nd2 Co16 P12'
_cell_volume   485.77437101
_cell_formula_units_Z   2
loop_
 _symmetry_equiv_pos_site_id
 _symmetry_equiv_pos_as_xyz
  1  'x, y, z'
loop_
 _atom_site_type_symbol
 _atom_site_label
 _atom_site_symmetry_multiplicity
 _atom_site_fract_x
 _atom_site_fract_y
 _atom_site_fract_z
 _atom_site_occupancy
  Li  Li0  1  0.500000  0.500000  0.151101  1
  Li  Li1  1  0.000000  0.000000  0.848899  1
  Tb  Tb2  1  0.500000  0.819230  0.205361  1
  Tb  Tb3  1  0.500000  0.180770  0.205361  1
  Tb  Tb4  1  0.000000  0.680770  0.794639  1
  Tb  Tb5  1  0.000000  0.319230  0.794639  1
  Nd  Nd6  1  0.000000  0.500000  0.523766  1
  Nd  Nd7  1  0.500000  0.000000  0.476234  1
  Co  Co8  1  0.500000  0.500000  0.706997  1
  Co  Co9  1  0.000000  0.000000  0.293003  1
  Co  Co10  1  0.000000  0.500000  0.987297  1
  Co  Co11  1  0.500000  0.000000  0.012703  1
  Co  Co12  1  0.500000  0.332866  0.997097  1
  Co  Co13  1  0.500000  0.667134  0.997097  1
  Co  Co14  1  0.000000  0.167134  0.002903  1
  Co  Co15  1  0.000000  0.832866  0.002903  1
  Co  Co16  1  0.500000  0.296363  0.429889  1
  Co  Co17  1  0.500000  0.703637  0.429889  1
  Co  Co18  1  0.000000  0.203637  0.570111  1
  Co  Co19  1  0.000000  0.796363  0.570111  1
  Co  Co20  1  0.500000  0.879243  0.708776  1
  Co  Co21  1  0.500000  0.120757  0.708776  1
  Co  Co22  1  0.000000  0.620757  0.291224  1
  Co  Co23  1  0.000000  0.379243  0.291224  1
  P  P24  1  0.500000  0.500000  0.886222  1
  P  P25  1  0.000000  0.000000  0.113778  1
  P  P26  1  0.500000  0.500000  0.342153  1
  P  P27  1  0.000000  0.000000  0.657847  1
  P  P28  1  0.500000  0.306308  0.616694  1
  P  P29  1  0.500000  0.693692  0.616694  1
  P  P30  1  0.000000  0.193692  0.383306  1
  P  P31  1  0.000000  0.806308  0.383306  1
  P  P32  1  0.500000  0.843354  0.894638  1
  P  P33  1  0.500000  0.156646  0.894638  1
  P  P34  1  0.000000  0.656646  0.105362  1
  P  P35  1  0.000000  0.343354  0.105362  1
