# generated using pymatgen
data_AcZn9Au2
_symmetry_space_group_name_H-M   'P 1'
_cell_length_a   8.52377816
_cell_length_b   8.52377884
_cell_length_c   8.52377878
_cell_angle_alpha   99.80133598
_cell_angle_beta   99.80133390
_cell_angle_gamma   131.26442491
_symmetry_Int_Tables_number   1
_chemical_formula_structural   AcZn9Au2
_chemical_formula_sum   'Ac2 Zn18 Au4'
_cell_volume   424.03734542
_cell_formula_units_Z   2
loop_
 _symmetry_equiv_pos_site_id
 _symmetry_equiv_pos_as_xyz
  1  'x, y, z'
loop_
 _atom_site_type_symbol
 _atom_site_label
 _atom_site_symmetry_multiplicity
 _atom_site_fract_x
 _atom_site_fract_y
 _atom_site_fract_z
 _atom_site_occupancy
  Ac  Ac0  1  0.250000  0.750000  0.500000  1
  Ac  Ac1  1  0.000000  0.000000  0.000000  1
  Zn  Zn2  1  0.906930  0.577152  0.085370  1
  Zn  Zn3  1  0.422848  0.508217  0.329778  1
  Zn  Zn4  1  0.491783  0.577152  0.670222  1
  Zn  Zn5  1  0.422848  0.093070  0.914630  1
  Zn  Zn6  1  0.758217  0.172848  0.829778  1
  Zn  Zn7  1  0.491783  0.821560  0.914630  1
  Zn  Zn8  1  0.500000  0.500000  0.000000  1
  Zn  Zn9  1  0.758217  0.928440  0.585370  1
  Zn  Zn10  1  0.750000  0.250000  0.500000  1
  Zn  Zn11  1  0.071560  0.656930  0.829778  1
  Zn  Zn12  1  0.343070  0.172848  0.414630  1
  Zn  Zn13  1  0.827152  0.656930  0.585370  1
  Zn  Zn14  1  0.906930  0.821560  0.329778  1
  Zn  Zn15  1  0.178440  0.093070  0.670222  1
  Zn  Zn16  1  0.071560  0.241783  0.414630  1
  Zn  Zn17  1  0.343070  0.928440  0.170222  1
  Zn  Zn18  1  0.827152  0.241783  0.170222  1
  Zn  Zn19  1  0.178440  0.508217  0.085370  1
  Au  Au20  1  0.625000  0.875000  0.250000  1
  Au  Au21  1  0.125000  0.375000  0.750000  1
  Au  Au22  1  0.625000  0.375000  0.250000  1
  Au  Au23  1  0.625000  0.375000  0.750000  1
