# generated using pymatgen
data_Ho8Er4ZnInCo4
_symmetry_space_group_name_H-M   'P 1'
_cell_length_a   8.25848173
_cell_length_b   8.25860280
_cell_length_c   8.25848301
_cell_angle_alpha   111.52531699
_cell_angle_beta   110.23497316
_cell_angle_gamma   106.69081665
_symmetry_Int_Tables_number   1
_chemical_formula_structural   Ho8Er4ZnInCo4
_chemical_formula_sum   'Ho8 Er4 Zn1 In1 Co4'
_cell_volume   432.78024018
_cell_formula_units_Z   1
loop_
 _symmetry_equiv_pos_site_id
 _symmetry_equiv_pos_as_xyz
  1  'x, y, z'
loop_
 _atom_site_type_symbol
 _atom_site_label
 _atom_site_symmetry_multiplicity
 _atom_site_fract_x
 _atom_site_fract_y
 _atom_site_fract_z
 _atom_site_occupancy
  Ho  Ho0  1  0.184932  0.286089  0.471020  1
  Ho  Ho1  1  0.815068  0.713911  0.528980  1
  Ho  Ho2  1  0.184932  0.713911  0.898843  1
  Ho  Ho3  1  0.815068  0.286089  0.101157  1
  Ho  Ho4  1  0.429262  0.225235  0.204023  1
  Ho  Ho5  1  0.570738  0.774765  0.795977  1
  Ho  Ho6  1  0.021213  0.225235  0.795973  1
  Ho  Ho7  1  0.978787  0.774765  0.204027  1
  Er  Er8  1  0.315209  0.619115  0.303906  1
  Er  Er9  1  0.684791  0.380885  0.696094  1
  Er  Er10  1  0.315206  0.011295  0.696090  1
  Er  Er11  1  0.684794  0.988705  0.303910  1
  Zn  Zn12  1  0.000000  0.000000  0.000000  1
  In  In13  1  0.500000  0.500000  0.000000  1
  Co  Co14  1  0.112879  0.612884  0.500005  1
  Co  Co15  1  0.887121  0.387116  0.499995  1
  Co  Co16  1  0.376163  0.000000  0.376163  1
  Co  Co17  1  0.623837  0.000000  0.623837  1
