# generated using pymatgen
data_Ho2Al9RePd2
_symmetry_space_group_name_H-M   'P 1'
_cell_length_a   7.59680639
_cell_length_b   7.59680575
_cell_length_c   9.50163500
_cell_angle_alpha   90.00000000
_cell_angle_beta   90.00000000
_cell_angle_gamma   118.36674724
_symmetry_Int_Tables_number   1
_chemical_formula_structural   Ho2Al9RePd2
_chemical_formula_sum   'Ho4 Al18 Re2 Pd4'
_cell_volume   482.50944003
_cell_formula_units_Z   2
loop_
 _symmetry_equiv_pos_site_id
 _symmetry_equiv_pos_as_xyz
  1  'x, y, z'
loop_
 _atom_site_type_symbol
 _atom_site_label
 _atom_site_symmetry_multiplicity
 _atom_site_fract_x
 _atom_site_fract_y
 _atom_site_fract_z
 _atom_site_occupancy
  Ho  Ho0  1  0.994399  0.684225  0.250000  1
  Ho  Ho1  1  0.005601  0.315775  0.750000  1
  Ho  Ho2  1  0.684225  0.994399  0.250000  1
  Ho  Ho3  1  0.315775  0.005601  0.750000  1
  Al  Al4  1  0.134277  0.134277  0.250000  1
  Al  Al5  1  0.865723  0.865723  0.750000  1
  Al  Al6  1  0.002625  0.336509  0.077026  1
  Al  Al7  1  0.997375  0.663491  0.922974  1
  Al  Al8  1  0.997375  0.663491  0.577026  1
  Al  Al9  1  0.336509  0.002625  0.422974  1
  Al  Al10  1  0.002625  0.336509  0.422974  1
  Al  Al11  1  0.663491  0.997375  0.577026  1
  Al  Al12  1  0.663491  0.997375  0.922974  1
  Al  Al13  1  0.336509  0.002625  0.077026  1
  Al  Al14  1  0.329397  0.329397  0.547938  1
  Al  Al15  1  0.670603  0.670604  0.452062  1
  Al  Al16  1  0.670603  0.670604  0.047938  1
  Al  Al17  1  0.329397  0.329397  0.952062  1
  Al  Al18  1  0.345012  0.554197  0.250000  1
  Al  Al19  1  0.654988  0.445803  0.750000  1
  Al  Al20  1  0.554197  0.345012  0.250000  1
  Al  Al21  1  0.445803  0.654988  0.750000  1
  Re  Re22  1  0.000000  0.000000  0.000000  1
  Re  Re23  1  0.000000  0.000000  0.500000  1
  Pd  Pd24  1  0.672208  0.327792  0.000000  1
  Pd  Pd25  1  0.327792  0.672208  0.000000  1
  Pd  Pd26  1  0.327792  0.672208  0.500000  1
  Pd  Pd27  1  0.672208  0.327792  0.500000  1
