# generated using pymatgen
data_CrRe(Ir2W)2
_symmetry_space_group_name_H-M   'P 1'
_cell_length_a   5.51693400
_cell_length_b   5.55421248
_cell_length_c   4.39138300
_cell_angle_alpha   90.00000000
_cell_angle_beta   90.00000000
_cell_angle_gamma   119.77821252
_symmetry_Int_Tables_number   1
_chemical_formula_structural   CrRe(Ir2W)2
_chemical_formula_sum   'Cr1 Re1 Ir4 W2'
_cell_volume   116.79345052
_cell_formula_units_Z   1
loop_
 _symmetry_equiv_pos_site_id
 _symmetry_equiv_pos_as_xyz
  1  'x, y, z'
loop_
 _atom_site_type_symbol
 _atom_site_label
 _atom_site_symmetry_multiplicity
 _atom_site_fract_x
 _atom_site_fract_y
 _atom_site_fract_z
 _atom_site_occupancy
  Cr  Cr0  1  0.664605  0.329210  0.250000  1
  Re  Re1  1  0.335380  0.670761  0.750000  1
  Ir  Ir2  1  0.662902  0.826578  0.250000  1
  Ir  Ir3  1  0.163678  0.826578  0.250000  1
  Ir  Ir4  1  0.343254  0.177026  0.750000  1
  Ir  Ir5  1  0.833771  0.177026  0.750000  1
  W  W6  1  0.165773  0.331545  0.250000  1
  W  W7  1  0.830637  0.661276  0.750000  1
