# generated using pymatgen
data_RbTaSiS5
_symmetry_space_group_name_H-M   'P 1'
_cell_length_a   7.00332109
_cell_length_b   7.38541767
_cell_length_c   9.35907409
_cell_angle_alpha   66.48446341
_cell_angle_beta   77.58053526
_cell_angle_gamma   74.46071948
_symmetry_Int_Tables_number   1
_chemical_formula_structural   RbTaSiS5
_chemical_formula_sum   'Rb2 Ta2 Si2 S10'
_cell_volume   424.42978295
_cell_formula_units_Z   2
loop_
 _symmetry_equiv_pos_site_id
 _symmetry_equiv_pos_as_xyz
  1  'x, y, z'
loop_
 _atom_site_type_symbol
 _atom_site_label
 _atom_site_symmetry_multiplicity
 _atom_site_fract_x
 _atom_site_fract_y
 _atom_site_fract_z
 _atom_site_occupancy
  Rb  Rb0  1  0.606659  0.346354  0.310389  1
  Rb  Rb1  1  0.393341  0.653646  0.689611  1
  Ta  Ta2  1  0.239100  0.028238  0.004997  1
  Ta  Ta3  1  0.760900  0.971762  0.995003  1
  Si  Si4  1  0.978259  0.695898  0.375720  1
  Si  Si5  1  0.021741  0.304102  0.624280  1
  S  S6  1  0.072932  0.756164  0.010109  1
  S  S7  1  0.435488  0.222405  0.029678  1
  S  S8  1  0.699706  0.857700  0.293561  1
  S  S9  1  0.208934  0.862190  0.297001  1
  S  S10  1  0.071822  0.393794  0.368947  1
  S  S11  1  0.928178  0.606206  0.631053  1
  S  S12  1  0.791066  0.137810  0.702999  1
  S  S13  1  0.300294  0.142300  0.706439  1
  S  S14  1  0.564512  0.777595  0.970322  1
  S  S15  1  0.927068  0.243836  0.989891  1
