# generated using pymatgen
data_Rb4Na2DyScSb4
_symmetry_space_group_name_H-M   'P 1'
_cell_length_a   9.95289352
_cell_length_b   9.95289454
_cell_length_c   9.95289355
_cell_angle_alpha   135.71184966
_cell_angle_beta   64.05479005
_cell_angle_gamma   136.19289163
_symmetry_Int_Tables_number   1
_chemical_formula_structural   Rb4Na2DyScSb4
_chemical_formula_sum   'Rb4 Na2 Dy1 Sc1 Sb4'
_cell_volume   470.14197838
_cell_formula_units_Z   1
loop_
 _symmetry_equiv_pos_site_id
 _symmetry_equiv_pos_as_xyz
  1  'x, y, z'
loop_
 _atom_site_type_symbol
 _atom_site_label
 _atom_site_symmetry_multiplicity
 _atom_site_fract_x
 _atom_site_fract_y
 _atom_site_fract_z
 _atom_site_occupancy
  Rb  Rb0  1  0.326002  0.774219  0.098046  1
  Rb  Rb1  1  0.173998  0.272044  0.448217  1
  Rb  Rb2  1  0.823827  0.725782  0.551784  1
  Rb  Rb3  1  0.676173  0.227957  0.901955  1
  Na  Na4  1  0.750000  0.250000  0.500000  1
  Na  Na5  1  0.250000  0.750001  0.500001  1
  Dy  Dy6  1  0.250000  0.250000  0.000000  1
  Sc  Sc7  1  0.750000  0.750000  0.000000  1
  Sb  Sb8  1  0.893763  0.210846  0.123977  1
  Sb  Sb9  1  0.606237  0.730214  0.317084  1
  Sb  Sb10  1  0.413131  0.289154  0.682917  1
  Sb  Sb11  1  0.086869  0.769787  0.876024  1
