# generated using pymatgen
data_K4Al2S5
_symmetry_space_group_name_H-M   'P 1'
_cell_length_a   7.29035339
_cell_length_b   9.02081402
_cell_length_c   10.24624797
_cell_angle_alpha   72.47045657
_cell_angle_beta   71.01756610
_cell_angle_gamma   84.61277726
_symmetry_Int_Tables_number   1
_chemical_formula_structural   K4Al2S5
_chemical_formula_sum   'K8 Al4 S10'
_cell_volume   607.60233284
_cell_formula_units_Z   2
loop_
 _symmetry_equiv_pos_site_id
 _symmetry_equiv_pos_as_xyz
  1  'x, y, z'
loop_
 _atom_site_type_symbol
 _atom_site_label
 _atom_site_symmetry_multiplicity
 _atom_site_fract_x
 _atom_site_fract_y
 _atom_site_fract_z
 _atom_site_occupancy
  K  K0  1  0.500101  0.791069  0.913992  1
  K  K1  1  0.499899  0.208931  0.086008  1
  K  K2  1  0.549718  0.190948  0.540418  1
  K  K3  1  0.450282  0.809052  0.459582  1
  K  K4  1  0.113295  0.179119  0.906021  1
  K  K5  1  0.886705  0.820881  0.093979  1
  K  K6  1  0.770408  0.471445  0.658406  1
  K  K7  1  0.229592  0.528555  0.341594  1
  Al  Al8  1  0.031916  0.008312  0.344205  1
  Al  Al9  1  0.968084  0.991688  0.655795  1
  Al  Al10  1  0.883306  0.414904  0.161219  1
  Al  Al11  1  0.116694  0.585096  0.838781  1
  S  S12  1  0.834735  0.850455  0.556624  1
  S  S13  1  0.165265  0.149545  0.443376  1
  S  S14  1  0.824169  0.150372  0.226558  1
  S  S15  1  0.175831  0.849628  0.773442  1
  S  S16  1  0.205574  0.479709  0.045549  1
  S  S17  1  0.794426  0.520291  0.954451  1
  S  S18  1  0.731737  0.518540  0.336881  1
  S  S19  1  0.268263  0.481460  0.663119  1
  S  S20  1  0.249722  0.898194  0.193139  1
  S  S21  1  0.750278  0.101806  0.806861  1
