# generated using pymatgen
data_Hf3Ti2Al2Se
_symmetry_space_group_name_H-M   'P 1'
_cell_length_a   8.05221700
_cell_length_b   7.93887482
_cell_length_c   5.30220400
_cell_angle_alpha   90.00000000
_cell_angle_beta   90.00000000
_cell_angle_gamma   120.47341335
_symmetry_Int_Tables_number   1
_chemical_formula_structural   Hf3Ti2Al2Se
_chemical_formula_sum   'Hf6 Ti4 Al4 Se2'
_cell_volume   292.12578296
_cell_formula_units_Z   2
loop_
 _symmetry_equiv_pos_site_id
 _symmetry_equiv_pos_as_xyz
  1  'x, y, z'
loop_
 _atom_site_type_symbol
 _atom_site_label
 _atom_site_symmetry_multiplicity
 _atom_site_fract_x
 _atom_site_fract_y
 _atom_site_fract_z
 _atom_site_occupancy
  Hf  Hf0  1  0.254003  0.000000  0.250000  1
  Hf  Hf1  1  0.234506  0.242088  0.750000  1
  Hf  Hf2  1  0.992418  0.757912  0.750000  1
  Hf  Hf3  1  0.007582  0.242088  0.250000  1
  Hf  Hf4  1  0.765494  0.757912  0.250000  1
  Hf  Hf5  1  0.745997  0.000000  0.750000  1
  Ti  Ti6  1  0.663415  0.326829  0.000000  1
  Ti  Ti7  1  0.336585  0.673171  0.500000  1
  Ti  Ti8  1  0.663415  0.326829  0.500000  1
  Ti  Ti9  1  0.336585  0.673171  0.000000  1
  Al  Al10  1  0.000460  0.593829  0.250000  1
  Al  Al11  1  0.999540  0.406171  0.750000  1
  Al  Al12  1  0.593369  0.593829  0.750000  1
  Al  Al13  1  0.406631  0.406171  0.250000  1
  Se  Se14  1  0.614751  0.000000  0.250000  1
  Se  Se15  1  0.385249  0.000000  0.750000  1
