# generated using pymatgen
data_Pr3Sm(Pb2O7)2
_symmetry_space_group_name_H-M   'P 1'
_cell_length_a   7.81939912
_cell_length_b   7.81940157
_cell_length_c   7.78491000
_cell_angle_alpha   59.85332928
_cell_angle_beta   59.85331885
_cell_angle_gamma   59.99999846
_symmetry_Int_Tables_number   1
_chemical_formula_structural   Pr3Sm(Pb2O7)2
_chemical_formula_sum   'Pr3 Sm1 Pb4 O14'
_cell_volume   335.82969270
_cell_formula_units_Z   1
loop_
 _symmetry_equiv_pos_site_id
 _symmetry_equiv_pos_as_xyz
  1  'x, y, z'
loop_
 _atom_site_type_symbol
 _atom_site_label
 _atom_site_symmetry_multiplicity
 _atom_site_fract_x
 _atom_site_fract_y
 _atom_site_fract_z
 _atom_site_occupancy
  Pr  Pr0  1  0.125000  0.625000  0.125000  1
  Pr  Pr1  1  0.625000  0.125000  0.125000  1
  Pr  Pr2  1  0.125000  0.125000  0.125000  1
  Sm  Sm3  1  0.125000  0.125000  0.625000  1
  Pb  Pb4  1  0.625000  0.625000  0.125000  1
  Pb  Pb5  1  0.625000  0.125000  0.625000  1
  Pb  Pb6  1  0.125000  0.625000  0.625000  1
  Pb  Pb7  1  0.625000  0.625000  0.625000  1
  O  O8  1  0.248055  0.248055  0.255835  1
  O  O9  1  0.001945  0.001945  0.994165  1
  O  O10  1  0.529829  0.968258  0.533656  1
  O  O11  1  0.281943  0.718217  0.281623  1
  O  O12  1  0.531783  0.531783  0.968377  1
  O  O13  1  0.968258  0.529829  0.533656  1
  O  O14  1  0.531783  0.968057  0.968377  1
  O  O15  1  0.968258  0.968258  0.533656  1
  O  O16  1  0.968057  0.531783  0.968377  1
  O  O17  1  0.718217  0.281943  0.281623  1
  O  O18  1  0.281742  0.720171  0.716344  1
  O  O19  1  0.720171  0.281742  0.716344  1
  O  O20  1  0.281742  0.281742  0.716344  1
  O  O21  1  0.718217  0.718217  0.281623  1
