# generated using pymatgen
data_HoTm(BeB14)2
_symmetry_space_group_name_H-M   'P 1'
_cell_length_a   7.18985148
_cell_length_b   7.18985055
_cell_length_c   7.18985117
_cell_angle_alpha   132.69636887
_cell_angle_beta   110.37837600
_cell_angle_gamma   88.49114909
_symmetry_Int_Tables_number   1
_chemical_formula_structural   HoTm(BeB14)2
_chemical_formula_sum   'Ho1 Tm1 Be2 B28'
_cell_volume   243.90529354
_cell_formula_units_Z   1
loop_
 _symmetry_equiv_pos_site_id
 _symmetry_equiv_pos_as_xyz
  1  'x, y, z'
loop_
 _atom_site_type_symbol
 _atom_site_label
 _atom_site_symmetry_multiplicity
 _atom_site_fract_x
 _atom_site_fract_y
 _atom_site_fract_z
 _atom_site_occupancy
  Ho  Ho0  1  0.607353  0.250000  0.357353  1
  Tm  Tm1  1  0.392081  0.750000  0.642081  1
  Be  Be2  1  0.999990  0.499965  0.999955  1
  Be  Be3  1  0.999990  0.000035  0.500024  1
  B  B4  1  0.978361  0.343964  0.634397  1
  B  B5  1  0.629560  0.328228  0.795127  1
  B  B6  1  0.798716  0.833587  0.965129  1
  B  B7  1  0.631542  0.666413  0.965129  1
  B  B8  1  0.200975  0.166381  0.034594  1
  B  B9  1  0.779684  0.777812  0.676243  1
  B  B10  1  0.966899  0.665567  0.795127  1
  B  B11  1  0.022386  0.656190  0.366196  1
  B  B12  1  0.966899  0.171772  0.301332  1
  B  B13  1  0.033332  0.828183  0.698709  1
  B  B14  1  0.368213  0.333619  0.034594  1
  B  B15  1  0.075212  0.907475  0.167736  1
  B  B16  1  0.629560  0.834433  0.301332  1
  B  B17  1  0.398432  0.722188  0.001873  1
  B  B18  1  0.239951  0.407522  0.832430  1
  B  B19  1  0.220090  0.222679  0.323966  1
  B  B20  1  0.210005  0.843810  0.366196  1
  B  B21  1  0.924908  0.092478  0.832430  1
  B  B22  1  0.398432  0.396559  0.676243  1
  B  B23  1  0.220090  0.896124  0.997411  1
  B  B24  1  0.779684  0.103441  0.001873  1
  B  B25  1  0.601287  0.277321  0.997411  1
  B  B26  1  0.601287  0.603876  0.323966  1
  B  B27  1  0.033332  0.334623  0.205149  1
  B  B28  1  0.760262  0.592525  0.167736  1
  B  B29  1  0.790434  0.156036  0.634397  1
  B  B30  1  0.370526  0.165377  0.698709  1
  B  B31  1  0.370526  0.671817  0.205149  1
