# generated using pymatgen
data_YErPa2(Al8Pt3)3
_symmetry_space_group_name_H-M   'P 1'
_cell_length_a   7.56425942
_cell_length_b   7.56403132
_cell_length_c   13.11757340
_cell_angle_alpha   84.53471708
_cell_angle_beta   101.05953073
_cell_angle_gamma   119.89386379
_symmetry_Int_Tables_number   1
_chemical_formula_structural   YErPa2(Al8Pt3)3
_chemical_formula_sum   'Y1 Er1 Pa2 Al24 Pt9'
_cell_volume   638.59561934
_cell_formula_units_Z   1
loop_
 _symmetry_equiv_pos_site_id
 _symmetry_equiv_pos_as_xyz
  1  'x, y, z'
loop_
 _atom_site_type_symbol
 _atom_site_label
 _atom_site_symmetry_multiplicity
 _atom_site_fract_x
 _atom_site_fract_y
 _atom_site_fract_z
 _atom_site_occupancy
  Y  Y0  1  0.062098  0.667583  0.192001  1
  Er  Er1  1  0.937771  0.332312  0.807649  1
  Pa  Pa2  1  0.733188  0.998898  0.195295  1
  Pa  Pa3  1  0.267052  0.001267  0.804583  1
  Al  Al4  1  0.807933  0.867881  0.815904  1
  Al  Al5  1  0.192279  0.132554  0.184104  1
  Al  Al6  1  0.981725  0.665650  0.943145  1
  Al  Al7  1  0.018116  0.333961  0.056432  1
  Al  Al8  1  0.399557  0.665383  0.817510  1
  Al  Al9  1  0.600013  0.334373  0.182491  1
  Al  Al10  1  0.879898  0.663154  0.670164  1
  Al  Al11  1  0.120205  0.336621  0.330039  1
  Al  Al12  1  0.601304  0.458480  0.816897  1
  Al  Al13  1  0.398891  0.541296  0.183122  1
  Al  Al14  1  0.229533  0.342739  0.668394  1
  Al  Al15  1  0.770201  0.657181  0.331820  1
  Al  Al16  1  0.852587  0.334305  0.558735  1
  Al  Al17  1  0.186362  0.999375  0.558038  1
  Al  Al18  1  0.813668  0.000633  0.442024  1
  Al  Al19  1  0.351663  0.999040  0.055282  1
  Al  Al20  1  0.648469  0.001312  0.944437  1
  Al  Al21  1  0.558490  0.993925  0.669433  1
  Al  Al22  1  0.441789  0.006403  0.330786  1
  Al  Al23  1  0.519858  0.666242  0.561396  1
  Al  Al24  1  0.480154  0.333762  0.438619  1
  Al  Al25  1  0.683906  0.668012  0.047914  1
  Al  Al26  1  0.315742  0.331921  0.951845  1
  Al  Al27  1  0.147442  0.665666  0.441425  1
  Pt  Pt28  1  0.327399  0.670404  0.000119  1
  Pt  Pt29  1  0.545935  0.324178  0.638671  1
  Pt  Pt30  1  0.454480  0.675827  0.361568  1
  Pt  Pt31  1  0.889133  0.009278  0.639852  1
  Pt  Pt32  1  0.110963  0.991093  0.360373  1
  Pt  Pt33  1  0.672516  0.329488  0.999799  1
  Pt  Pt34  1  0.203948  0.667345  0.640181  1
  Pt  Pt35  1  0.795673  0.332330  0.360015  1
  Pt  Pt36  1  0.000061  0.000127  0.999935  1
