# generated using pymatgen
data_LiPr9Cd3Ru
_symmetry_space_group_name_H-M   'P 1'
_cell_length_a   9.87500800
_cell_length_b   9.87500818
_cell_length_c   9.99805600
_cell_angle_alpha   90.00000000
_cell_angle_beta   90.00000000
_cell_angle_gamma   119.99999939
_symmetry_Int_Tables_number   1
_chemical_formula_structural   LiPr9Cd3Ru
_chemical_formula_sum   'Li2 Pr18 Cd6 Ru2'
_cell_volume   844.34730113
_cell_formula_units_Z   2
loop_
 _symmetry_equiv_pos_site_id
 _symmetry_equiv_pos_as_xyz
  1  'x, y, z'
loop_
 _atom_site_type_symbol
 _atom_site_label
 _atom_site_symmetry_multiplicity
 _atom_site_fract_x
 _atom_site_fract_y
 _atom_site_fract_z
 _atom_site_occupancy
  Li  Li0  1  0.000000  0.000000  0.500000  1
  Li  Li1  1  0.000000  0.000000  0.000000  1
  Pr  Pr2  1  0.206539  0.793461  0.439765  1
  Pr  Pr3  1  0.206539  0.413079  0.439765  1
  Pr  Pr4  1  0.586921  0.793461  0.439765  1
  Pr  Pr5  1  0.793461  0.206539  0.560235  1
  Pr  Pr6  1  0.793461  0.586921  0.560235  1
  Pr  Pr7  1  0.413079  0.206539  0.560235  1
  Pr  Pr8  1  0.793461  0.206539  0.939765  1
  Pr  Pr9  1  0.793461  0.586921  0.939765  1
  Pr  Pr10  1  0.413079  0.206539  0.939765  1
  Pr  Pr11  1  0.206539  0.793461  0.060235  1
  Pr  Pr12  1  0.206539  0.413079  0.060235  1
  Pr  Pr13  1  0.586921  0.793461  0.060235  1
  Pr  Pr14  1  0.541631  0.458369  0.250000  1
  Pr  Pr15  1  0.541631  0.083263  0.250000  1
  Pr  Pr16  1  0.916737  0.458369  0.250000  1
  Pr  Pr17  1  0.458369  0.541631  0.750000  1
  Pr  Pr18  1  0.458369  0.916737  0.750000  1
  Pr  Pr19  1  0.083263  0.541631  0.750000  1
  Cd  Cd20  1  0.894433  0.105567  0.250000  1
  Cd  Cd21  1  0.894433  0.788867  0.250000  1
  Cd  Cd22  1  0.211133  0.105567  0.250000  1
  Cd  Cd23  1  0.105567  0.894433  0.750000  1
  Cd  Cd24  1  0.105567  0.211133  0.750000  1
  Cd  Cd25  1  0.788867  0.894433  0.750000  1
  Ru  Ru26  1  0.333333  0.666667  0.250000  1
  Ru  Ru27  1  0.666667  0.333333  0.750000  1
