# generated using pymatgen
data_Ca4ScV(SbO6)2
_symmetry_space_group_name_H-M   'P 1'
_cell_length_a   5.67231683
_cell_length_b   5.51815033
_cell_length_c   9.62969455
_cell_angle_alpha   54.96595730
_cell_angle_beta   89.94296553
_cell_angle_gamma   90.02665665
_symmetry_Int_Tables_number   1
_chemical_formula_structural   Ca4ScV(SbO6)2
_chemical_formula_sum   'Ca4 Sc1 V1 Sb2 O12'
_cell_volume   246.80257155
_cell_formula_units_Z   1
loop_
 _symmetry_equiv_pos_site_id
 _symmetry_equiv_pos_as_xyz
  1  'x, y, z'
loop_
 _atom_site_type_symbol
 _atom_site_label
 _atom_site_symmetry_multiplicity
 _atom_site_fract_x
 _atom_site_fract_y
 _atom_site_fract_z
 _atom_site_occupancy
  Ca  Ca0  1  0.548070  0.765987  0.748231  1
  Ca  Ca1  1  0.950913  0.760801  0.252135  1
  Ca  Ca2  1  0.451930  0.234013  0.251769  1
  Ca  Ca3  1  0.049087  0.239199  0.747865  1
  Sc  Sc4  1  0.000000  0.500000  0.000000  1
  V  V5  1  0.500000  0.500000  0.500000  1
  Sb  Sb6  1  0.000000  0.000000  0.500000  1
  Sb  Sb7  1  0.500000  0.000000  0.000000  1
  O  O8  1  0.797783  0.243230  0.549931  1
  O  O9  1  0.699295  0.240633  0.049995  1
  O  O10  1  0.202217  0.756770  0.450069  1
  O  O11  1  0.300705  0.759367  0.950005  1
  O  O12  1  0.788603  0.857032  0.947350  1
  O  O13  1  0.709810  0.853136  0.446297  1
  O  O14  1  0.211397  0.142968  0.052650  1
  O  O15  1  0.290190  0.146864  0.553703  1
  O  O16  1  0.966606  0.659882  0.743015  1
  O  O17  1  0.534170  0.654382  0.247230  1
  O  O18  1  0.033394  0.340118  0.256985  1
  O  O19  1  0.465830  0.345618  0.752770  1
