# generated using pymatgen
data_SmTh2(AlNi)3
_symmetry_space_group_name_H-M   'P 1'
_cell_length_a   7.09927708
_cell_length_b   7.02914773
_cell_length_c   4.02212000
_cell_angle_alpha   90.00000000
_cell_angle_beta   90.00000000
_cell_angle_gamma   119.67375022
_symmetry_Int_Tables_number   1
_chemical_formula_structural   SmTh2(AlNi)3
_chemical_formula_sum   'Sm1 Th2 Al3 Ni3'
_cell_volume   174.38970108
_cell_formula_units_Z   1
loop_
 _symmetry_equiv_pos_site_id
 _symmetry_equiv_pos_as_xyz
  1  'x, y, z'
loop_
 _atom_site_type_symbol
 _atom_site_label
 _atom_site_symmetry_multiplicity
 _atom_site_fract_x
 _atom_site_fract_y
 _atom_site_fract_z
 _atom_site_occupancy
  Sm  Sm0  1  0.000000  0.418637  0.500000  1
  Th  Th1  1  0.578344  0.578259  0.500000  1
  Th  Th2  1  0.421656  0.999916  0.500000  1
  Al  Al3  1  0.000000  0.766966  0.000000  1
  Al  Al4  1  0.225616  0.229303  0.000000  1
  Al  Al5  1  0.774384  0.003687  0.000000  1
  Ni  Ni6  1  0.345430  0.677350  0.000000  1
  Ni  Ni7  1  0.654570  0.331919  0.000000  1
  Ni  Ni8  1  0.000000  0.993964  0.500000  1
