# generated using pymatgen
data_Nd2ScBe2Rh5
_symmetry_space_group_name_H-M   'P 1'
_cell_length_a   9.88262800
_cell_length_b   9.88262800
_cell_length_c   3.34399400
_cell_angle_alpha   90.00000000
_cell_angle_beta   90.00000000
_cell_angle_gamma   90.00000000
_symmetry_Int_Tables_number   1
_chemical_formula_structural   Nd2ScBe2Rh5
_chemical_formula_sum   'Nd4 Sc2 Be4 Rh10'
_cell_volume   326.59564221
_cell_formula_units_Z   2
loop_
 _symmetry_equiv_pos_site_id
 _symmetry_equiv_pos_as_xyz
  1  'x, y, z'
loop_
 _atom_site_type_symbol
 _atom_site_label
 _atom_site_symmetry_multiplicity
 _atom_site_fract_x
 _atom_site_fract_y
 _atom_site_fract_z
 _atom_site_occupancy
  Nd  Nd0  1  0.824266  0.324266  0.000000  1
  Nd  Nd1  1  0.324266  0.175734  0.000000  1
  Nd  Nd2  1  0.675734  0.824266  0.000000  1
  Nd  Nd3  1  0.175734  0.675734  0.000000  1
  Sc  Sc4  1  0.000000  0.000000  0.000000  1
  Sc  Sc5  1  0.500000  0.500000  0.000000  1
  Be  Be6  1  0.620679  0.120679  0.000000  1
  Be  Be7  1  0.120679  0.379321  0.000000  1
  Be  Be8  1  0.879321  0.620679  0.000000  1
  Be  Be9  1  0.379321  0.879321  0.000000  1
  Rh  Rh10  1  0.069265  0.218126  0.500000  1
  Rh  Rh11  1  0.218126  0.930735  0.500000  1
  Rh  Rh12  1  0.781874  0.069265  0.500000  1
  Rh  Rh13  1  0.930735  0.781874  0.500000  1
  Rh  Rh14  1  0.430735  0.718126  0.500000  1
  Rh  Rh15  1  0.569265  0.281874  0.500000  1
  Rh  Rh16  1  0.718126  0.569265  0.500000  1
  Rh  Rh17  1  0.281874  0.430735  0.500000  1
  Rh  Rh18  1  0.500000  0.000000  0.500000  1
  Rh  Rh19  1  0.000000  0.500000  0.500000  1
