# generated using pymatgen
data_SrCe2Gd5(Si3Pd)4
_symmetry_space_group_name_H-M   'P 1'
_cell_length_a   8.18832800
_cell_length_b   8.18909352
_cell_length_c   8.29580500
_cell_angle_alpha   90.00000000
_cell_angle_beta   90.00000000
_cell_angle_gamma   119.99690772
_symmetry_Int_Tables_number   1
_chemical_formula_structural   SrCe2Gd5(Si3Pd)4
_chemical_formula_sum   'Sr1 Ce2 Gd5 Si12 Pd4'
_cell_volume   481.76335250
_cell_formula_units_Z   1
loop_
 _symmetry_equiv_pos_site_id
 _symmetry_equiv_pos_as_xyz
  1  'x, y, z'
loop_
 _atom_site_type_symbol
 _atom_site_label
 _atom_site_symmetry_multiplicity
 _atom_site_fract_x
 _atom_site_fract_y
 _atom_site_fract_z
 _atom_site_occupancy
  Sr  Sr0  1  0.500045  0.000089  0.250000  1
  Ce  Ce1  1  0.999950  0.999899  0.750000  1
  Ce  Ce2  1  0.999976  0.999951  0.250000  1
  Gd  Gd3  1  0.500129  0.500150  0.750000  1
  Gd  Gd4  1  0.499949  0.499804  0.250000  1
  Gd  Gd5  1  0.000020  0.500150  0.750000  1
  Gd  Gd6  1  0.999855  0.499804  0.250000  1
  Gd  Gd7  1  0.500152  0.000305  0.750000  1
  Si  Si8  1  0.836121  0.165966  0.994927  1
  Si  Si9  1  0.163908  0.833998  0.995190  1
  Si  Si10  1  0.329845  0.165966  0.994927  1
  Si  Si11  1  0.163908  0.833998  0.504810  1
  Si  Si12  1  0.670090  0.833998  0.995190  1
  Si  Si13  1  0.836121  0.165966  0.505073  1
  Si  Si14  1  0.834974  0.669948  0.999731  1
  Si  Si15  1  0.670090  0.833998  0.504810  1
  Si  Si16  1  0.165023  0.330047  0.000026  1
  Si  Si17  1  0.329845  0.165966  0.505073  1
  Si  Si18  1  0.165023  0.330047  0.499974  1
  Si  Si19  1  0.834974  0.669948  0.500269  1
  Pd  Pd20  1  0.667725  0.335449  0.995056  1
  Pd  Pd21  1  0.332275  0.664552  0.995201  1
  Pd  Pd22  1  0.332275  0.664552  0.504799  1
  Pd  Pd23  1  0.667725  0.335449  0.504944  1
