# generated using pymatgen
data_Tm4Lu6(InSb)3
_symmetry_space_group_name_H-M   'P 1'
_cell_length_a   6.39323102
_cell_length_b   8.79713216
_cell_length_c   8.80530420
_cell_angle_alpha   119.97967736
_cell_angle_beta   89.99638131
_cell_angle_gamma   90.00236440
_symmetry_Int_Tables_number   1
_chemical_formula_structural   Tm4Lu6(InSb)3
_chemical_formula_sum   'Tm4 Lu6 In3 Sb3'
_cell_volume   428.96850734
_cell_formula_units_Z   1
loop_
 _symmetry_equiv_pos_site_id
 _symmetry_equiv_pos_as_xyz
  1  'x, y, z'
loop_
 _atom_site_type_symbol
 _atom_site_label
 _atom_site_symmetry_multiplicity
 _atom_site_fract_x
 _atom_site_fract_y
 _atom_site_fract_z
 _atom_site_occupancy
  Tm  Tm0  1  0.750108  0.237316  0.000173  1
  Tm  Tm1  1  0.750001  0.762752  0.762540  1
  Tm  Tm2  1  0.750133  0.000407  0.237891  1
  Tm  Tm3  1  0.250021  0.762915  0.999818  1
  Lu  Lu4  1  0.496898  0.333358  0.666749  1
  Lu  Lu5  1  0.496917  0.666434  0.333226  1
  Lu  Lu6  1  0.003057  0.666621  0.333270  1
  Lu  Lu7  1  0.003065  0.333131  0.666607  1
  Lu  Lu8  1  0.249996  0.236730  0.236811  1
  Lu  Lu9  1  0.250042  0.999821  0.763044  1
  In  In10  1  0.249925  0.393967  0.999952  1
  In  In11  1  0.249753  0.605496  0.604832  1
  In  In12  1  0.250177  0.000463  0.394859  1
  Sb  Sb13  1  0.750040  0.603248  0.999971  1
  Sb  Sb14  1  0.749954  0.397178  0.396989  1
  Sb  Sb15  1  0.749914  0.000162  0.603268  1
