# generated using pymatgen
data_Tb8Ta2Ti9Si16Ir
_symmetry_space_group_name_H-M   'P 1'
_cell_length_a   7.04066721
_cell_length_b   7.04066822
_cell_length_c   12.91177429
_cell_angle_alpha   90.19721328
_cell_angle_beta   89.80278825
_cell_angle_gamma   89.67363186
_symmetry_Int_Tables_number   1
_chemical_formula_structural   Tb8Ta2Ti9Si16Ir
_chemical_formula_sum   'Tb8 Ta2 Ti9 Si16 Ir1'
_cell_volume   640.03157708
_cell_formula_units_Z   1
loop_
 _symmetry_equiv_pos_site_id
 _symmetry_equiv_pos_as_xyz
  1  'x, y, z'
loop_
 _atom_site_type_symbol
 _atom_site_label
 _atom_site_symmetry_multiplicity
 _atom_site_fract_x
 _atom_site_fract_y
 _atom_site_fract_z
 _atom_site_occupancy
  Tb  Tb0  1  0.340036  0.003705  0.467434  1
  Tb  Tb1  1  0.496891  0.841364  0.718356  1
  Tb  Tb2  1  0.501526  0.158310  0.215345  1
  Tb  Tb3  1  0.841364  0.496891  0.281644  1
  Tb  Tb4  1  0.158310  0.501526  0.784655  1
  Tb  Tb5  1  0.658575  0.998183  0.968504  1
  Tb  Tb6  1  0.003705  0.340036  0.532566  1
  Tb  Tb7  1  0.998183  0.658575  0.031496  1
  Ta  Ta8  1  0.175542  0.826751  0.247884  1
  Ta  Ta9  1  0.826751  0.175542  0.752116  1
  Ti  Ti10  1  0.674264  0.674264  0.500000  1
  Ti  Ti11  1  0.148924  0.003453  0.875608  1
  Ti  Ti12  1  0.491630  0.658377  0.125941  1
  Ti  Ti13  1  0.508878  0.347226  0.629268  1
  Ti  Ti14  1  0.658377  0.491630  0.874059  1
  Ti  Ti15  1  0.347226  0.508878  0.370732  1
  Ti  Ti16  1  0.848324  0.992424  0.374468  1
  Ti  Ti17  1  0.003453  0.148924  0.124392  1
  Ti  Ti18  1  0.992424  0.848324  0.625532  1
  Si  Si19  1  0.201390  0.131188  0.685950  1
  Si  Si20  1  0.373551  0.699817  0.934697  1
  Si  Si21  1  0.629736  0.297409  0.435039  1
  Si  Si22  1  0.699817  0.373551  0.065303  1
  Si  Si23  1  0.297409  0.629736  0.564961  1
  Si  Si24  1  0.797796  0.868827  0.185010  1
  Si  Si25  1  0.131188  0.201390  0.314050  1
  Si  Si26  1  0.868827  0.797796  0.814990  1
  Si  Si27  1  0.287235  0.952653  0.062046  1
  Si  Si28  1  0.547647  0.791800  0.316015  1
  Si  Si29  1  0.449377  0.209646  0.818408  1
  Si  Si30  1  0.791800  0.547647  0.683985  1
  Si  Si31  1  0.209646  0.449377  0.181592  1
  Si  Si32  1  0.708399  0.047435  0.565185  1
  Si  Si33  1  0.952653  0.287235  0.937954  1
  Si  Si34  1  0.047435  0.708399  0.434815  1
  Ir  Ir35  1  0.331708  0.331708  0.000000  1
