# generated using pymatgen
data_TbPa7F30
_symmetry_space_group_name_H-M   'P 1'
_cell_length_a   8.79170237
_cell_length_b   8.78035438
_cell_length_c   8.79170332
_cell_angle_alpha   100.36224743
_cell_angle_beta   100.16502847
_cell_angle_gamma   100.36224567
_symmetry_Int_Tables_number   1
_chemical_formula_structural   TbPa7F30
_chemical_formula_sum   'Tb1 Pa7 F30'
_cell_volume   641.23504761
_cell_formula_units_Z   1
loop_
 _symmetry_equiv_pos_site_id
 _symmetry_equiv_pos_as_xyz
  1  'x, y, z'
loop_
 _atom_site_type_symbol
 _atom_site_label
 _atom_site_symmetry_multiplicity
 _atom_site_fract_x
 _atom_site_fract_y
 _atom_site_fract_z
 _atom_site_occupancy
  Tb  Tb0  1  0.821938  0.250000  0.678062  1
  Pa  Pa1  1  0.250510  0.250000  0.249490  1
  Pa  Pa2  1  0.178736  0.750000  0.321264  1
  Pa  Pa3  1  0.246540  0.674750  0.820402  1
  Pa  Pa4  1  0.679598  0.825250  0.253460  1
  Pa  Pa5  1  0.749897  0.750000  0.750103  1
  Pa  Pa6  1  0.321938  0.178693  0.748596  1
  Pa  Pa7  1  0.751404  0.321307  0.178062  1
  F  F8  1  0.965834  0.535608  0.250756  1
  F  F9  1  0.811113  0.340999  0.445203  1
  F  F10  1  0.489153  0.723482  0.721185  1
  F  F11  1  0.348733  0.449369  0.815191  1
  F  F12  1  0.010216  0.779522  0.775193  1
  F  F13  1  0.750298  0.036029  0.465000  1
  F  F14  1  0.949637  0.846776  0.314339  1
  F  F15  1  0.222031  0.225133  0.991430  1
  F  F16  1  0.776605  0.007659  0.772661  1
  F  F17  1  0.312974  0.946438  0.843523  1
  F  F18  1  0.275784  0.279754  0.509172  1
  F  F19  1  0.448628  0.814879  0.347758  1
  F  F20  1  0.530317  0.250000  0.969683  1
  F  F21  1  0.279332  0.510159  0.274207  1
  F  F22  1  0.152242  0.685121  0.051372  1
  F  F23  1  0.838948  0.312482  0.947761  1
  F  F24  1  0.727339  0.492341  0.723395  1
  F  F25  1  0.463216  0.750000  0.036784  1
  F  F26  1  0.552239  0.187518  0.661052  1
  F  F27  1  0.724807  0.720478  0.489784  1
  F  F28  1  0.684809  0.050631  0.151267  1
  F  F29  1  0.225793  0.989841  0.220668  1
  F  F30  1  0.778815  0.776518  0.010847  1
  F  F31  1  0.054797  0.159001  0.688887  1
  F  F32  1  0.249244  0.964392  0.534166  1
  F  F33  1  0.990828  0.220246  0.224216  1
  F  F34  1  0.656477  0.553562  0.187026  1
  F  F35  1  0.508570  0.274867  0.277969  1
  F  F36  1  0.185661  0.653224  0.550363  1
  F  F37  1  0.035000  0.463971  0.749702  1
