# generated using pymatgen
data_Pm(BIr)2
_symmetry_space_group_name_H-M   'P 1'
_cell_length_a   5.67472209
_cell_length_b   5.67472484
_cell_length_c   5.67472361
_cell_angle_alpha   140.02238689
_cell_angle_beta   140.02239764
_cell_angle_gamma   57.81930678
_symmetry_Int_Tables_number   1
_chemical_formula_structural   Pm(BIr)2
_chemical_formula_sum   'Pm1 B2 Ir2'
_cell_volume   74.77030634
_cell_formula_units_Z   1
loop_
 _symmetry_equiv_pos_site_id
 _symmetry_equiv_pos_as_xyz
  1  'x, y, z'
loop_
 _atom_site_type_symbol
 _atom_site_label
 _atom_site_symmetry_multiplicity
 _atom_site_fract_x
 _atom_site_fract_y
 _atom_site_fract_z
 _atom_site_occupancy
  Pm  Pm0  1  0.000000  0.000000  0.000000  1
  B  B1  1  0.347729  0.347729  0.000000  1
  B  B2  1  0.652270  0.652270  0.000000  1
  Ir  Ir3  1  0.750000  0.250000  0.500000  1
  Ir  Ir4  1  0.250000  0.750000  0.500000  1
