# generated using pymatgen
data_Ho8Nb11Si16Mo
_symmetry_space_group_name_H-M   'P 1'
_cell_length_a   7.04732491
_cell_length_b   7.04732528
_cell_length_c   13.01855811
_cell_angle_alpha   89.96162542
_cell_angle_beta   90.03837588
_cell_angle_gamma   89.95609332
_symmetry_Int_Tables_number   1
_chemical_formula_structural   Ho8Nb11Si16Mo
_chemical_formula_sum   'Ho8 Nb11 Si16 Mo1'
_cell_volume   646.56348817
_cell_formula_units_Z   1
loop_
 _symmetry_equiv_pos_site_id
 _symmetry_equiv_pos_as_xyz
  1  'x, y, z'
loop_
 _atom_site_type_symbol
 _atom_site_label
 _atom_site_symmetry_multiplicity
 _atom_site_fract_x
 _atom_site_fract_y
 _atom_site_fract_z
 _atom_site_occupancy
  Ho  Ho0  1  0.343095  0.001578  0.468185  1
  Ho  Ho1  1  0.498501  0.841788  0.716818  1
  Ho  Ho2  1  0.502854  0.157357  0.218378  1
  Ho  Ho3  1  0.841788  0.498501  0.283182  1
  Ho  Ho4  1  0.157357  0.502854  0.781622  1
  Ho  Ho5  1  0.657944  0.997639  0.967977  1
  Ho  Ho6  1  0.001578  0.343095  0.531815  1
  Ho  Ho7  1  0.997639  0.657944  0.032023  1
  Nb  Nb8  1  0.328041  0.328041  0.000000  1
  Nb  Nb9  1  0.171735  0.827205  0.251112  1
  Nb  Nb10  1  0.827205  0.171735  0.748888  1
  Nb  Nb11  1  0.152222  0.006893  0.874194  1
  Nb  Nb12  1  0.493670  0.652339  0.124573  1
  Nb  Nb13  1  0.506936  0.346776  0.623565  1
  Nb  Nb14  1  0.652339  0.493670  0.875427  1
  Nb  Nb15  1  0.346776  0.506936  0.376435  1
  Nb  Nb16  1  0.848699  0.994248  0.374252  1
  Nb  Nb17  1  0.006893  0.152222  0.125806  1
  Nb  Nb18  1  0.994248  0.848699  0.625748  1
  Si  Si19  1  0.204482  0.134222  0.681990  1
  Si  Si20  1  0.365336  0.703909  0.932258  1
  Si  Si21  1  0.634121  0.297917  0.432366  1
  Si  Si22  1  0.703909  0.365336  0.067742  1
  Si  Si23  1  0.297917  0.634121  0.567634  1
  Si  Si24  1  0.796059  0.865329  0.182692  1
  Si  Si25  1  0.134222  0.204482  0.318010  1
  Si  Si26  1  0.865329  0.796059  0.817308  1
  Si  Si27  1  0.293864  0.953406  0.063844  1
  Si  Si28  1  0.548625  0.792063  0.315754  1
  Si  Si29  1  0.453532  0.205883  0.813373  1
  Si  Si30  1  0.792063  0.548625  0.684246  1
  Si  Si31  1  0.205883  0.453532  0.186627  1
  Si  Si32  1  0.706621  0.043822  0.562615  1
  Si  Si33  1  0.953406  0.293864  0.936156  1
  Si  Si34  1  0.043822  0.706621  0.437385  1
  Mo  Mo35  1  0.671288  0.671288  0.500000  1
