# generated using pymatgen
data_Be8Cr2ReRu
_symmetry_space_group_name_H-M   'P 1'
_cell_length_a   4.27761900
_cell_length_b   4.27762036
_cell_length_c   6.99946100
_cell_angle_alpha   90.00000000
_cell_angle_beta   90.00000000
_cell_angle_gamma   119.99999724
_symmetry_Int_Tables_number   1
_chemical_formula_structural   Be8Cr2ReRu
_chemical_formula_sum   'Be8 Cr2 Re1 Ru1'
_cell_volume   110.91737422
_cell_formula_units_Z   1
loop_
 _symmetry_equiv_pos_site_id
 _symmetry_equiv_pos_as_xyz
  1  'x, y, z'
loop_
 _atom_site_type_symbol
 _atom_site_label
 _atom_site_symmetry_multiplicity
 _atom_site_fract_x
 _atom_site_fract_y
 _atom_site_fract_z
 _atom_site_occupancy
  Be  Be0  1  0.169529  0.339056  0.751129  1
  Be  Be1  1  0.169529  0.830471  0.751129  1
  Be  Be2  1  0.338382  0.169192  0.248838  1
  Be  Be3  1  0.830808  0.661618  0.248838  1
  Be  Be4  1  0.000000  0.000000  0.999560  1
  Be  Be5  1  0.660944  0.830471  0.751129  1
  Be  Be6  1  0.830808  0.169192  0.248838  1
  Be  Be7  1  0.000000  0.000000  0.501928  1
  Cr  Cr8  1  0.333333  0.666667  0.064622  1
  Cr  Cr9  1  0.666667  0.333333  0.558364  1
  Re  Re10  1  0.333333  0.666667  0.438168  1
  Ru  Ru11  1  0.666667  0.333333  0.937456  1
