# generated using pymatgen
data_Yb2Ni3Rh
_symmetry_space_group_name_H-M   'P 1'
_cell_length_a   4.98650611
_cell_length_b   5.12976724
_cell_length_c   4.98650700
_cell_angle_alpha   60.91961084
_cell_angle_beta   60.00000073
_cell_angle_gamma   60.91960323
_symmetry_Int_Tables_number   1
_chemical_formula_structural   Yb2Ni3Rh
_chemical_formula_sum   'Yb2 Ni3 Rh1'
_cell_volume   91.42695625
_cell_formula_units_Z   1
loop_
 _symmetry_equiv_pos_site_id
 _symmetry_equiv_pos_as_xyz
  1  'x, y, z'
loop_
 _atom_site_type_symbol
 _atom_site_label
 _atom_site_symmetry_multiplicity
 _atom_site_fract_x
 _atom_site_fract_y
 _atom_site_fract_z
 _atom_site_occupancy
  Yb  Yb0  1  0.749168  0.752497  0.749168  1
  Yb  Yb1  1  0.500832  0.497503  0.500832  1
  Ni  Ni2  1  0.125000  0.125000  0.625000  1
  Ni  Ni3  1  0.625000  0.125000  0.125000  1
  Ni  Ni4  1  0.125000  0.125000  0.125000  1
  Rh  Rh5  1  0.125000  0.625000  0.125000  1
