# generated using pymatgen
data_Y2B6Ir4Rh5
_symmetry_space_group_name_H-M   'P 1'
_cell_length_a   5.62939229
_cell_length_b   5.62939428
_cell_length_c   8.61519700
_cell_angle_alpha   90.00000000
_cell_angle_beta   90.00000000
_cell_angle_gamma   120.03652271
_symmetry_Int_Tables_number   1
_chemical_formula_structural   Y2B6Ir4Rh5
_chemical_formula_sum   'Y2 B6 Ir4 Rh5'
_cell_volume   236.35188786
_cell_formula_units_Z   1
loop_
 _symmetry_equiv_pos_site_id
 _symmetry_equiv_pos_as_xyz
  1  'x, y, z'
loop_
 _atom_site_type_symbol
 _atom_site_label
 _atom_site_symmetry_multiplicity
 _atom_site_fract_x
 _atom_site_fract_y
 _atom_site_fract_z
 _atom_site_occupancy
  Y  Y0  1  0.000000  0.000000  0.702096  1
  Y  Y1  1  0.000000  0.000000  0.298317  1
  B  B2  1  0.666535  0.333465  0.999920  1
  B  B3  1  0.333465  0.666535  0.999920  1
  B  B4  1  0.666504  0.333496  0.667962  1
  B  B5  1  0.333496  0.666504  0.667962  1
  B  B6  1  0.333341  0.666659  0.331950  1
  B  B7  1  0.666659  0.333341  0.331950  1
  Ir  Ir8  1  0.500000  0.500000  0.837382  1
  Ir  Ir9  1  0.500000  0.500000  0.499007  1
  Ir  Ir10  1  0.500000  0.000000  0.499658  1
  Ir  Ir11  1  0.000000  0.500000  0.499658  1
  Rh  Rh12  1  0.500000  0.000000  0.836975  1
  Rh  Rh13  1  0.000000  0.500000  0.836975  1
  Rh  Rh14  1  0.500000  0.500000  0.163802  1
  Rh  Rh15  1  0.500000  0.000000  0.163233  1
  Rh  Rh16  1  0.000000  0.500000  0.163233  1
