# generated using pymatgen
data_Tb3Sn3HgIrRh
_symmetry_space_group_name_H-M   'P 1'
_cell_length_a   7.71027200
_cell_length_b   7.71027063
_cell_length_c   3.94153700
_cell_angle_alpha   90.00000000
_cell_angle_beta   90.00000000
_cell_angle_gamma   119.99998870
_symmetry_Int_Tables_number   1
_chemical_formula_structural   Tb3Sn3HgIrRh
_chemical_formula_sum   'Tb3 Sn3 Hg1 Ir1 Rh1'
_cell_volume   202.92502604
_cell_formula_units_Z   1
loop_
 _symmetry_equiv_pos_site_id
 _symmetry_equiv_pos_as_xyz
  1  'x, y, z'
loop_
 _atom_site_type_symbol
 _atom_site_label
 _atom_site_symmetry_multiplicity
 _atom_site_fract_x
 _atom_site_fract_y
 _atom_site_fract_z
 _atom_site_occupancy
  Tb  Tb0  1  0.412250  0.020904  0.500000  1
  Tb  Tb1  1  0.979096  0.391346  0.500000  1
  Tb  Tb2  1  0.608654  0.587750  0.500000  1
  Sn  Sn3  1  0.751453  0.007793  0.000000  1
  Sn  Sn4  1  0.992207  0.743661  0.000000  1
  Sn  Sn5  1  0.256339  0.248547  0.000000  1
  Hg  Hg6  1  0.333333  0.666667  0.000000  1
  Ir  Ir7  1  0.666667  0.333333  0.000000  1
  Rh  Rh8  1  0.000000  0.000000  0.500000  1
