# generated using pymatgen
data_YbYBe2(Os2C)2
_symmetry_space_group_name_H-M   'P 1'
_cell_length_a   5.59134763
_cell_length_b   5.59134661
_cell_length_c   7.05415400
_cell_angle_alpha   90.00000000
_cell_angle_beta   90.00000000
_cell_angle_gamma   139.51071129
_symmetry_Int_Tables_number   1
_chemical_formula_structural   YbYBe2(Os2C)2
_chemical_formula_sum   'Yb1 Y1 Be2 Os4 C2'
_cell_volume   143.19477869
_cell_formula_units_Z   1
loop_
 _symmetry_equiv_pos_site_id
 _symmetry_equiv_pos_as_xyz
  1  'x, y, z'
loop_
 _atom_site_type_symbol
 _atom_site_label
 _atom_site_symmetry_multiplicity
 _atom_site_fract_x
 _atom_site_fract_y
 _atom_site_fract_z
 _atom_site_occupancy
  Yb  Yb0  1  0.542415  0.457585  0.250000  1
  Y  Y1  1  0.458316  0.541684  0.750000  1
  Be  Be2  1  0.269423  0.730577  0.250000  1
  Be  Be3  1  0.729542  0.270458  0.750000  1
  Os  Os4  1  0.823418  0.176582  0.060201  1
  Os  Os5  1  0.176579  0.823421  0.941454  1
  Os  Os6  1  0.176579  0.823421  0.558546  1
  Os  Os7  1  0.823418  0.176582  0.439799  1
  C  C8  1  0.000156  0.999844  0.999987  1
  C  C9  1  0.000156  0.999844  0.500013  1
