# generated using pymatgen
data_SrYb2(H6Ir)2
_symmetry_space_group_name_H-M   'P 1'
_cell_length_a   4.98374700
_cell_length_b   4.98374631
_cell_length_c   8.27657400
_cell_angle_alpha   90.00000000
_cell_angle_beta   90.00000000
_cell_angle_gamma   119.99999794
_symmetry_Int_Tables_number   1
_chemical_formula_structural   SrYb2(H6Ir)2
_chemical_formula_sum   'Sr1 Yb2 H12 Ir2'
_cell_volume   178.02998590
_cell_formula_units_Z   1
loop_
 _symmetry_equiv_pos_site_id
 _symmetry_equiv_pos_as_xyz
  1  'x, y, z'
loop_
 _atom_site_type_symbol
 _atom_site_label
 _atom_site_symmetry_multiplicity
 _atom_site_fract_x
 _atom_site_fract_y
 _atom_site_fract_z
 _atom_site_occupancy
  Sr  Sr0  1  0.000000  0.000000  0.000000  1
  Yb  Yb1  1  0.666667  0.333333  0.368102  1
  Yb  Yb2  1  0.333333  0.666667  0.631898  1
  H  H3  1  0.172147  0.827853  0.375100  1
  H  H4  1  0.655705  0.827853  0.375100  1
  H  H5  1  0.172147  0.344295  0.375100  1
  H  H6  1  0.827853  0.172147  0.624900  1
  H  H7  1  0.344295  0.172147  0.624900  1
  H  H8  1  0.827853  0.655705  0.624900  1
  H  H9  1  0.509821  0.019643  0.859105  1
  H  H10  1  0.509821  0.490179  0.859105  1
  H  H11  1  0.980357  0.490179  0.859105  1
  H  H12  1  0.490179  0.980357  0.140895  1
  H  H13  1  0.490179  0.509821  0.140895  1
  H  H14  1  0.019643  0.509821  0.140895  1
  Ir  Ir15  1  0.666667  0.333333  0.739240  1
  Ir  Ir16  1  0.333333  0.666667  0.260760  1
