# generated using pymatgen
data_BaCuSe2
_symmetry_space_group_name_H-M   'P 1'
_cell_length_a   4.65979400
_cell_length_b   4.65979400
_cell_length_c   9.60505800
_cell_angle_alpha   90.00000000
_cell_angle_beta   90.00000000
_cell_angle_gamma   90.00000000
_symmetry_Int_Tables_number   1
_chemical_formula_structural   BaCuSe2
_chemical_formula_sum   'Ba2 Cu2 Se4'
_cell_volume   208.56115697
_cell_formula_units_Z   2
loop_
 _symmetry_equiv_pos_site_id
 _symmetry_equiv_pos_as_xyz
  1  'x, y, z'
loop_
 _atom_site_type_symbol
 _atom_site_label
 _atom_site_symmetry_multiplicity
 _atom_site_fract_x
 _atom_site_fract_y
 _atom_site_fract_z
 _atom_site_occupancy
  Ba  Ba0  1  0.000000  0.500000  0.197707  1
  Ba  Ba1  1  0.500000  0.000000  0.802293  1
  Cu  Cu2  1  0.500000  0.000000  0.397461  1
  Cu  Cu3  1  0.000000  0.500000  0.602539  1
  Se  Se4  1  0.500000  0.500000  0.500000  1
  Se  Se5  1  0.000000  0.000000  0.500000  1
  Se  Se6  1  0.500000  0.000000  0.145618  1
  Se  Se7  1  0.000000  0.500000  0.854382  1
