# generated using pymatgen
data_SrCe(Re2Si)4
_symmetry_space_group_name_H-M   'P 1'
_cell_length_a   4.17484900
_cell_length_b   7.33062289
_cell_length_c   15.61305839
_cell_angle_alpha   89.86051484
_cell_angle_beta   90.00000000
_cell_angle_gamma   90.00000000
_symmetry_Int_Tables_number   1
_chemical_formula_structural   SrCe(Re2Si)4
_chemical_formula_sum   'Sr2 Ce2 Re16 Si8'
_cell_volume   477.82442683
_cell_formula_units_Z   2
loop_
 _symmetry_equiv_pos_site_id
 _symmetry_equiv_pos_as_xyz
  1  'x, y, z'
loop_
 _atom_site_type_symbol
 _atom_site_label
 _atom_site_symmetry_multiplicity
 _atom_site_fract_x
 _atom_site_fract_y
 _atom_site_fract_z
 _atom_site_occupancy
  Sr  Sr0  1  0.500000  0.079583  0.382160  1
  Sr  Sr1  1  0.500000  0.920417  0.617840  1
  Ce  Ce2  1  0.000000  0.582310  0.118130  1
  Ce  Ce3  1  0.000000  0.417690  0.881870  1
  Re  Re4  1  0.000000  0.143164  0.049667  1
  Re  Re5  1  0.000000  0.856836  0.950333  1
  Re  Re6  1  0.500000  0.631983  0.445814  1
  Re  Re7  1  0.500000  0.368017  0.554186  1
  Re  Re8  1  0.000000  0.731633  0.317195  1
  Re  Re9  1  0.000000  0.268367  0.682805  1
  Re  Re10  1  0.500000  0.236880  0.176891  1
  Re  Re11  1  0.500000  0.763120  0.823109  1
  Re  Re12  1  0.000000  0.437179  0.417673  1
  Re  Re13  1  0.000000  0.562821  0.582327  1
  Re  Re14  1  0.500000  0.930710  0.080158  1
  Re  Re15  1  0.500000  0.069290  0.919842  1
  Re  Re16  1  0.000000  0.994118  0.203535  1
  Re  Re17  1  0.000000  0.005882  0.796465  1
  Re  Re18  1  0.500000  0.495166  0.290189  1
  Re  Re19  1  0.500000  0.504834  0.709811  1
  Si  Si20  1  0.000000  0.820651  0.473414  1
  Si  Si21  1  0.000000  0.179349  0.526586  1
  Si  Si22  1  0.500000  0.331311  0.023772  1
  Si  Si23  1  0.500000  0.668689  0.976228  1
  Si  Si24  1  0.000000  0.295185  0.273016  1
  Si  Si25  1  0.000000  0.704815  0.726984  1
  Si  Si26  1  0.500000  0.797717  0.224651  1
  Si  Si27  1  0.500000  0.202283  0.775349  1
