# generated using pymatgen
data_Nd6Al24Os7Au
_symmetry_space_group_name_H-M   'P 1'
_cell_length_a   8.96447804
_cell_length_b   8.96447732
_cell_length_c   9.67015124
_cell_angle_alpha   89.78278876
_cell_angle_beta   90.21721280
_cell_angle_gamma   119.90673480
_symmetry_Int_Tables_number   1
_chemical_formula_structural   Nd6Al24Os7Au
_chemical_formula_sum   'Nd6 Al24 Os7 Au1'
_cell_volume   673.62329585
_cell_formula_units_Z   1
loop_
 _symmetry_equiv_pos_site_id
 _symmetry_equiv_pos_as_xyz
  1  'x, y, z'
loop_
 _atom_site_type_symbol
 _atom_site_label
 _atom_site_symmetry_multiplicity
 _atom_site_fract_x
 _atom_site_fract_y
 _atom_site_fract_z
 _atom_site_occupancy
  Nd  Nd0  1  0.188761  0.382303  0.250225  1
  Nd  Nd1  1  0.811239  0.617697  0.749775  1
  Nd  Nd2  1  0.617697  0.811239  0.250225  1
  Nd  Nd3  1  0.382303  0.188761  0.749775  1
  Nd  Nd4  1  0.192104  0.807896  0.254214  1
  Nd  Nd5  1  0.807896  0.192104  0.745786  1
  Al  Al6  1  0.328496  0.671504  0.013080  1
  Al  Al7  1  0.671504  0.328496  0.986920  1
  Al  Al8  1  0.666733  0.333267  0.511401  1
  Al  Al9  1  0.333267  0.666733  0.488599  1
  Al  Al10  1  0.162460  0.325846  0.574521  1
  Al  Al11  1  0.837540  0.674154  0.425479  1
  Al  Al12  1  0.674154  0.837540  0.574521  1
  Al  Al13  1  0.849342  0.677785  0.078109  1
  Al  Al14  1  0.325846  0.162460  0.425479  1
  Al  Al15  1  0.150658  0.322215  0.921891  1
  Al  Al16  1  0.163278  0.836722  0.574524  1
  Al  Al17  1  0.322215  0.150658  0.078109  1
  Al  Al18  1  0.836722  0.163278  0.425476  1
  Al  Al19  1  0.677785  0.849342  0.921891  1
  Al  Al20  1  0.836957  0.163043  0.074498  1
  Al  Al21  1  0.163043  0.836957  0.925502  1
  Al  Al22  1  0.561265  0.122464  0.248990  1
  Al  Al23  1  0.438735  0.877536  0.751010  1
  Al  Al24  1  0.877536  0.438735  0.248990  1
  Al  Al25  1  0.122464  0.561265  0.751010  1
  Al  Al26  1  0.564290  0.435710  0.256507  1
  Al  Al27  1  0.435710  0.564290  0.743493  1
  Al  Al28  1  0.999338  0.000662  0.250443  1
  Al  Al29  1  0.000662  0.999338  0.749557  1
  Os  Os30  1  0.500000  0.000000  0.000000  1
  Os  Os31  1  0.000000  0.500000  0.000000  1
  Os  Os32  1  0.500000  0.000000  0.500000  1
  Os  Os33  1  0.000000  0.500000  0.500000  1
  Os  Os34  1  0.500000  0.500000  0.500000  1
  Os  Os35  1  0.000000  0.000000  0.000000  1
  Os  Os36  1  0.000000  0.000000  0.500000  1
  Au  Au37  1  0.500000  0.500000  0.000000  1
