# generated using pymatgen
data_PrNd9CuBi6Te
_symmetry_space_group_name_H-M   'P 1'
_cell_length_a   9.71720400
_cell_length_b   9.71720392
_cell_length_c   6.65979000
_cell_angle_alpha   90.00000000
_cell_angle_beta   90.00000000
_cell_angle_gamma   119.99999347
_symmetry_Int_Tables_number   1
_chemical_formula_structural   PrNd9CuBi6Te
_chemical_formula_sum   'Pr1 Nd9 Cu1 Bi6 Te1'
_cell_volume   544.59522873
_cell_formula_units_Z   1
loop_
 _symmetry_equiv_pos_site_id
 _symmetry_equiv_pos_as_xyz
  1  'x, y, z'
loop_
 _atom_site_type_symbol
 _atom_site_label
 _atom_site_symmetry_multiplicity
 _atom_site_fract_x
 _atom_site_fract_y
 _atom_site_fract_z
 _atom_site_occupancy
  Pr  Pr0  1  0.666667  0.333333  0.000000  1
  Nd  Nd1  1  0.333333  0.666667  0.000000  1
  Nd  Nd2  1  0.333333  0.666667  0.500000  1
  Nd  Nd3  1  0.666667  0.333333  0.500000  1
  Nd  Nd4  1  0.735237  0.735254  0.739844  1
  Nd  Nd5  1  0.264746  0.999983  0.739844  1
  Nd  Nd6  1  0.000017  0.264763  0.739844  1
  Nd  Nd7  1  0.264746  0.264763  0.260156  1
  Nd  Nd8  1  0.735237  0.999983  0.260156  1
  Nd  Nd9  1  0.000017  0.735254  0.260156  1
  Cu  Cu10  1  0.000000  0.000000  0.500000  1
  Bi  Bi11  1  0.385284  0.385379  0.749951  1
  Bi  Bi12  1  0.614621  0.999904  0.749951  1
  Bi  Bi13  1  0.000096  0.614716  0.749951  1
  Bi  Bi14  1  0.614621  0.614716  0.250049  1
  Bi  Bi15  1  0.385284  0.999904  0.250049  1
  Bi  Bi16  1  0.000096  0.385379  0.250049  1
  Te  Te17  1  0.000000  0.000000  0.000000  1
