# generated using pymatgen
data_Nd3GaSn3Rh2
_symmetry_space_group_name_H-M   'P 1'
_cell_length_a   7.51908200
_cell_length_b   7.51908198
_cell_length_c   4.26208400
_cell_angle_alpha   90.00000000
_cell_angle_beta   90.00000000
_cell_angle_gamma   120.00000010
_symmetry_Int_Tables_number   1
_chemical_formula_structural   Nd3GaSn3Rh2
_chemical_formula_sum   'Nd3 Ga1 Sn3 Rh2'
_cell_volume   208.68069624
_cell_formula_units_Z   1
loop_
 _symmetry_equiv_pos_site_id
 _symmetry_equiv_pos_as_xyz
  1  'x, y, z'
loop_
 _atom_site_type_symbol
 _atom_site_label
 _atom_site_symmetry_multiplicity
 _atom_site_fract_x
 _atom_site_fract_y
 _atom_site_fract_z
 _atom_site_occupancy
  Nd  Nd0  1  0.008248  0.593623  0.000000  1
  Nd  Nd1  1  0.406377  0.414625  0.000000  1
  Nd  Nd2  1  0.585375  0.991752  0.000000  1
  Ga  Ga3  1  0.666667  0.333333  0.500000  1
  Sn  Sn4  1  0.747021  0.755459  0.500000  1
  Sn  Sn5  1  0.008437  0.252979  0.500000  1
  Sn  Sn6  1  0.244541  0.991563  0.500000  1
  Rh  Rh7  1  0.000000  0.000000  0.000000  1
  Rh  Rh8  1  0.333333  0.666667  0.500000  1
