# generated using pymatgen
data_Sm5Ni16(P4W)3
_symmetry_space_group_name_H-M   'P 1'
_cell_length_a   12.28446900
_cell_length_b   12.28447042
_cell_length_c   3.76912200
_cell_angle_alpha   90.00000000
_cell_angle_beta   90.00000000
_cell_angle_gamma   120.00000425
_symmetry_Int_Tables_number   1
_chemical_formula_structural   Sm5Ni16(P4W)3
_chemical_formula_sum   'Sm5 Ni16 P12 W3'
_cell_volume   492.58778225
_cell_formula_units_Z   1
loop_
 _symmetry_equiv_pos_site_id
 _symmetry_equiv_pos_as_xyz
  1  'x, y, z'
loop_
 _atom_site_type_symbol
 _atom_site_label
 _atom_site_symmetry_multiplicity
 _atom_site_fract_x
 _atom_site_fract_y
 _atom_site_fract_z
 _atom_site_occupancy
  Sm  Sm0  1  0.187715  0.187715  0.500000  1
  Sm  Sm1  1  0.812285  0.000000  0.500000  1
  Sm  Sm2  1  0.000000  0.812285  0.500000  1
  Sm  Sm3  1  0.333333  0.666667  0.000000  1
  Sm  Sm4  1  0.666667  0.333333  0.000000  1
  Ni  Ni5  1  0.720545  0.720545  0.500000  1
  Ni  Ni6  1  0.279455  0.000000  0.500000  1
  Ni  Ni7  1  0.000000  0.279455  0.500000  1
  Ni  Ni8  1  0.184652  0.377842  0.000000  1
  Ni  Ni9  1  0.622158  0.806809  0.000000  1
  Ni  Ni10  1  0.193191  0.815348  0.000000  1
  Ni  Ni11  1  0.806809  0.622158  0.000000  1
  Ni  Ni12  1  0.815348  0.193191  0.000000  1
  Ni  Ni13  1  0.377842  0.184652  0.000000  1
  Ni  Ni14  1  0.362671  0.486129  0.500000  1
  Ni  Ni15  1  0.513871  0.876542  0.500000  1
  Ni  Ni16  1  0.123458  0.637329  0.500000  1
  Ni  Ni17  1  0.876542  0.513871  0.500000  1
  Ni  Ni18  1  0.637329  0.123458  0.500000  1
  Ni  Ni19  1  0.486129  0.362671  0.500000  1
  Ni  Ni20  1  0.000000  0.000000  0.000000  1
  P  P21  1  0.820875  0.820875  0.000000  1
  P  P22  1  0.179125  0.000000  0.000000  1
  P  P23  1  0.000000  0.179125  0.000000  1
  P  P24  1  0.165120  0.476446  0.500000  1
  P  P25  1  0.523554  0.688672  0.500000  1
  P  P26  1  0.311328  0.834880  0.500000  1
  P  P27  1  0.688672  0.523554  0.500000  1
  P  P28  1  0.834880  0.311328  0.500000  1
  P  P29  1  0.476446  0.165120  0.500000  1
  P  P30  1  0.368840  0.368840  0.000000  1
  P  P31  1  0.631160  0.000000  0.000000  1
  P  P32  1  0.000000  0.631160  0.000000  1
  W  W33  1  0.562264  0.562264  0.000000  1
  W  W34  1  0.437736  0.000000  0.000000  1
  W  W35  1  0.000000  0.437736  0.000000  1
