# generated using pymatgen
data_YbPr6FeI12
_symmetry_space_group_name_H-M   'P 1'
_cell_length_a   10.04176082
_cell_length_b   10.04176062
_cell_length_c   10.04176117
_cell_angle_alpha   107.10589416
_cell_angle_beta   107.10588769
_cell_angle_gamma   107.10588660
_symmetry_Int_Tables_number   1
_chemical_formula_structural   YbPr6FeI12
_chemical_formula_sum   'Yb1 Pr6 Fe1 I12'
_cell_volume   840.83909532
_cell_formula_units_Z   1
loop_
 _symmetry_equiv_pos_site_id
 _symmetry_equiv_pos_as_xyz
  1  'x, y, z'
loop_
 _atom_site_type_symbol
 _atom_site_label
 _atom_site_symmetry_multiplicity
 _atom_site_fract_x
 _atom_site_fract_y
 _atom_site_fract_z
 _atom_site_occupancy
  Yb  Yb0  1  0.000000  0.000000  0.000000  1
  Pr  Pr1  1  0.799724  0.526591  0.597774  1
  Pr  Pr2  1  0.526591  0.597774  0.799724  1
  Pr  Pr3  1  0.200276  0.473409  0.402226  1
  Pr  Pr4  1  0.473409  0.402226  0.200276  1
  Pr  Pr5  1  0.597774  0.799724  0.526591  1
  Pr  Pr6  1  0.402226  0.200276  0.473409  1
  Fe  Fe7  1  0.500000  0.500000  0.500000  1
  I  I8  1  0.727496  0.183794  0.574516  1
  I  I9  1  0.962105  0.885211  0.660947  1
  I  I10  1  0.574516  0.727496  0.183794  1
  I  I11  1  0.114789  0.339053  0.037895  1
  I  I12  1  0.660947  0.962105  0.885211  1
  I  I13  1  0.885211  0.660947  0.962105  1
  I  I14  1  0.037895  0.114789  0.339053  1
  I  I15  1  0.816206  0.425484  0.272504  1
  I  I16  1  0.339053  0.037895  0.114789  1
  I  I17  1  0.272504  0.816206  0.425484  1
  I  I18  1  0.183794  0.574516  0.727496  1
  I  I19  1  0.425484  0.272504  0.816206  1
