# generated using pymatgen
data_Dy11Th(Si2Ni)4
_symmetry_space_group_name_H-M   'P 1'
_cell_length_a   4.14279100
_cell_length_b   11.27963865
_cell_length_c   11.26088234
_cell_angle_alpha   89.65191042
_cell_angle_beta   90.00000000
_cell_angle_gamma   90.00000000
_symmetry_Int_Tables_number   1
_chemical_formula_structural   Dy11Th(Si2Ni)4
_chemical_formula_sum   'Dy11 Th1 Si8 Ni4'
_cell_volume   526.20214876
_cell_formula_units_Z   1
loop_
 _symmetry_equiv_pos_site_id
 _symmetry_equiv_pos_as_xyz
  1  'x, y, z'
loop_
 _atom_site_type_symbol
 _atom_site_label
 _atom_site_symmetry_multiplicity
 _atom_site_fract_x
 _atom_site_fract_y
 _atom_site_fract_z
 _atom_site_occupancy
  Dy  Dy0  1  0.250000  0.440300  0.383061  1
  Dy  Dy1  1  0.750000  0.939580  0.118352  1
  Dy  Dy2  1  0.750000  0.559517  0.617006  1
  Dy  Dy3  1  0.250000  0.124726  0.556971  1
  Dy  Dy4  1  0.250000  0.379907  0.060083  1
  Dy  Dy5  1  0.750000  0.874642  0.440094  1
  Dy  Dy6  1  0.750000  0.623576  0.940756  1
  Dy  Dy7  1  0.250000  0.801452  0.712629  1
  Dy  Dy8  1  0.250000  0.693575  0.213573  1
  Dy  Dy9  1  0.750000  0.195922  0.287906  1
  Dy  Dy10  1  0.750000  0.307190  0.787473  1
  Th  Th11  1  0.250000  0.061761  0.883002  1
  Si  Si12  1  0.250000  0.809200  0.975730  1
  Si  Si13  1  0.250000  0.686686  0.473814  1
  Si  Si14  1  0.750000  0.192136  0.028828  1
  Si  Si15  1  0.750000  0.313340  0.526025  1
  Si  Si16  1  0.250000  0.494953  0.802990  1
  Si  Si17  1  0.250000  0.006956  0.303548  1
  Si  Si18  1  0.750000  0.505015  0.197333  1
  Si  Si19  1  0.750000  0.989555  0.691216  1
  Ni  Ni20  1  0.250000  0.364151  0.630788  1
  Ni  Ni21  1  0.250000  0.135410  0.128504  1
  Ni  Ni22  1  0.750000  0.633871  0.370359  1
  Ni  Ni23  1  0.750000  0.866579  0.869958  1
