# generated using pymatgen
data_Tb2DyU(VB4)4
_symmetry_space_group_name_H-M   'P 1'
_cell_length_a   3.47794100
_cell_length_b   5.98401918
_cell_length_c   11.59069812
_cell_angle_alpha   89.94900539
_cell_angle_beta   90.00000000
_cell_angle_gamma   90.00000000
_symmetry_Int_Tables_number   1
_chemical_formula_structural   Tb2DyU(VB4)4
_chemical_formula_sum   'Tb2 Dy1 U1 V4 B16'
_cell_volume   241.22627456
_cell_formula_units_Z   1
loop_
 _symmetry_equiv_pos_site_id
 _symmetry_equiv_pos_as_xyz
  1  'x, y, z'
loop_
 _atom_site_type_symbol
 _atom_site_label
 _atom_site_symmetry_multiplicity
 _atom_site_fract_x
 _atom_site_fract_y
 _atom_site_fract_z
 _atom_site_occupancy
  Tb  Tb0  1  0.000000  0.374539  0.652028  1
  Tb  Tb1  1  0.000000  0.122936  0.149762  1
  Dy  Dy2  1  0.000000  0.875406  0.849236  1
  U  U3  1  0.000000  0.626214  0.348711  1
  V  V4  1  0.000000  0.625602  0.085445  1
  V  V5  1  0.000000  0.372915  0.918151  1
  V  V6  1  0.000000  0.127741  0.415416  1
  V  V7  1  0.000000  0.871741  0.580529  1
  B  B8  1  0.500000  0.782726  0.187132  1
  B  B9  1  0.500000  0.214478  0.814312  1
  B  B10  1  0.500000  0.288651  0.315349  1
  B  B11  1  0.500000  0.716755  0.685909  1
  B  B12  1  0.500000  0.864035  0.032946  1
  B  B13  1  0.500000  0.135385  0.967461  1
  B  B14  1  0.500000  0.366493  0.465829  1
  B  B15  1  0.500000  0.636470  0.531132  1
  B  B16  1  0.500000  0.885442  0.452086  1
  B  B17  1  0.500000  0.114014  0.546448  1
  B  B18  1  0.500000  0.386304  0.046877  1
  B  B19  1  0.500000  0.614572  0.953202  1
  B  B20  1  0.500000  0.972274  0.308701  1
  B  B21  1  0.500000  0.022988  0.692199  1
  B  B22  1  0.500000  0.478184  0.193050  1
  B  B23  1  0.500000  0.524135  0.808092  1
