# generated using pymatgen
data_Pr2Re2B5Ru
_symmetry_space_group_name_H-M   'P 1'
_cell_length_a   5.78714769
_cell_length_b   5.78714817
_cell_length_c   8.32646746
_cell_angle_alpha   124.00603321
_cell_angle_beta   124.00603581
_cell_angle_gamma   41.23369074
_symmetry_Int_Tables_number   1
_chemical_formula_structural   Pr2Re2B5Ru
_chemical_formula_sum   'Pr2 Re2 B5 Ru1'
_cell_volume   147.38237164
_cell_formula_units_Z   1
loop_
 _symmetry_equiv_pos_site_id
 _symmetry_equiv_pos_as_xyz
  1  'x, y, z'
loop_
 _atom_site_type_symbol
 _atom_site_label
 _atom_site_symmetry_multiplicity
 _atom_site_fract_x
 _atom_site_fract_y
 _atom_site_fract_z
 _atom_site_occupancy
  Pr  Pr0  1  0.059044  0.605844  0.234716  1
  Pr  Pr1  1  0.394156  0.940956  0.765285  1
  Re  Re2  1  0.875991  0.387999  0.401274  1
  Re  Re3  1  0.612002  0.124010  0.598726  1
  B  B4  1  0.528758  0.513268  0.116550  1
  B  B5  1  0.377678  0.907936  0.308777  1
  B  B6  1  0.725480  0.274519  0.500000  1
  B  B7  1  0.092064  0.622323  0.691224  1
  B  B8  1  0.486732  0.471242  0.883451  1
  Ru  Ru9  1  0.014368  0.985632  0.000000  1
