# generated using pymatgen
data_Ba4ZrRuO8
_symmetry_space_group_name_H-M   'P 1'
_cell_length_a   7.35595051
_cell_length_b   7.35595022
_cell_length_c   5.89349400
_cell_angle_alpha   90.00000000
_cell_angle_beta   90.00000000
_cell_angle_gamma   132.74247199
_symmetry_Int_Tables_number   1
_chemical_formula_structural   Ba4ZrRuO8
_chemical_formula_sum   'Ba4 Zr1 Ru1 O8'
_cell_volume   234.20168044
_cell_formula_units_Z   1
loop_
 _symmetry_equiv_pos_site_id
 _symmetry_equiv_pos_as_xyz
  1  'x, y, z'
loop_
 _atom_site_type_symbol
 _atom_site_label
 _atom_site_symmetry_multiplicity
 _atom_site_fract_x
 _atom_site_fract_y
 _atom_site_fract_z
 _atom_site_occupancy
  Ba  Ba0  1  0.644207  0.355793  0.000000  1
  Ba  Ba1  1  0.143793  0.856207  0.500000  1
  Ba  Ba2  1  0.856207  0.143793  0.500000  1
  Ba  Ba3  1  0.355793  0.644207  0.000000  1
  Zr  Zr4  1  0.500000  0.500000  0.500000  1
  Ru  Ru5  1  0.000000  0.000000  0.000000  1
  O  O6  1  0.752707  0.752707  0.754597  1
  O  O7  1  0.247293  0.247293  0.245403  1
  O  O8  1  0.247293  0.247293  0.754597  1
  O  O9  1  0.752707  0.752707  0.245403  1
  O  O10  1  0.850252  0.149748  0.000000  1
  O  O11  1  0.341263  0.658737  0.500000  1
  O  O12  1  0.658737  0.341263  0.500000  1
  O  O13  1  0.149748  0.850252  0.000000  1
