# generated using pymatgen
data_Nd2Ni7Ir3
_symmetry_space_group_name_H-M   'P 1'
_cell_length_a   4.04456200
_cell_length_b   5.07625969
_cell_length_c   8.82992409
_cell_angle_alpha   91.96513072
_cell_angle_beta   90.00000000
_cell_angle_gamma   90.00000000
_symmetry_Int_Tables_number   1
_chemical_formula_structural   Nd2Ni7Ir3
_chemical_formula_sum   'Nd2 Ni7 Ir3'
_cell_volume   181.18273342
_cell_formula_units_Z   1
loop_
 _symmetry_equiv_pos_site_id
 _symmetry_equiv_pos_as_xyz
  1  'x, y, z'
loop_
 _atom_site_type_symbol
 _atom_site_label
 _atom_site_symmetry_multiplicity
 _atom_site_fract_x
 _atom_site_fract_y
 _atom_site_fract_z
 _atom_site_occupancy
  Nd  Nd0  1  0.000000  0.000000  0.000000  1
  Nd  Nd1  1  0.000000  0.500000  0.500000  1
  Ni  Ni2  1  0.000000  0.992959  0.339194  1
  Ni  Ni3  1  0.000000  0.484489  0.827899  1
  Ni  Ni4  1  0.000000  0.515511  0.172101  1
  Ni  Ni5  1  0.000000  0.007041  0.660806  1
  Ni  Ni6  1  0.500000  0.000000  0.500000  1
  Ni  Ni7  1  0.500000  0.751977  0.252692  1
  Ni  Ni8  1  0.500000  0.248023  0.747308  1
  Ir  Ir9  1  0.500000  0.500000  0.000000  1
  Ir  Ir10  1  0.500000  0.244934  0.252363  1
  Ir  Ir11  1  0.500000  0.755066  0.747637  1
