# generated using pymatgen
data_Nd3Ho5Cd2PdRu
_symmetry_space_group_name_H-M   'P 1'
_cell_length_a   9.73500450
_cell_length_b   9.73500474
_cell_length_c   9.75510000
_cell_angle_alpha   59.93169241
_cell_angle_beta   59.93169159
_cell_angle_gamma   60.10071948
_symmetry_Int_Tables_number   1
_chemical_formula_structural   Nd3Ho5Cd2PdRu
_chemical_formula_sum   'Nd6 Ho10 Cd4 Pd2 Ru2'
_cell_volume   653.53474994
_cell_formula_units_Z   2
loop_
 _symmetry_equiv_pos_site_id
 _symmetry_equiv_pos_as_xyz
  1  'x, y, z'
loop_
 _atom_site_type_symbol
 _atom_site_label
 _atom_site_symmetry_multiplicity
 _atom_site_fract_x
 _atom_site_fract_y
 _atom_site_fract_z
 _atom_site_occupancy
  Nd  Nd0  1  0.938722  0.556293  0.564145  1
  Nd  Nd1  1  0.556293  0.938722  0.940839  1
  Nd  Nd2  1  0.556293  0.938722  0.564145  1
  Nd  Nd3  1  0.938722  0.556293  0.940839  1
  Nd  Nd4  1  0.561187  0.561187  0.938813  1
  Nd  Nd5  1  0.940427  0.940427  0.559573  1
  Ho  Ho6  1  0.348023  0.348023  0.354835  1
  Ho  Ho7  1  0.348023  0.348023  0.949118  1
  Ho  Ho8  1  0.343431  0.958414  0.349078  1
  Ho  Ho9  1  0.958414  0.343431  0.349078  1
  Ho  Ho10  1  0.819467  0.184997  0.187660  1
  Ho  Ho11  1  0.184997  0.819467  0.807877  1
  Ho  Ho12  1  0.184997  0.819467  0.187660  1
  Ho  Ho13  1  0.819467  0.184997  0.807877  1
  Ho  Ho14  1  0.185196  0.185196  0.814804  1
  Ho  Ho15  1  0.811790  0.811790  0.188210  1
  Cd  Cd16  1  0.579188  0.579188  0.579377  1
  Cd  Cd17  1  0.579188  0.579188  0.262249  1
  Cd  Cd18  1  0.580056  0.259921  0.580012  1
  Cd  Cd19  1  0.259921  0.580056  0.580012  1
  Pd  Pd20  1  0.145658  0.572191  0.141075  1
  Pd  Pd21  1  0.572191  0.145658  0.141075  1
  Ru  Ru22  1  0.144175  0.144175  0.138222  1
  Ru  Ru23  1  0.144175  0.144175  0.573427  1
