# generated using pymatgen
data_U4NbTc3C8
_symmetry_space_group_name_H-M   'P 1'
_cell_length_a   3.20948400
_cell_length_b   5.62879596
_cell_length_c   11.08524589
_cell_angle_alpha   90.06691553
_cell_angle_beta   90.00000000
_cell_angle_gamma   90.00000000
_symmetry_Int_Tables_number   1
_chemical_formula_structural   U4NbTc3C8
_chemical_formula_sum   'U4 Nb1 Tc3 C8'
_cell_volume   200.26071195
_cell_formula_units_Z   1
loop_
 _symmetry_equiv_pos_site_id
 _symmetry_equiv_pos_as_xyz
  1  'x, y, z'
loop_
 _atom_site_type_symbol
 _atom_site_label
 _atom_site_symmetry_multiplicity
 _atom_site_fract_x
 _atom_site_fract_y
 _atom_site_fract_z
 _atom_site_occupancy
  U  U0  1  0.250000  0.077988  0.855327  1
  U  U1  1  0.250000  0.584600  0.643081  1
  U  U2  1  0.750000  0.917752  0.141597  1
  U  U3  1  0.750000  0.417078  0.361083  1
  Nb  Nb4  1  0.250000  0.421170  0.101069  1
  Tc  Tc5  1  0.250000  0.916240  0.399368  1
  Tc  Tc6  1  0.750000  0.575404  0.896713  1
  Tc  Tc7  1  0.750000  0.085897  0.601719  1
  C  C8  1  0.250000  0.156897  0.247362  1
  C  C9  1  0.250000  0.665359  0.260140  1
  C  C10  1  0.750000  0.841421  0.753905  1
  C  C11  1  0.750000  0.341742  0.743148  1
  C  C12  1  0.250000  0.751152  0.990323  1
  C  C13  1  0.250000  0.246080  0.508407  1
  C  C14  1  0.750000  0.243631  0.002462  1
  C  C15  1  0.750000  0.757589  0.494295  1
