# generated using pymatgen
data_Hf16PdRh7C4
_symmetry_space_group_name_H-M   'P 1'
_cell_length_a   8.75285746
_cell_length_b   8.76426057
_cell_length_c   8.76425900
_cell_angle_alpha   60.00000215
_cell_angle_beta   59.95689695
_cell_angle_gamma   59.95689611
_symmetry_Int_Tables_number   1
_chemical_formula_structural   Hf16PdRh7C4
_chemical_formula_sum   'Hf16 Pd1 Rh7 C4'
_cell_volume   475.09678964
_cell_formula_units_Z   1
loop_
 _symmetry_equiv_pos_site_id
 _symmetry_equiv_pos_as_xyz
  1  'x, y, z'
loop_
 _atom_site_type_symbol
 _atom_site_label
 _atom_site_symmetry_multiplicity
 _atom_site_fract_x
 _atom_site_fract_y
 _atom_site_fract_z
 _atom_site_occupancy
  Hf  Hf0  1  0.125767  0.624744  0.624744  1
  Hf  Hf1  1  0.623984  0.121494  0.627261  1
  Hf  Hf2  1  0.623984  0.627261  0.121494  1
  Hf  Hf3  1  0.623984  0.627261  0.627261  1
  Hf  Hf4  1  0.816603  0.817897  0.182750  1
  Hf  Hf5  1  0.183707  0.183255  0.816519  1
  Hf  Hf6  1  0.816603  0.182750  0.817897  1
  Hf  Hf7  1  0.183707  0.816519  0.183255  1
  Hf  Hf8  1  0.183707  0.816519  0.816519  1
  Hf  Hf9  1  0.816603  0.182750  0.182750  1
  Hf  Hf10  1  0.433888  0.433500  0.066306  1
  Hf  Hf11  1  0.069966  0.063008  0.433513  1
  Hf  Hf12  1  0.433888  0.066306  0.433500  1
  Hf  Hf13  1  0.069966  0.433513  0.063008  1
  Hf  Hf14  1  0.069966  0.433513  0.433513  1
  Hf  Hf15  1  0.433888  0.066306  0.066306  1
  Pd  Pd16  1  0.758929  0.413690  0.413690  1
  Rh  Rh17  1  0.412085  0.762065  0.412924  1
  Rh  Rh18  1  0.412085  0.412924  0.762065  1
  Rh  Rh19  1  0.412085  0.412924  0.412924  1
  Rh  Rh20  1  0.484023  0.838660  0.838660  1
  Rh  Rh21  1  0.837928  0.486759  0.837658  1
  Rh  Rh22  1  0.837928  0.837658  0.486759  1
  Rh  Rh23  1  0.837928  0.837658  0.837658  1
  C  C24  1  0.624682  0.125106  0.125106  1
  C  C25  1  0.124038  0.624760  0.125601  1
  C  C26  1  0.124038  0.125601  0.624760  1
  C  C27  1  0.124038  0.125601  0.125601  1
