# generated using pymatgen
data_Zr10CuSb6P
_symmetry_space_group_name_H-M   'P 1'
_cell_length_a   8.62001500
_cell_length_b   8.62001478
_cell_length_c   5.87052900
_cell_angle_alpha   90.00000000
_cell_angle_beta   90.00000000
_cell_angle_gamma   119.99999703
_symmetry_Int_Tables_number   1
_chemical_formula_structural   Zr10CuSb6P
_chemical_formula_sum   'Zr10 Cu1 Sb6 P1'
_cell_volume   377.76691042
_cell_formula_units_Z   1
loop_
 _symmetry_equiv_pos_site_id
 _symmetry_equiv_pos_as_xyz
  1  'x, y, z'
loop_
 _atom_site_type_symbol
 _atom_site_label
 _atom_site_symmetry_multiplicity
 _atom_site_fract_x
 _atom_site_fract_y
 _atom_site_fract_z
 _atom_site_occupancy
  Zr  Zr0  1  0.666667  0.333333  0.000000  1
  Zr  Zr1  1  0.333333  0.666667  0.000000  1
  Zr  Zr2  1  0.333333  0.666667  0.500000  1
  Zr  Zr3  1  0.666667  0.333333  0.500000  1
  Zr  Zr4  1  0.741269  0.741269  0.743774  1
  Zr  Zr5  1  0.258731  0.000000  0.743774  1
  Zr  Zr6  1  0.000000  0.258731  0.743774  1
  Zr  Zr7  1  0.258731  0.258731  0.256226  1
  Zr  Zr8  1  0.741269  0.000000  0.256226  1
  Zr  Zr9  1  0.000000  0.741269  0.256226  1
  Cu  Cu10  1  0.000000  0.000000  0.000000  1
  Sb  Sb11  1  0.392493  0.392493  0.754932  1
  Sb  Sb12  1  0.607507  0.000000  0.754932  1
  Sb  Sb13  1  0.000000  0.607507  0.754932  1
  Sb  Sb14  1  0.607507  0.607507  0.245068  1
  Sb  Sb15  1  0.392493  0.000000  0.245068  1
  Sb  Sb16  1  0.000000  0.392493  0.245068  1
  P  P17  1  0.000000  0.000000  0.500000  1
