# generated using pymatgen
data_NdErMg(Si3Pd10)2
_symmetry_space_group_name_H-M   'P 1'
_cell_length_a   8.69234424
_cell_length_b   8.69234371
_cell_length_c   8.69234500
_cell_angle_alpha   59.99999888
_cell_angle_beta   60.00000091
_cell_angle_gamma   60.00000297
_symmetry_Int_Tables_number   1
_chemical_formula_structural   NdErMg(Si3Pd10)2
_chemical_formula_sum   'Nd1 Er1 Mg1 Si6 Pd20'
_cell_volume   464.40381018
_cell_formula_units_Z   1
loop_
 _symmetry_equiv_pos_site_id
 _symmetry_equiv_pos_as_xyz
  1  'x, y, z'
loop_
 _atom_site_type_symbol
 _atom_site_label
 _atom_site_symmetry_multiplicity
 _atom_site_fract_x
 _atom_site_fract_y
 _atom_site_fract_z
 _atom_site_occupancy
  Nd  Nd0  1  0.250000  0.250000  0.250000  1
  Er  Er1  1  0.750000  0.750000  0.750000  1
  Mg  Mg2  1  0.000000  0.000000  0.000000  1
  Si  Si3  1  0.733404  0.266596  0.266596  1
  Si  Si4  1  0.266596  0.733404  0.733404  1
  Si  Si5  1  0.266596  0.733404  0.266596  1
  Si  Si6  1  0.733404  0.266596  0.733404  1
  Si  Si7  1  0.266596  0.266596  0.733404  1
  Si  Si8  1  0.733404  0.733404  0.266596  1
  Pd  Pd9  1  0.344460  0.999210  0.999210  1
  Pd  Pd10  1  0.657120  0.999210  0.999210  1
  Pd  Pd11  1  0.999210  0.344460  0.657120  1
  Pd  Pd12  1  0.999210  0.657120  0.344460  1
  Pd  Pd13  1  0.999210  0.344460  0.999210  1
  Pd  Pd14  1  0.657120  0.999210  0.344460  1
  Pd  Pd15  1  0.999210  0.657120  0.999210  1
  Pd  Pd16  1  0.344460  0.999210  0.657120  1
  Pd  Pd17  1  0.999210  0.999210  0.344460  1
  Pd  Pd18  1  0.999210  0.999210  0.657120  1
  Pd  Pd19  1  0.657120  0.344460  0.999210  1
  Pd  Pd20  1  0.344460  0.657120  0.999210  1
  Pd  Pd21  1  0.385478  0.385478  0.385478  1
  Pd  Pd22  1  0.617192  0.617192  0.617192  1
  Pd  Pd23  1  0.385478  0.385478  0.843567  1
  Pd  Pd24  1  0.385478  0.843567  0.385478  1
  Pd  Pd25  1  0.617192  0.617192  0.148422  1
  Pd  Pd26  1  0.617192  0.148422  0.617192  1
  Pd  Pd27  1  0.843567  0.385478  0.385478  1
  Pd  Pd28  1  0.148422  0.617192  0.617192  1
