# generated using pymatgen
data_Al11PRu12
_symmetry_space_group_name_H-M   'P 1'
_cell_length_a   4.18134200
_cell_length_b   5.96988500
_cell_length_c   12.53114000
_cell_angle_alpha   90.00000000
_cell_angle_beta   89.99797200
_cell_angle_gamma   90.00000000
_symmetry_Int_Tables_number   1
_chemical_formula_structural   Al11PRu12
_chemical_formula_sum   'Al11 P1 Ru12'
_cell_volume   312.80395683
_cell_formula_units_Z   1
loop_
 _symmetry_equiv_pos_site_id
 _symmetry_equiv_pos_as_xyz
  1  'x, y, z'
loop_
 _atom_site_type_symbol
 _atom_site_label
 _atom_site_symmetry_multiplicity
 _atom_site_fract_x
 _atom_site_fract_y
 _atom_site_fract_z
 _atom_site_occupancy
  Al  Al0  1  0.000000  0.000000  0.000000  1
  Al  Al1  1  0.499878  0.500001  0.174396  1
  Al  Al2  1  0.999840  0.000000  0.330557  1
  Al  Al3  1  0.499999  0.500001  0.500000  1
  Al  Al4  1  0.000158  0.000000  0.669443  1
  Al  Al5  1  0.500120  0.500001  0.825604  1
  Al  Al6  1  0.499880  0.000000  0.164681  1
  Al  Al7  1  0.999849  0.500001  0.332338  1
  Al  Al8  1  0.499999  0.000000  0.500000  1
  Al  Al9  1  0.000152  0.500001  0.667661  1
  Al  Al10  1  0.500120  0.000000  0.835319  1
  P  P11  1  0.000000  0.500001  0.000000  1
  Ru  Ru12  1  0.499999  0.266229  0.000000  1
  Ru  Ru13  1  0.499999  0.733771  0.000000  1
  Ru  Ru14  1  0.999907  0.256401  0.159419  1
  Ru  Ru15  1  0.999907  0.743599  0.159419  1
  Ru  Ru16  1  0.499864  0.247435  0.332907  1
  Ru  Ru17  1  0.499864  0.752565  0.332907  1
  Ru  Ru18  1  0.000000  0.249789  0.500000  1
  Ru  Ru19  1  0.000000  0.750211  0.500000  1
  Ru  Ru20  1  0.500136  0.247435  0.667093  1
  Ru  Ru21  1  0.500136  0.752565  0.667093  1
  Ru  Ru22  1  0.000093  0.256401  0.840581  1
  Ru  Ru23  1  0.000093  0.743599  0.840581  1
