# generated using pymatgen
data_RbSe23
_symmetry_space_group_name_H-M   'P 1'
_cell_length_a   5.67537911
_cell_length_b   10.03156375
_cell_length_c   16.67277300
_cell_angle_alpha   89.20851961
_cell_angle_beta   78.78273632
_cell_angle_gamma   98.86073831
_symmetry_Int_Tables_number   1
_chemical_formula_structural   RbSe23
_chemical_formula_sum   'Rb1 Se23'
_cell_volume   919.04523214
_cell_formula_units_Z   1
loop_
 _symmetry_equiv_pos_site_id
 _symmetry_equiv_pos_as_xyz
  1  'x, y, z'
loop_
 _atom_site_type_symbol
 _atom_site_label
 _atom_site_symmetry_multiplicity
 _atom_site_fract_x
 _atom_site_fract_y
 _atom_site_fract_z
 _atom_site_occupancy
  Rb  Rb0  1  0.447136  0.171247  0.397242  1
  Se  Se1  1  0.542435  0.809833  0.377211  1
  Se  Se2  1  0.018849  0.322514  0.118431  1
  Se  Se3  1  0.909411  0.292861  0.520647  1
  Se  Se4  1  0.281756  0.771685  0.507156  1
  Se  Se5  1  0.243974  0.291228  0.987112  1
  Se  Se6  1  0.755089  0.704206  0.014258  1
  Se  Se7  1  0.059286  0.416956  0.370760  1
  Se  Se8  1  0.700973  0.598810  0.349483  1
  Se  Se9  1  0.776314  0.110796  0.165135  1
  Se  Se10  1  0.243495  0.872806  0.122745  1
  Se  Se11  1  0.731232  0.656855  0.627968  1
  Se  Se12  1  0.288025  0.342845  0.631894  1
  Se  Se13  1  0.239585  0.887014  0.845041  1
  Se  Se14  1  0.772241  0.117944  0.872600  1
  Se  Se15  1  0.989432  0.666354  0.112080  1
  Se  Se16  1  0.516747  0.835178  0.607913  1
  Se  Se17  1  0.543035  0.172268  0.602641  1
  Se  Se18  1  0.995250  0.674984  0.884909  1
  Se  Se19  1  0.006477  0.328857  0.889823  1
  Se  Se20  1  0.437291  0.468101  0.273608  1
  Se  Se21  1  0.016568  0.984686  0.227832  1
  Se  Se22  1  0.467659  0.494120  0.721149  1
  Se  Se23  1  0.017738  0.007847  0.772364  1
