# generated using pymatgen
data_Tb3Al12NiOs3
_symmetry_space_group_name_H-M   'P 1'
_cell_length_a   8.83256200
_cell_length_b   8.79734145
_cell_length_c   9.52749780
_cell_angle_alpha   90.34286831
_cell_angle_beta   90.00000000
_cell_angle_gamma   120.13252481
_symmetry_Int_Tables_number   1
_chemical_formula_structural   Tb3Al12NiOs3
_chemical_formula_sum   'Tb6 Al24 Ni2 Os6'
_cell_volume   640.25904872
_cell_formula_units_Z   2
loop_
 _symmetry_equiv_pos_site_id
 _symmetry_equiv_pos_as_xyz
  1  'x, y, z'
loop_
 _atom_site_type_symbol
 _atom_site_label
 _atom_site_symmetry_multiplicity
 _atom_site_fract_x
 _atom_site_fract_y
 _atom_site_fract_z
 _atom_site_occupancy
  Tb  Tb0  1  0.194558  0.389116  0.249627  1
  Tb  Tb1  1  0.805442  0.610884  0.750373  1
  Tb  Tb2  1  0.613643  0.804650  0.250545  1
  Tb  Tb3  1  0.386357  0.195350  0.749455  1
  Tb  Tb4  1  0.191006  0.804650  0.250545  1
  Tb  Tb5  1  0.808994  0.195350  0.749455  1
  Al  Al6  1  0.334462  0.668925  0.020149  1
  Al  Al7  1  0.665538  0.331075  0.979851  1
  Al  Al8  1  0.666384  0.332768  0.519531  1
  Al  Al9  1  0.333616  0.667232  0.480469  1
  Al  Al10  1  0.163328  0.326656  0.574556  1
  Al  Al11  1  0.836672  0.673344  0.425444  1
  Al  Al12  1  0.674199  0.837965  0.575625  1
  Al  Al13  1  0.836120  0.672241  0.076879  1
  Al  Al14  1  0.325801  0.162035  0.424375  1
  Al  Al15  1  0.163880  0.327759  0.923121  1
  Al  Al16  1  0.163767  0.837965  0.575625  1
  Al  Al17  1  0.325516  0.162487  0.076745  1
  Al  Al18  1  0.836233  0.162035  0.424375  1
  Al  Al19  1  0.674484  0.837513  0.923255  1
  Al  Al20  1  0.836970  0.162487  0.076745  1
  Al  Al21  1  0.163030  0.837513  0.923255  1
  Al  Al22  1  0.559844  0.119687  0.247304  1
  Al  Al23  1  0.440156  0.880313  0.752696  1
  Al  Al24  1  0.876137  0.437621  0.249528  1
  Al  Al25  1  0.123863  0.562379  0.750472  1
  Al  Al26  1  0.561484  0.437621  0.249528  1
  Al  Al27  1  0.438516  0.562379  0.750472  1
  Al  Al28  1  0.998766  0.997531  0.243476  1
  Al  Al29  1  0.001234  0.002469  0.756524  1
  Ni  Ni30  1  0.500000  0.000000  0.000000  1
  Ni  Ni31  1  0.000000  0.000000  0.000000  1
  Os  Os32  1  0.000000  0.500000  0.000000  1
  Os  Os33  1  0.500000  0.000000  0.500000  1
  Os  Os34  1  0.500000  0.500000  0.000000  1
  Os  Os35  1  0.000000  0.500000  0.500000  1
  Os  Os36  1  0.500000  0.500000  0.500000  1
  Os  Os37  1  0.000000  0.000000  0.500000  1
