# generated using pymatgen
data_Hf8FeSi16Tc3Ru8
_symmetry_space_group_name_H-M   'P 1'
_cell_length_a   9.88856121
_cell_length_b   9.89224800
_cell_length_c   13.29289612
_cell_angle_alpha   54.01205496
_cell_angle_beta   54.01592451
_cell_angle_gamma   31.20832588
_symmetry_Int_Tables_number   1
_chemical_formula_structural   Hf8FeSi16Tc3Ru8
_chemical_formula_sum   'Hf8 Fe1 Si16 Tc3 Ru8'
_cell_volume   533.84929771
_cell_formula_units_Z   1
loop_
 _symmetry_equiv_pos_site_id
 _symmetry_equiv_pos_as_xyz
  1  'x, y, z'
loop_
 _atom_site_type_symbol
 _atom_site_label
 _atom_site_symmetry_multiplicity
 _atom_site_fract_x
 _atom_site_fract_y
 _atom_site_fract_z
 _atom_site_occupancy
  Hf  Hf0  1  0.292177  0.557263  0.649147  1
  Hf  Hf1  1  0.444181  0.706817  0.852696  1
  Hf  Hf2  1  0.709111  0.444229  0.349192  1
  Hf  Hf3  1  0.557133  0.292923  0.148015  1
  Hf  Hf4  1  0.038079  0.293702  0.639054  1
  Hf  Hf5  1  0.706755  0.957817  0.862253  1
  Hf  Hf6  1  0.960695  0.703004  0.364493  1
  Hf  Hf7  1  0.295621  0.040471  0.134810  1
  Fe  Fe8  1  0.825534  0.653088  0.778078  1
  Si  Si9  1  0.874608  0.125117  0.250242  1
  Si  Si10  1  0.125608  0.875048  0.749931  1
  Si  Si11  1  0.384232  0.615144  0.250685  1
  Si  Si12  1  0.616837  0.382184  0.750470  1
  Si  Si13  1  0.966959  0.267609  0.891241  1
  Si  Si14  1  0.746370  0.020308  0.610006  1
  Si  Si15  1  0.024813  0.748107  0.106786  1
  Si  Si16  1  0.252075  0.975118  0.392806  1
  Si  Si17  1  0.577054  0.082436  0.063219  1
  Si  Si18  1  0.917197  0.423404  0.436185  1
  Si  Si19  1  0.431779  0.914566  0.931980  1
  Si  Si20  1  0.079476  0.573519  0.569272  1
  Si  Si21  1  0.385582  0.146029  0.397072  1
  Si  Si22  1  0.855518  0.613686  0.102155  1
  Si  Si23  1  0.615312  0.854225  0.606428  1
  Si  Si24  1  0.134590  0.392773  0.895152  1
  Tc  Tc25  1  0.651363  0.824727  0.282478  1
  Tc  Tc26  1  0.176339  0.348438  0.217301  1
  Tc  Tc27  1  0.757753  0.485067  0.063066  1
  Ru  Ru28  1  0.895580  0.140100  0.586852  1
  Ru  Ru29  1  0.861963  0.104033  0.912765  1
  Ru  Ru30  1  0.102296  0.853752  0.417713  1
  Ru  Ru31  1  0.146814  0.896692  0.082653  1
  Ru  Ru32  1  0.241271  0.517601  0.926993  1
  Ru  Ru33  1  0.483293  0.760573  0.572151  1
  Ru  Ru34  1  0.517538  0.237789  0.435094  1
  Ru  Ru35  1  0.348494  0.172641  0.721570  1
