# generated using pymatgen
data_La11Y(GePd)12
_symmetry_space_group_name_H-M   'P 1'
_cell_length_a   4.55754400
_cell_length_b   7.75229406
_cell_length_c   22.32246340
_cell_angle_alpha   90.10344280
_cell_angle_beta   90.00000000
_cell_angle_gamma   90.00000000
_symmetry_Int_Tables_number   1
_chemical_formula_structural   La11Y(GePd)12
_chemical_formula_sum   'La11 Y1 Ge12 Pd12'
_cell_volume   788.68307244
_cell_formula_units_Z   1
loop_
 _symmetry_equiv_pos_site_id
 _symmetry_equiv_pos_as_xyz
  1  'x, y, z'
loop_
 _atom_site_type_symbol
 _atom_site_label
 _atom_site_symmetry_multiplicity
 _atom_site_fract_x
 _atom_site_fract_y
 _atom_site_fract_z
 _atom_site_occupancy
  La  La0  1  0.250000  0.712246  0.334314  1
  La  La1  1  0.750000  0.289721  0.665804  1
  La  La2  1  0.750000  0.209904  0.167668  1
  La  La3  1  0.250000  0.789731  0.832352  1
  La  La4  1  0.250000  0.792203  0.167080  1
  La  La5  1  0.750000  0.208343  0.833046  1
  La  La6  1  0.750000  0.292080  0.335429  1
  La  La7  1  0.250000  0.710651  0.664709  1
  La  La8  1  0.250000  0.716228  0.002408  1
  La  La9  1  0.750000  0.283644  0.997692  1
  La  La10  1  0.750000  0.210603  0.498247  1
  Y  Y11  1  0.250000  0.776853  0.501809  1
  Ge  Ge12  1  0.250000  0.089364  0.071097  1
  Ge  Ge13  1  0.750000  0.910823  0.928921  1
  Ge  Ge14  1  0.750000  0.592095  0.432418  1
  Ge  Ge15  1  0.250000  0.414777  0.570494  1
  Ge  Ge16  1  0.250000  0.084033  0.271605  1
  Ge  Ge17  1  0.750000  0.916091  0.728172  1
  Ge  Ge18  1  0.750000  0.583383  0.230131  1
  Ge  Ge19  1  0.250000  0.416589  0.769680  1
  Ge  Ge20  1  0.250000  0.083149  0.398601  1
  Ge  Ge21  1  0.750000  0.912916  0.600364  1
  Ge  Ge22  1  0.750000  0.583679  0.104506  1
  Ge  Ge23  1  0.250000  0.415800  0.895385  1
  Pd  Pd24  1  0.250000  0.417636  0.239653  1
  Pd  Pd25  1  0.750000  0.582936  0.760779  1
  Pd  Pd26  1  0.750000  0.917886  0.262802  1
  Pd  Pd27  1  0.250000  0.082096  0.737200  1
  Pd  Pd28  1  0.250000  0.419634  0.436450  1
  Pd  Pd29  1  0.750000  0.588227  0.561231  1
  Pd  Pd30  1  0.750000  0.915837  0.066062  1
  Pd  Pd31  1  0.250000  0.084144  0.933731  1
  Pd  Pd32  1  0.250000  0.420186  0.093427  1
  Pd  Pd33  1  0.750000  0.580156  0.906483  1
  Pd  Pd34  1  0.750000  0.919283  0.410258  1
  Pd  Pd35  1  0.250000  0.077072  0.589992  1
