# generated using pymatgen
data_ZrScCo3Sn2
_symmetry_space_group_name_H-M   'P 1'
_cell_length_a   7.54474001
_cell_length_b   7.54473970
_cell_length_c   7.54474228
_cell_angle_alpha   33.77945382
_cell_angle_beta   33.77946102
_cell_angle_gamma   33.77945440
_symmetry_Int_Tables_number   1
_chemical_formula_structural   ZrScCo3Sn2
_chemical_formula_sum   'Zr1 Sc1 Co3 Sn2'
_cell_volume   118.29895073
_cell_formula_units_Z   1
loop_
 _symmetry_equiv_pos_site_id
 _symmetry_equiv_pos_as_xyz
  1  'x, y, z'
loop_
 _atom_site_type_symbol
 _atom_site_label
 _atom_site_symmetry_multiplicity
 _atom_site_fract_x
 _atom_site_fract_y
 _atom_site_fract_z
 _atom_site_occupancy
  Zr  Zr0  1  0.754028  0.754028  0.754028  1
  Sc  Sc1  1  0.246480  0.246480  0.246480  1
  Co  Co2  1  0.120532  0.120532  0.120532  1
  Co  Co3  1  0.630047  0.630047  0.630047  1
  Co  Co4  1  0.374766  0.374766  0.374766  1
  Sn  Sn5  1  0.995314  0.995314  0.995314  1
  Sn  Sn6  1  0.503835  0.503835  0.503835  1
