# generated using pymatgen
data_La3Mg3GaSn2
_symmetry_space_group_name_H-M   'P 1'
_cell_length_a   7.83102542
_cell_length_b   7.83102478
_cell_length_c   4.68026500
_cell_angle_alpha   90.00000000
_cell_angle_beta   90.00000000
_cell_angle_gamma   119.93108098
_symmetry_Int_Tables_number   1
_chemical_formula_structural   La3Mg3GaSn2
_chemical_formula_sum   'La3 Mg3 Ga1 Sn2'
_cell_volume   248.73648610
_cell_formula_units_Z   1
loop_
 _symmetry_equiv_pos_site_id
 _symmetry_equiv_pos_as_xyz
  1  'x, y, z'
loop_
 _atom_site_type_symbol
 _atom_site_label
 _atom_site_symmetry_multiplicity
 _atom_site_fract_x
 _atom_site_fract_y
 _atom_site_fract_z
 _atom_site_occupancy
  La  La0  1  0.999909  0.597186  0.000000  1
  La  La1  1  0.402700  0.402700  0.000000  1
  La  La2  1  0.597186  0.999909  0.000000  1
  Mg  Mg3  1  0.999592  0.234565  0.500000  1
  Mg  Mg4  1  0.765892  0.765892  0.500000  1
  Mg  Mg5  1  0.234565  0.999592  0.500000  1
  Ga  Ga6  1  0.000107  0.000107  0.000000  1
  Sn  Sn7  1  0.333593  0.666456  0.500000  1
  Sn  Sn8  1  0.666456  0.333593  0.500000  1
