# generated using pymatgen
data_La5Nd2Pa(AlRh)8
_symmetry_space_group_name_H-M   'P 1'
_cell_length_a   4.26498500
_cell_length_b   7.24708087
_cell_length_c   16.25242335
_cell_angle_alpha   88.87319041
_cell_angle_beta   90.00000000
_cell_angle_gamma   90.00000000
_symmetry_Int_Tables_number   1
_chemical_formula_structural   La5Nd2Pa(AlRh)8
_chemical_formula_sum   'La5 Nd2 Pa1 Al8 Rh8'
_cell_volume   502.24399200
_cell_formula_units_Z   1
loop_
 _symmetry_equiv_pos_site_id
 _symmetry_equiv_pos_as_xyz
  1  'x, y, z'
loop_
 _atom_site_type_symbol
 _atom_site_label
 _atom_site_symmetry_multiplicity
 _atom_site_fract_x
 _atom_site_fract_y
 _atom_site_fract_z
 _atom_site_occupancy
  La  La0  1  0.750000  0.477116  0.219895  1
  La  La1  1  0.750000  0.976325  0.281139  1
  La  La2  1  0.750000  0.338895  0.441236  1
  La  La3  1  0.750000  0.847895  0.058715  1
  La  La4  1  0.250000  0.165426  0.937093  1
  Nd  Nd5  1  0.250000  0.026228  0.721001  1
  Nd  Nd6  1  0.250000  0.651478  0.562260  1
  Pa  Pa7  1  0.250000  0.529088  0.779426  1
  Al  Al8  1  0.250000  0.649728  0.353574  1
  Al  Al9  1  0.750000  0.345790  0.648379  1
  Al  Al10  1  0.750000  0.845277  0.847970  1
  Al  Al11  1  0.250000  0.149163  0.146499  1
  Al  Al12  1  0.250000  0.507150  0.059476  1
  Al  Al13  1  0.750000  0.500697  0.939488  1
  Al  Al14  1  0.750000  0.986020  0.564674  1
  Al  Al15  1  0.250000  0.996835  0.440928  1
  Rh  Rh16  1  0.250000  0.768375  0.178463  1
  Rh  Rh17  1  0.750000  0.277023  0.813974  1
  Rh  Rh18  1  0.750000  0.706574  0.693409  1
  Rh  Rh19  1  0.250000  0.270178  0.321289  1
  Rh  Rh20  1  0.250000  0.712279  0.918378  1
  Rh  Rh21  1  0.750000  0.282072  0.071977  1
  Rh  Rh22  1  0.750000  0.778632  0.430746  1
  Rh  Rh23  1  0.250000  0.211755  0.570011  1
