# generated using pymatgen
data_Nd2Ho3Si4
_symmetry_space_group_name_H-M   'P 1'
_cell_length_a   7.51129400
_cell_length_b   7.78725400
_cell_length_c   14.79231400
_cell_angle_alpha   90.00000000
_cell_angle_beta   90.00000000
_cell_angle_gamma   90.00000000
_symmetry_Int_Tables_number   1
_chemical_formula_structural   Nd2Ho3Si4
_chemical_formula_sum   'Nd8 Ho12 Si16'
_cell_volume   865.23727062
_cell_formula_units_Z   4
loop_
 _symmetry_equiv_pos_site_id
 _symmetry_equiv_pos_as_xyz
  1  'x, y, z'
loop_
 _atom_site_type_symbol
 _atom_site_label
 _atom_site_symmetry_multiplicity
 _atom_site_fract_x
 _atom_site_fract_y
 _atom_site_fract_z
 _atom_site_occupancy
  Nd  Nd0  1  0.975310  0.820000  0.097999  1
  Nd  Nd1  1  0.475310  0.680000  0.402001  1
  Nd  Nd2  1  0.524690  0.320000  0.902001  1
  Nd  Nd3  1  0.024690  0.180000  0.597999  1
  Nd  Nd4  1  0.024690  0.180000  0.902001  1
  Nd  Nd5  1  0.524690  0.320000  0.597999  1
  Nd  Nd6  1  0.475310  0.680000  0.097999  1
  Nd  Nd7  1  0.975310  0.820000  0.402001  1
  Ho  Ho8  1  0.649786  0.989397  0.250000  1
  Ho  Ho9  1  0.149786  0.510603  0.250000  1
  Ho  Ho10  1  0.850214  0.489397  0.750000  1
  Ho  Ho11  1  0.350214  0.010603  0.750000  1
  Ho  Ho12  1  0.680857  0.821513  0.876781  1
  Ho  Ho13  1  0.180857  0.678487  0.623219  1
  Ho  Ho14  1  0.819143  0.321513  0.123219  1
  Ho  Ho15  1  0.319143  0.178487  0.376781  1
  Ho  Ho16  1  0.319143  0.178487  0.123219  1
  Ho  Ho17  1  0.819143  0.321513  0.376781  1
  Ho  Ho18  1  0.180857  0.678487  0.876781  1
  Ho  Ho19  1  0.680857  0.821513  0.623219  1
  Si  Si20  1  0.768418  0.621776  0.250000  1
  Si  Si21  1  0.268418  0.878224  0.250000  1
  Si  Si22  1  0.731582  0.121776  0.750000  1
  Si  Si23  1  0.231582  0.378224  0.750000  1
  Si  Si24  1  0.024060  0.110717  0.250000  1
  Si  Si25  1  0.524060  0.389283  0.250000  1
  Si  Si26  1  0.475940  0.610717  0.750000  1
  Si  Si27  1  0.975940  0.889283  0.750000  1
  Si  Si28  1  0.855475  0.530656  0.959953  1
  Si  Si29  1  0.355475  0.969344  0.540047  1
  Si  Si30  1  0.644525  0.030656  0.040047  1
  Si  Si31  1  0.144525  0.469344  0.459953  1
  Si  Si32  1  0.144525  0.469344  0.040047  1
  Si  Si33  1  0.644525  0.030656  0.459953  1
  Si  Si34  1  0.355475  0.969344  0.959953  1
  Si  Si35  1  0.855475  0.530656  0.540047  1
