# generated using pymatgen
data_TbDy5NbCo17P12
_symmetry_space_group_name_H-M   'P 1'
_cell_length_a   3.70167200
_cell_length_b   10.56072000
_cell_length_c   12.25982600
_cell_angle_alpha   90.00000000
_cell_angle_beta   90.00000000
_cell_angle_gamma   90.00000000
_symmetry_Int_Tables_number   1
_chemical_formula_structural   TbDy5NbCo17P12
_chemical_formula_sum   'Tb1 Dy5 Nb1 Co17 P12'
_cell_volume   479.26505982
_cell_formula_units_Z   1
loop_
 _symmetry_equiv_pos_site_id
 _symmetry_equiv_pos_as_xyz
  1  'x, y, z'
loop_
 _atom_site_type_symbol
 _atom_site_label
 _atom_site_symmetry_multiplicity
 _atom_site_fract_x
 _atom_site_fract_y
 _atom_site_fract_z
 _atom_site_occupancy
  Tb  Tb0  1  0.500000  0.000000  0.478069  1
  Dy  Dy1  1  0.000000  0.500000  0.526257  1
  Dy  Dy2  1  0.500000  0.819652  0.207026  1
  Dy  Dy3  1  0.500000  0.180348  0.207026  1
  Dy  Dy4  1  0.000000  0.682867  0.795726  1
  Dy  Dy5  1  0.000000  0.317133  0.795726  1
  Nb  Nb6  1  0.500000  0.500000  0.154486  1
  Co  Co7  1  0.000000  0.000000  0.839322  1
  Co  Co8  1  0.500000  0.500000  0.702145  1
  Co  Co9  1  0.000000  0.000000  0.296207  1
  Co  Co10  1  0.000000  0.500000  0.984352  1
  Co  Co11  1  0.500000  0.000000  0.014185  1
  Co  Co12  1  0.500000  0.329749  0.989766  1
  Co  Co13  1  0.500000  0.670251  0.989766  1
  Co  Co14  1  0.000000  0.163875  0.004118  1
  Co  Co15  1  0.000000  0.836125  0.004118  1
  Co  Co16  1  0.500000  0.295465  0.432545  1
  Co  Co17  1  0.500000  0.704535  0.432545  1
  Co  Co18  1  0.000000  0.202709  0.569747  1
  Co  Co19  1  0.000000  0.797291  0.569747  1
  Co  Co20  1  0.500000  0.879774  0.708748  1
  Co  Co21  1  0.500000  0.120226  0.708748  1
  Co  Co22  1  0.000000  0.622677  0.294185  1
  Co  Co23  1  0.000000  0.377323  0.294185  1
  P  P24  1  0.500000  0.500000  0.881118  1
  P  P25  1  0.000000  0.000000  0.116927  1
  P  P26  1  0.500000  0.500000  0.355089  1
  P  P27  1  0.000000  0.000000  0.656763  1
  P  P28  1  0.500000  0.309443  0.616934  1
  P  P29  1  0.500000  0.690557  0.616934  1
  P  P30  1  0.000000  0.188822  0.385598  1
  P  P31  1  0.000000  0.811178  0.385598  1
  P  P32  1  0.500000  0.850962  0.890492  1
  P  P33  1  0.500000  0.149038  0.890492  1
  P  P34  1  0.000000  0.660886  0.102657  1
  P  P35  1  0.000000  0.339114  0.102657  1
