# generated using pymatgen
data_Tb5YAl23SiOs8
_symmetry_space_group_name_H-M   'P 1'
_cell_length_a   8.77808906
_cell_length_b   8.77808858
_cell_length_c   9.66409401
_cell_angle_alpha   89.99604678
_cell_angle_beta   90.00395419
_cell_angle_gamma   120.01476022
_symmetry_Int_Tables_number   1
_chemical_formula_structural   Tb5YAl23SiOs8
_chemical_formula_sum   'Tb5 Y1 Al23 Si1 Os8'
_cell_volume   644.80308215
_cell_formula_units_Z   1
loop_
 _symmetry_equiv_pos_site_id
 _symmetry_equiv_pos_as_xyz
  1  'x, y, z'
loop_
 _atom_site_type_symbol
 _atom_site_label
 _atom_site_symmetry_multiplicity
 _atom_site_fract_x
 _atom_site_fract_y
 _atom_site_fract_z
 _atom_site_occupancy
  Tb  Tb0  1  0.194229  0.388505  0.250222  1
  Tb  Tb1  1  0.806199  0.612623  0.751171  1
  Tb  Tb2  1  0.611495  0.805771  0.250222  1
  Tb  Tb3  1  0.387377  0.193801  0.751171  1
  Tb  Tb4  1  0.194336  0.805664  0.250228  1
  Y  Y5  1  0.806088  0.193912  0.751140  1
  Al  Al6  1  0.666735  0.333265  0.980593  1
  Al  Al7  1  0.666702  0.333298  0.522560  1
  Al  Al8  1  0.333351  0.666649  0.478089  1
  Al  Al9  1  0.163495  0.327129  0.574270  1
  Al  Al10  1  0.836056  0.671963  0.425258  1
  Al  Al11  1  0.672871  0.836505  0.574270  1
  Al  Al12  1  0.836213  0.672336  0.074314  1
  Al  Al13  1  0.328037  0.163944  0.425258  1
  Al  Al14  1  0.164930  0.330039  0.923691  1
  Al  Al15  1  0.163584  0.836416  0.574323  1
  Al  Al16  1  0.327664  0.163787  0.074314  1
  Al  Al17  1  0.835989  0.164011  0.425228  1
  Al  Al18  1  0.669961  0.835070  0.923691  1
  Al  Al19  1  0.836164  0.163836  0.074327  1
  Al  Al20  1  0.165019  0.834981  0.923647  1
  Al  Al21  1  0.562446  0.124827  0.248474  1
  Al  Al22  1  0.437279  0.874527  0.748127  1
  Al  Al23  1  0.875173  0.437554  0.248474  1
  Al  Al24  1  0.125473  0.562721  0.748127  1
  Al  Al25  1  0.562441  0.437559  0.248477  1
  Al  Al26  1  0.437076  0.562924  0.748043  1
  Al  Al27  1  0.000098  0.999902  0.248806  1
  Al  Al28  1  0.000059  0.999941  0.748648  1
  Si  Si29  1  0.333364  0.666636  0.040239  1
  Os  Os30  1  0.495908  0.991746  0.000342  1
  Os  Os31  1  0.008254  0.504092  0.000342  1
  Os  Os32  1  0.500373  0.000651  0.498854  1
  Os  Os33  1  0.495920  0.504080  0.000262  1
  Os  Os34  1  0.999349  0.499627  0.498854  1
  Os  Os35  1  0.500384  0.499616  0.498768  1
  Os  Os36  1  0.999941  0.000059  0.998708  1
  Os  Os37  1  0.999969  0.000031  0.498474  1
