# generated using pymatgen
data_Ho20Ir7Os4Pt
_symmetry_space_group_name_H-M   'P 1'
_cell_length_a   10.81519805
_cell_length_b   10.81519805
_cell_length_c   6.41274100
_cell_angle_alpha   90.10131944
_cell_angle_beta   90.10131944
_cell_angle_gamma   89.95547559
_symmetry_Int_Tables_number   1
_chemical_formula_structural   Ho20Ir7Os4Pt
_chemical_formula_sum   'Ho20 Ir7 Os4 Pt1'
_cell_volume   750.08618225
_cell_formula_units_Z   1
loop_
 _symmetry_equiv_pos_site_id
 _symmetry_equiv_pos_as_xyz
  1  'x, y, z'
loop_
 _atom_site_type_symbol
 _atom_site_label
 _atom_site_symmetry_multiplicity
 _atom_site_fract_x
 _atom_site_fract_y
 _atom_site_fract_z
 _atom_site_occupancy
  Ho  Ho0  1  0.293425  0.085915  0.376488  1
  Ho  Ho1  1  0.294002  0.913981  0.876546  1
  Ho  Ho2  1  0.703972  0.084949  0.872144  1
  Ho  Ho3  1  0.704862  0.911308  0.378401  1
  Ho  Ho4  1  0.586028  0.793778  0.876837  1
  Ho  Ho5  1  0.582839  0.206372  0.377256  1
  Ho  Ho6  1  0.413730  0.793559  0.377113  1
  Ho  Ho7  1  0.413863  0.206406  0.877347  1
  Ho  Ho8  1  0.206222  0.413972  0.623163  1
  Ho  Ho9  1  0.206441  0.586270  0.122887  1
  Ho  Ho10  1  0.793628  0.417161  0.122744  1
  Ho  Ho11  1  0.793594  0.586137  0.622653  1
  Ho  Ho12  1  0.914085  0.706575  0.123512  1
  Ho  Ho13  1  0.915051  0.296028  0.627856  1
  Ho  Ho14  1  0.086019  0.705998  0.623454  1
  Ho  Ho15  1  0.088692  0.295138  0.121599  1
  Ho  Ho16  1  0.001681  0.998019  0.501841  1
  Ho  Ho17  1  0.001981  0.998319  0.998159  1
  Ho  Ho18  1  0.499905  0.500050  0.999885  1
  Ho  Ho19  1  0.499950  0.500095  0.500115  1
  Ir  Ir20  1  0.848534  0.849096  0.750277  1
  Ir  Ir21  1  0.150904  0.151466  0.749723  1
  Ir  Ir22  1  0.151519  0.848481  0.250000  1
  Ir  Ir23  1  0.652729  0.347271  0.750000  1
  Ir  Ir24  1  0.651950  0.651924  0.250046  1
  Ir  Ir25  1  0.348076  0.348050  0.249954  1
  Ir  Ir26  1  0.348070  0.651930  0.750000  1
  Os  Os27  1  0.500268  0.000015  0.123578  1
  Os  Os28  1  0.500313  0.999858  0.622940  1
  Os  Os29  1  0.000142  0.499687  0.877060  1
  Os  Os30  1  0.999985  0.499732  0.376422  1
  Pt  Pt31  1  0.847537  0.152463  0.250000  1
