# generated using pymatgen
data_Mn2VBiO6
_symmetry_space_group_name_H-M   'P 1'
_cell_length_a   5.62284400
_cell_length_b   7.65370660
_cell_length_c   7.65372871
_cell_angle_alpha   65.78648002
_cell_angle_beta   89.99998232
_cell_angle_gamma   89.99998834
_symmetry_Int_Tables_number   1
_chemical_formula_structural   Mn2VBiO6
_chemical_formula_sum   'Mn4 V2 Bi2 O12'
_cell_volume   300.40480290
_cell_formula_units_Z   2
loop_
 _symmetry_equiv_pos_site_id
 _symmetry_equiv_pos_as_xyz
  1  'x, y, z'
loop_
 _atom_site_type_symbol
 _atom_site_label
 _atom_site_symmetry_multiplicity
 _atom_site_fract_x
 _atom_site_fract_y
 _atom_site_fract_z
 _atom_site_occupancy
  Mn  Mn0  1  0.250000  0.714060  0.100321  1
  Mn  Mn1  1  0.750001  0.899679  0.285942  1
  Mn  Mn2  1  0.250000  0.100321  0.714058  1
  Mn  Mn3  1  0.750001  0.285940  0.899679  1
  V  V4  1  0.250001  0.196658  0.196658  1
  V  V5  1  0.750000  0.803343  0.803343  1
  Bi  Bi6  1  0.750000  0.413171  0.413171  1
  Bi  Bi7  1  0.250001  0.586829  0.586829  1
  O  O8  1  0.250000  0.442968  0.102873  1
  O  O9  1  0.506646  0.116855  0.116856  1
  O  O10  1  0.993355  0.116855  0.116856  1
  O  O11  1  0.000000  0.663545  0.336455  1
  O  O12  1  0.499999  0.663545  0.336455  1
  O  O13  1  0.250000  0.102872  0.442967  1
  O  O14  1  0.750001  0.897128  0.557033  1
  O  O15  1  0.000000  0.336455  0.663545  1
  O  O16  1  0.499999  0.336455  0.663545  1
  O  O17  1  0.006645  0.883144  0.883143  1
  O  O18  1  0.493354  0.883144  0.883143  1
  O  O19  1  0.750001  0.557032  0.897127  1
