# generated using pymatgen
data_Tm6Hf6Al10Os7
_symmetry_space_group_name_H-M   'P 1'
_cell_length_a   9.26644184
_cell_length_b   9.20800360
_cell_length_c   9.20655000
_cell_angle_alpha   59.66135034
_cell_angle_beta   59.78474675
_cell_angle_gamma   59.78995065
_symmetry_Int_Tables_number   1
_chemical_formula_structural   Tm6Hf6Al10Os7
_chemical_formula_sum   'Tm6 Hf6 Al10 Os7'
_cell_volume   552.25580107
_cell_formula_units_Z   1
loop_
 _symmetry_equiv_pos_site_id
 _symmetry_equiv_pos_as_xyz
  1  'x, y, z'
loop_
 _atom_site_type_symbol
 _atom_site_label
 _atom_site_symmetry_multiplicity
 _atom_site_fract_x
 _atom_site_fract_y
 _atom_site_fract_z
 _atom_site_occupancy
  Tm  Tm0  1  0.694948  0.709698  0.298379  1
  Tm  Tm1  1  0.296976  0.709698  0.298379  1
  Tm  Tm2  1  0.704519  0.295488  0.295475  1
  Tm  Tm3  1  0.297004  0.298338  0.709726  1
  Tm  Tm4  1  0.694932  0.298339  0.709726  1
  Tm  Tm5  1  0.300194  0.699792  0.699819  1
  Hf  Hf6  1  0.877943  0.882966  0.361146  1
  Hf  Hf7  1  0.877947  0.361166  0.882939  1
  Hf  Hf8  1  0.365797  0.879740  0.879738  1
  Hf  Hf9  1  0.874722  0.879741  0.879739  1
  Hf  Hf10  1  0.122940  0.124481  0.629638  1
  Hf  Hf11  1  0.122940  0.629640  0.124481  1
  Al  Al12  1  0.642457  0.119433  0.119463  1
  Al  Al13  1  0.118647  0.119433  0.119463  1
  Al  Al14  1  0.667208  0.667273  0.998311  1
  Al  Al15  1  0.667214  0.998294  0.667276  1
  Al  Al16  1  0.996961  0.667381  0.667377  1
  Al  Al17  1  0.668281  0.667381  0.667376  1
  Al  Al18  1  0.333315  0.324742  0.008626  1
  Al  Al19  1  0.333321  0.008605  0.324753  1
  Al  Al20  1  0.999409  0.329585  0.329578  1
  Al  Al21  1  0.341427  0.329585  0.329579  1
  Os  Os22  1  0.004102  0.995907  0.995890  1
  Os  Os23  1  0.999925  0.999459  0.501567  1
  Os  Os24  1  0.499048  0.999460  0.501566  1
  Os  Os25  1  0.999576  0.500443  0.500405  1
  Os  Os26  1  0.499056  0.501589  0.999430  1
  Os  Os27  1  0.999925  0.501590  0.999430  1
  Os  Os28  1  0.499261  0.000753  0.000726  1
