# generated using pymatgen
data_U2FeCo2P3
_symmetry_space_group_name_H-M   'P 1'
_cell_length_a   14.83609300
_cell_length_b   14.42439400
_cell_length_c   20.66233600
_cell_angle_alpha   90.00000000
_cell_angle_beta   90.00000000
_cell_angle_gamma   90.00000000
_symmetry_Int_Tables_number   1
_chemical_formula_structural   U2FeCo2P3
_chemical_formula_sum   'U2 Fe1 Co2 P3'
_cell_volume   4421.77401447
_cell_formula_units_Z   1
loop_
 _symmetry_equiv_pos_site_id
 _symmetry_equiv_pos_as_xyz
  1  'x, y, z'
loop_
 _atom_site_type_symbol
 _atom_site_label
 _atom_site_symmetry_multiplicity
 _atom_site_fract_x
 _atom_site_fract_y
 _atom_site_fract_z
 _atom_site_occupancy
  U  U0  1  0.000000  0.500000  0.787458  1
  U  U1  1  0.500000  0.000000  0.215061  1
  Fe  Fe2  1  0.500000  0.500000  0.999555  1
  Co  Co3  1  0.500000  0.500000  0.498686  1
  Co  Co4  1  0.000000  0.000000  0.499318  1
  P  P5  1  0.000000  0.000000  0.000543  1
  P  P6  1  0.000000  0.500000  0.346608  1
  P  P7  1  0.500000  0.000000  0.652770  1
