# generated using pymatgen
data_Tb3(B3Ir4)2
_symmetry_space_group_name_H-M   'P 1'
_cell_length_a   9.98980689
_cell_length_b   9.14443646
_cell_length_c   5.60873188
_cell_angle_alpha   81.43197321
_cell_angle_beta   64.84494201
_cell_angle_gamma   33.72308517
_symmetry_Int_Tables_number   1
_chemical_formula_structural   Tb3(B3Ir4)2
_chemical_formula_sum   'Tb3 B6 Ir8'
_cell_volume   235.17932505
_cell_formula_units_Z   1
loop_
 _symmetry_equiv_pos_site_id
 _symmetry_equiv_pos_as_xyz
  1  'x, y, z'
loop_
 _atom_site_type_symbol
 _atom_site_label
 _atom_site_symmetry_multiplicity
 _atom_site_fract_x
 _atom_site_fract_y
 _atom_site_fract_z
 _atom_site_occupancy
  Tb  Tb0  1  0.000000  0.000000  0.000000  1
  Tb  Tb1  1  0.819897  0.819897  0.180103  1
  Tb  Tb2  1  0.180103  0.180103  0.819897  1
  B  B3  1  0.670368  0.329632  0.670368  1
  B  B4  1  0.329632  0.670368  0.329632  1
  B  B5  1  0.174400  0.476044  0.523956  1
  B  B6  1  0.476044  0.174400  0.825600  1
  B  B7  1  0.825600  0.523956  0.476044  1
  B  B8  1  0.523956  0.825600  0.174400  1
  Ir  Ir9  1  0.913981  0.913981  0.586019  1
  Ir  Ir10  1  0.414170  0.414170  0.585830  1
  Ir  Ir11  1  0.585830  0.585830  0.414170  1
  Ir  Ir12  1  0.250000  0.250000  0.250000  1
  Ir  Ir13  1  0.750000  0.750000  0.750000  1
  Ir  Ir14  1  0.086019  0.086019  0.413981  1
  Ir  Ir15  1  0.586019  0.586019  0.913981  1
  Ir  Ir16  1  0.413981  0.413981  0.086019  1
