# generated using pymatgen
data_Hf2CuNiRh4
_symmetry_space_group_name_H-M   'P 1'
_cell_length_a   3.96774800
_cell_length_b   5.45270316
_cell_length_c   10.97499110
_cell_angle_alpha   88.89818283
_cell_angle_beta   90.00000000
_cell_angle_gamma   90.00000000
_symmetry_Int_Tables_number   1
_chemical_formula_structural   Hf2CuNiRh4
_chemical_formula_sum   'Hf4 Cu2 Ni2 Rh8'
_cell_volume   237.39950366
_cell_formula_units_Z   2
loop_
 _symmetry_equiv_pos_site_id
 _symmetry_equiv_pos_as_xyz
  1  'x, y, z'
loop_
 _atom_site_type_symbol
 _atom_site_label
 _atom_site_symmetry_multiplicity
 _atom_site_fract_x
 _atom_site_fract_y
 _atom_site_fract_z
 _atom_site_occupancy
  Hf  Hf0  1  0.500000  0.227198  0.629238  1
  Hf  Hf1  1  0.500000  0.772802  0.370762  1
  Hf  Hf2  1  0.500000  0.727463  0.871736  1
  Hf  Hf3  1  0.500000  0.272537  0.128264  1
  Cu  Cu4  1  0.000000  0.500000  0.500000  1
  Cu  Cu5  1  0.000000  0.000000  0.000000  1
  Ni  Ni6  1  0.000000  0.475051  0.752298  1
  Ni  Ni7  1  0.000000  0.524949  0.247702  1
  Rh  Rh8  1  0.500000  0.231275  0.876433  1
  Rh  Rh9  1  0.500000  0.768725  0.123567  1
  Rh  Rh10  1  0.500000  0.718448  0.622535  1
  Rh  Rh11  1  0.500000  0.281552  0.377465  1
  Rh  Rh12  1  0.000000  0.000000  0.500000  1
  Rh  Rh13  1  0.000000  0.500000  0.000000  1
  Rh  Rh14  1  0.000000  0.024562  0.249069  1
  Rh  Rh15  1  0.000000  0.975438  0.750931  1
