# generated using pymatgen
data_DyEr5Tm2ReOsBr8
_symmetry_space_group_name_H-M   'P 1'
_cell_length_a   8.94151556
_cell_length_b   8.92066946
_cell_length_c   6.50967575
_cell_angle_alpha   89.53882775
_cell_angle_beta   89.36788667
_cell_angle_gamma   89.22258620
_symmetry_Int_Tables_number   1
_chemical_formula_structural   DyEr5Tm2ReOsBr8
_chemical_formula_sum   'Dy1 Er5 Tm2 Re1 Os1 Br8'
_cell_volume   519.14416541
_cell_formula_units_Z   1
loop_
 _symmetry_equiv_pos_site_id
 _symmetry_equiv_pos_as_xyz
  1  'x, y, z'
loop_
 _atom_site_type_symbol
 _atom_site_label
 _atom_site_symmetry_multiplicity
 _atom_site_fract_x
 _atom_site_fract_y
 _atom_site_fract_z
 _atom_site_occupancy
  Dy  Dy0  1  0.249946  0.900337  0.010145  1
  Er  Er1  1  0.900315  0.248542  0.509970  1
  Er  Er2  1  0.753665  0.903834  0.506979  1
  Er  Er3  1  0.245643  0.097234  0.489997  1
  Er  Er4  1  0.096065  0.246904  0.991227  1
  Er  Er5  1  0.903747  0.753671  0.008251  1
  Tm  Tm6  1  0.753749  0.098495  0.988921  1
  Tm  Tm7  1  0.097480  0.754517  0.487172  1
  Re  Re8  1  0.994652  0.005344  0.248880  1
  Os  Os9  1  0.004716  0.994419  0.748704  1
  Br  Br10  1  0.418183  0.815386  0.417531  1
  Br  Br11  1  0.581073  0.182924  0.589327  1
  Br  Br12  1  0.182405  0.579613  0.088418  1
  Br  Br13  1  0.815685  0.418334  0.912291  1
  Br  Br14  1  0.415076  0.189514  0.089827  1
  Br  Br15  1  0.588589  0.810083  0.911467  1
  Br  Br16  1  0.811149  0.586045  0.410617  1
  Br  Br17  1  0.187863  0.414800  0.590274  1
