# generated using pymatgen
data_BaTbDyTe4
_symmetry_space_group_name_H-M   'P 1'
_cell_length_a   4.48937100
_cell_length_b   13.87446400
_cell_length_c   16.30193900
_cell_angle_alpha   90.00000000
_cell_angle_beta   90.00000000
_cell_angle_gamma   90.00000000
_symmetry_Int_Tables_number   1
_chemical_formula_structural   BaTbDyTe4
_chemical_formula_sum   'Ba4 Tb4 Dy4 Te16'
_cell_volume   1015.40892174
_cell_formula_units_Z   4
loop_
 _symmetry_equiv_pos_site_id
 _symmetry_equiv_pos_as_xyz
  1  'x, y, z'
loop_
 _atom_site_type_symbol
 _atom_site_label
 _atom_site_symmetry_multiplicity
 _atom_site_fract_x
 _atom_site_fract_y
 _atom_site_fract_z
 _atom_site_occupancy
  Ba  Ba0  1  0.750000  0.260885  0.830615  1
  Ba  Ba1  1  0.250000  0.739115  0.169385  1
  Ba  Ba2  1  0.750000  0.760885  0.669385  1
  Ba  Ba3  1  0.250000  0.239115  0.330615  1
  Tb  Tb4  1  0.750000  0.940146  0.890834  1
  Tb  Tb5  1  0.250000  0.059854  0.109166  1
  Tb  Tb6  1  0.750000  0.440146  0.609166  1
  Tb  Tb7  1  0.250000  0.559854  0.390834  1
  Dy  Dy8  1  0.250000  0.080432  0.596281  1
  Dy  Dy9  1  0.750000  0.919568  0.403719  1
  Dy  Dy10  1  0.250000  0.580432  0.903719  1
  Dy  Dy11  1  0.750000  0.419568  0.096281  1
  Te  Te12  1  0.250000  0.472747  0.215599  1
  Te  Te13  1  0.750000  0.527253  0.784401  1
  Te  Te14  1  0.250000  0.972747  0.284401  1
  Te  Te15  1  0.750000  0.027253  0.715599  1
  Te  Te16  1  0.250000  0.372479  0.971846  1
  Te  Te17  1  0.750000  0.627521  0.028154  1
  Te  Te18  1  0.250000  0.872479  0.528154  1
  Te  Te19  1  0.750000  0.127521  0.471846  1
  Te  Te20  1  0.250000  0.294449  0.662020  1
  Te  Te21  1  0.750000  0.705551  0.337980  1
  Te  Te22  1  0.250000  0.794449  0.837980  1
  Te  Te23  1  0.750000  0.205551  0.162020  1
  Te  Te24  1  0.750000  0.409880  0.423122  1
  Te  Te25  1  0.250000  0.590120  0.576878  1
  Te  Te26  1  0.750000  0.909880  0.076878  1
  Te  Te27  1  0.250000  0.090120  0.923122  1
