# generated using pymatgen
data_Y6CrB14Os
_symmetry_space_group_name_H-M   'P 1'
_cell_length_a   8.09503114
_cell_length_b   8.09502843
_cell_length_c   9.36252600
_cell_angle_alpha   90.00000000
_cell_angle_beta   90.00000000
_cell_angle_gamma   155.08405253
_symmetry_Int_Tables_number   1
_chemical_formula_structural   Y6CrB14Os
_chemical_formula_sum   'Y6 Cr1 B14 Os1'
_cell_volume   258.46949568
_cell_formula_units_Z   1
loop_
 _symmetry_equiv_pos_site_id
 _symmetry_equiv_pos_as_xyz
  1  'x, y, z'
loop_
 _atom_site_type_symbol
 _atom_site_label
 _atom_site_symmetry_multiplicity
 _atom_site_fract_x
 _atom_site_fract_y
 _atom_site_fract_z
 _atom_site_occupancy
  Y  Y0  1  0.894411  0.105589  0.940692  1
  Y  Y1  1  0.105539  0.894461  0.062254  1
  Y  Y2  1  0.758231  0.241769  0.250000  1
  Y  Y3  1  0.243653  0.756347  0.750000  1
  Y  Y4  1  0.894411  0.105589  0.559308  1
  Y  Y5  1  0.105539  0.894461  0.437746  1
  Cr  Cr6  1  0.947159  0.052841  0.250000  1
  B  B7  1  0.540973  0.459027  0.250000  1
  B  B8  1  0.457803  0.542197  0.750000  1
  B  B9  1  0.520777  0.479223  0.904598  1
  B  B10  1  0.478710  0.521290  0.096316  1
  B  B11  1  0.478710  0.521290  0.403684  1
  B  B12  1  0.520777  0.479223  0.595402  1
  B  B13  1  0.631518  0.368482  0.849977  1
  B  B14  1  0.368977  0.631023  0.151813  1
  B  B15  1  0.726790  0.273210  0.966046  1
  B  B16  1  0.272325  0.727675  0.033203  1
  B  B17  1  0.272325  0.727675  0.466797  1
  B  B18  1  0.726790  0.273210  0.533954  1
  B  B19  1  0.631518  0.368482  0.650023  1
  B  B20  1  0.368977  0.631023  0.348187  1
  Os  Os21  1  0.054088  0.945912  0.750000  1
