# generated using pymatgen
data_Hf18BeFe(Re3Mo)2
_symmetry_space_group_name_H-M   'P 1'
_cell_length_a   8.48728100
_cell_length_b   8.59694744
_cell_length_c   8.59694700
_cell_angle_alpha   119.99797227
_cell_angle_beta   90.00000000
_cell_angle_gamma   90.00000000
_symmetry_Int_Tables_number   1
_chemical_formula_structural   Hf18BeFe(Re3Mo)2
_chemical_formula_sum   'Hf18 Be1 Fe1 Re6 Mo2'
_cell_volume   543.24608782
_cell_formula_units_Z   1
loop_
 _symmetry_equiv_pos_site_id
 _symmetry_equiv_pos_as_xyz
  1  'x, y, z'
loop_
 _atom_site_type_symbol
 _atom_site_label
 _atom_site_symmetry_multiplicity
 _atom_site_fract_x
 _atom_site_fract_y
 _atom_site_fract_z
 _atom_site_occupancy
  Hf  Hf0  1  0.554224  0.802256  0.604507  1
  Hf  Hf1  1  0.554232  0.802243  0.197757  1
  Hf  Hf2  1  0.554224  0.395493  0.197744  1
  Hf  Hf3  1  0.442161  0.201887  0.403779  1
  Hf  Hf4  1  0.442140  0.201896  0.798104  1
  Hf  Hf5  1  0.442161  0.596221  0.798113  1
  Hf  Hf6  1  0.057839  0.201887  0.403779  1
  Hf  Hf7  1  0.057860  0.201896  0.798104  1
  Hf  Hf8  1  0.057839  0.596221  0.798113  1
  Hf  Hf9  1  0.945776  0.802256  0.604507  1
  Hf  Hf10  1  0.945768  0.802243  0.197757  1
  Hf  Hf11  1  0.945776  0.395493  0.197744  1
  Hf  Hf12  1  0.750000  0.460457  0.920936  1
  Hf  Hf13  1  0.750000  0.460467  0.539533  1
  Hf  Hf14  1  0.750000  0.079064  0.539542  1
  Hf  Hf15  1  0.250000  0.540156  0.080297  1
  Hf  Hf16  1  0.250000  0.540148  0.459852  1
  Hf  Hf17  1  0.250000  0.919703  0.459843  1
  Be  Be18  1  0.750000  0.666646  0.333354  1
  Fe  Fe19  1  0.250000  0.333360  0.666640  1
  Re  Re20  1  0.750000  0.111637  0.223289  1
  Re  Re21  1  0.750000  0.111644  0.888356  1
  Re  Re22  1  0.750000  0.776711  0.888363  1
  Re  Re23  1  0.250000  0.888327  0.776641  1
  Re  Re24  1  0.250000  0.888332  0.111668  1
  Re  Re25  1  0.250000  0.223359  0.111673  1
  Mo  Mo26  1  0.500450  0.999998  0.000002  1
  Mo  Mo27  1  0.999550  0.999998  0.000002  1
