# generated using pymatgen
data_La13Pr7Si15Cl
_symmetry_space_group_name_H-M   'P 1'
_cell_length_a   8.06480359
_cell_length_b   7.98519294
_cell_length_c   15.41585735
_cell_angle_alpha   89.49062590
_cell_angle_beta   89.18068105
_cell_angle_gamma   90.69164436
_symmetry_Int_Tables_number   1
_chemical_formula_structural   La13Pr7Si15Cl
_chemical_formula_sum   'La13 Pr7 Si15 Cl1'
_cell_volume   992.55138975
_cell_formula_units_Z   1
loop_
 _symmetry_equiv_pos_site_id
 _symmetry_equiv_pos_as_xyz
  1  'x, y, z'
loop_
 _atom_site_type_symbol
 _atom_site_label
 _atom_site_symmetry_multiplicity
 _atom_site_fract_x
 _atom_site_fract_y
 _atom_site_fract_z
 _atom_site_occupancy
  La  La0  1  0.310362  0.309594  0.999221  1
  La  La1  1  0.186325  0.806687  0.249562  1
  La  La2  1  0.796242  0.189625  0.752877  1
  La  La3  1  0.687905  0.687881  0.497408  1
  La  La4  1  0.381578  0.002827  0.441919  1
  La  La5  1  0.500047  0.861399  0.700633  1
  La  La6  1  0.511741  0.121840  0.197125  1
  La  La7  1  0.873627  0.483441  0.299887  1
  La  La8  1  0.123325  0.517950  0.801001  1
  La  La9  1  0.634466  0.986010  0.952780  1
  La  La10  1  0.996537  0.382862  0.546491  1
  La  La11  1  0.994150  0.623338  0.052115  1
  La  La12  1  0.142335  0.993316  0.873199  1
  Pr  Pr13  1  0.517146  0.630624  0.125598  1
  Pr  Pr14  1  0.477381  0.363256  0.631138  1
  Pr  Pr15  1  0.636172  0.519610  0.876572  1
  Pr  Pr16  1  0.366858  0.479544  0.376173  1
  Pr  Pr17  1  0.871207  0.017597  0.377139  1
  Pr  Pr18  1  0.985147  0.126206  0.124042  1
  Pr  Pr19  1  0.016287  0.871689  0.621740  1
  Si  Si20  1  0.335635  0.700518  0.948171  1
  Si  Si21  1  0.659893  0.301654  0.453312  1
  Si  Si22  1  0.704185  0.336846  0.051753  1
  Si  Si23  1  0.301166  0.664192  0.553060  1
  Si  Si24  1  0.802326  0.831803  0.202023  1
  Si  Si25  1  0.167042  0.195609  0.297660  1
  Si  Si26  1  0.844746  0.802145  0.797318  1
  Si  Si27  1  0.290774  0.921069  0.057331  1
  Si  Si28  1  0.576529  0.784730  0.307657  1
  Si  Si29  1  0.451523  0.209753  0.822702  1
  Si  Si30  1  0.791377  0.579230  0.688245  1
  Si  Si31  1  0.211985  0.421657  0.191444  1
  Si  Si32  1  0.704335  0.075752  0.560502  1
  Si  Si33  1  0.925936  0.292620  0.941105  1
  Si  Si34  1  0.077635  0.711527  0.442559  1
  Cl  Cl35  1  0.146073  0.195600  0.688541  1
