# generated using pymatgen
data_Pr3Nd9Os3Pt
_symmetry_space_group_name_H-M   'P 1'
_cell_length_a   6.59753179
_cell_length_b   7.48683874
_cell_length_c   9.76493900
_cell_angle_alpha   90.00000000
_cell_angle_beta   90.00000000
_cell_angle_gamma   90.13342088
_symmetry_Int_Tables_number   1
_chemical_formula_structural   Pr3Nd9Os3Pt
_chemical_formula_sum   'Pr3 Nd9 Os3 Pt1'
_cell_volume   482.33450128
_cell_formula_units_Z   1
loop_
 _symmetry_equiv_pos_site_id
 _symmetry_equiv_pos_as_xyz
  1  'x, y, z'
loop_
 _atom_site_type_symbol
 _atom_site_label
 _atom_site_symmetry_multiplicity
 _atom_site_fract_x
 _atom_site_fract_y
 _atom_site_fract_z
 _atom_site_occupancy
  Pr  Pr0  1  0.857138  0.533211  0.250000  1
  Pr  Pr1  1  0.633971  0.042695  0.250000  1
  Pr  Pr2  1  0.138439  0.463516  0.750000  1
  Nd  Nd3  1  0.335964  0.671442  0.063808  1
  Nd  Nd4  1  0.170012  0.181311  0.437390  1
  Nd  Nd5  1  0.672117  0.322852  0.567688  1
  Nd  Nd6  1  0.825023  0.825556  0.929683  1
  Nd  Nd7  1  0.672117  0.322852  0.932312  1
  Nd  Nd8  1  0.825023  0.825556  0.570317  1
  Nd  Nd9  1  0.335964  0.671442  0.436192  1
  Nd  Nd10  1  0.170012  0.181311  0.062610  1
  Nd  Nd11  1  0.356141  0.960121  0.750000  1
  Os  Os12  1  0.442028  0.383942  0.250000  1
  Os  Os13  1  0.949531  0.113893  0.750000  1
  Os  Os14  1  0.553715  0.615323  0.750000  1
  Pt  Pt15  1  0.062808  0.884978  0.250000  1
