# generated using pymatgen
data_Th10GaSiSb6
_symmetry_space_group_name_H-M   'P 1'
_cell_length_a   9.53196400
_cell_length_b   9.53196302
_cell_length_c   6.48673600
_cell_angle_alpha   90.00000000
_cell_angle_beta   90.00000000
_cell_angle_gamma   119.99998950
_symmetry_Int_Tables_number   1
_chemical_formula_structural   Th10GaSiSb6
_chemical_formula_sum   'Th10 Ga1 Si1 Sb6'
_cell_volume   510.41290140
_cell_formula_units_Z   1
loop_
 _symmetry_equiv_pos_site_id
 _symmetry_equiv_pos_as_xyz
  1  'x, y, z'
loop_
 _atom_site_type_symbol
 _atom_site_label
 _atom_site_symmetry_multiplicity
 _atom_site_fract_x
 _atom_site_fract_y
 _atom_site_fract_z
 _atom_site_occupancy
  Th  Th0  1  0.264307  0.000000  0.252706  1
  Th  Th1  1  0.264307  0.264307  0.747294  1
  Th  Th2  1  0.000000  0.735693  0.747294  1
  Th  Th3  1  0.000000  0.264307  0.252706  1
  Th  Th4  1  0.735693  0.735693  0.252706  1
  Th  Th5  1  0.735693  0.000000  0.747294  1
  Th  Th6  1  0.333333  0.666667  0.000000  1
  Th  Th7  1  0.666667  0.333333  0.500000  1
  Th  Th8  1  0.666667  0.333333  0.000000  1
  Th  Th9  1  0.333333  0.666667  0.500000  1
  Ga  Ga10  1  0.000000  0.000000  0.000000  1
  Si  Si11  1  0.000000  0.000000  0.500000  1
  Sb  Sb12  1  0.612599  0.000000  0.248466  1
  Sb  Sb13  1  0.612599  0.612599  0.751534  1
  Sb  Sb14  1  0.000000  0.387401  0.751534  1
  Sb  Sb15  1  0.000000  0.612599  0.248466  1
  Sb  Sb16  1  0.387401  0.387401  0.248466  1
  Sb  Sb17  1  0.387401  0.000000  0.751534  1
