# generated using pymatgen
data_KTb(CO3)2
_symmetry_space_group_name_H-M   'P 1'
_cell_length_a   6.44581441
_cell_length_b   6.44581411
_cell_length_c   7.04344956
_cell_angle_alpha   76.05116129
_cell_angle_beta   76.05116058
_cell_angle_gamma   96.19986889
_symmetry_Int_Tables_number   1
_chemical_formula_structural   KTb(CO3)2
_chemical_formula_sum   'K2 Tb2 C4 O12'
_cell_volume   271.31992117
_cell_formula_units_Z   2
loop_
 _symmetry_equiv_pos_site_id
 _symmetry_equiv_pos_as_xyz
  1  'x, y, z'
loop_
 _atom_site_type_symbol
 _atom_site_label
 _atom_site_symmetry_multiplicity
 _atom_site_fract_x
 _atom_site_fract_y
 _atom_site_fract_z
 _atom_site_occupancy
  K  K0  1  0.620340  0.379660  0.750000  1
  K  K1  1  0.379660  0.620340  0.250000  1
  Tb  Tb2  1  0.096482  0.903518  0.750000  1
  Tb  Tb3  1  0.903518  0.096482  0.250000  1
  C  C4  1  0.645773  0.889962  0.756611  1
  C  C5  1  0.354227  0.110038  0.243389  1
  C  C6  1  0.110038  0.354227  0.743389  1
  C  C7  1  0.889962  0.645773  0.256611  1
  O  O8  1  0.444210  0.895887  0.779028  1
  O  O9  1  0.555790  0.104113  0.220972  1
  O  O10  1  0.104113  0.555790  0.720972  1
  O  O11  1  0.895887  0.444210  0.279028  1
  O  O12  1  0.715012  0.750800  0.882173  1
  O  O13  1  0.284988  0.249200  0.117827  1
  O  O14  1  0.249200  0.284988  0.617827  1
  O  O15  1  0.750800  0.715012  0.382173  1
  O  O16  1  0.796588  0.031959  0.606817  1
  O  O17  1  0.203412  0.968041  0.393183  1
  O  O18  1  0.968041  0.203412  0.893183  1
  O  O19  1  0.031959  0.796588  0.106817  1
