# generated using pymatgen
data_HoErMnRe3
_symmetry_space_group_name_H-M   'P 1'
_cell_length_a   5.30703898
_cell_length_b   5.30686923
_cell_length_c   8.95200801
_cell_angle_alpha   89.99630432
_cell_angle_beta   90.00055471
_cell_angle_gamma   120.03173132
_symmetry_Int_Tables_number   1
_chemical_formula_structural   HoErMnRe3
_chemical_formula_sum   'Ho2 Er2 Mn2 Re6'
_cell_volume   218.27440055
_cell_formula_units_Z   2
loop_
 _symmetry_equiv_pos_site_id
 _symmetry_equiv_pos_as_xyz
  1  'x, y, z'
loop_
 _atom_site_type_symbol
 _atom_site_label
 _atom_site_symmetry_multiplicity
 _atom_site_fract_x
 _atom_site_fract_y
 _atom_site_fract_z
 _atom_site_occupancy
  Ho  Ho0  1  0.333401  0.666588  0.063065  1
  Ho  Ho1  1  0.666599  0.333412  0.936935  1
  Er  Er2  1  0.666623  0.333450  0.563041  1
  Er  Er3  1  0.333377  0.666550  0.436959  1
  Mn  Mn4  1  0.000000  0.000000  0.500000  1
  Mn  Mn5  1  0.000000  0.000000  0.000000  1
  Re  Re6  1  0.168113  0.336342  0.749558  1
  Re  Re7  1  0.168189  0.831821  0.749520  1
  Re  Re8  1  0.663708  0.831858  0.749544  1
  Re  Re9  1  0.831887  0.663658  0.250442  1
  Re  Re10  1  0.831811  0.168179  0.250480  1
  Re  Re11  1  0.336292  0.168142  0.250456  1
