# generated using pymatgen
data_Nd8Y11ErGa16
_symmetry_space_group_name_H-M   'P 1'
_cell_length_a   7.95221000
_cell_length_b   7.95220976
_cell_length_c   14.82166500
_cell_angle_alpha   89.99830682
_cell_angle_beta   90.00169318
_cell_angle_gamma   90.03813619
_symmetry_Int_Tables_number   1
_chemical_formula_structural   Nd8Y11ErGa16
_chemical_formula_sum   'Nd8 Y11 Er1 Ga16'
_cell_volume   937.28693731
_cell_formula_units_Z   1
loop_
 _symmetry_equiv_pos_site_id
 _symmetry_equiv_pos_as_xyz
  1  'x, y, z'
loop_
 _atom_site_type_symbol
 _atom_site_label
 _atom_site_symmetry_multiplicity
 _atom_site_fract_x
 _atom_site_fract_y
 _atom_site_fract_z
 _atom_site_occupancy
  Nd  Nd0  1  0.637143  0.989768  0.458474  1
  Nd  Nd1  1  0.362267  0.010532  0.958535  1
  Nd  Nd2  1  0.989768  0.637143  0.541526  1
  Nd  Nd3  1  0.489421  0.862501  0.208567  1
  Nd  Nd4  1  0.510332  0.138074  0.708294  1
  Nd  Nd5  1  0.862501  0.489421  0.791433  1
  Nd  Nd6  1  0.138074  0.510332  0.291706  1
  Nd  Nd7  1  0.010532  0.362267  0.041465  1
  Y  Y8  1  0.492029  0.357580  0.125298  1
  Y  Y9  1  0.992120  0.142502  0.624322  1
  Y  Y10  1  0.857827  0.008202  0.875238  1
  Y  Y11  1  0.142502  0.992120  0.375678  1
  Y  Y12  1  0.507888  0.641620  0.624955  1
  Y  Y13  1  0.357580  0.492029  0.874702  1
  Y  Y14  1  0.641620  0.507888  0.375045  1
  Y  Y15  1  0.008202  0.857827  0.124762  1
  Y  Y16  1  0.180721  0.819293  0.749989  1
  Y  Y17  1  0.819293  0.180721  0.250011  1
  Y  Y18  1  0.680611  0.680611  0.000000  1
  Er  Er19  1  0.319377  0.319377  0.500000  1
  Ga  Ga20  1  0.288327  0.936224  0.561760  1
  Ga  Ga21  1  0.711998  0.064480  0.061928  1
  Ga  Ga22  1  0.936224  0.288327  0.438240  1
  Ga  Ga23  1  0.435117  0.212472  0.312488  1
  Ga  Ga24  1  0.564429  0.788097  0.811658  1
  Ga  Ga25  1  0.212472  0.435117  0.687512  1
  Ga  Ga26  1  0.788097  0.564429  0.188342  1
  Ga  Ga27  1  0.064480  0.711998  0.938072  1
  Ga  Ga28  1  0.799262  0.844986  0.688441  1
  Ga  Ga29  1  0.200819  0.155330  0.188987  1
  Ga  Ga30  1  0.844986  0.799262  0.311559  1
  Ga  Ga31  1  0.344317  0.700107  0.439177  1
  Ga  Ga32  1  0.654896  0.299332  0.938497  1
  Ga  Ga33  1  0.700107  0.344317  0.560823  1
  Ga  Ga34  1  0.299332  0.654896  0.061503  1
  Ga  Ga35  1  0.155330  0.200819  0.811013  1
