# generated using pymatgen
data_Er4Ga18(PdRu)3
_symmetry_space_group_name_H-M   'P 1'
_cell_length_a   7.60954052
_cell_length_b   7.60954020
_cell_length_c   9.56228337
_cell_angle_alpha   89.92098739
_cell_angle_beta   89.92099015
_cell_angle_gamma   120.05375840
_symmetry_Int_Tables_number   1
_chemical_formula_structural   Er4Ga18(PdRu)3
_chemical_formula_sum   'Er4 Ga18 Pd3 Ru3'
_cell_volume   479.26081451
_cell_formula_units_Z   1
loop_
 _symmetry_equiv_pos_site_id
 _symmetry_equiv_pos_as_xyz
  1  'x, y, z'
loop_
 _atom_site_type_symbol
 _atom_site_label
 _atom_site_symmetry_multiplicity
 _atom_site_fract_x
 _atom_site_fract_y
 _atom_site_fract_z
 _atom_site_occupancy
  Er  Er0  1  0.997642  0.668598  0.251448  1
  Er  Er1  1  0.002725  0.332116  0.748440  1
  Er  Er2  1  0.667884  0.997275  0.251560  1
  Er  Er3  1  0.331402  0.002358  0.748552  1
  Ga  Ga4  1  0.128974  0.127127  0.249983  1
  Ga  Ga5  1  0.872873  0.871026  0.750017  1
  Ga  Ga6  1  0.004768  0.337894  0.081012  1
  Ga  Ga7  1  0.002573  0.665444  0.918995  1
  Ga  Ga8  1  0.999514  0.661481  0.578706  1
  Ga  Ga9  1  0.338519  0.000486  0.421294  1
  Ga  Ga10  1  0.001124  0.338623  0.420277  1
  Ga  Ga11  1  0.661377  0.998876  0.579723  1
  Ga  Ga12  1  0.662106  0.995232  0.918988  1
  Ga  Ga13  1  0.334556  0.997427  0.081005  1
  Ga  Ga14  1  0.339681  0.339258  0.564192  1
  Ga  Ga15  1  0.660742  0.660319  0.435808  1
  Ga  Ga16  1  0.660747  0.665657  0.067277  1
  Ga  Ga17  1  0.334343  0.339253  0.932723  1
  Ga  Ga18  1  0.337142  0.550551  0.250677  1
  Ga  Ga19  1  0.664379  0.452808  0.746612  1
  Ga  Ga20  1  0.547192  0.335621  0.253388  1
  Ga  Ga21  1  0.449449  0.662858  0.749323  1
  Pd  Pd22  1  0.672269  0.327731  0.000000  1
  Pd  Pd23  1  0.000575  0.999425  0.000000  1
  Pd  Pd24  1  0.999700  0.000300  0.500000  1
  Ru  Ru25  1  0.327231  0.672769  0.000000  1
  Ru  Ru26  1  0.326997  0.673003  0.500000  1
  Ru  Ru27  1  0.673517  0.326483  0.500000  1
