# generated using pymatgen
data_Sr2Pa2Cu3NiGe4
_symmetry_space_group_name_H-M   'P 1'
_cell_length_a   4.25485000
_cell_length_b   4.25484897
_cell_length_c   16.03981600
_cell_angle_alpha   90.00000000
_cell_angle_beta   90.00000000
_cell_angle_gamma   120.00000801
_symmetry_Int_Tables_number   1
_chemical_formula_structural   Sr2Pa2Cu3NiGe4
_chemical_formula_sum   'Sr2 Pa2 Cu3 Ni1 Ge4'
_cell_volume   251.47706426
_cell_formula_units_Z   1
loop_
 _symmetry_equiv_pos_site_id
 _symmetry_equiv_pos_as_xyz
  1  'x, y, z'
loop_
 _atom_site_type_symbol
 _atom_site_label
 _atom_site_symmetry_multiplicity
 _atom_site_fract_x
 _atom_site_fract_y
 _atom_site_fract_z
 _atom_site_occupancy
  Sr  Sr0  1  0.000000  0.000000  0.744123  1
  Sr  Sr1  1  0.000000  0.000000  0.252986  1
  Pa  Pa2  1  0.000000  0.000000  0.505511  1
  Pa  Pa3  1  0.000000  0.000000  0.999425  1
  Cu  Cu4  1  0.333333  0.666667  0.393408  1
  Cu  Cu5  1  0.666667  0.333333  0.890543  1
  Cu  Cu6  1  0.333333  0.666667  0.108668  1
  Ni  Ni7  1  0.666667  0.333333  0.604175  1
  Ge  Ge8  1  0.333333  0.666667  0.606670  1
  Ge  Ge9  1  0.666667  0.333333  0.395245  1
  Ge  Ge10  1  0.666667  0.333333  0.107988  1
  Ge  Ge11  1  0.333333  0.666667  0.891260  1
