# generated using pymatgen
data_Gd7Er(LuGa5)4
_symmetry_space_group_name_H-M   'P 1'
_cell_length_a   6.04829095
_cell_length_b   9.55738242
_cell_length_c   11.53836600
_cell_angle_alpha   90.00467604
_cell_angle_beta   90.03214207
_cell_angle_gamma   90.01629757
_symmetry_Int_Tables_number   1
_chemical_formula_structural   Gd7Er(LuGa5)4
_chemical_formula_sum   'Gd7 Er1 Lu4 Ga20'
_cell_volume   666.98468475
_cell_formula_units_Z   1
loop_
 _symmetry_equiv_pos_site_id
 _symmetry_equiv_pos_as_xyz
  1  'x, y, z'
loop_
 _atom_site_type_symbol
 _atom_site_label
 _atom_site_symmetry_multiplicity
 _atom_site_fract_x
 _atom_site_fract_y
 _atom_site_fract_z
 _atom_site_occupancy
  Gd  Gd0  1  0.609560  0.993379  0.850957  1
  Gd  Gd1  1  0.109382  0.006810  0.648755  1
  Gd  Gd2  1  0.390517  0.493305  0.149037  1
  Gd  Gd3  1  0.109407  0.493235  0.648545  1
  Gd  Gd4  1  0.390480  0.006698  0.148954  1
  Gd  Gd5  1  0.890466  0.993146  0.351365  1
  Gd  Gd6  1  0.609655  0.506671  0.850857  1
  Er  Er7  1  0.890604  0.506834  0.351179  1
  Lu  Lu8  1  0.849715  0.749971  0.074187  1
  Lu  Lu9  1  0.650414  0.749917  0.574109  1
  Lu  Lu10  1  0.150278  0.250089  0.925767  1
  Lu  Lu11  1  0.349291  0.249903  0.425914  1
  Ga  Ga12  1  0.876154  0.052914  0.089598  1
  Ga  Ga13  1  0.623998  0.447223  0.589657  1
  Ga  Ga14  1  0.123878  0.552765  0.910000  1
  Ga  Ga15  1  0.376066  0.946944  0.410510  1
  Ga  Ga16  1  0.123895  0.947150  0.910132  1
  Ga  Ga17  1  0.375378  0.552655  0.410517  1
  Ga  Ga18  1  0.876180  0.447298  0.090073  1
  Ga  Ga19  1  0.624013  0.052963  0.589709  1
  Ga  Ga20  1  0.166698  0.749599  0.254202  1
  Ga  Ga21  1  0.332850  0.749814  0.753649  1
  Ga  Ga22  1  0.833192  0.250243  0.745928  1
  Ga  Ga23  1  0.667602  0.250478  0.246685  1
  Ga  Ga24  1  0.378560  0.749950  0.001511  1
  Ga  Ga25  1  0.121025  0.749675  0.501822  1
  Ga  Ga26  1  0.621576  0.250119  0.998226  1
  Ga  Ga27  1  0.878655  0.250642  0.497960  1
  Ga  Ga28  1  0.605259  0.749428  0.298914  1
  Ga  Ga29  1  0.895532  0.749861  0.798421  1
  Ga  Ga30  1  0.395258  0.250211  0.701336  1
  Ga  Ga31  1  0.104462  0.250110  0.201525  1
