# generated using pymatgen
data_TbTh7VSe17
_symmetry_space_group_name_H-M   'P 1'
_cell_length_a   8.42907842
_cell_length_b   8.44542150
_cell_length_c   11.16677823
_cell_angle_alpha   80.57050227
_cell_angle_beta   80.57625814
_cell_angle_gamma   64.85797089
_symmetry_Int_Tables_number   1
_chemical_formula_structural   TbTh7VSe17
_chemical_formula_sum   'Tb1 Th7 V1 Se17'
_cell_volume   705.93904745
_cell_formula_units_Z   1
loop_
 _symmetry_equiv_pos_site_id
 _symmetry_equiv_pos_as_xyz
  1  'x, y, z'
loop_
 _atom_site_type_symbol
 _atom_site_label
 _atom_site_symmetry_multiplicity
 _atom_site_fract_x
 _atom_site_fract_y
 _atom_site_fract_z
 _atom_site_occupancy
  Tb  Tb0  1  0.813639  0.304676  0.296649  1
  Th  Th1  1  0.301393  0.815790  0.294528  1
  Th  Th2  1  0.184465  0.697935  0.703456  1
  Th  Th3  1  0.698707  0.185502  0.702532  1
  Th  Th4  1  0.204607  0.203830  0.542155  1
  Th  Th5  1  0.796071  0.796620  0.454171  1
  Th  Th6  1  0.682840  0.677809  0.982250  1
  Th  Th7  1  0.317496  0.318891  0.021878  1
  V  V8  1  0.000315  0.001067  0.001592  1
  Se  Se9  1  0.823087  0.430521  0.531736  1
  Se  Se10  1  0.433210  0.820428  0.532555  1
  Se  Se11  1  0.179292  0.566881  0.466567  1
  Se  Se12  1  0.569954  0.178045  0.467731  1
  Se  Se13  1  0.945311  0.319799  0.028957  1
  Se  Se14  1  0.321268  0.946219  0.026408  1
  Se  Se15  1  0.053806  0.679906  0.972158  1
  Se  Se16  1  0.679436  0.054961  0.971897  1
  Se  Se17  1  0.207683  0.209141  0.277621  1
  Se  Se18  1  0.790106  0.789219  0.722845  1
  Se  Se19  1  0.060531  0.059345  0.776130  1
  Se  Se20  1  0.938223  0.946109  0.225039  1
  Se  Se21  1  0.302800  0.302289  0.755168  1
  Se  Se22  1  0.696120  0.697110  0.244820  1
  Se  Se23  1  0.519583  0.521482  0.831234  1
  Se  Se24  1  0.477731  0.481186  0.166688  1
  Se  Se25  1  0.002325  0.995243  0.503238  1
