# generated using pymatgen
data_LaPrAl20(IrOs)2
_symmetry_space_group_name_H-M   'P 1'
_cell_length_a   6.89800619
_cell_length_b   6.90861560
_cell_length_c   9.23560700
_cell_angle_alpha   90.00000000
_cell_angle_beta   90.00000000
_cell_angle_gamma   97.06789820
_symmetry_Int_Tables_number   1
_chemical_formula_structural   LaPrAl20(IrOs)2
_chemical_formula_sum   'La1 Pr1 Al20 Ir2 Os2'
_cell_volume   436.78454320
_cell_formula_units_Z   1
loop_
 _symmetry_equiv_pos_site_id
 _symmetry_equiv_pos_as_xyz
  1  'x, y, z'
loop_
 _atom_site_type_symbol
 _atom_site_label
 _atom_site_symmetry_multiplicity
 _atom_site_fract_x
 _atom_site_fract_y
 _atom_site_fract_z
 _atom_site_occupancy
  La  La0  1  0.871557  0.123030  0.750000  1
  Pr  Pr1  1  0.129252  0.876040  0.250000  1
  Al  Al2  1  0.619457  0.376622  0.550066  1
  Al  Al3  1  0.380107  0.623759  0.449603  1
  Al  Al4  1  0.380107  0.623759  0.050397  1
  Al  Al5  1  0.619457  0.376622  0.949934  1
  Al  Al6  1  0.224993  0.223008  0.498273  1
  Al  Al7  1  0.775173  0.776917  0.500665  1
  Al  Al8  1  0.775173  0.776917  0.999335  1
  Al  Al9  1  0.224993  0.223008  0.001727  1
  Al  Al10  1  0.839924  0.159031  0.103945  1
  Al  Al11  1  0.160745  0.840178  0.896588  1
  Al  Al12  1  0.160745  0.840178  0.603412  1
  Al  Al13  1  0.839924  0.159031  0.396055  1
  Al  Al14  1  0.854539  0.589790  0.750000  1
  Al  Al15  1  0.145190  0.411637  0.250000  1
  Al  Al16  1  0.409240  0.143212  0.750000  1
  Al  Al17  1  0.589648  0.856906  0.250000  1
  Al  Al18  1  0.223886  0.483087  0.750000  1
  Al  Al19  1  0.776601  0.517306  0.250000  1
  Al  Al20  1  0.515730  0.778592  0.750000  1
  Al  Al21  1  0.483987  0.220921  0.250000  1
  Ir  Ir22  1  0.999684  0.499959  0.499667  1
  Ir  Ir23  1  0.999684  0.499959  0.000333  1
  Os  Os24  1  0.500102  0.000266  0.000219  1
  Os  Os25  1  0.500102  0.000266  0.499781  1
