# generated using pymatgen
data_La16Cd4ReNi3
_symmetry_space_group_name_H-M   'P 1'
_cell_length_a   10.12486340
_cell_length_b   10.01393249
_cell_length_c   10.01393200
_cell_angle_alpha   60.00000161
_cell_angle_beta   60.36177566
_cell_angle_gamma   60.36177477
_symmetry_Int_Tables_number   1
_chemical_formula_structural   La16Cd4ReNi3
_chemical_formula_sum   'La16 Cd4 Re1 Ni3'
_cell_volume   721.83308073
_cell_formula_units_Z   1
loop_
 _symmetry_equiv_pos_site_id
 _symmetry_equiv_pos_as_xyz
  1  'x, y, z'
loop_
 _atom_site_type_symbol
 _atom_site_label
 _atom_site_symmetry_multiplicity
 _atom_site_fract_x
 _atom_site_fract_y
 _atom_site_fract_z
 _atom_site_occupancy
  La  La0  1  0.932424  0.949971  0.558803  1
  La  La1  1  0.558217  0.938067  0.565650  1
  La  La2  1  0.558217  0.938067  0.938067  1
  La  La3  1  0.688708  0.688137  0.311578  1
  La  La4  1  0.157801  0.152356  0.537488  1
  La  La5  1  0.306060  0.692382  0.692382  1
  La  La6  1  0.157801  0.152356  0.152356  1
  La  La7  1  0.547335  0.150888  0.150888  1
  La  La8  1  0.306060  0.692382  0.309176  1
  La  La9  1  0.306060  0.309176  0.692382  1
  La  La10  1  0.688708  0.311578  0.688137  1
  La  La11  1  0.932424  0.558803  0.558803  1
  La  La12  1  0.558217  0.565650  0.938067  1
  La  La13  1  0.157801  0.537488  0.152356  1
  La  La14  1  0.688708  0.311578  0.311578  1
  La  La15  1  0.932424  0.558803  0.949971  1
  Cd  Cd16  1  0.235100  0.921633  0.921633  1
  Cd  Cd17  1  0.920977  0.920749  0.920749  1
  Cd  Cd18  1  0.920977  0.920749  0.237524  1
  Cd  Cd19  1  0.920977  0.237524  0.920749  1
  Re  Re20  1  0.926307  0.357898  0.357898  1
  Ni  Ni21  1  0.366230  0.356017  0.921735  1
  Ni  Ni22  1  0.366230  0.921735  0.356017  1
  Ni  Ni23  1  0.366230  0.356017  0.356017  1
