# generated using pymatgen
data_Y5Lu5(Si5Ir2)4
_symmetry_space_group_name_H-M   'P 1'
_cell_length_a   12.59436242
_cell_length_b   12.59436242
_cell_length_c   4.23742000
_cell_angle_alpha   90.00000000
_cell_angle_beta   90.00000000
_cell_angle_gamma   89.97027475
_symmetry_Int_Tables_number   1
_chemical_formula_structural   Y5Lu5(Si5Ir2)4
_chemical_formula_sum   'Y5 Lu5 Si20 Ir8'
_cell_volume   672.13084620
_cell_formula_units_Z   1
loop_
 _symmetry_equiv_pos_site_id
 _symmetry_equiv_pos_as_xyz
  1  'x, y, z'
loop_
 _atom_site_type_symbol
 _atom_site_label
 _atom_site_symmetry_multiplicity
 _atom_site_fract_x
 _atom_site_fract_y
 _atom_site_fract_z
 _atom_site_occupancy
  Y  Y0  1  0.823560  0.676440  0.500000  1
  Y  Y1  1  0.883835  0.383591  0.500000  1
  Y  Y2  1  0.116409  0.616165  0.500000  1
  Y  Y3  1  0.383894  0.116106  0.500000  1
  Y  Y4  1  0.615629  0.884371  0.500000  1
  Lu  Lu5  1  0.499896  0.500092  0.000000  1
  Lu  Lu6  1  0.999908  0.000104  0.000000  1
  Lu  Lu7  1  0.676212  0.175579  0.500000  1
  Lu  Lu8  1  0.324421  0.823788  0.500000  1
  Lu  Lu9  1  0.176077  0.323923  0.500000  1
  Si  Si10  1  0.566153  0.066602  0.000000  1
  Si  Si11  1  0.433398  0.933847  0.000000  1
  Si  Si12  1  0.066761  0.433239  0.000000  1
  Si  Si13  1  0.934353  0.565647  0.000000  1
  Si  Si14  1  0.662199  0.701128  0.000000  1
  Si  Si15  1  0.336561  0.299018  0.000000  1
  Si  Si16  1  0.164033  0.799400  0.000000  1
  Si  Si17  1  0.836646  0.201090  0.000000  1
  Si  Si18  1  0.298910  0.663354  0.000000  1
  Si  Si19  1  0.700600  0.335967  0.000000  1
  Si  Si20  1  0.200982  0.163439  0.000000  1
  Si  Si21  1  0.798872  0.837801  0.000000  1
  Si  Si22  1  0.654024  0.502050  0.500000  1
  Si  Si23  1  0.345213  0.496115  0.500000  1
  Si  Si24  1  0.154279  0.996096  0.500000  1
  Si  Si25  1  0.845190  0.003400  0.500000  1
  Si  Si26  1  0.496600  0.654810  0.500000  1
  Si  Si27  1  0.503904  0.345721  0.500000  1
  Si  Si28  1  0.003885  0.154787  0.500000  1
  Si  Si29  1  0.997950  0.845976  0.500000  1
  Ir  Ir30  1  0.743826  0.520728  0.000000  1
  Ir  Ir31  1  0.255328  0.477812  0.000000  1
  Ir  Ir32  1  0.244925  0.978195  0.000000  1
  Ir  Ir33  1  0.755058  0.022757  0.000000  1
  Ir  Ir34  1  0.477243  0.744942  0.000000  1
  Ir  Ir35  1  0.521805  0.255075  0.000000  1
  Ir  Ir36  1  0.022188  0.244672  0.000000  1
  Ir  Ir37  1  0.979272  0.756174  0.000000  1
