# generated using pymatgen
data_LaNdC2Se
_symmetry_space_group_name_H-M   'P 1'
_cell_length_a   7.45798853
_cell_length_b   7.45798782
_cell_length_c   7.13555963
_cell_angle_alpha   78.49799014
_cell_angle_beta   78.49799068
_cell_angle_gamma   33.27391325
_symmetry_Int_Tables_number   1
_chemical_formula_structural   LaNdC2Se
_chemical_formula_sum   'La2 Nd2 C4 Se2'
_cell_volume   212.98347137
_cell_formula_units_Z   2
loop_
 _symmetry_equiv_pos_site_id
 _symmetry_equiv_pos_as_xyz
  1  'x, y, z'
loop_
 _atom_site_type_symbol
 _atom_site_label
 _atom_site_symmetry_multiplicity
 _atom_site_fract_x
 _atom_site_fract_y
 _atom_site_fract_z
 _atom_site_occupancy
  La  La0  1  0.442555  0.838127  0.859651  1
  La  La1  1  0.838127  0.442555  0.359651  1
  Nd  Nd2  1  0.553046  0.161150  0.140922  1
  Nd  Nd3  1  0.161150  0.553046  0.640922  1
  C  C4  1  0.361489  0.100162  0.467863  1
  C  C5  1  0.905481  0.642315  0.030268  1
  C  C6  1  0.642315  0.905481  0.530268  1
  C  C7  1  0.100162  0.361489  0.967863  1
  Se  Se8  1  0.786730  0.208945  0.751297  1
  Se  Se9  1  0.208945  0.786730  0.251297  1
