# generated using pymatgen
data_Er3Tm3Th2(MgCo)2
_symmetry_space_group_name_H-M   'P 1'
_cell_length_a   9.54297134
_cell_length_b   9.54297157
_cell_length_c   9.54297200
_cell_angle_alpha   60.00000545
_cell_angle_beta   60.00000466
_cell_angle_gamma   60.00000189
_symmetry_Int_Tables_number   1
_chemical_formula_structural   Er3Tm3Th2(MgCo)2
_chemical_formula_sum   'Er6 Tm6 Th4 Mg4 Co4'
_cell_volume   614.51988538
_cell_formula_units_Z   2
loop_
 _symmetry_equiv_pos_site_id
 _symmetry_equiv_pos_as_xyz
  1  'x, y, z'
loop_
 _atom_site_type_symbol
 _atom_site_label
 _atom_site_symmetry_multiplicity
 _atom_site_fract_x
 _atom_site_fract_y
 _atom_site_fract_z
 _atom_site_occupancy
  Er  Er0  1  0.184770  0.815230  0.815230  1
  Er  Er1  1  0.815230  0.184770  0.184770  1
  Er  Er2  1  0.815230  0.184770  0.815230  1
  Er  Er3  1  0.184770  0.815230  0.184770  1
  Er  Er4  1  0.815230  0.815230  0.184770  1
  Er  Er5  1  0.184770  0.184770  0.815230  1
  Tm  Tm6  1  0.064089  0.435911  0.435911  1
  Tm  Tm7  1  0.435911  0.064089  0.064089  1
  Tm  Tm8  1  0.435911  0.064089  0.435911  1
  Tm  Tm9  1  0.064089  0.435911  0.064089  1
  Tm  Tm10  1  0.435911  0.435911  0.064089  1
  Tm  Tm11  1  0.064089  0.064089  0.435911  1
  Th  Th12  1  0.595188  0.595188  0.595188  1
  Th  Th13  1  0.595188  0.595188  0.214438  1
  Th  Th14  1  0.595188  0.214438  0.595188  1
  Th  Th15  1  0.214438  0.595188  0.595188  1
  Mg  Mg16  1  0.830734  0.830734  0.830734  1
  Mg  Mg17  1  0.830734  0.830734  0.507798  1
  Mg  Mg18  1  0.830734  0.507798  0.830734  1
  Mg  Mg19  1  0.507798  0.830734  0.830734  1
  Co  Co20  1  0.394043  0.394043  0.394043  1
  Co  Co21  1  0.394043  0.394043  0.817872  1
  Co  Co22  1  0.394043  0.817872  0.394043  1
  Co  Co23  1  0.817872  0.394043  0.394043  1
