# generated using pymatgen
data_YEr2IrRh8
_symmetry_space_group_name_H-M   'P 1'
_cell_length_a   5.27155500
_cell_length_b   5.27155514
_cell_length_c   17.56173300
_cell_angle_alpha   90.00000000
_cell_angle_beta   90.00000000
_cell_angle_gamma   119.99999283
_symmetry_Int_Tables_number   1
_chemical_formula_structural   YEr2IrRh8
_chemical_formula_sum   'Y2 Er4 Ir2 Rh16'
_cell_volume   422.64479888
_cell_formula_units_Z   2
loop_
 _symmetry_equiv_pos_site_id
 _symmetry_equiv_pos_as_xyz
  1  'x, y, z'
loop_
 _atom_site_type_symbol
 _atom_site_label
 _atom_site_symmetry_multiplicity
 _atom_site_fract_x
 _atom_site_fract_y
 _atom_site_fract_z
 _atom_site_occupancy
  Y  Y0  1  0.333333  0.666667  0.750000  1
  Y  Y1  1  0.666667  0.333333  0.250000  1
  Er  Er2  1  0.333333  0.666667  0.958497  1
  Er  Er3  1  0.666667  0.333333  0.041503  1
  Er  Er4  1  0.666667  0.333333  0.458497  1
  Er  Er5  1  0.333333  0.666667  0.541503  1
  Ir  Ir6  1  0.000000  0.000000  0.500000  1
  Ir  Ir7  1  0.000000  0.000000  0.000000  1
  Rh  Rh8  1  0.167148  0.832852  0.374891  1
  Rh  Rh9  1  0.167148  0.334295  0.374891  1
  Rh  Rh10  1  0.665705  0.832852  0.374891  1
  Rh  Rh11  1  0.832852  0.167148  0.625109  1
  Rh  Rh12  1  0.832852  0.665705  0.625109  1
  Rh  Rh13  1  0.334295  0.167148  0.625109  1
  Rh  Rh14  1  0.832852  0.167148  0.874891  1
  Rh  Rh15  1  0.832852  0.665705  0.874891  1
  Rh  Rh16  1  0.334295  0.167148  0.874891  1
  Rh  Rh17  1  0.167148  0.832852  0.125109  1
  Rh  Rh18  1  0.167148  0.334295  0.125109  1
  Rh  Rh19  1  0.665705  0.832852  0.125109  1
  Rh  Rh20  1  0.333333  0.666667  0.250000  1
  Rh  Rh21  1  0.666667  0.333333  0.750000  1
  Rh  Rh22  1  0.000000  0.000000  0.250000  1
  Rh  Rh23  1  0.000000  0.000000  0.750000  1
