# generated using pymatgen
data_Tm2Tc3Ir
_symmetry_space_group_name_H-M   'P 1'
_cell_length_a   5.22378800
_cell_length_b   5.22378790
_cell_length_c   9.18523100
_cell_angle_alpha   90.00000000
_cell_angle_beta   90.00000000
_cell_angle_gamma   120.00000061
_symmetry_Int_Tables_number   1
_chemical_formula_structural   Tm2Tc3Ir
_chemical_formula_sum   'Tm4 Tc6 Ir2'
_cell_volume   217.06599365
_cell_formula_units_Z   2
loop_
 _symmetry_equiv_pos_site_id
 _symmetry_equiv_pos_as_xyz
  1  'x, y, z'
loop_
 _atom_site_type_symbol
 _atom_site_label
 _atom_site_symmetry_multiplicity
 _atom_site_fract_x
 _atom_site_fract_y
 _atom_site_fract_z
 _atom_site_occupancy
  Tm  Tm0  1  0.333333  0.666667  0.434989  1
  Tm  Tm1  1  0.666667  0.333333  0.565011  1
  Tm  Tm2  1  0.666667  0.333333  0.934989  1
  Tm  Tm3  1  0.333333  0.666667  0.065011  1
  Tc  Tc4  1  0.829378  0.170622  0.250000  1
  Tc  Tc5  1  0.829378  0.658756  0.250000  1
  Tc  Tc6  1  0.341244  0.170622  0.250000  1
  Tc  Tc7  1  0.170622  0.829378  0.750000  1
  Tc  Tc8  1  0.170622  0.341244  0.750000  1
  Tc  Tc9  1  0.658756  0.829378  0.750000  1
  Ir  Ir10  1  0.000000  0.000000  0.500000  1
  Ir  Ir11  1  0.000000  0.000000  0.000000  1
