# generated using pymatgen
data_CaDy3Lu2(Si3Ru)8
_symmetry_space_group_name_H-M   'P 1'
_cell_length_a   10.11638829
_cell_length_b   10.11638877
_cell_length_c   8.12914501
_cell_angle_alpha   89.88835378
_cell_angle_beta   90.11165359
_cell_angle_gamma   132.61122947
_symmetry_Int_Tables_number   1
_chemical_formula_structural   CaDy3Lu2(Si3Ru)8
_chemical_formula_sum   'Ca1 Dy3 Lu2 Si24 Ru8'
_cell_volume   612.28229611
_cell_formula_units_Z   1
loop_
 _symmetry_equiv_pos_site_id
 _symmetry_equiv_pos_as_xyz
  1  'x, y, z'
loop_
 _atom_site_type_symbol
 _atom_site_label
 _atom_site_symmetry_multiplicity
 _atom_site_fract_x
 _atom_site_fract_y
 _atom_site_fract_z
 _atom_site_occupancy
  Ca  Ca0  1  0.501721  0.001721  0.750000  1
  Dy  Dy1  1  0.998793  0.498793  0.250000  1
  Dy  Dy2  1  0.496843  0.996843  0.250000  1
  Dy  Dy3  1  0.002766  0.502766  0.750000  1
  Lu  Lu4  1  0.500200  0.500452  0.500714  1
  Lu  Lu5  1  0.000452  0.000200  0.999286  1
  Si  Si6  1  0.793778  0.204300  0.500162  1
  Si  Si7  1  0.295137  0.706090  0.998642  1
  Si  Si8  1  0.206090  0.795137  0.501358  1
  Si  Si9  1  0.704300  0.293778  0.999838  1
  Si  Si10  1  0.332101  0.333714  0.832847  1
  Si  Si11  1  0.667311  0.669146  0.167190  1
  Si  Si12  1  0.169146  0.167311  0.332810  1
  Si  Si13  1  0.833714  0.832101  0.667153  1
  Si  Si14  1  0.119393  0.885104  0.728490  1
  Si  Si15  1  0.111573  0.878189  0.272380  1
  Si  Si16  1  0.611646  0.378589  0.228673  1
  Si  Si17  1  0.624504  0.391006  0.771429  1
  Si  Si18  1  0.878589  0.111646  0.271327  1
  Si  Si19  1  0.891006  0.124504  0.728571  1
  Si  Si20  1  0.385104  0.619393  0.771510  1
  Si  Si21  1  0.378189  0.611573  0.227620  1
  Si  Si22  1  0.344773  0.111706  0.501475  1
  Si  Si23  1  0.888085  0.655159  0.495365  1
  Si  Si24  1  0.387618  0.154399  0.006828  1
  Si  Si25  1  0.844325  0.612003  0.995118  1
  Si  Si26  1  0.654399  0.887618  0.493172  1
  Si  Si27  1  0.112003  0.344325  0.504882  1
  Si  Si28  1  0.611706  0.844773  0.998525  1
  Si  Si29  1  0.155159  0.388085  0.004635  1
  Ru  Ru30  1  0.669811  0.331723  0.499203  1
  Ru  Ru31  1  0.166850  0.829620  0.002199  1
  Ru  Ru32  1  0.329620  0.666850  0.497801  1
  Ru  Ru33  1  0.831723  0.169811  0.000797  1
  Ru  Ru34  1  0.127257  0.126549  0.627348  1
  Ru  Ru35  1  0.873707  0.874061  0.372945  1
  Ru  Ru36  1  0.374061  0.373707  0.127055  1
  Ru  Ru37  1  0.626549  0.627257  0.872652  1
