# generated using pymatgen
data_Hf6ZnAs5Ru6
_symmetry_space_group_name_H-M   'P 1'
_cell_length_a   7.66238103
_cell_length_b   7.68354248
_cell_length_c   7.66238203
_cell_angle_alpha   128.30497855
_cell_angle_beta   119.99414057
_cell_angle_gamma   83.04233452
_symmetry_Int_Tables_number   1
_chemical_formula_structural   Hf6ZnAs5Ru6
_chemical_formula_sum   'Hf6 Zn1 As5 Ru6'
_cell_volume   294.53354189
_cell_formula_units_Z   1
loop_
 _symmetry_equiv_pos_site_id
 _symmetry_equiv_pos_as_xyz
  1  'x, y, z'
loop_
 _atom_site_type_symbol
 _atom_site_label
 _atom_site_symmetry_multiplicity
 _atom_site_fract_x
 _atom_site_fract_y
 _atom_site_fract_z
 _atom_site_occupancy
  Hf  Hf0  1  0.465008  0.692676  0.727668  1
  Hf  Hf1  1  0.522790  0.253548  0.230758  1
  Hf  Hf2  1  0.747928  0.834502  0.586574  1
  Hf  Hf3  1  0.247806  0.833748  0.085941  1
  Hf  Hf4  1  0.059942  0.257654  0.697712  1
  Hf  Hf5  1  0.953246  0.660742  0.207496  1
  Zn  Zn6  1  0.279861  0.264397  0.484536  1
  As  As7  1  0.727037  0.239732  0.012695  1
  As  As8  1  0.329562  0.584405  0.249558  1
  As  As9  1  0.671315  0.921311  0.260619  1
  As  As10  1  0.160691  0.921311  0.749995  1
  As  As11  1  0.834847  0.584405  0.754843  1
  Ru  Ru12  1  0.494667  0.497913  0.993196  1
  Ru  Ru13  1  0.004717  0.497913  0.503246  1
  Ru  Ru14  1  0.084508  0.252195  0.088636  1
  Ru  Ru15  1  0.892697  0.005476  0.145660  1
  Ru  Ru16  1  0.359816  0.005476  0.612779  1
  Ru  Ru17  1  0.663558  0.252195  0.667686  1
