# generated using pymatgen
data_EuMn2(Sb6Ru)2
_symmetry_space_group_name_H-M   'P 1'
_cell_length_a   8.15929636
_cell_length_b   8.15174109
_cell_length_c   8.15929575
_cell_angle_alpha   109.44149047
_cell_angle_beta   109.54515172
_cell_angle_gamma   109.46452293
_symmetry_Int_Tables_number   1
_chemical_formula_structural   EuMn2(Sb6Ru)2
_chemical_formula_sum   'Eu1 Mn2 Sb12 Ru2'
_cell_volume   417.57299499
_cell_formula_units_Z   1
loop_
 _symmetry_equiv_pos_site_id
 _symmetry_equiv_pos_as_xyz
  1  'x, y, z'
loop_
 _atom_site_type_symbol
 _atom_site_label
 _atom_site_symmetry_multiplicity
 _atom_site_fract_x
 _atom_site_fract_y
 _atom_site_fract_z
 _atom_site_occupancy
  Eu  Eu0  1  0.000000  0.000000  0.000000  1
  Mn  Mn1  1  0.500000  0.500000  0.500000  1
  Mn  Mn2  1  0.000000  0.500000  0.000000  1
  Sb  Sb3  1  0.661792  0.841737  0.504344  1
  Sb  Sb4  1  0.338208  0.158263  0.495656  1
  Sb  Sb5  1  0.841463  0.179213  0.337750  1
  Sb  Sb6  1  0.818882  0.661806  0.157921  1
  Sb  Sb7  1  0.843363  0.503541  0.660178  1
  Sb  Sb8  1  0.181118  0.338194  0.842079  1
  Sb  Sb9  1  0.158537  0.820787  0.662250  1
  Sb  Sb10  1  0.503885  0.661806  0.842924  1
  Sb  Sb11  1  0.496115  0.338194  0.157076  1
  Sb  Sb12  1  0.156637  0.496459  0.339822  1
  Sb  Sb13  1  0.337393  0.841737  0.179945  1
  Sb  Sb14  1  0.662607  0.158263  0.820055  1
  Ru  Ru15  1  0.000000  0.000000  0.500000  1
  Ru  Ru16  1  0.500000  0.000000  0.000000  1
