# generated using pymatgen
data_Ac2Pd(SeO3)4
_symmetry_space_group_name_H-M   'P 1'
_cell_length_a   7.37651300
_cell_length_b   8.64638867
_cell_length_c   11.11942947
_cell_angle_alpha   70.32798273
_cell_angle_beta   90.00000000
_cell_angle_gamma   90.00000000
_symmetry_Int_Tables_number   1
_chemical_formula_structural   Ac2Pd(SeO3)4
_chemical_formula_sum   'Ac4 Pd2 Se8 O24'
_cell_volume   667.80704086
_cell_formula_units_Z   2
loop_
 _symmetry_equiv_pos_site_id
 _symmetry_equiv_pos_as_xyz
  1  'x, y, z'
loop_
 _atom_site_type_symbol
 _atom_site_label
 _atom_site_symmetry_multiplicity
 _atom_site_fract_x
 _atom_site_fract_y
 _atom_site_fract_z
 _atom_site_occupancy
  Ac  Ac0  1  0.663381  0.761305  0.088853  1
  Ac  Ac1  1  0.163381  0.738695  0.911147  1
  Ac  Ac2  1  0.336619  0.238695  0.911147  1
  Ac  Ac3  1  0.836619  0.261305  0.088853  1
  Pd  Pd4  1  0.500000  0.500000  0.500000  1
  Pd  Pd5  1  0.000000  0.000000  0.500000  1
  Se  Se6  1  0.678836  0.625997  0.820338  1
  Se  Se7  1  0.178836  0.874003  0.179662  1
  Se  Se8  1  0.321164  0.374003  0.179662  1
  Se  Se9  1  0.821164  0.125997  0.820338  1
  Se  Se10  1  0.329933  0.128959  0.623265  1
  Se  Se11  1  0.829933  0.371041  0.376735  1
  Se  Se12  1  0.670067  0.871041  0.376735  1
  Se  Se13  1  0.170067  0.628959  0.623265  1
  O  O14  1  0.383141  0.316392  0.646454  1
  O  O15  1  0.883141  0.183608  0.353546  1
  O  O16  1  0.616859  0.683608  0.353546  1
  O  O17  1  0.116859  0.816392  0.646454  1
  O  O18  1  0.619931  0.426461  0.846015  1
  O  O19  1  0.119931  0.073539  0.153985  1
  O  O20  1  0.380069  0.573539  0.153985  1
  O  O21  1  0.880069  0.926461  0.846015  1
  O  O22  1  0.837480  0.589383  0.946143  1
  O  O23  1  0.337480  0.910617  0.053857  1
  O  O24  1  0.162520  0.410617  0.053857  1
  O  O25  1  0.662520  0.089383  0.946143  1
  O  O26  1  0.111260  0.175195  0.562896  1
  O  O27  1  0.611260  0.324805  0.437104  1
  O  O28  1  0.888740  0.824805  0.437104  1
  O  O29  1  0.388740  0.675195  0.562896  1
  O  O30  1  0.508850  0.705151  0.889882  1
  O  O31  1  0.008850  0.794849  0.110118  1
  O  O32  1  0.491150  0.294849  0.110118  1
  O  O33  1  0.991150  0.205151  0.889882  1
  O  O34  1  0.296097  0.028371  0.783671  1
  O  O35  1  0.796097  0.471629  0.216329  1
  O  O36  1  0.703903  0.971629  0.216329  1
  O  O37  1  0.203903  0.528371  0.783671  1
