# generated using pymatgen
data_Tb4Yb3Dy(ReC2)4
_symmetry_space_group_name_H-M   'P 1'
_cell_length_a   5.15519600
_cell_length_b   6.55700227
_cell_length_c   10.05873613
_cell_angle_alpha   89.41285145
_cell_angle_beta   90.00000000
_cell_angle_gamma   90.00000000
_symmetry_Int_Tables_number   1
_chemical_formula_structural   Tb4Yb3Dy(ReC2)4
_chemical_formula_sum   'Tb4 Yb3 Dy1 Re4 C8'
_cell_volume   339.99390159
_cell_formula_units_Z   1
loop_
 _symmetry_equiv_pos_site_id
 _symmetry_equiv_pos_as_xyz
  1  'x, y, z'
loop_
 _atom_site_type_symbol
 _atom_site_label
 _atom_site_symmetry_multiplicity
 _atom_site_fract_x
 _atom_site_fract_y
 _atom_site_fract_z
 _atom_site_occupancy
  Tb  Tb0  1  0.250000  0.689002  0.554039  1
  Tb  Tb1  1  0.750000  0.313349  0.447107  1
  Tb  Tb2  1  0.250000  0.183743  0.945546  1
  Tb  Tb3  1  0.250000  0.536543  0.221710  1
  Yb  Yb4  1  0.750000  0.461741  0.777080  1
  Yb  Yb5  1  0.750000  0.961383  0.723523  1
  Yb  Yb6  1  0.250000  0.037588  0.277925  1
  Dy  Dy7  1  0.750000  0.818193  0.053689  1
  Re  Re8  1  0.250000  0.721173  0.861265  1
  Re  Re9  1  0.750000  0.277374  0.139288  1
  Re  Re10  1  0.750000  0.776208  0.360273  1
  Re  Re11  1  0.250000  0.225250  0.637793  1
  C  C12  1  0.250000  0.455407  0.758650  1
  C  C13  1  0.750000  0.544760  0.239413  1
  C  C14  1  0.750000  0.044356  0.260198  1
  C  C15  1  0.250000  0.956207  0.740833  1
  C  C16  1  0.250000  0.809508  0.041906  1
  C  C17  1  0.750000  0.178866  0.961748  1
  C  C18  1  0.750000  0.685711  0.539902  1
  C  C19  1  0.250000  0.323640  0.458113  1
