# generated using pymatgen
data_ErTm7Sc12Ga7Si9
_symmetry_space_group_name_H-M   'P 1'
_cell_length_a   7.11994837
_cell_length_b   7.37747767
_cell_length_c   14.17447901
_cell_angle_alpha   89.99828660
_cell_angle_beta   89.93616376
_cell_angle_gamma   90.02555207
_symmetry_Int_Tables_number   1
_chemical_formula_structural   ErTm7Sc12Ga7Si9
_chemical_formula_sum   'Er1 Tm7 Sc12 Ga7 Si9'
_cell_volume   744.54600938
_cell_formula_units_Z   1
loop_
 _symmetry_equiv_pos_site_id
 _symmetry_equiv_pos_as_xyz
  1  'x, y, z'
loop_
 _atom_site_type_symbol
 _atom_site_label
 _atom_site_symmetry_multiplicity
 _atom_site_fract_x
 _atom_site_fract_y
 _atom_site_fract_z
 _atom_site_occupancy
  Er  Er0  1  0.012423  0.174564  0.098577  1
  Tm  Tm1  1  0.989732  0.823000  0.901722  1
  Tm  Tm2  1  0.488422  0.676941  0.901847  1
  Tm  Tm3  1  0.989534  0.823378  0.599211  1
  Tm  Tm4  1  0.510367  0.322331  0.098712  1
  Tm  Tm5  1  0.010237  0.176181  0.400618  1
  Tm  Tm6  1  0.510588  0.323230  0.400551  1
  Tm  Tm7  1  0.489538  0.676558  0.599158  1
  Sc  Sc8  1  0.163737  0.503551  0.749961  1
  Sc  Sc9  1  0.836936  0.497411  0.249879  1
  Sc  Sc10  1  0.336161  0.003434  0.249019  1
  Sc  Sc11  1  0.663336  0.996853  0.749698  1
  Sc  Sc12  1  0.330214  0.173631  0.625791  1
  Sc  Sc13  1  0.669419  0.826673  0.373973  1
  Sc  Sc14  1  0.169604  0.673943  0.373855  1
  Sc  Sc15  1  0.668199  0.825242  0.126144  1
  Sc  Sc16  1  0.829982  0.326317  0.625995  1
  Sc  Sc17  1  0.329715  0.174183  0.874954  1
  Sc  Sc18  1  0.829214  0.326367  0.874388  1
  Sc  Sc19  1  0.171910  0.675709  0.125080  1
  Ga  Ga20  1  0.161719  0.464163  0.539588  1
  Ga  Ga21  1  0.838290  0.535779  0.460280  1
  Ga  Ga22  1  0.338050  0.963799  0.460418  1
  Ga  Ga23  1  0.838337  0.537043  0.040103  1
  Ga  Ga24  1  0.661833  0.036016  0.539383  1
  Ga  Ga25  1  0.161125  0.463442  0.960643  1
  Ga  Ga26  1  0.660501  0.036671  0.960976  1
  Si  Si27  1  0.031814  0.112049  0.750716  1
  Si  Si28  1  0.967804  0.887047  0.249627  1
  Si  Si29  1  0.467624  0.611934  0.249581  1
  Si  Si30  1  0.531974  0.387526  0.750175  1
  Si  Si31  1  0.284167  0.872714  0.750567  1
  Si  Si32  1  0.716091  0.127624  0.249273  1
  Si  Si33  1  0.215472  0.372041  0.249615  1
  Si  Si34  1  0.784118  0.627771  0.750394  1
  Si  Si35  1  0.341813  0.964886  0.039527  1
