# generated using pymatgen
data_Pr16MgHg3RuRh3
_symmetry_space_group_name_H-M   'P 1'
_cell_length_a   9.98583301
_cell_length_b   10.04842612
_cell_length_c   10.04785591
_cell_angle_alpha   59.73422740
_cell_angle_beta   59.74697685
_cell_angle_gamma   59.75287109
_symmetry_Int_Tables_number   1
_chemical_formula_structural   Pr16MgHg3RuRh3
_chemical_formula_sum   'Pr16 Mg1 Hg3 Ru1 Rh3'
_cell_volume   708.78657418
_cell_formula_units_Z   1
loop_
 _symmetry_equiv_pos_site_id
 _symmetry_equiv_pos_as_xyz
  1  'x, y, z'
loop_
 _atom_site_type_symbol
 _atom_site_label
 _atom_site_symmetry_multiplicity
 _atom_site_fract_x
 _atom_site_fract_y
 _atom_site_fract_z
 _atom_site_occupancy
  Pr  Pr0  1  0.349133  0.347829  0.347839  1
  Pr  Pr1  1  0.346982  0.346678  0.955576  1
  Pr  Pr2  1  0.346996  0.955584  0.346681  1
  Pr  Pr3  1  0.947153  0.349448  0.349418  1
  Pr  Pr4  1  0.810034  0.191980  0.191977  1
  Pr  Pr5  1  0.188211  0.810075  0.810080  1
  Pr  Pr6  1  0.187714  0.813330  0.189226  1
  Pr  Pr7  1  0.805679  0.193249  0.807169  1
  Pr  Pr8  1  0.187737  0.189237  0.813290  1
  Pr  Pr9  1  0.805673  0.807151  0.193275  1
  Pr  Pr10  1  0.938523  0.562808  0.562803  1
  Pr  Pr11  1  0.557523  0.939827  0.939815  1
  Pr  Pr12  1  0.560907  0.938655  0.563117  1
  Pr  Pr13  1  0.939330  0.559571  0.937865  1
  Pr  Pr14  1  0.560886  0.563092  0.938717  1
  Pr  Pr15  1  0.939361  0.937859  0.559571  1
  Mg  Mg16  1  0.287853  0.570453  0.570403  1
  Hg  Hg17  1  0.580309  0.586435  0.586453  1
  Hg  Hg18  1  0.580867  0.586512  0.246189  1
  Hg  Hg19  1  0.580878  0.246173  0.586529  1
  Ru  Ru20  1  0.140022  0.141211  0.141176  1
  Rh  Rh21  1  0.141627  0.143646  0.575977  1
  Rh  Rh22  1  0.141661  0.575975  0.143645  1
  Rh  Rh23  1  0.574939  0.143222  0.143205  1
