# generated using pymatgen
data_Dy3Ho7(RuPb3)2
_symmetry_space_group_name_H-M   'P 1'
_cell_length_a   9.31141000
_cell_length_b   9.31141034
_cell_length_c   6.56519900
_cell_angle_alpha   90.00000000
_cell_angle_beta   90.00000000
_cell_angle_gamma   119.99999878
_symmetry_Int_Tables_number   1
_chemical_formula_structural   Dy3Ho7(RuPb3)2
_chemical_formula_sum   'Dy3 Ho7 Ru2 Pb6'
_cell_volume   492.95746482
_cell_formula_units_Z   1
loop_
 _symmetry_equiv_pos_site_id
 _symmetry_equiv_pos_as_xyz
  1  'x, y, z'
loop_
 _atom_site_type_symbol
 _atom_site_label
 _atom_site_symmetry_multiplicity
 _atom_site_fract_x
 _atom_site_fract_y
 _atom_site_fract_z
 _atom_site_occupancy
  Dy  Dy0  1  0.333333  0.666667  0.500000  1
  Dy  Dy1  1  0.666667  0.333333  0.500000  1
  Dy  Dy2  1  0.333333  0.666667  0.000000  1
  Ho  Ho3  1  0.999956  0.763586  0.750052  1
  Ho  Ho4  1  0.763631  0.763586  0.249948  1
  Ho  Ho5  1  0.763631  0.000044  0.750052  1
  Ho  Ho6  1  0.236414  0.000044  0.249948  1
  Ho  Ho7  1  0.236414  0.236369  0.750052  1
  Ho  Ho8  1  0.999956  0.236369  0.249948  1
  Ho  Ho9  1  0.666667  0.333333  0.000000  1
  Ru  Ru10  1  0.000000  0.000000  0.000000  1
  Ru  Ru11  1  0.000000  0.000000  0.500000  1
  Pb  Pb12  1  0.402207  0.402080  0.249892  1
  Pb  Pb13  1  0.597920  0.597793  0.750108  1
  Pb  Pb14  1  0.597920  0.000127  0.249892  1
  Pb  Pb15  1  0.402207  0.000127  0.750108  1
  Pb  Pb16  1  0.999873  0.597793  0.249892  1
  Pb  Pb17  1  0.999873  0.402080  0.750108  1
