# generated using pymatgen
data_Pr16Nd4Si15Ag
_symmetry_space_group_name_H-M   'P 1'
_cell_length_a   7.94472157
_cell_length_b   7.94900007
_cell_length_c   15.35426239
_cell_angle_alpha   89.55505822
_cell_angle_beta   90.08939070
_cell_angle_gamma   89.97856599
_symmetry_Int_Tables_number   1
_chemical_formula_structural   Pr16Nd4Si15Ag
_chemical_formula_sum   'Pr16 Nd4 Si15 Ag1'
_cell_volume   969.63098302
_cell_formula_units_Z   1
loop_
 _symmetry_equiv_pos_site_id
 _symmetry_equiv_pos_as_xyz
  1  'x, y, z'
loop_
 _atom_site_type_symbol
 _atom_site_label
 _atom_site_symmetry_multiplicity
 _atom_site_fract_x
 _atom_site_fract_y
 _atom_site_fract_z
 _atom_site_occupancy
  Pr  Pr0  1  0.480108  0.371748  0.126191  1
  Pr  Pr1  1  0.971789  0.134631  0.628704  1
  Pr  Pr2  1  0.872858  0.020723  0.876020  1
  Pr  Pr3  1  0.125212  0.977433  0.375631  1
  Pr  Pr4  1  0.521740  0.622607  0.626094  1
  Pr  Pr5  1  0.374075  0.481479  0.874110  1
  Pr  Pr6  1  0.627014  0.517768  0.372231  1
  Pr  Pr7  1  0.019057  0.874931  0.122146  1
  Pr  Pr8  1  0.631708  0.990902  0.444755  1
  Pr  Pr9  1  0.379579  0.009351  0.946449  1
  Pr  Pr10  1  0.981390  0.616118  0.550678  1
  Pr  Pr11  1  0.490222  0.877685  0.197049  1
  Pr  Pr12  1  0.520242  0.131347  0.704228  1
  Pr  Pr13  1  0.877949  0.489706  0.803439  1
  Pr  Pr14  1  0.121529  0.506334  0.301831  1
  Pr  Pr15  1  0.012316  0.377540  0.052558  1
  Nd  Nd16  1  0.304426  0.312575  0.501395  1
  Nd  Nd17  1  0.192800  0.811952  0.750374  1
  Nd  Nd18  1  0.810538  0.190924  0.250138  1
  Nd  Nd19  1  0.691281  0.693073  0.000001  1
  Si  Si20  1  0.711938  0.078911  0.060687  1
  Si  Si21  1  0.921471  0.285983  0.439398  1
  Si  Si22  1  0.421593  0.210839  0.310749  1
  Si  Si23  1  0.577583  0.786993  0.809572  1
  Si  Si24  1  0.212339  0.423229  0.690556  1
  Si  Si25  1  0.787051  0.578768  0.188819  1
  Si  Si26  1  0.078018  0.712181  0.940096  1
  Si  Si27  1  0.805012  0.829854  0.702732  1
  Si  Si28  1  0.194355  0.168984  0.203387  1
  Si  Si29  1  0.830463  0.804920  0.296581  1
  Si  Si30  1  0.328269  0.684775  0.448111  1
  Si  Si31  1  0.669213  0.305828  0.953614  1
  Si  Si32  1  0.691604  0.329642  0.544869  1
  Si  Si33  1  0.306409  0.669573  0.046819  1
  Si  Si34  1  0.170221  0.195656  0.798056  1
  Ag  Ag35  1  0.288631  0.925036  0.561931  1
