# generated using pymatgen
data_Ta4B2MoP
_symmetry_space_group_name_H-M   'P 1'
_cell_length_a   7.20917220
_cell_length_b   7.20917203
_cell_length_c   7.20917106
_cell_angle_alpha   129.63145609
_cell_angle_beta   129.63144550
_cell_angle_gamma   73.99664873
_symmetry_Int_Tables_number   1
_chemical_formula_structural   Ta4B2MoP
_chemical_formula_sum   'Ta8 B4 Mo2 P2'
_cell_volume   216.73875599
_cell_formula_units_Z   2
loop_
 _symmetry_equiv_pos_site_id
 _symmetry_equiv_pos_as_xyz
  1  'x, y, z'
loop_
 _atom_site_type_symbol
 _atom_site_label
 _atom_site_symmetry_multiplicity
 _atom_site_fract_x
 _atom_site_fract_y
 _atom_site_fract_z
 _atom_site_occupancy
  Ta  Ta0  1  0.808222  0.972504  0.500000  1
  Ta  Ta1  1  0.308222  0.808222  0.835719  1
  Ta  Ta2  1  0.191778  0.027496  0.500000  1
  Ta  Ta3  1  0.527496  0.691778  0.500000  1
  Ta  Ta4  1  0.027496  0.527496  0.835719  1
  Ta  Ta5  1  0.691778  0.191778  0.164281  1
  Ta  Ta6  1  0.972504  0.472504  0.164281  1
  Ta  Ta7  1  0.472504  0.308222  0.500000  1
  B  B8  1  0.382114  0.882114  0.264230  1
  B  B9  1  0.882114  0.617886  0.500000  1
  B  B10  1  0.617886  0.117886  0.735770  1
  B  B11  1  0.117886  0.382114  0.500000  1
  Mo  Mo12  1  0.000000  0.000000  0.000000  1
  Mo  Mo13  1  0.500000  0.500000  0.000000  1
  P  P14  1  0.750000  0.750000  0.000000  1
  P  P15  1  0.250000  0.250000  0.000000  1
