# generated using pymatgen
data_Ce8Zn3Si12Tc
_symmetry_space_group_name_H-M   'P 1'
_cell_length_a   8.25851700
_cell_length_b   8.25851717
_cell_length_c   8.24251400
_cell_angle_alpha   90.00000000
_cell_angle_beta   90.00000000
_cell_angle_gamma   119.99999533
_symmetry_Int_Tables_number   1
_chemical_formula_structural   Ce8Zn3Si12Tc
_chemical_formula_sum   'Ce8 Zn3 Si12 Tc1'
_cell_volume   486.84923123
_cell_formula_units_Z   1
loop_
 _symmetry_equiv_pos_site_id
 _symmetry_equiv_pos_as_xyz
  1  'x, y, z'
loop_
 _atom_site_type_symbol
 _atom_site_label
 _atom_site_symmetry_multiplicity
 _atom_site_fract_x
 _atom_site_fract_y
 _atom_site_fract_z
 _atom_site_occupancy
  Ce  Ce0  1  0.000000  0.000000  0.251549  1
  Ce  Ce1  1  0.000000  0.000000  0.748670  1
  Ce  Ce2  1  0.496001  0.503999  0.242391  1
  Ce  Ce3  1  0.496001  0.991999  0.242391  1
  Ce  Ce4  1  0.008001  0.503999  0.242391  1
  Ce  Ce5  1  0.493766  0.506234  0.757902  1
  Ce  Ce6  1  0.493766  0.987533  0.757902  1
  Ce  Ce7  1  0.012467  0.506234  0.757902  1
  Zn  Zn8  1  0.333333  0.666667  0.494432  1
  Zn  Zn9  1  0.666667  0.333333  0.507699  1
  Zn  Zn10  1  0.666667  0.333333  0.994876  1
  Si  Si11  1  0.165312  0.834688  0.501336  1
  Si  Si12  1  0.165312  0.330624  0.501336  1
  Si  Si13  1  0.669376  0.834688  0.501336  1
  Si  Si14  1  0.833862  0.166138  0.499613  1
  Si  Si15  1  0.833862  0.667724  0.499613  1
  Si  Si16  1  0.332276  0.166138  0.499613  1
  Si  Si17  1  0.835390  0.164610  0.998804  1
  Si  Si18  1  0.835390  0.670780  0.998804  1
  Si  Si19  1  0.329220  0.164610  0.998804  1
  Si  Si20  1  0.164337  0.835663  0.000452  1
  Si  Si21  1  0.164337  0.328675  0.000452  1
  Si  Si22  1  0.671325  0.835663  0.000452  1
  Tc  Tc23  1  0.333333  0.666667  0.001280  1
