# generated using pymatgen
data_Rb20Ce(HfAs4)3
_symmetry_space_group_name_H-M   'P 1'
_cell_length_a   8.85151252
_cell_length_b   9.49460454
_cell_length_c   18.39982000
_cell_angle_alpha   60.41876964
_cell_angle_beta   89.98043214
_cell_angle_gamma   90.08340523
_symmetry_Int_Tables_number   1
_chemical_formula_structural   Rb20Ce(HfAs4)3
_chemical_formula_sum   'Rb20 Ce1 Hf3 As12'
_cell_volume   1344.79165242
_cell_formula_units_Z   1
loop_
 _symmetry_equiv_pos_site_id
 _symmetry_equiv_pos_as_xyz
  1  'x, y, z'
loop_
 _atom_site_type_symbol
 _atom_site_label
 _atom_site_symmetry_multiplicity
 _atom_site_fract_x
 _atom_site_fract_y
 _atom_site_fract_z
 _atom_site_occupancy
  Rb  Rb0  1  0.172436  0.845436  0.739169  1
  Rb  Rb1  1  0.674148  0.159206  0.757777  1
  Rb  Rb2  1  0.821646  0.149548  0.260945  1
  Rb  Rb3  1  0.329407  0.836952  0.245431  1
  Rb  Rb4  1  0.162883  0.159826  0.422668  1
  Rb  Rb5  1  0.659355  0.843527  0.081142  1
  Rb  Rb6  1  0.836987  0.837986  0.580725  1
  Rb  Rb7  1  0.339781  0.167201  0.914414  1
  Rb  Rb8  1  0.011510  0.080573  0.089695  1
  Rb  Rb9  1  0.504965  0.915912  0.410213  1
  Rb  Rb10  1  0.989151  0.919225  0.909264  1
  Rb  Rb11  1  0.493607  0.084610  0.590219  1
  Rb  Rb12  1  0.513900  0.259919  0.076110  1
  Rb  Rb13  1  0.021989  0.735037  0.420050  1
  Rb  Rb14  1  0.485887  0.735484  0.918495  1
  Rb  Rb15  1  0.985349  0.273888  0.577809  1
  Rb  Rb16  1  0.968358  0.545690  0.255696  1
  Rb  Rb17  1  0.483507  0.451438  0.248396  1
  Rb  Rb18  1  0.026076  0.453906  0.744848  1
  Rb  Rb19  1  0.521666  0.548184  0.752961  1
  Ce  Ce20  1  0.133616  0.494156  0.083424  1
  Hf  Hf21  1  0.373411  0.493826  0.579342  1
  Hf  Hf22  1  0.864647  0.506775  0.916874  1
  Hf  Hf23  1  0.630095  0.504529  0.422727  1
  As  As24  1  0.329446  0.482435  0.438918  1
  As  As25  1  0.811316  0.518075  0.057214  1
  As  As26  1  0.674176  0.515491  0.563015  1
  As  As27  1  0.165300  0.484623  0.930584  1
  As  As28  1  0.212187  0.201765  0.226981  1
  As  As29  1  0.708065  0.772281  0.287752  1
  As  As30  1  0.791141  0.778768  0.784133  1
  As  As31  1  0.295224  0.223985  0.712899  1
  As  As32  1  0.258624  0.772758  0.077039  1
  As  As33  1  0.751527  0.250462  0.424032  1
  As  As34  1  0.747625  0.248822  0.921758  1
  As  As35  1  0.250992  0.747701  0.577284  1
