# generated using pymatgen
data_La8FeHg3
_symmetry_space_group_name_H-M   'P 1'
_cell_length_a   10.77095738
_cell_length_b   10.76523981
_cell_length_c   7.38461900
_cell_angle_alpha   90.00000000
_cell_angle_beta   90.00000000
_cell_angle_gamma   119.98705515
_symmetry_Int_Tables_number   1
_chemical_formula_structural   La8FeHg3
_chemical_formula_sum   'La16 Fe2 Hg6'
_cell_volume   741.64039427
_cell_formula_units_Z   2
loop_
 _symmetry_equiv_pos_site_id
 _symmetry_equiv_pos_as_xyz
  1  'x, y, z'
loop_
 _atom_site_type_symbol
 _atom_site_label
 _atom_site_symmetry_multiplicity
 _atom_site_fract_x
 _atom_site_fract_y
 _atom_site_fract_z
 _atom_site_occupancy
  La  La0  1  0.829559  0.659171  0.476646  1
  La  La1  1  0.340656  0.170338  0.476517  1
  La  La2  1  0.829641  0.170352  0.476592  1
  La  La3  1  0.170441  0.340829  0.976646  1
  La  La4  1  0.659344  0.829662  0.976517  1
  La  La5  1  0.170359  0.829648  0.976592  1
  La  La6  1  0.666641  0.333336  0.215363  1
  La  La7  1  0.333359  0.666664  0.715363  1
  La  La8  1  0.545305  0.090620  0.788993  1
  La  La9  1  0.909400  0.454698  0.788969  1
  La  La10  1  0.545299  0.454709  0.789045  1
  La  La11  1  0.454695  0.909380  0.288993  1
  La  La12  1  0.090600  0.545302  0.288969  1
  La  La13  1  0.454701  0.545291  0.289045  1
  La  La14  1  0.999783  0.999719  0.796195  1
  La  La15  1  0.000217  0.000281  0.296195  1
  Fe  Fe16  1  0.666776  0.333378  0.544787  1
  Fe  Fe17  1  0.333224  0.666622  0.044787  1
  Hg  Hg18  1  0.831992  0.663966  0.036718  1
  Hg  Hg19  1  0.336010  0.168001  0.036635  1
  Hg  Hg20  1  0.831999  0.168011  0.036608  1
  Hg  Hg21  1  0.168008  0.336034  0.536718  1
  Hg  Hg22  1  0.663990  0.831999  0.536635  1
  Hg  Hg23  1  0.168001  0.831989  0.536608  1
