# generated using pymatgen
data_Th3Al12TcRu3
_symmetry_space_group_name_H-M   'P 1'
_cell_length_a   8.99620334
_cell_length_b   8.99620231
_cell_length_c   9.63215045
_cell_angle_alpha   90.29157761
_cell_angle_beta   89.70842284
_cell_angle_gamma   120.23693142
_symmetry_Int_Tables_number   1
_chemical_formula_structural   Th3Al12TcRu3
_chemical_formula_sum   'Th6 Al24 Tc2 Ru6'
_cell_volume   673.47744854
_cell_formula_units_Z   2
loop_
 _symmetry_equiv_pos_site_id
 _symmetry_equiv_pos_as_xyz
  1  'x, y, z'
loop_
 _atom_site_type_symbol
 _atom_site_label
 _atom_site_symmetry_multiplicity
 _atom_site_fract_x
 _atom_site_fract_y
 _atom_site_fract_z
 _atom_site_occupancy
  Th  Th0  1  0.802548  0.608915  0.751915  1
  Th  Th1  1  0.195195  0.804805  0.250219  1
  Th  Th2  1  0.608915  0.802548  0.248085  1
  Th  Th3  1  0.391085  0.197452  0.751915  1
  Th  Th4  1  0.804805  0.195195  0.749781  1
  Th  Th5  1  0.197452  0.391085  0.248085  1
  Al  Al6  1  0.333652  0.666348  0.491016  1
  Al  Al7  1  0.667415  0.332585  0.991983  1
  Al  Al8  1  0.666348  0.333652  0.508984  1
  Al  Al9  1  0.332585  0.667415  0.008017  1
  Al  Al10  1  0.161749  0.325281  0.578002  1
  Al  Al11  1  0.674719  0.838251  0.578002  1
  Al  Al12  1  0.161958  0.838042  0.579300  1
  Al  Al13  1  0.837515  0.162485  0.077305  1
  Al  Al14  1  0.838042  0.161958  0.420700  1
  Al  Al15  1  0.838644  0.674710  0.078178  1
  Al  Al16  1  0.325290  0.161356  0.078178  1
  Al  Al17  1  0.674710  0.838644  0.921822  1
  Al  Al18  1  0.161356  0.325290  0.921822  1
  Al  Al19  1  0.838251  0.674719  0.421998  1
  Al  Al20  1  0.000105  0.999895  0.248879  1
  Al  Al21  1  0.999895  0.000105  0.751121  1
  Al  Al22  1  0.564076  0.126587  0.250255  1
  Al  Al23  1  0.435376  0.564624  0.749115  1
  Al  Al24  1  0.126587  0.564076  0.749745  1
  Al  Al25  1  0.873413  0.435924  0.250255  1
  Al  Al26  1  0.564624  0.435376  0.250885  1
  Al  Al27  1  0.435924  0.873413  0.749745  1
  Al  Al28  1  0.162485  0.837515  0.922695  1
  Al  Al29  1  0.325281  0.161749  0.421998  1
  Tc  Tc30  1  0.000000  0.000000  0.500000  1
  Tc  Tc31  1  0.500000  0.500000  0.000000  1
  Ru  Ru32  1  0.000000  0.000000  0.000000  1
  Ru  Ru33  1  0.500000  0.000000  0.500000  1
  Ru  Ru34  1  0.000000  0.500000  0.000000  1
  Ru  Ru35  1  0.000000  0.500000  0.500000  1
  Ru  Ru36  1  0.500000  0.500000  0.500000  1
  Ru  Ru37  1  0.500000  0.000000  0.000000  1
