# generated using pymatgen
data_HoLu2ZnRu2
_symmetry_space_group_name_H-M   'P 1'
_cell_length_a   3.36328100
_cell_length_b   3.36328100
_cell_length_c   10.61584200
_cell_angle_alpha   90.00000000
_cell_angle_beta   90.00000000
_cell_angle_gamma   90.00000000
_symmetry_Int_Tables_number   1
_chemical_formula_structural   HoLu2ZnRu2
_chemical_formula_sum   'Ho1 Lu2 Zn1 Ru2'
_cell_volume   120.08278560
_cell_formula_units_Z   1
loop_
 _symmetry_equiv_pos_site_id
 _symmetry_equiv_pos_as_xyz
  1  'x, y, z'
loop_
 _atom_site_type_symbol
 _atom_site_label
 _atom_site_symmetry_multiplicity
 _atom_site_fract_x
 _atom_site_fract_y
 _atom_site_fract_z
 _atom_site_occupancy
  Ho  Ho0  1  0.499999  0.499999  0.311569  1
  Lu  Lu1  1  0.499999  0.499999  0.997633  1
  Lu  Lu2  1  0.499999  0.499999  0.690577  1
  Zn  Zn3  1  0.000000  0.000000  0.506993  1
  Ru  Ru4  1  0.000000  0.000000  0.157712  1
  Ru  Ru5  1  0.000000  0.000000  0.835516  1
