# generated using pymatgen
data_SrLaUSe5
_symmetry_space_group_name_H-M   'P 1'
_cell_length_a   7.95489600
_cell_length_b   8.58185700
_cell_length_c   12.55795800
_cell_angle_alpha   90.00000000
_cell_angle_beta   90.00000000
_cell_angle_gamma   90.00000000
_symmetry_Int_Tables_number   1
_chemical_formula_structural   SrLaUSe5
_chemical_formula_sum   'Sr4 La4 U4 Se20'
_cell_volume   857.30391301
_cell_formula_units_Z   4
loop_
 _symmetry_equiv_pos_site_id
 _symmetry_equiv_pos_as_xyz
  1  'x, y, z'
loop_
 _atom_site_type_symbol
 _atom_site_label
 _atom_site_symmetry_multiplicity
 _atom_site_fract_x
 _atom_site_fract_y
 _atom_site_fract_z
 _atom_site_occupancy
  Sr  Sr0  1  0.463156  0.501867  0.322279  1
  Sr  Sr1  1  0.963156  0.498133  0.177721  1
  Sr  Sr2  1  0.036844  0.998133  0.822279  1
  Sr  Sr3  1  0.536844  0.001867  0.677721  1
  La  La4  1  0.537844  0.499147  0.672829  1
  La  La5  1  0.037844  0.500853  0.827171  1
  La  La6  1  0.962156  0.000853  0.172829  1
  La  La7  1  0.462156  0.999147  0.327171  1
  U  U8  1  0.932133  0.752825  0.493295  1
  U  U9  1  0.432133  0.247175  0.006705  1
  U  U10  1  0.567867  0.747175  0.993295  1
  U  U11  1  0.067867  0.252825  0.506705  1
  Se  Se12  1  0.820599  0.739525  0.708666  1
  Se  Se13  1  0.320599  0.260475  0.791334  1
  Se  Se14  1  0.679401  0.760475  0.208666  1
  Se  Se15  1  0.179401  0.239525  0.291334  1
  Se  Se16  1  0.555786  0.751635  0.495627  1
  Se  Se17  1  0.055786  0.248365  0.004373  1
  Se  Se18  1  0.944214  0.748365  0.995627  1
  Se  Se19  1  0.444214  0.251635  0.504373  1
  Se  Se20  1  0.152837  0.760668  0.315244  1
  Se  Se21  1  0.652837  0.239332  0.184756  1
  Se  Se22  1  0.347163  0.739332  0.815244  1
  Se  Se23  1  0.847163  0.260668  0.684756  1
  Se  Se24  1  0.163333  0.960184  0.581754  1
  Se  Se25  1  0.663333  0.039816  0.918246  1
  Se  Se26  1  0.336667  0.539816  0.081754  1
  Se  Se27  1  0.836667  0.460184  0.418246  1
  Se  Se28  1  0.831665  0.043740  0.412128  1
  Se  Se29  1  0.331665  0.956260  0.087872  1
  Se  Se30  1  0.668335  0.456260  0.912128  1
  Se  Se31  1  0.168335  0.543740  0.587872  1
