# generated using pymatgen
data_Tb4Nd2FeBr10
_symmetry_space_group_name_H-M   'P 1'
_cell_length_a   7.47031242
_cell_length_b   9.13649696
_cell_length_c   9.41602982
_cell_angle_alpha   108.66876039
_cell_angle_beta   97.05771761
_cell_angle_gamma   104.29777745
_symmetry_Int_Tables_number   1
_chemical_formula_structural   Tb4Nd2FeBr10
_chemical_formula_sum   'Tb4 Nd2 Fe1 Br10'
_cell_volume   575.54646467
_cell_formula_units_Z   1
loop_
 _symmetry_equiv_pos_site_id
 _symmetry_equiv_pos_as_xyz
  1  'x, y, z'
loop_
 _atom_site_type_symbol
 _atom_site_label
 _atom_site_symmetry_multiplicity
 _atom_site_fract_x
 _atom_site_fract_y
 _atom_site_fract_z
 _atom_site_occupancy
  Tb  Tb0  1  0.875715  0.953872  0.748108  1
  Tb  Tb1  1  0.124285  0.046128  0.251892  1
  Tb  Tb2  1  0.361755  0.134580  0.680752  1
  Tb  Tb3  1  0.638245  0.865420  0.319248  1
  Nd  Nd4  1  0.032171  0.723899  0.415536  1
  Nd  Nd5  1  0.967829  0.276101  0.584464  1
  Fe  Fe6  1  0.000000  0.000000  0.500000  1
  Br  Br7  1  0.457098  0.823039  0.583768  1
  Br  Br8  1  0.542902  0.176961  0.416232  1
  Br  Br9  1  0.910519  0.635866  0.677363  1
  Br  Br10  1  0.089481  0.364134  0.322637  1
  Br  Br11  1  0.248808  0.084556  0.954319  1
  Br  Br12  1  0.751192  0.915444  0.045681  1
  Br  Br13  1  0.356525  0.451906  0.773141  1
  Br  Br14  1  0.643475  0.548094  0.226859  1
  Br  Br15  1  0.782615  0.252554  0.849303  1
  Br  Br16  1  0.217385  0.747446  0.150697  1
