# generated using pymatgen
data_Tb8Hf12Si15Hg
_symmetry_space_group_name_H-M   'P 1'
_cell_length_a   7.30618093
_cell_length_b   7.34700718
_cell_length_c   13.44771226
_cell_angle_alpha   89.87504857
_cell_angle_beta   89.99513120
_cell_angle_gamma   89.92031821
_symmetry_Int_Tables_number   1
_chemical_formula_structural   Tb8Hf12Si15Hg
_chemical_formula_sum   'Tb8 Hf12 Si15 Hg1'
_cell_volume   721.85146318
_cell_formula_units_Z   1
loop_
 _symmetry_equiv_pos_site_id
 _symmetry_equiv_pos_as_xyz
  1  'x, y, z'
loop_
 _atom_site_type_symbol
 _atom_site_label
 _atom_site_symmetry_multiplicity
 _atom_site_fract_x
 _atom_site_fract_y
 _atom_site_fract_z
 _atom_site_occupancy
  Tb  Tb0  1  0.988429  0.345581  0.212898  1
  Tb  Tb1  1  0.003775  0.655718  0.715583  1
  Tb  Tb2  1  0.151797  0.502595  0.469128  1
  Tb  Tb3  1  0.504521  0.842572  0.032957  1
  Tb  Tb4  1  0.844216  0.502992  0.964503  1
  Tb  Tb5  1  0.498181  0.153592  0.538854  1
  Tb  Tb6  1  0.343242  0.997014  0.785025  1
  Tb  Tb7  1  0.663031  0.995684  0.283537  1
  Hf  Hf8  1  0.175057  0.176270  0.998757  1
  Hf  Hf9  1  0.825351  0.825870  0.500828  1
  Hf  Hf10  1  0.325972  0.683396  0.248329  1
  Hf  Hf11  1  0.675684  0.324452  0.750250  1
  Hf  Hf12  1  0.143123  0.990410  0.374658  1
  Hf  Hf13  1  0.851368  0.003754  0.874192  1
  Hf  Hf14  1  0.505161  0.649764  0.624566  1
  Hf  Hf15  1  0.351040  0.494480  0.875445  1
  Hf  Hf16  1  0.495890  0.351520  0.119193  1
  Hf  Hf17  1  0.657445  0.513814  0.380435  1
  Hf  Hf18  1  0.995042  0.148372  0.626744  1
  Hf  Hf19  1  0.002153  0.849652  0.123378  1
  Si  Si20  1  0.637397  0.705412  0.817312  1
  Si  Si21  1  0.205061  0.863842  0.568312  1
  Si  Si22  1  0.137529  0.795546  0.932276  1
  Si  Si23  1  0.795126  0.136855  0.065656  1
  Si  Si24  1  0.861563  0.202533  0.434250  1
  Si  Si25  1  0.295953  0.363344  0.683339  1
  Si  Si26  1  0.704024  0.637711  0.182136  1
  Si  Si27  1  0.292858  0.044834  0.181306  1
  Si  Si28  1  0.705643  0.949984  0.686104  1
  Si  Si29  1  0.449328  0.794908  0.435371  1
  Si  Si30  1  0.204864  0.549427  0.064552  1
  Si  Si31  1  0.549050  0.204697  0.934048  1
  Si  Si32  1  0.794001  0.449814  0.566763  1
  Si  Si33  1  0.048360  0.294824  0.814948  1
  Si  Si34  1  0.952412  0.703025  0.312969  1
  Hg  Hg35  1  0.366353  0.295745  0.321395  1
