# generated using pymatgen
data_Hf18Ti2GaRe6Se
_symmetry_space_group_name_H-M   'P 1'
_cell_length_a   8.69760500
_cell_length_b   8.69760485
_cell_length_c   8.58560500
_cell_angle_alpha   90.00000000
_cell_angle_beta   90.00000000
_cell_angle_gamma   119.99999676
_symmetry_Int_Tables_number   1
_chemical_formula_structural   Hf18Ti2GaRe6Se
_chemical_formula_sum   'Hf18 Ti2 Ga1 Re6 Se1'
_cell_volume   562.47199370
_cell_formula_units_Z   1
loop_
 _symmetry_equiv_pos_site_id
 _symmetry_equiv_pos_as_xyz
  1  'x, y, z'
loop_
 _atom_site_type_symbol
 _atom_site_label
 _atom_site_symmetry_multiplicity
 _atom_site_fract_x
 _atom_site_fract_y
 _atom_site_fract_z
 _atom_site_occupancy
  Hf  Hf0  1  0.193543  0.806457  0.450111  1
  Hf  Hf1  1  0.193543  0.387087  0.450111  1
  Hf  Hf2  1  0.612913  0.806457  0.450111  1
  Hf  Hf3  1  0.806826  0.193174  0.548404  1
  Hf  Hf4  1  0.806826  0.613651  0.548404  1
  Hf  Hf5  1  0.386349  0.193174  0.548404  1
  Hf  Hf6  1  0.806826  0.193174  0.951596  1
  Hf  Hf7  1  0.806826  0.613651  0.951596  1
  Hf  Hf8  1  0.386349  0.193174  0.951596  1
  Hf  Hf9  1  0.193543  0.806457  0.049889  1
  Hf  Hf10  1  0.193543  0.387087  0.049889  1
  Hf  Hf11  1  0.612913  0.806457  0.049889  1
  Hf  Hf12  1  0.541586  0.458414  0.250000  1
  Hf  Hf13  1  0.541586  0.083172  0.250000  1
  Hf  Hf14  1  0.916828  0.458414  0.250000  1
  Hf  Hf15  1  0.454330  0.545670  0.750000  1
  Hf  Hf16  1  0.454330  0.908660  0.750000  1
  Hf  Hf17  1  0.091340  0.545670  0.750000  1
  Ti  Ti18  1  0.000000  0.000000  0.500313  1
  Ti  Ti19  1  0.000000  0.000000  0.999687  1
  Ga  Ga20  1  0.333333  0.666667  0.250000  1
  Re  Re21  1  0.887917  0.112083  0.250000  1
  Re  Re22  1  0.887917  0.775835  0.250000  1
  Re  Re23  1  0.224165  0.112083  0.250000  1
  Re  Re24  1  0.111982  0.888018  0.750000  1
  Re  Re25  1  0.111982  0.223963  0.750000  1
  Re  Re26  1  0.776037  0.888018  0.750000  1
  Se  Se27  1  0.666667  0.333333  0.750000  1
