# generated using pymatgen
data_Pa6Sb8OsPt5
_symmetry_space_group_name_H-M   'P 1'
_cell_length_a   8.45398931
_cell_length_b   8.45398866
_cell_length_c   8.45398918
_cell_angle_alpha   109.55101489
_cell_angle_beta   109.31176629
_cell_angle_gamma   109.55100252
_symmetry_Int_Tables_number   1
_chemical_formula_structural   Pa6Sb8OsPt5
_chemical_formula_sum   'Pa6 Sb8 Os1 Pt5'
_cell_volume   465.11528082
_cell_formula_units_Z   1
loop_
 _symmetry_equiv_pos_site_id
 _symmetry_equiv_pos_as_xyz
  1  'x, y, z'
loop_
 _atom_site_type_symbol
 _atom_site_label
 _atom_site_symmetry_multiplicity
 _atom_site_fract_x
 _atom_site_fract_y
 _atom_site_fract_z
 _atom_site_occupancy
  Pa  Pa0  1  0.875000  0.250000  0.125000  1
  Pa  Pa1  1  0.625000  0.750000  0.375000  1
  Pa  Pa2  1  0.251714  0.128449  0.870565  1
  Pa  Pa3  1  0.742116  0.371551  0.623265  1
  Pa  Pa4  1  0.129435  0.881149  0.257884  1
  Pa  Pa5  1  0.376735  0.618851  0.748286  1
  Sb  Sb6  1  0.675841  0.497137  0.995843  1
  Sb  Sb7  1  0.498705  0.002863  0.678704  1
  Sb  Sb8  1  0.999775  0.677783  0.500584  1
  Sb  Sb9  1  0.822801  0.822217  0.821992  1
  Sb  Sb10  1  0.499416  0.999191  0.177199  1
  Sb  Sb11  1  0.178008  0.500809  0.000225  1
  Sb  Sb12  1  0.004157  0.179999  0.501295  1
  Sb  Sb13  1  0.321296  0.320001  0.324159  1
  Os  Os14  1  0.375000  0.250000  0.625000  1
  Pt  Pt15  1  0.125000  0.750000  0.875000  1
  Pt  Pt16  1  0.251140  0.625051  0.376006  1
  Pt  Pt17  1  0.750954  0.874949  0.126088  1
  Pt  Pt18  1  0.623994  0.375134  0.249046  1
  Pt  Pt19  1  0.873912  0.124866  0.748860  1
