# generated using pymatgen
data_DyTa8VS16
_symmetry_space_group_name_H-M   'P 1'
_cell_length_a   6.67177600
_cell_length_b   6.67177206
_cell_length_c   13.09500500
_cell_angle_alpha   89.99965753
_cell_angle_beta   90.00029897
_cell_angle_gamma   119.99987282
_symmetry_Int_Tables_number   1
_chemical_formula_structural   DyTa8VS16
_chemical_formula_sum   'Dy1 Ta8 V1 S16'
_cell_volume   504.80019513
_cell_formula_units_Z   1
loop_
 _symmetry_equiv_pos_site_id
 _symmetry_equiv_pos_as_xyz
  1  'x, y, z'
loop_
 _atom_site_type_symbol
 _atom_site_label
 _atom_site_symmetry_multiplicity
 _atom_site_fract_x
 _atom_site_fract_y
 _atom_site_fract_z
 _atom_site_occupancy
  Dy  Dy0  1  0.000000  0.000000  0.500000  1
  Ta  Ta1  1  0.504638  0.495363  0.765579  1
  Ta  Ta2  1  0.009274  0.504637  0.234420  1
  Ta  Ta3  1  0.495363  0.990726  0.234420  1
  Ta  Ta4  1  0.504637  0.009274  0.765580  1
  Ta  Ta5  1  0.990726  0.495363  0.765580  1
  Ta  Ta6  1  0.495362  0.504637  0.234421  1
  Ta  Ta7  1  0.000000  0.000000  0.763630  1
  Ta  Ta8  1  0.000000  0.000000  0.236370  1
  V  V9  1  0.000000  0.000000  0.000000  1
  S  S10  1  0.830645  0.169354  0.355499  1
  S  S11  1  0.830646  0.661288  0.355500  1
  S  S12  1  0.338712  0.169353  0.355500  1
  S  S13  1  0.668220  0.834108  0.884116  1
  S  S14  1  0.169354  0.338712  0.644500  1
  S  S15  1  0.165892  0.834108  0.884117  1
  S  S16  1  0.165892  0.331781  0.884116  1
  S  S17  1  0.834108  0.165892  0.115883  1
  S  S18  1  0.331780  0.165892  0.115884  1
  S  S19  1  0.661288  0.830647  0.644500  1
  S  S20  1  0.333331  0.666669  0.113233  1
  S  S21  1  0.666665  0.333335  0.642810  1
  S  S22  1  0.666669  0.333331  0.886767  1
  S  S23  1  0.333335  0.666665  0.357190  1
  S  S24  1  0.834108  0.668219  0.115884  1
  S  S25  1  0.169355  0.830646  0.644501  1
