# generated using pymatgen
data_Lu12Ni4HgRu
_symmetry_space_group_name_H-M   'P 1'
_cell_length_a   8.09572773
_cell_length_b   8.09572907
_cell_length_c   8.09572714
_cell_angle_alpha   111.06126687
_cell_angle_beta   110.30975063
_cell_angle_gamma   107.06992707
_symmetry_Int_Tables_number   1
_chemical_formula_structural   Lu12Ni4HgRu
_chemical_formula_sum   'Lu12 Ni4 Hg1 Ru1'
_cell_volume   407.90293229
_cell_formula_units_Z   1
loop_
 _symmetry_equiv_pos_site_id
 _symmetry_equiv_pos_as_xyz
  1  'x, y, z'
loop_
 _atom_site_type_symbol
 _atom_site_label
 _atom_site_symmetry_multiplicity
 _atom_site_fract_x
 _atom_site_fract_y
 _atom_site_fract_z
 _atom_site_occupancy
  Lu  Lu0  1  0.417994  0.228269  0.189726  1
  Lu  Lu1  1  0.582006  0.771731  0.810274  1
  Lu  Lu2  1  0.038543  0.228269  0.810274  1
  Lu  Lu3  1  0.961457  0.771731  0.189726  1
  Lu  Lu4  1  0.179968  0.278354  0.458321  1
  Lu  Lu5  1  0.820032  0.721646  0.541679  1
  Lu  Lu6  1  0.179968  0.721646  0.901614  1
  Lu  Lu7  1  0.820032  0.278354  0.098386  1
  Lu  Lu8  1  0.323733  0.627934  0.304200  1
  Lu  Lu9  1  0.676267  0.372066  0.695800  1
  Lu  Lu10  1  0.323733  0.019533  0.695800  1
  Lu  Lu11  1  0.676267  0.980467  0.304200  1
  Ni  Ni12  1  0.354020  0.000000  0.354020  1
  Ni  Ni13  1  0.645980  0.000000  0.645980  1
  Ni  Ni14  1  0.120462  0.620462  0.500000  1
  Ni  Ni15  1  0.879538  0.379538  0.500000  1
  Hg  Hg16  1  0.500000  0.500000  0.000000  1
  Ru  Ru17  1  0.000000  0.000000  0.000000  1
