# generated using pymatgen
data_NdFeSiPd
_symmetry_space_group_name_H-M   'P 1'
_cell_length_a   8.99818234
_cell_length_b   8.99818266
_cell_length_c   4.09020600
_cell_angle_alpha   90.00000000
_cell_angle_beta   90.00000000
_cell_angle_gamma   154.04879760
_symmetry_Int_Tables_number   1
_chemical_formula_structural   NdFeSiPd
_chemical_formula_sum   'Nd2 Fe2 Si2 Pd2'
_cell_volume   144.92307868
_cell_formula_units_Z   2
loop_
 _symmetry_equiv_pos_site_id
 _symmetry_equiv_pos_as_xyz
  1  'x, y, z'
loop_
 _atom_site_type_symbol
 _atom_site_label
 _atom_site_symmetry_multiplicity
 _atom_site_fract_x
 _atom_site_fract_y
 _atom_site_fract_z
 _atom_site_occupancy
  Nd  Nd0  1  0.612727  0.387273  0.250000  1
  Nd  Nd1  1  0.387266  0.612734  0.750000  1
  Fe  Fe2  1  0.250721  0.749279  0.250000  1
  Fe  Fe3  1  0.749287  0.250713  0.750000  1
  Si  Si4  1  0.810184  0.189816  0.250000  1
  Si  Si5  1  0.189811  0.810189  0.750000  1
  Pd  Pd6  1  0.950644  0.049356  0.250000  1
  Pd  Pd7  1  0.049361  0.950639  0.750000  1
