# generated using pymatgen
data_Ti2MnNb4B4Ru9
_symmetry_space_group_name_H-M   'P 1'
_cell_length_a   9.29105919
_cell_length_b   9.29105921
_cell_length_c   3.01914200
_cell_angle_alpha   90.00000000
_cell_angle_beta   90.00000000
_cell_angle_gamma   90.20746307
_symmetry_Int_Tables_number   1
_chemical_formula_structural   Ti2MnNb4B4Ru9
_chemical_formula_sum   'Ti2 Mn1 Nb4 B4 Ru9'
_cell_volume   260.62204461
_cell_formula_units_Z   1
loop_
 _symmetry_equiv_pos_site_id
 _symmetry_equiv_pos_as_xyz
  1  'x, y, z'
loop_
 _atom_site_type_symbol
 _atom_site_label
 _atom_site_symmetry_multiplicity
 _atom_site_fract_x
 _atom_site_fract_y
 _atom_site_fract_z
 _atom_site_occupancy
  Ti  Ti0  1  0.500000  0.500000  0.000000  1
  Ti  Ti1  1  0.000000  0.000000  0.000000  1
  Mn  Mn2  1  0.500000  0.000000  0.500000  1
  Nb  Nb3  1  0.821602  0.678398  0.000000  1
  Nb  Nb4  1  0.178398  0.321602  0.000000  1
  Nb  Nb5  1  0.330694  0.830694  0.000000  1
  Nb  Nb6  1  0.669306  0.169306  0.000000  1
  B  B7  1  0.614599  0.885401  0.000000  1
  B  B8  1  0.385401  0.114599  0.000000  1
  B  B9  1  0.124711  0.624711  0.000000  1
  B  B10  1  0.875289  0.375289  0.000000  1
  Ru  Ru11  1  0.569057  0.718752  0.500000  1
  Ru  Ru12  1  0.430943  0.281248  0.500000  1
  Ru  Ru13  1  0.071424  0.785217  0.500000  1
  Ru  Ru14  1  0.928576  0.214783  0.500000  1
  Ru  Ru15  1  0.285217  0.571424  0.500000  1
  Ru  Ru16  1  0.714783  0.428576  0.500000  1
  Ru  Ru17  1  0.218752  0.069057  0.500000  1
  Ru  Ru18  1  0.781248  0.930943  0.500000  1
  Ru  Ru19  1  0.000000  0.500000  0.500000  1
