# generated using pymatgen
data_Tb8MgSc11Pb16
_symmetry_space_group_name_H-M   'P 1'
_cell_length_a   7.95222000
_cell_length_b   8.04545757
_cell_length_c   15.26525300
_cell_angle_alpha   90.00000000
_cell_angle_beta   90.00000000
_cell_angle_gamma   89.75165804
_symmetry_Int_Tables_number   1
_chemical_formula_structural   Tb8MgSc11Pb16
_chemical_formula_sum   'Tb8 Mg1 Sc11 Pb16'
_cell_volume   976.65024295
_cell_formula_units_Z   1
loop_
 _symmetry_equiv_pos_site_id
 _symmetry_equiv_pos_as_xyz
  1  'x, y, z'
loop_
 _atom_site_type_symbol
 _atom_site_label
 _atom_site_symmetry_multiplicity
 _atom_site_fract_x
 _atom_site_fract_y
 _atom_site_fract_z
 _atom_site_occupancy
  Tb  Tb0  1  0.523378  0.323861  0.905808  1
  Tb  Tb1  1  0.028596  0.183034  0.594773  1
  Tb  Tb2  1  0.472498  0.676943  0.402811  1
  Tb  Tb3  1  0.971046  0.822687  0.096596  1
  Tb  Tb4  1  0.472498  0.676943  0.097189  1
  Tb  Tb5  1  0.971046  0.822687  0.403404  1
  Tb  Tb6  1  0.523378  0.323861  0.594192  1
  Tb  Tb7  1  0.028596  0.183034  0.905227  1
  Mg  Mg8  1  0.200348  0.504522  0.750000  1
  Sc  Sc9  1  0.367548  0.841074  0.877691  1
  Sc  Sc10  1  0.872703  0.657204  0.623679  1
  Sc  Sc11  1  0.632930  0.154551  0.376417  1
  Sc  Sc12  1  0.133017  0.341543  0.125204  1
  Sc  Sc13  1  0.632930  0.154551  0.123583  1
  Sc  Sc14  1  0.133017  0.341543  0.374796  1
  Sc  Sc15  1  0.367548  0.841074  0.622309  1
  Sc  Sc16  1  0.872703  0.657204  0.876321  1
  Sc  Sc17  1  0.699067  0.990743  0.750000  1
  Sc  Sc18  1  0.800513  0.492569  0.250000  1
  Sc  Sc19  1  0.300020  0.006067  0.250000  1
  Pb  Pb20  1  0.294191  0.041705  0.044397  1
  Pb  Pb21  1  0.795413  0.456696  0.456019  1
  Pb  Pb22  1  0.706713  0.959510  0.545030  1
  Pb  Pb23  1  0.204011  0.546706  0.960011  1
  Pb  Pb24  1  0.706713  0.959510  0.954970  1
  Pb  Pb25  1  0.204011  0.546706  0.539989  1
  Pb  Pb26  1  0.294191  0.041705  0.455603  1
  Pb  Pb27  1  0.795413  0.456696  0.043981  1
  Pb  Pb28  1  0.561814  0.631401  0.750000  1
  Pb  Pb29  1  0.062330  0.874401  0.750000  1
  Pb  Pb30  1  0.440776  0.366554  0.250000  1
  Pb  Pb31  1  0.939305  0.132235  0.250000  1
  Pb  Pb32  1  0.343963  0.145767  0.750000  1
  Pb  Pb33  1  0.829699  0.345664  0.750000  1
  Pb  Pb34  1  0.659049  0.847861  0.250000  1
  Pb  Pb35  1  0.159030  0.651186  0.250000  1
