# generated using pymatgen
data_Dy3Ho(Mn2Br)2
_symmetry_space_group_name_H-M   'P 1'
_cell_length_a   3.81947500
_cell_length_b   3.81947529
_cell_length_c   17.01050200
_cell_angle_alpha   90.00000000
_cell_angle_beta   90.00000000
_cell_angle_gamma   119.99998885
_symmetry_Int_Tables_number   1
_chemical_formula_structural   Dy3Ho(Mn2Br)2
_chemical_formula_sum   'Dy3 Ho1 Mn4 Br2'
_cell_volume   214.90928884
_cell_formula_units_Z   1
loop_
 _symmetry_equiv_pos_site_id
 _symmetry_equiv_pos_as_xyz
  1  'x, y, z'
loop_
 _atom_site_type_symbol
 _atom_site_label
 _atom_site_symmetry_multiplicity
 _atom_site_fract_x
 _atom_site_fract_y
 _atom_site_fract_z
 _atom_site_occupancy
  Dy  Dy0  1  0.000000  0.000000  0.114770  1
  Dy  Dy1  1  0.000000  0.000000  0.885233  1
  Dy  Dy2  1  0.000000  0.000000  0.614771  1
  Ho  Ho3  1  0.000000  0.000000  0.385546  1
  Mn  Mn4  1  0.333333  0.666667  0.510088  1
  Mn  Mn5  1  0.666667  0.333333  0.489447  1
  Mn  Mn6  1  0.666667  0.333333  0.010373  1
  Mn  Mn7  1  0.333333  0.666667  0.989644  1
  Br  Br8  1  0.333333  0.666667  0.250093  1
  Br  Br9  1  0.666667  0.333333  0.750035  1
