# generated using pymatgen
data_La3Yb9(LuSi2)8
_symmetry_space_group_name_H-M   'P 1'
_cell_length_a   7.34516923
_cell_length_b   7.80839429
_cell_length_c   14.90039765
_cell_angle_alpha   90.10360697
_cell_angle_beta   90.14790808
_cell_angle_gamma   89.97783228
_symmetry_Int_Tables_number   1
_chemical_formula_structural   La3Yb9(LuSi2)8
_chemical_formula_sum   'La3 Yb9 Lu8 Si16'
_cell_volume   854.59276326
_cell_formula_units_Z   1
loop_
 _symmetry_equiv_pos_site_id
 _symmetry_equiv_pos_as_xyz
  1  'x, y, z'
loop_
 _atom_site_type_symbol
 _atom_site_label
 _atom_site_symmetry_multiplicity
 _atom_site_fract_x
 _atom_site_fract_y
 _atom_site_fract_z
 _atom_site_occupancy
  La  La0  1  0.976057  0.818271  0.403840  1
  La  La1  1  0.474912  0.680761  0.095740  1
  La  La2  1  0.524584  0.318127  0.596585  1
  Yb  Yb3  1  0.022959  0.182581  0.904857  1
  Yb  Yb4  1  0.024603  0.180851  0.595277  1
  Yb  Yb5  1  0.524735  0.317892  0.903030  1
  Yb  Yb6  1  0.475713  0.680094  0.403707  1
  Yb  Yb7  1  0.975489  0.819865  0.095639  1
  Yb  Yb8  1  0.347578  0.019149  0.751303  1
  Yb  Yb9  1  0.852187  0.480956  0.752141  1
  Yb  Yb10  1  0.149766  0.516530  0.250454  1
  Yb  Yb11  1  0.650327  0.982970  0.249530  1
  Lu  Lu12  1  0.316656  0.178086  0.121056  1
  Lu  Lu13  1  0.817153  0.320817  0.378291  1
  Lu  Lu14  1  0.183032  0.678201  0.878702  1
  Lu  Lu15  1  0.683522  0.821672  0.622094  1
  Lu  Lu16  1  0.315167  0.178701  0.377065  1
  Lu  Lu17  1  0.815719  0.321045  0.121540  1
  Lu  Lu18  1  0.183641  0.679304  0.623036  1
  Lu  Lu19  1  0.686132  0.824163  0.877720  1
  Si  Si20  1  0.854739  0.531407  0.537248  1
  Si  Si21  1  0.353822  0.968287  0.962014  1
  Si  Si22  1  0.644655  0.030080  0.462627  1
  Si  Si23  1  0.144142  0.468101  0.037666  1
  Si  Si24  1  0.148466  0.467121  0.463604  1
  Si  Si25  1  0.644670  0.032098  0.037436  1
  Si  Si26  1  0.351943  0.966453  0.536399  1
  Si  Si27  1  0.851766  0.534316  0.963143  1
  Si  Si28  1  0.974530  0.879498  0.750192  1
  Si  Si29  1  0.476560  0.619603  0.749958  1
  Si  Si30  1  0.525922  0.379546  0.249640  1
  Si  Si31  1  0.025768  0.120700  0.249410  1
  Si  Si32  1  0.246411  0.397665  0.750904  1
  Si  Si33  1  0.745703  0.105604  0.748563  1
  Si  Si34  1  0.255315  0.894876  0.247817  1
  Si  Si35  1  0.755656  0.604609  0.251772  1
