# generated using pymatgen
data_GaH4Br4N
_symmetry_space_group_name_H-M   'P 1'
_cell_length_a   9.75693318
_cell_length_b   9.75693376
_cell_length_c   9.75693329
_cell_angle_alpha   135.15276250
_cell_angle_beta   135.15276717
_cell_angle_gamma   65.29293455
_symmetry_Int_Tables_number   1
_chemical_formula_structural   GaH4Br4N
_chemical_formula_sum   'Ga2 H8 Br8 N2'
_cell_volume   455.19602688
_cell_formula_units_Z   2
loop_
 _symmetry_equiv_pos_site_id
 _symmetry_equiv_pos_as_xyz
  1  'x, y, z'
loop_
 _atom_site_type_symbol
 _atom_site_label
 _atom_site_symmetry_multiplicity
 _atom_site_fract_x
 _atom_site_fract_y
 _atom_site_fract_z
 _atom_site_occupancy
  Ga  Ga0  1  0.500000  0.500000  0.000000  1
  Ga  Ga1  1  0.250000  0.750000  0.500000  1
  H  H2  1  0.899785  0.286402  0.612861  1
  H  H3  1  0.713076  0.100215  0.386616  1
  H  H4  1  0.713598  0.326460  0.613384  1
  H  H5  1  0.076460  0.963076  0.112861  1
  H  H6  1  0.673540  0.286924  0.387139  1
  H  H7  1  0.036402  0.923540  0.886616  1
  H  H8  1  0.036924  0.149785  0.113384  1
  H  H9  1  0.850215  0.963598  0.887139  1
  Br  Br10  1  0.714093  0.352278  0.905022  1
  Br  Br11  1  0.102278  0.697257  0.138185  1
  Br  Br12  1  0.190929  0.285907  0.638185  1
  Br  Br13  1  0.447257  0.809071  0.094978  1
  Br  Br14  1  0.302743  0.440929  0.405022  1
  Br  Br15  1  0.559071  0.964093  0.861815  1
  Br  Br16  1  0.647722  0.552743  0.361815  1
  Br  Br17  1  0.035907  0.897722  0.594978  1
  N  N18  1  0.750000  0.250000  0.500000  1
  N  N19  1  0.000000  0.000000  0.000000  1
