# generated using pymatgen
data_Tb4Ho2Al24PdRu7
_symmetry_space_group_name_H-M   'P 1'
_cell_length_a   8.82882802
_cell_length_b   8.82882847
_cell_length_c   9.57528782
_cell_angle_alpha   89.82973544
_cell_angle_beta   90.17026532
_cell_angle_gamma   119.74283596
_symmetry_Int_Tables_number   1
_chemical_formula_structural   Tb4Ho2Al24PdRu7
_chemical_formula_sum   'Tb4 Ho2 Al24 Pd1 Ru7'
_cell_volume   648.04569594
_cell_formula_units_Z   1
loop_
 _symmetry_equiv_pos_site_id
 _symmetry_equiv_pos_as_xyz
  1  'x, y, z'
loop_
 _atom_site_type_symbol
 _atom_site_label
 _atom_site_symmetry_multiplicity
 _atom_site_fract_x
 _atom_site_fract_y
 _atom_site_fract_z
 _atom_site_occupancy
  Tb  Tb0  1  0.191332  0.386369  0.250812  1
  Tb  Tb1  1  0.808668  0.613631  0.749188  1
  Tb  Tb2  1  0.613631  0.808668  0.250812  1
  Tb  Tb3  1  0.386369  0.191332  0.749188  1
  Ho  Ho4  1  0.194221  0.805779  0.251948  1
  Ho  Ho5  1  0.805779  0.194221  0.748052  1
  Al  Al6  1  0.330157  0.669843  0.019553  1
  Al  Al7  1  0.669843  0.330157  0.980447  1
  Al  Al8  1  0.666916  0.333084  0.516078  1
  Al  Al9  1  0.333084  0.666916  0.483922  1
  Al  Al10  1  0.162661  0.324095  0.578563  1
  Al  Al11  1  0.837339  0.675905  0.421437  1
  Al  Al12  1  0.675905  0.837339  0.578563  1
  Al  Al13  1  0.843985  0.677314  0.079319  1
  Al  Al14  1  0.324095  0.162661  0.421437  1
  Al  Al15  1  0.156015  0.322686  0.920681  1
  Al  Al16  1  0.162708  0.837292  0.578342  1
  Al  Al17  1  0.322686  0.156015  0.079319  1
  Al  Al18  1  0.837292  0.162708  0.421658  1
  Al  Al19  1  0.677314  0.843985  0.920681  1
  Al  Al20  1  0.837353  0.162647  0.077635  1
  Al  Al21  1  0.162647  0.837353  0.922365  1
  Al  Al22  1  0.560508  0.122010  0.248968  1
  Al  Al23  1  0.439492  0.877990  0.751032  1
  Al  Al24  1  0.877990  0.439492  0.248968  1
  Al  Al25  1  0.122010  0.560508  0.751032  1
  Al  Al26  1  0.561990  0.438010  0.252327  1
  Al  Al27  1  0.438010  0.561990  0.747673  1
  Al  Al28  1  0.999517  0.000483  0.250082  1
  Al  Al29  1  0.000483  0.999517  0.749918  1
  Pd  Pd30  1  0.500000  0.500000  0.000000  1
  Ru  Ru31  1  0.500000  0.000000  0.000000  1
  Ru  Ru32  1  0.000000  0.500000  0.000000  1
  Ru  Ru33  1  0.500000  0.000000  0.500000  1
  Ru  Ru34  1  0.000000  0.500000  0.500000  1
  Ru  Ru35  1  0.500000  0.500000  0.500000  1
  Ru  Ru36  1  0.000000  0.000000  0.000000  1
  Ru  Ru37  1  0.000000  0.000000  0.500000  1
