# generated using pymatgen
data_Hf4Al7Cu
_symmetry_space_group_name_H-M   'P 1'
_cell_length_a   5.26462700
_cell_length_b   5.20323009
_cell_length_c   8.61222000
_cell_angle_alpha   90.00000000
_cell_angle_beta   90.00000000
_cell_angle_gamma   120.39110051
_symmetry_Int_Tables_number   1
_chemical_formula_structural   Hf4Al7Cu
_chemical_formula_sum   'Hf4 Al7 Cu1'
_cell_volume   203.49854570
_cell_formula_units_Z   1
loop_
 _symmetry_equiv_pos_site_id
 _symmetry_equiv_pos_as_xyz
  1  'x, y, z'
loop_
 _atom_site_type_symbol
 _atom_site_label
 _atom_site_symmetry_multiplicity
 _atom_site_fract_x
 _atom_site_fract_y
 _atom_site_fract_z
 _atom_site_occupancy
  Hf  Hf0  1  0.335277  0.670554  0.433667  1
  Hf  Hf1  1  0.665447  0.330893  0.933675  1
  Hf  Hf2  1  0.665447  0.330893  0.566325  1
  Hf  Hf3  1  0.335277  0.670554  0.066333  1
  Al  Al4  1  0.830929  0.172824  0.250000  1
  Al  Al5  1  0.341894  0.172824  0.250000  1
  Al  Al6  1  0.646955  0.813599  0.750000  1
  Al  Al7  1  0.006964  0.013929  0.991307  1
  Al  Al8  1  0.006964  0.013929  0.508693  1
  Al  Al9  1  0.831568  0.663135  0.250000  1
  Al  Al10  1  0.166646  0.813599  0.750000  1
  Cu  Cu11  1  0.166632  0.333262  0.750000  1
