# generated using pymatgen
data_Ca3Al12Os3Pt
_symmetry_space_group_name_H-M   'P 1'
_cell_length_a   8.85205300
_cell_length_b   8.85205383
_cell_length_c   9.68187100
_cell_angle_alpha   90.00000000
_cell_angle_beta   90.00000000
_cell_angle_gamma   119.90207339
_symmetry_Int_Tables_number   1
_chemical_formula_structural   Ca3Al12Os3Pt
_chemical_formula_sum   'Ca6 Al24 Os6 Pt2'
_cell_volume   657.66643934
_cell_formula_units_Z   2
loop_
 _symmetry_equiv_pos_site_id
 _symmetry_equiv_pos_as_xyz
  1  'x, y, z'
loop_
 _atom_site_type_symbol
 _atom_site_label
 _atom_site_symmetry_multiplicity
 _atom_site_fract_x
 _atom_site_fract_y
 _atom_site_fract_z
 _atom_site_occupancy
  Ca  Ca0  1  0.189047  0.386037  0.250000  1
  Ca  Ca1  1  0.810953  0.613963  0.750000  1
  Ca  Ca2  1  0.613963  0.810953  0.250000  1
  Ca  Ca3  1  0.386037  0.189047  0.750000  1
  Ca  Ca4  1  0.195538  0.804462  0.250000  1
  Ca  Ca5  1  0.804462  0.195538  0.750000  1
  Al  Al6  1  0.331309  0.668691  0.006208  1
  Al  Al7  1  0.668691  0.331309  0.993792  1
  Al  Al8  1  0.668691  0.331309  0.506208  1
  Al  Al9  1  0.331309  0.668691  0.493792  1
  Al  Al10  1  0.157865  0.323060  0.576939  1
  Al  Al11  1  0.842135  0.676940  0.423061  1
  Al  Al12  1  0.676940  0.842135  0.576939  1
  Al  Al13  1  0.842135  0.676940  0.076939  1
  Al  Al14  1  0.323060  0.157865  0.423061  1
  Al  Al15  1  0.157865  0.323060  0.923061  1
  Al  Al16  1  0.162533  0.837467  0.573475  1
  Al  Al17  1  0.323060  0.157865  0.076939  1
  Al  Al18  1  0.837467  0.162533  0.426525  1
  Al  Al19  1  0.676940  0.842135  0.923061  1
  Al  Al20  1  0.837467  0.162533  0.073475  1
  Al  Al21  1  0.162533  0.837467  0.926525  1
  Al  Al22  1  0.560563  0.123783  0.250000  1
  Al  Al23  1  0.439437  0.876217  0.750000  1
  Al  Al24  1  0.876217  0.439437  0.250000  1
  Al  Al25  1  0.123783  0.560563  0.750000  1
  Al  Al26  1  0.563619  0.436381  0.250000  1
  Al  Al27  1  0.436381  0.563619  0.750000  1
  Al  Al28  1  0.000888  0.999112  0.250000  1
  Al  Al29  1  0.999112  0.000888  0.750000  1
  Os  Os30  1  0.500000  0.000000  0.000000  1
  Os  Os31  1  0.000000  0.500000  0.000000  1
  Os  Os32  1  0.500000  0.000000  0.500000  1
  Os  Os33  1  0.000000  0.500000  0.500000  1
  Os  Os34  1  0.000000  0.000000  0.000000  1
  Os  Os35  1  0.000000  0.000000  0.500000  1
  Pt  Pt36  1  0.500000  0.500000  0.000000  1
  Pt  Pt37  1  0.500000  0.500000  0.500000  1
