# generated using pymatgen
data_Zr10Ge5AsN2
_symmetry_space_group_name_H-M   'P 1'
_cell_length_a   8.02100300
_cell_length_b   8.02437411
_cell_length_c   5.67664300
_cell_angle_alpha   90.00000000
_cell_angle_beta   90.00000000
_cell_angle_gamma   119.98609977
_symmetry_Int_Tables_number   1
_chemical_formula_structural   Zr10Ge5AsN2
_chemical_formula_sum   'Zr10 Ge5 As1 N2'
_cell_volume   316.46295193
_cell_formula_units_Z   1
loop_
 _symmetry_equiv_pos_site_id
 _symmetry_equiv_pos_as_xyz
  1  'x, y, z'
loop_
 _atom_site_type_symbol
 _atom_site_label
 _atom_site_symmetry_multiplicity
 _atom_site_fract_x
 _atom_site_fract_y
 _atom_site_fract_z
 _atom_site_occupancy
  Zr  Zr0  1  0.231813  0.000000  0.750000  1
  Zr  Zr1  1  0.767972  0.000000  0.250000  1
  Zr  Zr2  1  0.000537  0.233653  0.750000  1
  Zr  Zr3  1  0.000164  0.767116  0.250000  1
  Zr  Zr4  1  0.766885  0.766347  0.750000  1
  Zr  Zr5  1  0.233048  0.232884  0.250000  1
  Zr  Zr6  1  0.334148  0.667472  0.499674  1
  Zr  Zr7  1  0.666677  0.332528  0.499674  1
  Zr  Zr8  1  0.666677  0.332528  0.000326  1
  Zr  Zr9  1  0.334148  0.667472  0.000326  1
  Ge  Ge10  1  0.402404  0.000000  0.250000  1
  Ge  Ge11  1  0.000102  0.595578  0.750000  1
  Ge  Ge12  1  0.000691  0.404792  0.250000  1
  Ge  Ge13  1  0.404524  0.404422  0.750000  1
  Ge  Ge14  1  0.595899  0.595208  0.250000  1
  As  As15  1  0.596200  0.000000  0.750000  1
  N  N16  1  0.999056  0.000000  0.500289  1
  N  N17  1  0.999056  0.000000  0.999711  1
