# generated using pymatgen
data_LiLu3Al2Ge2Pt
_symmetry_space_group_name_H-M   'P 1'
_cell_length_a   6.88836800
_cell_length_b   6.81137993
_cell_length_c   4.24335400
_cell_angle_alpha   90.00000000
_cell_angle_beta   90.00000000
_cell_angle_gamma   120.37459550
_symmetry_Int_Tables_number   1
_chemical_formula_structural   LiLu3Al2Ge2Pt
_chemical_formula_sum   'Li1 Lu3 Al2 Ge2 Pt1'
_cell_volume   171.76695442
_cell_formula_units_Z   1
loop_
 _symmetry_equiv_pos_site_id
 _symmetry_equiv_pos_as_xyz
  1  'x, y, z'
loop_
 _atom_site_type_symbol
 _atom_site_label
 _atom_site_symmetry_multiplicity
 _atom_site_fract_x
 _atom_site_fract_y
 _atom_site_fract_z
 _atom_site_occupancy
  Li  Li0  1  0.761272  0.000000  0.500001  1
  Lu  Lu1  1  0.421148  0.000000  0.000000  1
  Lu  Lu2  1  0.996589  0.411653  0.000000  1
  Lu  Lu3  1  0.584935  0.588346  0.000000  1
  Al  Al4  1  0.228931  0.233231  0.500001  1
  Al  Al5  1  0.995700  0.766768  0.500001  1
  Ge  Ge6  1  0.665007  0.334775  0.500001  1
  Ge  Ge7  1  0.330233  0.665226  0.500001  1
  Pt  Pt8  1  0.016186  0.000000  0.000000  1
