# generated using pymatgen
data_La3Pr13(YSi4)4
_symmetry_space_group_name_H-M   'P 1'
_cell_length_a   7.86053441
_cell_length_b   7.85963714
_cell_length_c   15.39067458
_cell_angle_alpha   90.00738069
_cell_angle_beta   89.96947648
_cell_angle_gamma   90.02073221
_symmetry_Int_Tables_number   1
_chemical_formula_structural   La3Pr13(YSi4)4
_chemical_formula_sum   'La3 Pr13 Y4 Si16'
_cell_volume   950.85026394
_cell_formula_units_Z   1
loop_
 _symmetry_equiv_pos_site_id
 _symmetry_equiv_pos_as_xyz
  1  'x, y, z'
loop_
 _atom_site_type_symbol
 _atom_site_label
 _atom_site_symmetry_multiplicity
 _atom_site_fract_x
 _atom_site_fract_y
 _atom_site_fract_z
 _atom_site_occupancy
  La  La0  1  0.377097  0.013822  0.445700  1
  La  La1  1  0.486231  0.877048  0.695851  1
  La  La2  1  0.514083  0.122936  0.195430  1
  Pr  Pr3  1  0.878900  0.486913  0.304801  1
  Pr  Pr4  1  0.121224  0.512832  0.804911  1
  Pr  Pr5  1  0.621876  0.987086  0.945366  1
  Pr  Pr6  1  0.013028  0.378924  0.554919  1
  Pr  Pr7  1  0.986593  0.621413  0.054677  1
  Pr  Pr8  1  0.124835  0.975970  0.878786  1
  Pr  Pr9  1  0.524402  0.625298  0.128413  1
  Pr  Pr10  1  0.476030  0.374886  0.628688  1
  Pr  Pr11  1  0.625462  0.524559  0.871408  1
  Pr  Pr12  1  0.374799  0.475805  0.371248  1
  Pr  Pr13  1  0.874956  0.023966  0.378633  1
  Pr  Pr14  1  0.975620  0.124932  0.121104  1
  Pr  Pr15  1  0.024174  0.874756  0.621339  1
  Y  Y16  1  0.309506  0.309873  0.000015  1
  Y  Y17  1  0.189771  0.809150  0.250034  1
  Y  Y18  1  0.809940  0.190738  0.750161  1
  Y  Y19  1  0.690907  0.689696  0.500007  1
  Si  Si20  1  0.187906  0.172157  0.708816  1
  Si  Si21  1  0.328117  0.688055  0.958618  1
  Si  Si22  1  0.672375  0.312183  0.458734  1
  Si  Si23  1  0.688317  0.328478  0.040779  1
  Si  Si24  1  0.311335  0.670816  0.540943  1
  Si  Si25  1  0.812497  0.827491  0.208888  1
  Si  Si26  1  0.170762  0.188715  0.290912  1
  Si  Si27  1  0.828994  0.811741  0.791362  1
  Si  Si28  1  0.286590  0.920658  0.063333  1
  Si  Si29  1  0.579473  0.786053  0.313497  1
  Si  Si30  1  0.420864  0.213680  0.813694  1
  Si  Si31  1  0.787136  0.578534  0.686466  1
  Si  Si32  1  0.212620  0.421534  0.186304  1
  Si  Si33  1  0.713785  0.079636  0.563506  1
  Si  Si34  1  0.921241  0.286907  0.936344  1
  Si  Si35  1  0.078553  0.712757  0.436317  1
