# generated using pymatgen
data_CsTbDy2CBr6
_symmetry_space_group_name_H-M   'P 1'
_cell_length_a   8.84957324
_cell_length_b   8.88285522
_cell_length_c   9.47716346
_cell_angle_alpha   71.00861202
_cell_angle_beta   84.91397903
_cell_angle_gamma   89.20160692
_symmetry_Int_Tables_number   1
_chemical_formula_structural   CsTbDy2CBr6
_chemical_formula_sum   'Cs2 Tb2 Dy4 C2 Br12'
_cell_volume   701.58136129
_cell_formula_units_Z   2
loop_
 _symmetry_equiv_pos_site_id
 _symmetry_equiv_pos_as_xyz
  1  'x, y, z'
loop_
 _atom_site_type_symbol
 _atom_site_label
 _atom_site_symmetry_multiplicity
 _atom_site_fract_x
 _atom_site_fract_y
 _atom_site_fract_z
 _atom_site_occupancy
  Cs  Cs0  1  0.467154  0.365694  0.330474  1
  Cs  Cs1  1  0.532847  0.634306  0.669526  1
  Tb  Tb2  1  0.915588  0.744337  0.004505  1
  Tb  Tb3  1  0.084412  0.255663  0.995494  1
  Dy  Dy4  1  0.744675  0.085827  0.001039  1
  Dy  Dy5  1  0.255324  0.914173  0.998962  1
  Dy  Dy6  1  0.973386  0.887076  0.323488  1
  Dy  Dy7  1  0.026613  0.112924  0.676513  1
  C  C8  1  0.006375  0.026764  0.920622  1
  C  C9  1  0.993624  0.973236  0.079378  1
  Br  Br10  1  0.074602  0.195477  0.328268  1
  Br  Br11  1  0.925398  0.804523  0.671732  1
  Br  Br12  1  0.204304  0.594163  0.000964  1
  Br  Br13  1  0.795697  0.405837  0.999036  1
  Br  Br14  1  0.403123  0.198307  0.001721  1
  Br  Br15  1  0.596876  0.801694  0.998278  1
  Br  Br16  1  0.668323  0.000910  0.324300  1
  Br  Br17  1  0.331677  0.999090  0.675700  1
  Br  Br18  1  0.279208  0.777560  0.320810  1
  Br  Br19  1  0.720792  0.222440  0.679190  1
  Br  Br20  1  0.853031  0.591077  0.326512  1
  Br  Br21  1  0.146968  0.408923  0.673488  1
