# generated using pymatgen
data_DyUS6
_symmetry_space_group_name_H-M   'P 1'
_cell_length_a   3.94380600
_cell_length_b   5.38853586
_cell_length_c   9.46758247
_cell_angle_alpha   82.72826209
_cell_angle_beta   90.00000000
_cell_angle_gamma   90.00000000
_symmetry_Int_Tables_number   1
_chemical_formula_structural   DyUS6
_chemical_formula_sum   'Dy1 U1 S6'
_cell_volume   199.58057207
_cell_formula_units_Z   1
loop_
 _symmetry_equiv_pos_site_id
 _symmetry_equiv_pos_as_xyz
  1  'x, y, z'
loop_
 _atom_site_type_symbol
 _atom_site_label
 _atom_site_symmetry_multiplicity
 _atom_site_fract_x
 _atom_site_fract_y
 _atom_site_fract_z
 _atom_site_occupancy
  Dy  Dy0  1  0.250000  0.717391  0.146651  1
  U  U1  1  0.750000  0.279884  0.865281  1
  S  S2  1  0.250000  0.128654  0.691344  1
  S  S3  1  0.750000  0.873681  0.314343  1
  S  S4  1  0.750000  0.486059  0.314214  1
  S  S5  1  0.250000  0.509118  0.691692  1
  S  S6  1  0.750000  0.767186  0.922802  1
  S  S7  1  0.250000  0.238028  0.053672  1
