# generated using pymatgen
data_Hf3Zn5Co
_symmetry_space_group_name_H-M   'P 1'
_cell_length_a   7.17514000
_cell_length_b   7.17513955
_cell_length_c   6.59115600
_cell_angle_alpha   90.00000000
_cell_angle_beta   90.00000000
_cell_angle_gamma   120.00000206
_symmetry_Int_Tables_number   1
_chemical_formula_structural   Hf3Zn5Co
_chemical_formula_sum   'Hf6 Zn10 Co2'
_cell_volume   293.86843833
_cell_formula_units_Z   2
loop_
 _symmetry_equiv_pos_site_id
 _symmetry_equiv_pos_as_xyz
  1  'x, y, z'
loop_
 _atom_site_type_symbol
 _atom_site_label
 _atom_site_symmetry_multiplicity
 _atom_site_fract_x
 _atom_site_fract_y
 _atom_site_fract_z
 _atom_site_occupancy
  Hf  Hf0  1  0.748920  0.048626  0.000000  1
  Hf  Hf1  1  0.299705  0.251080  0.000000  1
  Hf  Hf2  1  0.951374  0.700295  0.000000  1
  Hf  Hf3  1  0.306474  0.254622  0.500000  1
  Hf  Hf4  1  0.745378  0.051852  0.500000  1
  Hf  Hf5  1  0.948148  0.693526  0.500000  1
  Zn  Zn6  1  0.601372  0.655534  0.749932  1
  Zn  Zn7  1  0.054163  0.398628  0.749932  1
  Zn  Zn8  1  0.344466  0.945837  0.749932  1
  Zn  Zn9  1  0.601372  0.655534  0.250068  1
  Zn  Zn10  1  0.054163  0.398628  0.250068  1
  Zn  Zn11  1  0.344466  0.945837  0.250068  1
  Zn  Zn12  1  0.333333  0.666667  0.000000  1
  Zn  Zn13  1  0.333333  0.666667  0.500000  1
  Zn  Zn14  1  0.666667  0.333333  0.757325  1
  Zn  Zn15  1  0.666667  0.333333  0.242675  1
  Co  Co16  1  0.000000  0.000000  0.254883  1
  Co  Co17  1  0.000000  0.000000  0.745117  1
