# generated using pymatgen
data_CeTh(Ni2B)12
_symmetry_space_group_name_H-M   'P 1'
_cell_length_a   6.04690814
_cell_length_b   6.04690820
_cell_length_c   11.00847553
_cell_angle_alpha   89.97830969
_cell_angle_beta   89.97830986
_cell_angle_gamma   104.79454159
_symmetry_Int_Tables_number   1
_chemical_formula_structural   CeTh(Ni2B)12
_chemical_formula_sum   'Ce1 Th1 Ni24 B12'
_cell_volume   389.18126177
_cell_formula_units_Z   1
loop_
 _symmetry_equiv_pos_site_id
 _symmetry_equiv_pos_as_xyz
  1  'x, y, z'
loop_
 _atom_site_type_symbol
 _atom_site_label
 _atom_site_symmetry_multiplicity
 _atom_site_fract_x
 _atom_site_fract_y
 _atom_site_fract_z
 _atom_site_occupancy
  Ce  Ce0  1  0.167900  0.167900  0.996343  1
  Th  Th1  1  0.832628  0.832628  0.496673  1
  Ni  Ni2  1  0.146001  0.879448  0.755476  1
  Ni  Ni3  1  0.120957  0.853774  0.255230  1
  Ni  Ni4  1  0.342339  0.730174  0.067739  1
  Ni  Ni5  1  0.657538  0.269887  0.567866  1
  Ni  Ni6  1  0.269887  0.657538  0.567866  1
  Ni  Ni7  1  0.879448  0.146001  0.755476  1
  Ni  Ni8  1  0.629987  0.994650  0.937240  1
  Ni  Ni9  1  0.369789  0.005655  0.437199  1
  Ni  Ni10  1  0.005655  0.369789  0.437199  1
  Ni  Ni11  1  0.994650  0.629987  0.937240  1
  Ni  Ni12  1  0.527155  0.788452  0.276112  1
  Ni  Ni13  1  0.472283  0.211384  0.776444  1
  Ni  Ni14  1  0.211384  0.472283  0.776444  1
  Ni  Ni15  1  0.788452  0.527155  0.276112  1
  Ni  Ni16  1  0.196476  0.458159  0.233992  1
  Ni  Ni17  1  0.803592  0.541656  0.734378  1
  Ni  Ni18  1  0.541656  0.803592  0.734378  1
  Ni  Ni19  1  0.458159  0.196476  0.233992  1
  Ni  Ni20  1  0.219733  0.219733  0.598269  1
  Ni  Ni21  1  0.780466  0.780466  0.097917  1
  Ni  Ni22  1  0.435582  0.435582  0.418841  1
  Ni  Ni23  1  0.564132  0.564132  0.919013  1
  Ni  Ni24  1  0.730174  0.342339  0.067739  1
  Ni  Ni25  1  0.853774  0.120957  0.255230  1
  B  B26  1  0.013465  0.601380  0.122540  1
  B  B27  1  0.986613  0.398926  0.622900  1
  B  B28  1  0.245340  0.675253  0.385574  1
  B  B29  1  0.754480  0.324577  0.885778  1
  B  B30  1  0.324577  0.754480  0.885778  1
  B  B31  1  0.675253  0.245340  0.385574  1
  B  B32  1  0.487356  0.487356  0.656109  1
  B  B33  1  0.512803  0.512803  0.155385  1
  B  B34  1  0.836603  0.836603  0.835754  1
  B  B35  1  0.163406  0.163406  0.334770  1
  B  B36  1  0.398926  0.986613  0.622900  1
  B  B37  1  0.601380  0.013465  0.122540  1
