# generated using pymatgen
data_Hf8PdRh3O2
_symmetry_space_group_name_H-M   'P 1'
_cell_length_a   8.74777012
_cell_length_b   8.74777020
_cell_length_c   8.73958600
_cell_angle_alpha   60.03094379
_cell_angle_beta   60.03094347
_cell_angle_gamma   60.11952233
_symmetry_Int_Tables_number   1
_chemical_formula_structural   Hf8PdRh3O2
_chemical_formula_sum   'Hf16 Pd2 Rh6 O4'
_cell_volume   473.54873779
_cell_formula_units_Z   2
loop_
 _symmetry_equiv_pos_site_id
 _symmetry_equiv_pos_as_xyz
  1  'x, y, z'
loop_
 _atom_site_type_symbol
 _atom_site_label
 _atom_site_symmetry_multiplicity
 _atom_site_fract_x
 _atom_site_fract_y
 _atom_site_fract_z
 _atom_site_occupancy
  Hf  Hf0  1  0.120391  0.624415  0.627597  1
  Hf  Hf1  1  0.624415  0.120391  0.627597  1
  Hf  Hf2  1  0.627543  0.627543  0.114599  1
  Hf  Hf3  1  0.627543  0.627543  0.630315  1
  Hf  Hf4  1  0.817087  0.817087  0.182913  1
  Hf  Hf5  1  0.184183  0.184183  0.815817  1
  Hf  Hf6  1  0.816018  0.183732  0.816429  1
  Hf  Hf7  1  0.183732  0.816018  0.183821  1
  Hf  Hf8  1  0.183732  0.816018  0.816429  1
  Hf  Hf9  1  0.816018  0.183732  0.183821  1
  Hf  Hf10  1  0.434338  0.434338  0.065662  1
  Hf  Hf11  1  0.064708  0.064708  0.435292  1
  Hf  Hf12  1  0.434681  0.068172  0.434506  1
  Hf  Hf13  1  0.068172  0.434681  0.062642  1
  Hf  Hf14  1  0.068172  0.434681  0.434506  1
  Hf  Hf15  1  0.434681  0.068172  0.062642  1
  Pd  Pd16  1  0.775394  0.409000  0.407802  1
  Pd  Pd17  1  0.409000  0.775394  0.407802  1
  Rh  Rh18  1  0.404775  0.404775  0.785349  1
  Rh  Rh19  1  0.404775  0.404775  0.405100  1
  Rh  Rh20  1  0.462111  0.847060  0.845415  1
  Rh  Rh21  1  0.847060  0.462111  0.845415  1
  Rh  Rh22  1  0.846282  0.846282  0.463319  1
  Rh  Rh23  1  0.846282  0.846282  0.844117  1
  O  O24  1  0.624318  0.124785  0.125448  1
  O  O25  1  0.124785  0.624318  0.125448  1
  O  O26  1  0.124902  0.124902  0.624553  1
  O  O27  1  0.124902  0.124902  0.125643  1
