# generated using pymatgen
data_Rh3OF8
_symmetry_space_group_name_H-M   'P 1'
_cell_length_a   5.05808126
_cell_length_b   5.02454521
_cell_length_c   13.72117694
_cell_angle_alpha   89.97492830
_cell_angle_beta   90.38437304
_cell_angle_gamma   60.22961528
_symmetry_Int_Tables_number   1
_chemical_formula_structural   Rh3OF8
_chemical_formula_sum   'Rh6 O2 F16'
_cell_volume   302.68500041
_cell_formula_units_Z   2
loop_
 _symmetry_equiv_pos_site_id
 _symmetry_equiv_pos_as_xyz
  1  'x, y, z'
loop_
 _atom_site_type_symbol
 _atom_site_label
 _atom_site_symmetry_multiplicity
 _atom_site_fract_x
 _atom_site_fract_y
 _atom_site_fract_z
 _atom_site_occupancy
  Rh  Rh0  1  0.008685  0.973610  0.004443  1
  Rh  Rh1  1  0.008537  0.017750  0.504482  1
  Rh  Rh2  1  0.319431  0.319857  0.662197  1
  Rh  Rh3  1  0.320513  0.360328  0.162086  1
  Rh  Rh4  1  0.667868  0.651221  0.833330  1
  Rh  Rh5  1  0.668752  0.680325  0.333295  1
  O  O6  1  0.012891  0.321788  0.583469  1
  O  O7  1  0.013118  0.665640  0.083669  1
  F  F8  1  0.997047  0.364610  0.249569  1
  F  F9  1  0.322287  0.016930  0.083635  1
  F  F10  1  0.340387  0.985283  0.748944  1
  F  F11  1  0.322120  0.661334  0.583913  1
  F  F12  1  0.647472  0.017482  0.250649  1
  F  F13  1  0.673673  0.009939  0.582867  1
  F  F14  1  0.337483  0.660374  0.918104  1
  F  F15  1  0.342190  0.673641  0.248580  1
  F  F16  1  0.645750  0.335778  0.750916  1
  F  F17  1  0.673912  0.316798  0.082588  1
  F  F18  1  0.337495  0.001327  0.417856  1
  F  F19  1  0.686090  0.344079  0.417415  1
  F  F20  1  0.986599  0.318973  0.915483  1
  F  F21  1  0.686022  0.969415  0.917454  1
  F  F22  1  0.994979  0.639483  0.749208  1
  F  F23  1  0.986698  0.694034  0.415847  1
