# generated using pymatgen
data_Tb5YNbCo17P12
_symmetry_space_group_name_H-M   'P 1'
_cell_length_a   3.71228400
_cell_length_b   10.59086900
_cell_length_c   12.30029700
_cell_angle_alpha   89.99752674
_cell_angle_beta   90.00000000
_cell_angle_gamma   90.00000000
_symmetry_Int_Tables_number   1
_chemical_formula_structural   Tb5YNbCo17P12
_chemical_formula_sum   'Tb5 Y1 Nb1 Co17 P12'
_cell_volume   483.60233320
_cell_formula_units_Z   1
loop_
 _symmetry_equiv_pos_site_id
 _symmetry_equiv_pos_as_xyz
  1  'x, y, z'
loop_
 _atom_site_type_symbol
 _atom_site_label
 _atom_site_symmetry_multiplicity
 _atom_site_fract_x
 _atom_site_fract_y
 _atom_site_fract_z
 _atom_site_occupancy
  Tb  Tb0  1  0.000000  0.500042  0.526562  1
  Tb  Tb1  1  0.500000  0.999968  0.478080  1
  Tb  Tb2  1  0.500000  0.180325  0.207088  1
  Tb  Tb3  1  0.000000  0.682966  0.795756  1
  Tb  Tb4  1  0.000000  0.317049  0.795770  1
  Y  Y5  1  0.500000  0.819418  0.206937  1
  Nb  Nb6  1  0.500000  0.500062  0.154372  1
  Co  Co7  1  0.000000  0.999998  0.839276  1
  Co  Co8  1  0.500000  0.500020  0.702150  1
  Co  Co9  1  0.000000  0.999957  0.296494  1
  Co  Co10  1  0.000000  0.500062  0.984413  1
  Co  Co11  1  0.500000  0.999938  0.014165  1
  Co  Co12  1  0.500000  0.329795  0.989788  1
  Co  Co13  1  0.500000  0.670310  0.989806  1
  Co  Co14  1  0.000000  0.163650  0.003985  1
  Co  Co15  1  0.000000  0.836265  0.004072  1
  Co  Co16  1  0.500000  0.295257  0.432606  1
  Co  Co17  1  0.500000  0.704752  0.432571  1
  Co  Co18  1  0.000000  0.202603  0.569682  1
  Co  Co19  1  0.000000  0.797385  0.569630  1
  Co  Co20  1  0.500000  0.879952  0.708588  1
  Co  Co21  1  0.500000  0.120034  0.708590  1
  Co  Co22  1  0.000000  0.622587  0.294257  1
  Co  Co23  1  0.000000  0.377533  0.294326  1
  P  P24  1  0.500000  0.499995  0.881414  1
  P  P25  1  0.000000  0.999908  0.116741  1
  P  P26  1  0.500000  0.499957  0.355014  1
  P  P27  1  0.000000  0.000000  0.656561  1
  P  P28  1  0.500000  0.309144  0.616832  1
  P  P29  1  0.500000  0.690877  0.616795  1
  P  P30  1  0.000000  0.188811  0.385896  1
  P  P31  1  0.000000  0.811280  0.385720  1
  P  P32  1  0.500000  0.851382  0.890488  1
  P  P33  1  0.500000  0.148631  0.890525  1
  P  P34  1  0.000000  0.660827  0.102597  1
  P  P35  1  0.000000  0.339258  0.102456  1
