# generated using pymatgen
data_Zn5Ga(FeRh2)6
_symmetry_space_group_name_H-M   'P 1'
_cell_length_a   4.25543300
_cell_length_b   6.06643500
_cell_length_c   12.76851000
_cell_angle_alpha   90.00000000
_cell_angle_beta   89.99741959
_cell_angle_gamma   90.00000000
_symmetry_Int_Tables_number   1
_chemical_formula_structural   Zn5Ga(FeRh2)6
_chemical_formula_sum   'Zn5 Ga1 Fe6 Rh12'
_cell_volume   329.62301424
_cell_formula_units_Z   1
loop_
 _symmetry_equiv_pos_site_id
 _symmetry_equiv_pos_as_xyz
  1  'x, y, z'
loop_
 _atom_site_type_symbol
 _atom_site_label
 _atom_site_symmetry_multiplicity
 _atom_site_fract_x
 _atom_site_fract_y
 _atom_site_fract_z
 _atom_site_occupancy
  Zn  Zn0  1  0.499877  0.000000  0.166340  1
  Zn  Zn1  1  0.999891  0.499999  0.333290  1
  Zn  Zn2  1  0.500001  0.000000  0.500000  1
  Zn  Zn3  1  0.000109  0.499999  0.666710  1
  Zn  Zn4  1  0.500122  0.000000  0.833660  1
  Ga  Ga5  1  0.000000  0.499999  0.000000  1
  Fe  Fe6  1  0.000000  0.000000  0.000000  1
  Fe  Fe7  1  0.499894  0.499999  0.169317  1
  Fe  Fe8  1  0.999904  0.000000  0.333938  1
  Fe  Fe9  1  0.500001  0.499999  0.500000  1
  Fe  Fe10  1  0.000095  0.000000  0.666062  1
  Fe  Fe11  1  0.500105  0.499999  0.830683  1
  Rh  Rh12  1  0.500001  0.252759  0.000000  1
  Rh  Rh13  1  0.500001  0.747242  0.000000  1
  Rh  Rh14  1  0.999897  0.250760  0.165529  1
  Rh  Rh15  1  0.999897  0.749239  0.165529  1
  Rh  Rh16  1  0.499903  0.249651  0.333080  1
  Rh  Rh17  1  0.499903  0.750349  0.333080  1
  Rh  Rh18  1  0.000000  0.249803  0.500000  1
  Rh  Rh19  1  0.000000  0.750197  0.500000  1
  Rh  Rh20  1  0.500096  0.249651  0.666920  1
  Rh  Rh21  1  0.500096  0.750349  0.666920  1
  Rh  Rh22  1  0.000104  0.250760  0.834471  1
  Rh  Rh23  1  0.000104  0.749239  0.834471  1
