# generated using pymatgen
data_Tb2ThIn2GaRh3
_symmetry_space_group_name_H-M   'P 1'
_cell_length_a   7.50374922
_cell_length_b   7.68563799
_cell_length_c   3.87779900
_cell_angle_alpha   90.00000000
_cell_angle_beta   90.00000000
_cell_angle_gamma   120.57372711
_symmetry_Int_Tables_number   1
_chemical_formula_structural   Tb2ThIn2GaRh3
_chemical_formula_sum   'Tb2 Th1 In2 Ga1 Rh3'
_cell_volume   192.54588915
_cell_formula_units_Z   1
loop_
 _symmetry_equiv_pos_site_id
 _symmetry_equiv_pos_as_xyz
  1  'x, y, z'
loop_
 _atom_site_type_symbol
 _atom_site_label
 _atom_site_symmetry_multiplicity
 _atom_site_fract_x
 _atom_site_fract_y
 _atom_site_fract_z
 _atom_site_occupancy
  Tb  Tb0  1  0.423147  0.429983  0.500000  1
  Tb  Tb1  1  0.595164  0.989860  0.500000  1
  Th  Th2  1  0.993712  0.586047  0.500000  1
  In  In3  1  0.006391  0.241102  0.000000  1
  In  In4  1  0.269587  0.019914  0.000000  1
  Ga  Ga5  1  0.730907  0.742625  0.000000  1
  Rh  Rh6  1  0.321347  0.669060  0.000000  1
  Rh  Rh7  1  0.971462  0.960744  0.500000  1
  Rh  Rh8  1  0.688284  0.360665  0.000000  1
