# generated using pymatgen
data_Y2Er3ReRuC7
_symmetry_space_group_name_H-M   'P 1'
_cell_length_a   8.22599691
_cell_length_b   8.22201257
_cell_length_c   3.45497200
_cell_angle_alpha   90.00000000
_cell_angle_beta   90.00000000
_cell_angle_gamma   122.07822097
_symmetry_Int_Tables_number   1
_chemical_formula_structural   Y2Er3ReRuC7
_chemical_formula_sum   'Y2 Er3 Re1 Ru1 C7'
_cell_volume   197.99792695
_cell_formula_units_Z   1
loop_
 _symmetry_equiv_pos_site_id
 _symmetry_equiv_pos_as_xyz
  1  'x, y, z'
loop_
 _atom_site_type_symbol
 _atom_site_label
 _atom_site_symmetry_multiplicity
 _atom_site_fract_x
 _atom_site_fract_y
 _atom_site_fract_z
 _atom_site_occupancy
  Y  Y0  1  0.501126  0.499530  0.000000  1
  Y  Y1  1  0.074088  0.334576  0.500000  1
  Er  Er2  1  0.921061  0.660102  0.500000  1
  Er  Er3  1  0.662425  0.924031  0.500000  1
  Er  Er4  1  0.340565  0.078456  0.500000  1
  Re  Re5  1  0.284877  0.715441  0.000000  1
  Ru  Ru6  1  0.712695  0.286909  0.000000  1
  C  C7  1  0.629773  0.370132  0.500000  1
  C  C8  1  0.374341  0.628253  0.500000  1
  C  C9  1  0.999614  0.000385  0.000000  1
  C  C10  1  0.171487  0.168735  0.000000  1
  C  C11  1  0.829296  0.829974  0.000000  1
  C  C12  1  0.001377  0.504969  0.000000  1
  C  C13  1  0.497276  0.998504  0.000000  1
