# generated using pymatgen
data_Tb4CrTc3B16
_symmetry_space_group_name_H-M   'P 1'
_cell_length_a   5.98302341
_cell_length_b   11.56992753
_cell_length_c   3.58229900
_cell_angle_alpha   90.00000000
_cell_angle_beta   90.00000000
_cell_angle_gamma   89.86088836
_symmetry_Int_Tables_number   1
_chemical_formula_structural   Tb4CrTc3B16
_chemical_formula_sum   'Tb4 Cr1 Tc3 B16'
_cell_volume   247.97728016
_cell_formula_units_Z   1
loop_
 _symmetry_equiv_pos_site_id
 _symmetry_equiv_pos_as_xyz
  1  'x, y, z'
loop_
 _atom_site_type_symbol
 _atom_site_label
 _atom_site_symmetry_multiplicity
 _atom_site_fract_x
 _atom_site_fract_y
 _atom_site_fract_z
 _atom_site_occupancy
  Tb  Tb0  1  0.625006  0.350398  0.000000  1
  Tb  Tb1  1  0.376161  0.649735  0.000000  1
  Tb  Tb2  1  0.126108  0.150557  0.000000  1
  Tb  Tb3  1  0.873826  0.848039  0.000000  1
  Cr  Cr4  1  0.873145  0.582885  0.000000  1
  Tc  Tc5  1  0.632487  0.087465  0.000000  1
  Tc  Tc6  1  0.367342  0.912717  0.000000  1
  Tc  Tc7  1  0.126329  0.416977  0.000000  1
  B  B8  1  0.784304  0.185534  0.500000  1
  B  B9  1  0.215253  0.814395  0.500000  1
  B  B10  1  0.283901  0.316037  0.500000  1
  B  B11  1  0.717584  0.683285  0.500000  1
  B  B12  1  0.863740  0.031527  0.500000  1
  B  B13  1  0.136202  0.968259  0.500000  1
  B  B14  1  0.363312  0.468496  0.500000  1
  B  B15  1  0.637847  0.532722  0.500000  1
  B  B16  1  0.885447  0.454169  0.500000  1
  B  B17  1  0.112463  0.547634  0.500000  1
  B  B18  1  0.386669  0.046853  0.500000  1
  B  B19  1  0.613701  0.952837  0.500000  1
  B  B20  1  0.975424  0.308897  0.500000  1
  B  B21  1  0.023060  0.690904  0.500000  1
  B  B22  1  0.474261  0.192322  0.500000  1
  B  B23  1  0.526427  0.807356  0.500000  1
