# generated using pymatgen
data_TbPr6YO12
_symmetry_space_group_name_H-M   'P 1'
_cell_length_a   7.02640782
_cell_length_b   7.02640770
_cell_length_c   7.02640862
_cell_angle_alpha   91.84408794
_cell_angle_beta   91.84408676
_cell_angle_gamma   91.84407902
_symmetry_Int_Tables_number   1
_chemical_formula_structural   TbPr6YO12
_chemical_formula_sum   'Tb1 Pr6 Y1 O12'
_cell_volume   346.34581176
_cell_formula_units_Z   1
loop_
 _symmetry_equiv_pos_site_id
 _symmetry_equiv_pos_as_xyz
  1  'x, y, z'
loop_
 _atom_site_type_symbol
 _atom_site_label
 _atom_site_symmetry_multiplicity
 _atom_site_fract_x
 _atom_site_fract_y
 _atom_site_fract_z
 _atom_site_occupancy
  Tb  Tb0  1  0.000000  0.000000  0.000000  1
  Pr  Pr1  1  0.747248  0.936552  0.443604  1
  Pr  Pr2  1  0.443604  0.747248  0.936552  1
  Pr  Pr3  1  0.063448  0.556396  0.252752  1
  Pr  Pr4  1  0.936552  0.443604  0.747248  1
  Pr  Pr5  1  0.556396  0.252752  0.063448  1
  Pr  Pr6  1  0.252752  0.063448  0.556396  1
  Y  Y7  1  0.500000  0.500000  0.500000  1
  O  O8  1  0.066316  0.908820  0.309048  1
  O  O9  1  0.690952  0.933684  0.091180  1
  O  O10  1  0.467239  0.809365  0.596936  1
  O  O11  1  0.091180  0.690952  0.933684  1
  O  O12  1  0.809365  0.596936  0.467239  1
  O  O13  1  0.403064  0.532761  0.190635  1
  O  O14  1  0.596936  0.467239  0.809365  1
  O  O15  1  0.190635  0.403064  0.532761  1
  O  O16  1  0.908820  0.309048  0.066316  1
  O  O17  1  0.532761  0.190635  0.403064  1
  O  O18  1  0.309048  0.066316  0.908820  1
  O  O19  1  0.933684  0.091180  0.690952  1
