# generated using pymatgen
data_Dy3ErAl13Ga11Pt9
_symmetry_space_group_name_H-M   'P 1'
_cell_length_a   7.52377115
_cell_length_b   7.52855291
_cell_length_c   13.25803322
_cell_angle_alpha   84.60504353
_cell_angle_beta   100.78016995
_cell_angle_gamma   119.95231655
_symmetry_Int_Tables_number   1
_chemical_formula_structural   Dy3ErAl13Ga11Pt9
_chemical_formula_sum   'Dy3 Er1 Al13 Ga11 Pt9'
_cell_volume   639.19346356
_cell_formula_units_Z   1
loop_
 _symmetry_equiv_pos_site_id
 _symmetry_equiv_pos_as_xyz
  1  'x, y, z'
loop_
 _atom_site_type_symbol
 _atom_site_label
 _atom_site_symmetry_multiplicity
 _atom_site_fract_x
 _atom_site_fract_y
 _atom_site_fract_z
 _atom_site_occupancy
  Dy  Dy0  1  0.735462  0.002616  0.192329  1
  Dy  Dy1  1  0.264328  0.999129  0.807105  1
  Dy  Dy2  1  0.062408  0.663160  0.190571  1
  Er  Er3  1  0.939135  0.337022  0.808600  1
  Al  Al4  1  0.770603  0.660549  0.331740  1
  Al  Al5  1  0.852725  0.331809  0.558091  1
  Al  Al6  1  0.186683  0.999473  0.557636  1
  Al  Al7  1  0.812270  0.999191  0.441046  1
  Al  Al8  1  0.351974  0.999916  0.054550  1
  Al  Al9  1  0.648823  0.001430  0.945372  1
  Al  Al10  1  0.556672  0.994839  0.668961  1
  Al  Al11  1  0.443114  0.004734  0.331380  1
  Al  Al12  1  0.519256  0.666048  0.560573  1
  Al  Al13  1  0.478655  0.332160  0.439295  1
  Al  Al14  1  0.685953  0.668034  0.049550  1
  Al  Al15  1  0.316090  0.334171  0.951250  1
  Al  Al16  1  0.145834  0.667394  0.441016  1
  Ga  Ga17  1  0.803991  0.873815  0.814772  1
  Ga  Ga18  1  0.195824  0.126156  0.185033  1
  Ga  Ga19  1  0.982249  0.666999  0.939519  1
  Ga  Ga20  1  0.018927  0.333300  0.060535  1
  Ga  Ga21  1  0.401048  0.666205  0.816049  1
  Ga  Ga22  1  0.599592  0.336464  0.184188  1
  Ga  Ga23  1  0.884613  0.665211  0.670494  1
  Ga  Ga24  1  0.115046  0.333866  0.329835  1
  Ga  Ga25  1  0.600486  0.458715  0.815157  1
  Ga  Ga26  1  0.402722  0.542561  0.185203  1
  Ga  Ga27  1  0.227845  0.336927  0.671978  1
  Pt  Pt28  1  0.336491  0.674406  0.001065  1
  Pt  Pt29  1  0.545931  0.322094  0.635056  1
  Pt  Pt30  1  0.456432  0.676708  0.365110  1
  Pt  Pt31  1  0.882256  0.006153  0.635083  1
  Pt  Pt32  1  0.111987  0.989018  0.363490  1
  Pt  Pt33  1  0.664405  0.326372  0.999315  1
  Pt  Pt34  1  0.208232  0.669550  0.635551  1
  Pt  Pt35  1  0.791321  0.332895  0.364030  1
  Pt  Pt36  1  0.000618  0.000912  0.999471  1
