# generated using pymatgen
data_Y4ErLu3(WO6)4
_symmetry_space_group_name_H-M   'P 1'
_cell_length_a   5.38138299
_cell_length_b   7.67170402
_cell_length_c   11.36317354
_cell_angle_alpha   75.61140777
_cell_angle_beta   90.00638574
_cell_angle_gamma   90.06860538
_symmetry_Int_Tables_number   1
_chemical_formula_structural   Y4ErLu3(WO6)4
_chemical_formula_sum   'Y4 Er1 Lu3 W4 O24'
_cell_volume   454.40611576
_cell_formula_units_Z   1
loop_
 _symmetry_equiv_pos_site_id
 _symmetry_equiv_pos_as_xyz
  1  'x, y, z'
loop_
 _atom_site_type_symbol
 _atom_site_label
 _atom_site_symmetry_multiplicity
 _atom_site_fract_x
 _atom_site_fract_y
 _atom_site_fract_z
 _atom_site_occupancy
  Y  Y0  1  0.256497  0.000331  0.749123  1
  Y  Y1  1  0.743681  0.000458  0.251203  1
  Y  Y2  1  0.316027  0.499708  0.749662  1
  Y  Y3  1  0.684476  0.499471  0.250893  1
  Er  Er4  1  0.182181  0.793590  0.078789  1
  Lu  Lu5  1  0.181938  0.207552  0.420400  1
  Lu  Lu6  1  0.817258  0.207729  0.920206  1
  Lu  Lu7  1  0.818497  0.792599  0.579477  1
  W  W8  1  0.743480  0.723931  0.885141  1
  W  W9  1  0.257271  0.723924  0.386800  1
  W  W10  1  0.743264  0.275741  0.613926  1
  W  W11  1  0.256643  0.275619  0.113851  1
  O  O12  1  0.540206  0.158082  0.066638  1
  O  O13  1  0.046492  0.060478  0.102349  1
  O  O14  1  0.019244  0.713159  0.770209  1
  O  O15  1  0.457705  0.159765  0.566416  1
  O  O16  1  0.355618  0.488067  0.386592  1
  O  O17  1  0.949160  0.057973  0.602172  1
  O  O18  1  0.546086  0.791826  0.724418  1
  O  O19  1  0.456374  0.791898  0.227044  1
  O  O20  1  0.146430  0.635426  0.550107  1
  O  O21  1  0.051317  0.942161  0.398046  1
  O  O22  1  0.460569  0.842568  0.931080  1
  O  O23  1  0.453917  0.206809  0.275055  1
  O  O24  1  0.853735  0.364106  0.450400  1
  O  O25  1  0.643583  0.488050  0.885174  1
  O  O26  1  0.358538  0.510353  0.113762  1
  O  O27  1  0.949524  0.942255  0.896950  1
  O  O28  1  0.541569  0.840982  0.434645  1
  O  O29  1  0.982544  0.287794  0.230349  1
  O  O30  1  0.545657  0.207539  0.774554  1
  O  O31  1  0.850122  0.634458  0.049076  1
  O  O32  1  0.018475  0.286696  0.729691  1
  O  O33  1  0.146479  0.364642  0.950268  1
  O  O34  1  0.980984  0.712828  0.271916  1
  O  O35  1  0.644462  0.511430  0.613617  1
