# generated using pymatgen
data_TbNd3Dy4(CdIr)2
_symmetry_space_group_name_H-M   'P 1'
_cell_length_a   9.74648595
_cell_length_b   9.74648672
_cell_length_c   9.74472500
_cell_angle_alpha   60.00598253
_cell_angle_beta   60.00597991
_cell_angle_gamma   60.00508825
_symmetry_Int_Tables_number   1
_chemical_formula_structural   TbNd3Dy4(CdIr)2
_chemical_formula_sum   'Tb2 Nd6 Dy8 Cd4 Ir4'
_cell_volume   654.64627969
_cell_formula_units_Z   2
loop_
 _symmetry_equiv_pos_site_id
 _symmetry_equiv_pos_as_xyz
  1  'x, y, z'
loop_
 _atom_site_type_symbol
 _atom_site_label
 _atom_site_symmetry_multiplicity
 _atom_site_fract_x
 _atom_site_fract_y
 _atom_site_fract_z
 _atom_site_occupancy
  Tb  Tb0  1  0.348001  0.348001  0.347475  1
  Tb  Tb1  1  0.348001  0.348001  0.956521  1
  Nd  Nd2  1  0.940754  0.559180  0.559388  1
  Nd  Nd3  1  0.559180  0.940754  0.940679  1
  Nd  Nd4  1  0.559180  0.940754  0.559388  1
  Nd  Nd5  1  0.940754  0.559180  0.940679  1
  Nd  Nd6  1  0.559833  0.559833  0.940167  1
  Nd  Nd7  1  0.941010  0.941010  0.558990  1
  Dy  Dy8  1  0.348062  0.956679  0.347629  1
  Dy  Dy9  1  0.956679  0.348062  0.347629  1
  Dy  Dy10  1  0.812054  0.187163  0.188280  1
  Dy  Dy11  1  0.187163  0.812054  0.812502  1
  Dy  Dy12  1  0.187163  0.812054  0.188280  1
  Dy  Dy13  1  0.812054  0.187163  0.812502  1
  Dy  Dy14  1  0.187597  0.187597  0.812403  1
  Dy  Dy15  1  0.812207  0.812207  0.187793  1
  Cd  Cd16  1  0.579565  0.579565  0.579353  1
  Cd  Cd17  1  0.579565  0.579565  0.261516  1
  Cd  Cd18  1  0.579773  0.261065  0.579580  1
  Cd  Cd19  1  0.261065  0.579773  0.579580  1
  Ir  Ir20  1  0.141361  0.141361  0.141304  1
  Ir  Ir21  1  0.141361  0.141361  0.575974  1
  Ir  Ir22  1  0.141214  0.576403  0.141192  1
  Ir  Ir23  1  0.576403  0.141214  0.141192  1
