# generated using pymatgen
data_Tb3DyHo8InCo4Cu
_symmetry_space_group_name_H-M   'P 1'
_cell_length_a   8.29876089
_cell_length_b   8.28596633
_cell_length_c   8.28757471
_cell_angle_alpha   111.18292359
_cell_angle_beta   110.58413504
_cell_angle_gamma   106.63668704
_symmetry_Int_Tables_number   1
_chemical_formula_structural   Tb3DyHo8InCo4Cu
_chemical_formula_sum   'Tb3 Dy1 Ho8 In1 Co4 Cu1'
_cell_volume   438.14300363
_cell_formula_units_Z   1
loop_
 _symmetry_equiv_pos_site_id
 _symmetry_equiv_pos_as_xyz
  1  'x, y, z'
loop_
 _atom_site_type_symbol
 _atom_site_label
 _atom_site_symmetry_multiplicity
 _atom_site_fract_x
 _atom_site_fract_y
 _atom_site_fract_z
 _atom_site_occupancy
  Tb  Tb0  1  0.416708  0.217224  0.199424  1
  Tb  Tb1  1  0.584595  0.783187  0.800955  1
  Tb  Tb2  1  0.017821  0.216772  0.801081  1
  Dy  Dy3  1  0.685175  0.988754  0.304700  1
  Ho  Ho4  1  0.982526  0.781864  0.200059  1
  Ho  Ho5  1  0.185240  0.291196  0.476515  1
  Ho  Ho6  1  0.814485  0.707774  0.522224  1
  Ho  Ho7  1  0.184482  0.708202  0.893576  1
  Ho  Ho8  1  0.814602  0.292493  0.106255  1
  Ho  Ho9  1  0.315355  0.620788  0.304406  1
  Ho  Ho10  1  0.684690  0.379447  0.695845  1
  Ho  Ho11  1  0.315523  0.010735  0.694145  1
  In  In12  1  0.500347  0.499857  0.999668  1
  Co  Co13  1  0.375550  0.999382  0.376252  1
  Co  Co14  1  0.622154  0.000106  0.621939  1
  Co  Co15  1  0.110809  0.612831  0.497782  1
  Co  Co16  1  0.888663  0.388338  0.500711  1
  Cu  Cu17  1  0.001275  0.001052  0.004463  1
