# generated using pymatgen
data_Y6Er2AlPt24
_symmetry_space_group_name_H-M   'P 1'
_cell_length_a   8.35403448
_cell_length_b   8.35403496
_cell_length_c   8.35403600
_cell_angle_alpha   89.98059057
_cell_angle_beta   90.01940943
_cell_angle_gamma   90.01940915
_symmetry_Int_Tables_number   1
_chemical_formula_structural   Y6Er2AlPt24
_chemical_formula_sum   'Y6 Er2 Al1 Pt24'
_cell_volume   583.02720398
_cell_formula_units_Z   1
loop_
 _symmetry_equiv_pos_site_id
 _symmetry_equiv_pos_as_xyz
  1  'x, y, z'
loop_
 _atom_site_type_symbol
 _atom_site_label
 _atom_site_symmetry_multiplicity
 _atom_site_fract_x
 _atom_site_fract_y
 _atom_site_fract_z
 _atom_site_occupancy
  Y  Y0  1  0.250892  0.251373  0.251373  1
  Y  Y1  1  0.749108  0.748627  0.748627  1
  Y  Y2  1  0.748627  0.749108  0.251373  1
  Y  Y3  1  0.748627  0.251373  0.749108  1
  Y  Y4  1  0.251373  0.250892  0.748627  1
  Y  Y5  1  0.251373  0.748627  0.250892  1
  Er  Er6  1  0.251437  0.748563  0.748563  1
  Er  Er7  1  0.748563  0.251437  0.251437  1
  Al  Al8  1  0.000000  0.000000  0.000000  1
  Pt  Pt9  1  0.260790  0.500289  0.998866  1
  Pt  Pt10  1  0.739210  0.499711  0.001134  1
  Pt  Pt11  1  0.998866  0.260790  0.499711  1
  Pt  Pt12  1  0.500289  0.260790  0.001134  1
  Pt  Pt13  1  0.001134  0.739210  0.500289  1
  Pt  Pt14  1  0.499711  0.739210  0.998866  1
  Pt  Pt15  1  0.500289  0.001134  0.260790  1
  Pt  Pt16  1  0.260790  0.998866  0.500289  1
  Pt  Pt17  1  0.499711  0.998866  0.739210  1
  Pt  Pt18  1  0.739210  0.001134  0.499711  1
  Pt  Pt19  1  0.998866  0.499711  0.260790  1
  Pt  Pt20  1  0.001134  0.500289  0.739210  1
  Pt  Pt21  1  0.253203  0.500701  0.500701  1
  Pt  Pt22  1  0.746797  0.499299  0.499299  1
  Pt  Pt23  1  0.500701  0.253203  0.499299  1
  Pt  Pt24  1  0.499299  0.746797  0.500701  1
  Pt  Pt25  1  0.500701  0.499299  0.253203  1
  Pt  Pt26  1  0.499299  0.500701  0.746797  1
  Pt  Pt27  1  0.291900  0.999204  0.999204  1
  Pt  Pt28  1  0.708100  0.000796  0.000796  1
  Pt  Pt29  1  0.999204  0.291900  0.000796  1
  Pt  Pt30  1  0.000796  0.708100  0.999204  1
  Pt  Pt31  1  0.999204  0.000796  0.291900  1
  Pt  Pt32  1  0.000796  0.999204  0.708100  1
