# generated using pymatgen
data_Lu2Pa(ZnPd)3
_symmetry_space_group_name_H-M   'P 1'
_cell_length_a   7.30548618
_cell_length_b   7.30548796
_cell_length_c   3.74879300
_cell_angle_alpha   90.00000000
_cell_angle_beta   90.00000000
_cell_angle_gamma   119.40288675
_symmetry_Int_Tables_number   1
_chemical_formula_structural   Lu2Pa(ZnPd)3
_chemical_formula_sum   'Lu2 Pa1 Zn3 Pd3'
_cell_volume   174.30194554
_cell_formula_units_Z   1
loop_
 _symmetry_equiv_pos_site_id
 _symmetry_equiv_pos_as_xyz
  1  'x, y, z'
loop_
 _atom_site_type_symbol
 _atom_site_label
 _atom_site_symmetry_multiplicity
 _atom_site_fract_x
 _atom_site_fract_y
 _atom_site_fract_z
 _atom_site_occupancy
  Lu  Lu0  1  0.403283  0.004180  0.000000  1
  Lu  Lu1  1  0.004180  0.403283  0.000000  1
  Pa  Pa2  1  0.592129  0.592129  0.000000  1
  Zn  Zn3  1  0.247291  0.247291  0.500000  1
  Zn  Zn4  1  0.743603  0.006206  0.500000  1
  Zn  Zn5  1  0.006206  0.743603  0.500000  1
  Pd  Pd6  1  0.994221  0.994221  0.000000  1
  Pd  Pd7  1  0.666272  0.342817  0.500000  1
  Pd  Pd8  1  0.342817  0.666272  0.500000  1
