# generated using pymatgen
data_Ho10Er2TlNi4Ag
_symmetry_space_group_name_H-M   'P 1'
_cell_length_a   8.33761162
_cell_length_b   8.36531978
_cell_length_c   8.36532099
_cell_angle_alpha   112.47810689
_cell_angle_beta   109.27687234
_cell_angle_gamma   106.83336065
_symmetry_Int_Tables_number   1
_chemical_formula_structural   Ho10Er2TlNi4Ag
_chemical_formula_sum   'Ho10 Er2 Tl1 Ni4 Ag1'
_cell_volume   447.34988937
_cell_formula_units_Z   1
loop_
 _symmetry_equiv_pos_site_id
 _symmetry_equiv_pos_as_xyz
  1  'x, y, z'
loop_
 _atom_site_type_symbol
 _atom_site_label
 _atom_site_symmetry_multiplicity
 _atom_site_fract_x
 _atom_site_fract_y
 _atom_site_fract_z
 _atom_site_occupancy
  Ho  Ho0  1  0.024871  0.223949  0.800921  1
  Ho  Ho1  1  0.975129  0.776051  0.199079  1
  Ho  Ho2  1  0.182411  0.294291  0.475968  1
  Ho  Ho3  1  0.817589  0.705709  0.524032  1
  Ho  Ho4  1  0.182411  0.706442  0.888119  1
  Ho  Ho5  1  0.817589  0.293558  0.111881  1
  Ho  Ho6  1  0.323834  0.629876  0.307213  1
  Ho  Ho7  1  0.676166  0.370124  0.692787  1
  Ho  Ho8  1  0.323834  0.016622  0.693957  1
  Ho  Ho9  1  0.676166  0.983378  0.306043  1
  Er  Er10  1  0.423269  0.224667  0.198601  1
  Er  Er11  1  0.576731  0.775333  0.801399  1
  Tl  Tl12  1  0.500000  0.500000  0.000000  1
  Ni  Ni13  1  0.358638  0.001537  0.357101  1
  Ni  Ni14  1  0.641362  0.998463  0.642899  1
  Ni  Ni15  1  0.127100  0.624330  0.502770  1
  Ni  Ni16  1  0.872900  0.375670  0.497230  1
  Ag  Ag17  1  0.000000  0.000000  0.000000  1
