# generated using pymatgen
data_Mg2Co3Ni9P7
_symmetry_space_group_name_H-M   'P 1'
_cell_length_a   9.02975800
_cell_length_b   9.02975866
_cell_length_c   3.52954300
_cell_angle_alpha   90.00000000
_cell_angle_beta   90.00000000
_cell_angle_gamma   120.00000492
_symmetry_Int_Tables_number   1
_chemical_formula_structural   Mg2Co3Ni9P7
_chemical_formula_sum   'Mg2 Co3 Ni9 P7'
_cell_volume   249.23058768
_cell_formula_units_Z   1
loop_
 _symmetry_equiv_pos_site_id
 _symmetry_equiv_pos_as_xyz
  1  'x, y, z'
loop_
 _atom_site_type_symbol
 _atom_site_label
 _atom_site_symmetry_multiplicity
 _atom_site_fract_x
 _atom_site_fract_y
 _atom_site_fract_z
 _atom_site_occupancy
  Mg  Mg0  1  0.000000  0.000000  0.000000  1
  Mg  Mg1  1  0.333333  0.666667  0.500000  1
  Co  Co2  1  0.786120  0.176536  0.000000  1
  Co  Co3  1  0.390416  0.213880  0.000000  1
  Co  Co4  1  0.823464  0.609584  0.000000  1
  Ni  Ni5  1  0.293110  0.892645  0.000000  1
  Ni  Ni6  1  0.599536  0.706890  0.000000  1
  Ni  Ni7  1  0.107355  0.400464  0.000000  1
  Ni  Ni8  1  0.722867  0.948692  0.500000  1
  Ni  Ni9  1  0.225826  0.277133  0.500000  1
  Ni  Ni10  1  0.051308  0.774174  0.500000  1
  Ni  Ni11  1  0.541136  0.113602  0.500000  1
  Ni  Ni12  1  0.572466  0.458864  0.500000  1
  Ni  Ni13  1  0.886398  0.427534  0.500000  1
  P  P14  1  0.549111  0.923770  0.000000  1
  P  P15  1  0.374660  0.450889  0.000000  1
  P  P16  1  0.076230  0.625340  0.000000  1
  P  P17  1  0.954827  0.216090  0.500000  1
  P  P18  1  0.261263  0.045173  0.500000  1
  P  P19  1  0.783910  0.738737  0.500000  1
  P  P20  1  0.666667  0.333333  0.000000  1
