# generated using pymatgen
data_Er2Tm2Cd2Si3Ge
_symmetry_space_group_name_H-M   'P 1'
_cell_length_a   7.14215168
_cell_length_b   7.14215065
_cell_length_c   4.15413600
_cell_angle_alpha   90.00000000
_cell_angle_beta   90.00000000
_cell_angle_gamma   89.99979143
_symmetry_Int_Tables_number   1
_chemical_formula_structural   Er2Tm2Cd2Si3Ge
_chemical_formula_sum   'Er2 Tm2 Cd2 Si3 Ge1'
_cell_volume   211.90382027
_cell_formula_units_Z   1
loop_
 _symmetry_equiv_pos_site_id
 _symmetry_equiv_pos_as_xyz
  1  'x, y, z'
loop_
 _atom_site_type_symbol
 _atom_site_label
 _atom_site_symmetry_multiplicity
 _atom_site_fract_x
 _atom_site_fract_y
 _atom_site_fract_z
 _atom_site_occupancy
  Er  Er0  1  0.679914  0.177372  0.500000  1
  Er  Er1  1  0.322628  0.820086  0.500000  1
  Tm  Tm2  1  0.175222  0.324778  0.500000  1
  Tm  Tm3  1  0.823286  0.676714  0.500000  1
  Cd  Cd4  1  0.501193  0.502940  0.000000  1
  Cd  Cd5  1  0.997060  0.998807  0.000000  1
  Si  Si6  1  0.117552  0.617680  0.000000  1
  Si  Si7  1  0.882320  0.382448  0.000000  1
  Si  Si8  1  0.620923  0.879077  0.000000  1
  Ge  Ge9  1  0.379901  0.120099  0.000000  1
