# generated using pymatgen
data_Zr2Mn4Fe4Co4P7
_symmetry_space_group_name_H-M   'P 1'
_cell_length_a   8.98068099
_cell_length_b   8.97483968
_cell_length_c   3.56626000
_cell_angle_alpha   90.00000000
_cell_angle_beta   90.00000000
_cell_angle_gamma   119.90248915
_symmetry_Int_Tables_number   1
_chemical_formula_structural   Zr2Mn4Fe4Co4P7
_chemical_formula_sum   'Zr2 Mn4 Fe4 Co4 P7'
_cell_volume   249.17559069
_cell_formula_units_Z   1
loop_
 _symmetry_equiv_pos_site_id
 _symmetry_equiv_pos_as_xyz
  1  'x, y, z'
loop_
 _atom_site_type_symbol
 _atom_site_label
 _atom_site_symmetry_multiplicity
 _atom_site_fract_x
 _atom_site_fract_y
 _atom_site_fract_z
 _atom_site_occupancy
  Zr  Zr0  1  0.999603  0.999016  0.000000  1
  Zr  Zr1  1  0.334503  0.668765  0.500000  1
  Mn  Mn2  1  0.295097  0.902148  0.000000  1
  Mn  Mn3  1  0.897459  0.436643  0.500000  1
  Mn  Mn4  1  0.544829  0.107283  0.500000  1
  Mn  Mn5  1  0.562077  0.456568  0.500000  1
  Fe  Fe6  1  0.604986  0.703795  0.000000  1
  Fe  Fe7  1  0.823324  0.609958  0.000000  1
  Fe  Fe8  1  0.788130  0.174839  0.000000  1
  Fe  Fe9  1  0.389706  0.215321  0.000000  1
  Co  Co10  1  0.100300  0.396102  0.000000  1
  Co  Co11  1  0.050114  0.772441  0.500000  1
  Co  Co12  1  0.721207  0.945898  0.500000  1
  Co  Co13  1  0.224281  0.278922  0.500000  1
  P  P14  1  0.080163  0.632486  0.000000  1
  P  P15  1  0.550913  0.918755  0.000000  1
  P  P16  1  0.368856  0.450443  0.000000  1
  P  P17  1  0.785350  0.740492  0.500000  1
  P  P18  1  0.952885  0.212660  0.500000  1
  P  P19  1  0.258081  0.044374  0.500000  1
  P  P20  1  0.668138  0.333092  0.000000  1
