# generated using pymatgen
data_Dy5Y6Lu5(CdPt)4
_symmetry_space_group_name_H-M   'P 1'
_cell_length_a   9.64775395
_cell_length_b   9.61850419
_cell_length_c   9.61850396
_cell_angle_alpha   60.14801944
_cell_angle_beta   59.89935346
_cell_angle_gamma   59.89935981
_symmetry_Int_Tables_number   1
_chemical_formula_structural   Dy5Y6Lu5(CdPt)4
_chemical_formula_sum   'Dy5 Y6 Lu5 Cd4 Pt4'
_cell_volume   630.87880193
_cell_formula_units_Z   1
loop_
 _symmetry_equiv_pos_site_id
 _symmetry_equiv_pos_as_xyz
  1  'x, y, z'
loop_
 _atom_site_type_symbol
 _atom_site_label
 _atom_site_symmetry_multiplicity
 _atom_site_fract_x
 _atom_site_fract_y
 _atom_site_fract_z
 _atom_site_occupancy
  Dy  Dy0  1  0.349416  0.353061  0.353061  1
  Dy  Dy1  1  0.352801  0.356831  0.937567  1
  Dy  Dy2  1  0.352801  0.937567  0.356831  1
  Dy  Dy3  1  0.944462  0.353061  0.353061  1
  Dy  Dy4  1  0.811585  0.188415  0.188415  1
  Y  Y5  1  0.935343  0.564657  0.564657  1
  Y  Y6  1  0.561244  0.938756  0.938756  1
  Y  Y7  1  0.562233  0.936695  0.563705  1
  Y  Y8  1  0.937367  0.563705  0.936695  1
  Y  Y9  1  0.562233  0.563705  0.936695  1
  Y  Y10  1  0.937367  0.936695  0.563705  1
  Lu  Lu11  1  0.186129  0.813871  0.813871  1
  Lu  Lu12  1  0.189172  0.812170  0.186636  1
  Lu  Lu13  1  0.812022  0.186636  0.812170  1
  Lu  Lu14  1  0.189172  0.186636  0.812170  1
  Lu  Lu15  1  0.812022  0.812170  0.186636  1
  Cd  Cd16  1  0.582222  0.581220  0.581220  1
  Cd  Cd17  1  0.582292  0.580994  0.254422  1
  Cd  Cd18  1  0.582292  0.254422  0.580994  1
  Cd  Cd19  1  0.255340  0.581220  0.581220  1
  Pt  Pt20  1  0.147509  0.140799  0.140799  1
  Pt  Pt21  1  0.142042  0.140543  0.575373  1
  Pt  Pt22  1  0.142042  0.575373  0.140543  1
  Pt  Pt23  1  0.570893  0.140799  0.140799  1
