# generated using pymatgen
data_Tb12Zn11Si12Ge
_symmetry_space_group_name_H-M   'P 1'
_cell_length_a   4.13205800
_cell_length_b   7.17528414
_cell_length_c   24.21267600
_cell_angle_alpha   89.98864510
_cell_angle_beta   90.00000000
_cell_angle_gamma   90.00000000
_symmetry_Int_Tables_number   1
_chemical_formula_structural   Tb12Zn11Si12Ge
_chemical_formula_sum   'Tb12 Zn11 Si12 Ge1'
_cell_volume   717.87411643
_cell_formula_units_Z   1
loop_
 _symmetry_equiv_pos_site_id
 _symmetry_equiv_pos_as_xyz
  1  'x, y, z'
loop_
 _atom_site_type_symbol
 _atom_site_label
 _atom_site_symmetry_multiplicity
 _atom_site_fract_x
 _atom_site_fract_y
 _atom_site_fract_z
 _atom_site_occupancy
  Tb  Tb0  1  0.250000  0.750330  0.333306  1
  Tb  Tb1  1  0.750000  0.245278  0.667527  1
  Tb  Tb2  1  0.750000  0.250463  0.166906  1
  Tb  Tb3  1  0.250000  0.747677  0.832583  1
  Tb  Tb4  1  0.250000  0.750951  0.166927  1
  Tb  Tb5  1  0.750000  0.250548  0.833285  1
  Tb  Tb6  1  0.750000  0.250923  0.333225  1
  Tb  Tb7  1  0.250000  0.754204  0.667145  1
  Tb  Tb8  1  0.250000  0.749978  0.999526  1
  Tb  Tb9  1  0.750000  0.249774  0.999442  1
  Tb  Tb10  1  0.750000  0.245349  0.500296  1
  Tb  Tb11  1  0.250000  0.755727  0.498853  1
  Zn  Zn12  1  0.250000  0.417433  0.250033  1
  Zn  Zn13  1  0.750000  0.581860  0.750340  1
  Zn  Zn14  1  0.750000  0.917550  0.250328  1
  Zn  Zn15  1  0.250000  0.082993  0.754197  1
  Zn  Zn16  1  0.250000  0.417175  0.414417  1
  Zn  Zn17  1  0.750000  0.578066  0.590468  1
  Zn  Zn18  1  0.750000  0.916942  0.085785  1
  Zn  Zn19  1  0.250000  0.082520  0.913125  1
  Zn  Zn20  1  0.250000  0.416779  0.085742  1
  Zn  Zn21  1  0.750000  0.583330  0.913127  1
  Zn  Zn22  1  0.750000  0.917063  0.413517  1
  Si  Si23  1  0.250000  0.084003  0.081395  1
  Si  Si24  1  0.750000  0.915895  0.918151  1
  Si  Si25  1  0.750000  0.583726  0.418434  1
  Si  Si26  1  0.250000  0.424979  0.577851  1
  Si  Si27  1  0.250000  0.084517  0.250368  1
  Si  Si28  1  0.750000  0.915789  0.749341  1
  Si  Si29  1  0.750000  0.584630  0.250292  1
  Si  Si30  1  0.250000  0.414898  0.749406  1
  Si  Si31  1  0.250000  0.084817  0.417702  1
  Si  Si32  1  0.750000  0.906828  0.578506  1
  Si  Si33  1  0.750000  0.584113  0.081288  1
  Si  Si34  1  0.250000  0.415725  0.918508  1
  Ge  Ge35  1  0.250000  0.087168  0.588659  1
