# generated using pymatgen
data_Er8Ti3Nb9Si15As
_symmetry_space_group_name_H-M   'P 1'
_cell_length_a   7.05169402
_cell_length_b   7.04458434
_cell_length_c   12.95124365
_cell_angle_alpha   89.96487889
_cell_angle_beta   89.88419571
_cell_angle_gamma   89.92464852
_symmetry_Int_Tables_number   1
_chemical_formula_structural   Er8Ti3Nb9Si15As
_chemical_formula_sum   'Er8 Ti3 Nb9 Si15 As1'
_cell_volume   643.36726879
_cell_formula_units_Z   1
loop_
 _symmetry_equiv_pos_site_id
 _symmetry_equiv_pos_as_xyz
  1  'x, y, z'
loop_
 _atom_site_type_symbol
 _atom_site_label
 _atom_site_symmetry_multiplicity
 _atom_site_fract_x
 _atom_site_fract_y
 _atom_site_fract_z
 _atom_site_occupancy
  Er  Er0  1  0.342141  0.000648  0.466312  1
  Er  Er1  1  0.499502  0.843608  0.718284  1
  Er  Er2  1  0.499707  0.156646  0.217623  1
  Er  Er3  1  0.843011  0.499892  0.282827  1
  Er  Er4  1  0.157862  0.498514  0.782165  1
  Er  Er5  1  0.659880  0.997788  0.968738  1
  Er  Er6  1  0.997135  0.344242  0.530795  1
  Er  Er7  1  0.998869  0.659500  0.032231  1
  Ti  Ti8  1  0.847070  0.993585  0.372849  1
  Ti  Ti9  1  0.007556  0.151552  0.127081  1
  Ti  Ti10  1  0.989177  0.843580  0.625571  1
  Nb  Nb11  1  0.329466  0.329149  0.000127  1
  Nb  Nb12  1  0.173079  0.827127  0.250314  1
  Nb  Nb13  1  0.825075  0.173271  0.749746  1
  Nb  Nb14  1  0.669939  0.669794  0.500057  1
  Nb  Nb15  1  0.154183  0.008127  0.873791  1
  Nb  Nb16  1  0.492386  0.652465  0.123616  1
  Nb  Nb17  1  0.508649  0.348998  0.624232  1
  Nb  Nb18  1  0.653733  0.494123  0.877033  1
  Nb  Nb19  1  0.346678  0.507549  0.376716  1
  Si  Si20  1  0.366459  0.706190  0.930925  1
  Si  Si21  1  0.633728  0.292548  0.430683  1
  Si  Si22  1  0.707538  0.365239  0.070316  1
  Si  Si23  1  0.292876  0.635170  0.568977  1
  Si  Si24  1  0.797715  0.868154  0.182571  1
  Si  Si25  1  0.131414  0.203085  0.318235  1
  Si  Si26  1  0.867388  0.796368  0.818168  1
  Si  Si27  1  0.292908  0.954387  0.064182  1
  Si  Si28  1  0.548363  0.794206  0.313778  1
  Si  Si29  1  0.460646  0.207344  0.817156  1
  Si  Si30  1  0.795048  0.548157  0.686057  1
  Si  Si31  1  0.204962  0.452187  0.186386  1
  Si  Si32  1  0.708203  0.044611  0.562040  1
  Si  Si33  1  0.954543  0.293494  0.938052  1
  Si  Si34  1  0.044466  0.709297  0.436589  1
  As  As35  1  0.198646  0.129406  0.675777  1
