# generated using pymatgen
data_Pr4Nd12MgHg3Ru3Rh
_symmetry_space_group_name_H-M   'P 1'
_cell_length_a   9.96387898
_cell_length_b   9.96806962
_cell_length_c   9.97197300
_cell_angle_alpha   59.63737740
_cell_angle_beta   59.61850700
_cell_angle_gamma   59.58135857
_symmetry_Int_Tables_number   1
_chemical_formula_structural   Pr4Nd12MgHg3Ru3Rh
_chemical_formula_sum   'Pr4 Nd12 Mg1 Hg3 Ru3 Rh1'
_cell_volume   694.16524444
_cell_formula_units_Z   1
loop_
 _symmetry_equiv_pos_site_id
 _symmetry_equiv_pos_as_xyz
  1  'x, y, z'
loop_
 _atom_site_type_symbol
 _atom_site_label
 _atom_site_symmetry_multiplicity
 _atom_site_fract_x
 _atom_site_fract_y
 _atom_site_fract_z
 _atom_site_occupancy
  Pr  Pr0  1  0.557329  0.557284  0.941916  1
  Pr  Pr1  1  0.187666  0.814452  0.186114  1
  Pr  Pr2  1  0.810305  0.810111  0.188244  1
  Pr  Pr3  1  0.187201  0.185533  0.814744  1
  Nd  Nd4  1  0.405983  0.789395  0.403332  1
  Nd  Nd5  1  0.810168  0.188835  0.809045  1
  Nd  Nd6  1  0.936668  0.940606  0.559904  1
  Nd  Nd7  1  0.811926  0.188385  0.188655  1
  Nd  Nd8  1  0.937253  0.559720  0.940551  1
  Nd  Nd9  1  0.787911  0.404665  0.404785  1
  Nd  Nd10  1  0.560569  0.938673  0.938387  1
  Nd  Nd11  1  0.189521  0.810365  0.809397  1
  Nd  Nd12  1  0.557218  0.941984  0.557281  1
  Nd  Nd13  1  0.402484  0.400279  0.401040  1
  Nd  Nd14  1  0.940142  0.556939  0.556928  1
  Nd  Nd15  1  0.405919  0.403062  0.789158  1
  Mg  Mg16  1  0.180686  0.180711  0.180760  1
  Hg  Hg17  1  0.165076  0.501837  0.163980  1
  Hg  Hg18  1  0.164395  0.163924  0.502782  1
  Hg  Hg19  1  0.502455  0.164943  0.164271  1
  Ru  Ru20  1  0.609947  0.610618  0.166855  1
  Ru  Ru21  1  0.610114  0.611160  0.611466  1
  Ru  Ru22  1  0.610297  0.166400  0.610374  1
  Rh  Rh23  1  0.168764  0.610117  0.610030  1
