# generated using pymatgen
data_LaTb5FeBr10
_symmetry_space_group_name_H-M   'P 1'
_cell_length_a   7.46817895
_cell_length_b   9.07720298
_cell_length_c   9.42175983
_cell_angle_alpha   108.33937335
_cell_angle_beta   96.76690498
_cell_angle_gamma   103.71584693
_symmetry_Int_Tables_number   1
_chemical_formula_structural   LaTb5FeBr10
_chemical_formula_sum   'La1 Tb5 Fe1 Br10'
_cell_volume   576.00707643
_cell_formula_units_Z   1
loop_
 _symmetry_equiv_pos_site_id
 _symmetry_equiv_pos_as_xyz
  1  'x, y, z'
loop_
 _atom_site_type_symbol
 _atom_site_label
 _atom_site_symmetry_multiplicity
 _atom_site_fract_x
 _atom_site_fract_y
 _atom_site_fract_z
 _atom_site_occupancy
  La  La0  1  0.034704  0.727130  0.416273  1
  Tb  Tb1  1  0.963141  0.268808  0.582538  1
  Tb  Tb2  1  0.876731  0.950675  0.747535  1
  Tb  Tb3  1  0.127713  0.048420  0.253329  1
  Tb  Tb4  1  0.357649  0.132311  0.678717  1
  Tb  Tb5  1  0.643110  0.870236  0.321151  1
  Fe  Fe6  1  0.004647  0.981911  0.494648  1
  Br  Br7  1  0.465183  0.825453  0.587198  1
  Br  Br8  1  0.551457  0.185406  0.422514  1
  Br  Br9  1  0.905184  0.629294  0.682463  1
  Br  Br10  1  0.082555  0.366008  0.333665  1
  Br  Br11  1  0.246078  0.086462  0.953861  1
  Br  Br12  1  0.757882  0.922104  0.048601  1
  Br  Br13  1  0.329441  0.444889  0.767090  1
  Br  Br14  1  0.638612  0.550533  0.223013  1
  Br  Br15  1  0.784255  0.253598  0.840293  1
  Br  Br16  1  0.231659  0.756762  0.147112  1
