# generated using pymatgen
data_CsBi(SeO4)2
_symmetry_space_group_name_H-M   'P 1'
_cell_length_a   5.42027300
_cell_length_b   5.42027315
_cell_length_c   9.57095100
_cell_angle_alpha   90.00000000
_cell_angle_beta   90.00000000
_cell_angle_gamma   119.99999461
_symmetry_Int_Tables_number   1
_chemical_formula_structural   CsBi(SeO4)2
_chemical_formula_sum   'Cs1 Bi1 Se2 O8'
_cell_volume   243.51632565
_cell_formula_units_Z   1
loop_
 _symmetry_equiv_pos_site_id
 _symmetry_equiv_pos_as_xyz
  1  'x, y, z'
loop_
 _atom_site_type_symbol
 _atom_site_label
 _atom_site_symmetry_multiplicity
 _atom_site_fract_x
 _atom_site_fract_y
 _atom_site_fract_z
 _atom_site_occupancy
  Cs  Cs0  1  0.000000  0.000000  0.500001  1
  Bi  Bi1  1  0.000000  0.000000  0.000000  1
  Se  Se2  1  0.333334  0.666668  0.213495  1
  Se  Se3  1  0.666666  0.333334  0.786505  1
  O  O4  1  0.050492  0.364057  0.153469  1
  O  O5  1  0.635944  0.686436  0.153469  1
  O  O6  1  0.313564  0.949507  0.153469  1
  O  O7  1  0.333334  0.666668  0.385809  1
  O  O8  1  0.666666  0.333334  0.614191  1
  O  O9  1  0.686435  0.050492  0.846531  1
  O  O10  1  0.364058  0.313566  0.846531  1
  O  O11  1  0.949506  0.635942  0.846531  1
