# generated using pymatgen
data_Eu3WCO9
_symmetry_space_group_name_H-M   'P 1'
_cell_length_a   5.59650900
_cell_length_b   8.84828424
_cell_length_c   8.84828400
_cell_angle_alpha   120.00000558
_cell_angle_beta   90.00000000
_cell_angle_gamma   90.00000000
_symmetry_Int_Tables_number   1
_chemical_formula_structural   Eu3WCO9
_chemical_formula_sum   'Eu6 W2 C2 O18'
_cell_volume   379.45993907
_cell_formula_units_Z   2
loop_
 _symmetry_equiv_pos_site_id
 _symmetry_equiv_pos_as_xyz
  1  'x, y, z'
loop_
 _atom_site_type_symbol
 _atom_site_label
 _atom_site_symmetry_multiplicity
 _atom_site_fract_x
 _atom_site_fract_y
 _atom_site_fract_z
 _atom_site_occupancy
  Eu  Eu0  1  0.209110  0.709293  0.079517  1
  Eu  Eu1  1  0.209110  0.370224  0.290707  1
  Eu  Eu2  1  0.709110  0.079517  0.370224  1
  Eu  Eu3  1  0.709110  0.290707  0.920483  1
  Eu  Eu4  1  0.709110  0.629776  0.709293  1
  Eu  Eu5  1  0.209110  0.920483  0.629776  1
  W  W6  1  0.744111  0.666667  0.333333  1
  W  W7  1  0.244111  0.333333  0.666667  1
  C  C8  1  0.876147  0.000000  0.000000  1
  C  C9  1  0.376147  0.000000  0.000000  1
  O  O10  1  0.542398  0.795372  0.261128  1
  O  O11  1  0.466771  0.136729  0.615683  1
  O  O12  1  0.371434  0.052513  0.165738  1
  O  O13  1  0.542398  0.738871  0.534243  1
  O  O14  1  0.871434  0.947487  0.834262  1
  O  O15  1  0.871434  0.886775  0.052513  1
  O  O16  1  0.466771  0.384317  0.521046  1
  O  O17  1  0.042398  0.534243  0.795372  1
  O  O18  1  0.042398  0.204628  0.738871  1
  O  O19  1  0.871434  0.165738  0.113225  1
  O  O20  1  0.542398  0.465757  0.204628  1
  O  O21  1  0.466771  0.478954  0.863271  1
  O  O22  1  0.966771  0.521046  0.136729  1
  O  O23  1  0.966771  0.863271  0.384317  1
  O  O24  1  0.042398  0.261128  0.465757  1
  O  O25  1  0.966771  0.615683  0.478954  1
  O  O26  1  0.371434  0.113225  0.947487  1
  O  O27  1  0.371434  0.834262  0.886775  1
