# generated using pymatgen
data_Ca3HfZr4(Si4Ru3)4
_symmetry_space_group_name_H-M   'P 1'
_cell_length_a   10.04984022
_cell_length_b   10.03967923
_cell_length_c   13.58585743
_cell_angle_alpha   53.32970576
_cell_angle_beta   53.09444995
_cell_angle_gamma   31.18806202
_symmetry_Int_Tables_number   1
_chemical_formula_structural   Ca3HfZr4(Si4Ru3)4
_chemical_formula_sum   'Ca3 Hf1 Zr4 Si16 Ru12'
_cell_volume   555.95782568
_cell_formula_units_Z   1
loop_
 _symmetry_equiv_pos_site_id
 _symmetry_equiv_pos_as_xyz
  1  'x, y, z'
loop_
 _atom_site_type_symbol
 _atom_site_label
 _atom_site_symmetry_multiplicity
 _atom_site_fract_x
 _atom_site_fract_y
 _atom_site_fract_z
 _atom_site_occupancy
  Ca  Ca0  1  0.309217  0.554259  0.640775  1
  Ca  Ca1  1  0.441980  0.699009  0.857202  1
  Ca  Ca2  1  0.692151  0.444762  0.358263  1
  Hf  Hf3  1  0.292547  0.040022  0.136427  1
  Zr  Zr4  1  0.558198  0.292027  0.147977  1
  Zr  Zr5  1  0.040082  0.293581  0.635167  1
  Zr  Zr6  1  0.705775  0.960176  0.866033  1
  Zr  Zr7  1  0.961219  0.703630  0.364337  1
  Si  Si8  1  0.869233  0.129681  0.248418  1
  Si  Si9  1  0.124958  0.875235  0.751468  1
  Si  Si10  1  0.379328  0.620836  0.248021  1
  Si  Si11  1  0.627340  0.373317  0.750259  1
  Si  Si12  1  0.977097  0.252206  0.893822  1
  Si  Si13  1  0.759130  0.011647  0.609404  1
  Si  Si14  1  0.021056  0.751390  0.109211  1
  Si  Si15  1  0.241314  0.989371  0.386527  1
  Si  Si16  1  0.572127  0.083044  0.066976  1
  Si  Si17  1  0.912686  0.427979  0.433818  1
  Si  Si18  1  0.427989  0.917928  0.931684  1
  Si  Si19  1  0.085575  0.572139  0.566369  1
  Si  Si20  1  0.383701  0.144010  0.396889  1
  Si  Si21  1  0.858540  0.611228  0.103800  1
  Si  Si22  1  0.613732  0.860321  0.600366  1
  Si  Si23  1  0.141612  0.388356  0.898498  1
  Ru  Ru24  1  0.644374  0.837686  0.281506  1
  Ru  Ru25  1  0.166539  0.356621  0.217025  1
  Ru  Ru26  1  0.758356  0.488382  0.066526  1
  Ru  Ru27  1  0.839303  0.644989  0.781641  1
  Ru  Ru28  1  0.912273  0.129988  0.588008  1
  Ru  Ru29  1  0.855070  0.101719  0.918237  1
  Ru  Ru30  1  0.090248  0.867350  0.408660  1
  Ru  Ru31  1  0.139017  0.901895  0.087691  1
  Ru  Ru32  1  0.242230  0.510680  0.933093  1
  Ru  Ru33  1  0.493764  0.756468  0.568576  1
  Ru  Ru34  1  0.505563  0.245138  0.429927  1
  Ru  Ru35  1  0.356677  0.162929  0.717404  1
