# generated using pymatgen
data_DyY7(Er3Pt4)4
_symmetry_space_group_name_H-M   'P 1'
_cell_length_a   7.45547320
_cell_length_b   7.53195919
_cell_length_c   14.68909902
_cell_angle_alpha   89.99904171
_cell_angle_beta   90.00648814
_cell_angle_gamma   89.97447816
_symmetry_Int_Tables_number   1
_chemical_formula_structural   DyY7(Er3Pt4)4
_chemical_formula_sum   'Dy1 Y7 Er12 Pt16'
_cell_volume   824.85627751
_cell_formula_units_Z   1
loop_
 _symmetry_equiv_pos_site_id
 _symmetry_equiv_pos_as_xyz
  1  'x, y, z'
loop_
 _atom_site_type_symbol
 _atom_site_label
 _atom_site_symmetry_multiplicity
 _atom_site_fract_x
 _atom_site_fract_y
 _atom_site_fract_z
 _atom_site_occupancy
  Dy  Dy0  1  0.997919  0.820083  0.406891  1
  Y  Y1  1  0.498391  0.679556  0.092999  1
  Y  Y2  1  0.501690  0.320388  0.592979  1
  Y  Y3  1  0.001657  0.179648  0.906994  1
  Y  Y4  1  0.001594  0.179447  0.592977  1
  Y  Y5  1  0.501625  0.320421  0.907019  1
  Y  Y6  1  0.498352  0.679599  0.406940  1
  Y  Y7  1  0.998292  0.820311  0.092943  1
  Er  Er8  1  0.681113  0.989228  0.250062  1
  Er  Er9  1  0.181119  0.510864  0.250078  1
  Er  Er10  1  0.818946  0.489174  0.749970  1
  Er  Er11  1  0.318860  0.010853  0.750034  1
  Er  Er12  1  0.656128  0.832327  0.622408  1
  Er  Er13  1  0.156121  0.667662  0.877618  1
  Er  Er14  1  0.843768  0.332331  0.377615  1
  Er  Er15  1  0.343867  0.167756  0.122355  1
  Er  Er16  1  0.343859  0.167704  0.377636  1
  Er  Er17  1  0.843734  0.332328  0.122393  1
  Er  Er18  1  0.156141  0.667698  0.622348  1
  Er  Er19  1  0.656194  0.832328  0.877631  1
  Pt  Pt20  1  0.816661  0.641936  0.250407  1
  Pt  Pt21  1  0.316014  0.858380  0.250100  1
  Pt  Pt22  1  0.683802  0.141553  0.749966  1
  Pt  Pt23  1  0.183849  0.358471  0.749947  1
  Pt  Pt24  1  0.546462  0.384992  0.250020  1
  Pt  Pt25  1  0.046400  0.114666  0.250204  1
  Pt  Pt26  1  0.953528  0.885070  0.749983  1
  Pt  Pt27  1  0.453513  0.614977  0.749978  1
  Pt  Pt28  1  0.817951  0.533939  0.541925  1
  Pt  Pt29  1  0.317730  0.966324  0.957895  1
  Pt  Pt30  1  0.683010  0.033085  0.457736  1
  Pt  Pt31  1  0.182254  0.466397  0.042144  1
  Pt  Pt32  1  0.181981  0.466924  0.457780  1
  Pt  Pt33  1  0.682245  0.033636  0.042123  1
  Pt  Pt34  1  0.317469  0.966294  0.542004  1
  Pt  Pt35  1  0.817763  0.533648  0.957895  1
