# generated using pymatgen
data_Cs4Mn4Cl10O
_symmetry_space_group_name_H-M   'P 1'
_cell_length_a   11.54442096
_cell_length_b   11.54442151
_cell_length_c   9.87503527
_cell_angle_alpha   80.28446509
_cell_angle_beta   80.28446379
_cell_angle_gamma   90.97398903
_symmetry_Int_Tables_number   1
_chemical_formula_structural   Cs4Mn4Cl10O
_chemical_formula_sum   'Cs8 Mn8 Cl20 O2'
_cell_volume   1277.20005099
_cell_formula_units_Z   2
loop_
 _symmetry_equiv_pos_site_id
 _symmetry_equiv_pos_as_xyz
  1  'x, y, z'
loop_
 _atom_site_type_symbol
 _atom_site_label
 _atom_site_symmetry_multiplicity
 _atom_site_fract_x
 _atom_site_fract_y
 _atom_site_fract_z
 _atom_site_occupancy
  Cs  Cs0  1  0.296434  0.443566  0.139316  1
  Cs  Cs1  1  0.712933  0.969731  0.871518  1
  Cs  Cs2  1  0.969731  0.712933  0.371518  1
  Cs  Cs3  1  0.556434  0.703566  0.360684  1
  Cs  Cs4  1  0.443566  0.296434  0.639316  1
  Cs  Cs5  1  0.030269  0.287067  0.628482  1
  Cs  Cs6  1  0.703566  0.556434  0.860684  1
  Cs  Cs7  1  0.287067  0.030269  0.128482  1
  Mn  Mn8  1  0.948536  0.234769  0.123808  1
  Mn  Mn9  1  0.051464  0.765231  0.876192  1
  Mn  Mn10  1  0.651602  0.230673  0.131135  1
  Mn  Mn11  1  0.769327  0.348398  0.368865  1
  Mn  Mn12  1  0.230673  0.651602  0.631135  1
  Mn  Mn13  1  0.348398  0.769327  0.868865  1
  Mn  Mn14  1  0.765231  0.051464  0.376192  1
  Mn  Mn15  1  0.234769  0.948536  0.623808  1
  Cl  Cl16  1  0.136601  0.264933  0.965963  1
  Cl  Cl17  1  0.973067  0.026933  0.250000  1
  Cl  Cl18  1  0.735067  0.863399  0.534037  1
  Cl  Cl19  1  0.395621  0.985832  0.769752  1
  Cl  Cl20  1  0.260472  0.502516  0.483495  1
  Cl  Cl21  1  0.014168  0.604379  0.730248  1
  Cl  Cl22  1  0.822998  0.269234  0.927029  1
  Cl  Cl23  1  0.408812  0.591188  0.750000  1
  Cl  Cl24  1  0.502516  0.260472  0.983495  1
  Cl  Cl25  1  0.026933  0.973067  0.750000  1
  Cl  Cl26  1  0.269234  0.822998  0.427029  1
  Cl  Cl27  1  0.985832  0.395621  0.269752  1
  Cl  Cl28  1  0.863399  0.735067  0.034037  1
  Cl  Cl29  1  0.739528  0.497484  0.516505  1
  Cl  Cl30  1  0.604379  0.014168  0.230248  1
  Cl  Cl31  1  0.730766  0.177002  0.572971  1
  Cl  Cl32  1  0.177002  0.730766  0.072971  1
  Cl  Cl33  1  0.591188  0.408812  0.250000  1
  Cl  Cl34  1  0.264933  0.136601  0.465963  1
  Cl  Cl35  1  0.497484  0.739528  0.016505  1
  O  O36  1  0.217015  0.782985  0.750000  1
  O  O37  1  0.782985  0.217015  0.250000  1
