# generated using pymatgen
data_Ho5Er(Si3Ru2)2
_symmetry_space_group_name_H-M   'P 1'
_cell_length_a   5.71870801
_cell_length_b   5.71870895
_cell_length_c   13.73272617
_cell_angle_alpha   89.98346288
_cell_angle_beta   90.01653687
_cell_angle_gamma   137.25756926
_symmetry_Int_Tables_number   1
_chemical_formula_structural   Ho5Er(Si3Ru2)2
_chemical_formula_sum   'Ho5 Er1 Si6 Ru4'
_cell_volume   304.81258329
_cell_formula_units_Z   1
loop_
 _symmetry_equiv_pos_site_id
 _symmetry_equiv_pos_as_xyz
  1  'x, y, z'
loop_
 _atom_site_type_symbol
 _atom_site_label
 _atom_site_symmetry_multiplicity
 _atom_site_fract_x
 _atom_site_fract_y
 _atom_site_fract_z
 _atom_site_occupancy
  Ho  Ho0  1  0.640745  0.359255  0.250059  1
  Ho  Ho1  1  0.359226  0.640774  0.749978  1
  Ho  Ho2  1  0.922822  0.077178  0.114413  1
  Ho  Ho3  1  0.077201  0.922799  0.885583  1
  Ho  Ho4  1  0.077198  0.922802  0.614334  1
  Er  Er5  1  0.922573  0.077427  0.385894  1
  Si  Si6  1  0.329063  0.670937  0.250146  1
  Si  Si7  1  0.671110  0.328890  0.749979  1
  Si  Si8  1  0.616860  0.383140  0.038392  1
  Si  Si9  1  0.383135  0.616865  0.961556  1
  Si  Si10  1  0.383195  0.616805  0.538289  1
  Si  Si11  1  0.616777  0.383223  0.461569  1
  Ru  Ru12  1  0.787147  0.212853  0.581275  1
  Ru  Ru13  1  0.212910  0.787090  0.418504  1
  Ru  Ru14  1  0.212973  0.787027  0.081447  1
  Ru  Ru15  1  0.787066  0.212934  0.918583  1
