# generated using pymatgen
data_La2Dy3YIrI10
_symmetry_space_group_name_H-M   'P 1'
_cell_length_a   7.86725231
_cell_length_b   9.91604225
_cell_length_c   9.91086305
_cell_angle_alpha   106.79779112
_cell_angle_beta   95.81548040
_cell_angle_gamma   105.46127450
_symmetry_Int_Tables_number   1
_chemical_formula_structural   La2Dy3YIrI10
_chemical_formula_sum   'La2 Dy3 Y1 Ir1 I10'
_cell_volume   699.93286627
_cell_formula_units_Z   1
loop_
 _symmetry_equiv_pos_site_id
 _symmetry_equiv_pos_as_xyz
  1  'x, y, z'
loop_
 _atom_site_type_symbol
 _atom_site_label
 _atom_site_symmetry_multiplicity
 _atom_site_fract_x
 _atom_site_fract_y
 _atom_site_fract_z
 _atom_site_occupancy
  La  La0  1  0.117899  0.044296  0.763361  1
  La  La1  1  0.882223  0.955833  0.236747  1
  Dy  Dy2  1  0.971467  0.286977  0.087203  1
  Dy  Dy3  1  0.028475  0.712974  0.912856  1
  Dy  Dy4  1  0.348641  0.126776  0.164209  1
  Y  Y5  1  0.650326  0.872911  0.835420  1
  Ir  Ir6  1  0.000658  0.000272  0.000329  1
  I  I7  1  0.347214  0.446775  0.269456  1
  I  I8  1  0.652892  0.553130  0.730549  1
  I  I9  1  0.270330  0.089905  0.456563  1
  I  I10  1  0.729720  0.910129  0.543376  1
  I  I11  1  0.082139  0.380176  0.825894  1
  I  I12  1  0.917784  0.619831  0.174071  1
  I  I13  1  0.444918  0.818044  0.087226  1
  I  I14  1  0.555208  0.182013  0.912836  1
  I  I15  1  0.772443  0.262677  0.340982  1
  I  I16  1  0.227662  0.737281  0.658922  1
