# generated using pymatgen
data_Li2Co3AsO8
_symmetry_space_group_name_H-M   'P 1'
_cell_length_a   5.74133255
_cell_length_b   5.71612368
_cell_length_c   5.74133300
_cell_angle_alpha   59.85400960
_cell_angle_beta   60.00000318
_cell_angle_gamma   59.85400854
_symmetry_Int_Tables_number   1
_chemical_formula_structural   Li2Co3AsO8
_chemical_formula_sum   'Li2 Co3 As1 O8'
_cell_volume   132.93832421
_cell_formula_units_Z   1
loop_
 _symmetry_equiv_pos_site_id
 _symmetry_equiv_pos_as_xyz
  1  'x, y, z'
loop_
 _atom_site_type_symbol
 _atom_site_label
 _atom_site_symmetry_multiplicity
 _atom_site_fract_x
 _atom_site_fract_y
 _atom_site_fract_z
 _atom_site_occupancy
  Li  Li0  1  0.127946  0.116167  0.127944  1
  Li  Li1  1  0.872056  0.883831  0.872057  1
  Co  Co2  1  0.499998  0.500001  0.500000  1
  Co  Co3  1  0.000001  0.500001  0.500000  1
  Co  Co4  1  0.499998  0.500001  0.000001  1
  As  As5  1  0.500001  0.000000  0.500000  1
  O  O6  1  0.267943  0.254006  0.710110  1
  O  O7  1  0.732060  0.745995  0.732059  1
  O  O8  1  0.732060  0.745995  0.289887  1
  O  O9  1  0.264500  0.706502  0.264500  1
  O  O10  1  0.267943  0.254006  0.267940  1
  O  O11  1  0.289889  0.745995  0.732061  1
  O  O12  1  0.735501  0.293496  0.735503  1
  O  O13  1  0.710112  0.254006  0.267941  1
