# generated using pymatgen
data_Ac4Ni2Sn5
_symmetry_space_group_name_H-M   'P 1'
_cell_length_a   7.82246769
_cell_length_b   7.82246846
_cell_length_c   11.49048807
_cell_angle_alpha   52.84710808
_cell_angle_beta   52.84710372
_cell_angle_gamma   35.50652334
_symmetry_Int_Tables_number   1
_chemical_formula_structural   Ac4Ni2Sn5
_chemical_formula_sum   'Ac4 Ni2 Sn5'
_cell_volume   315.75495693
_cell_formula_units_Z   1
loop_
 _symmetry_equiv_pos_site_id
 _symmetry_equiv_pos_as_xyz
  1  'x, y, z'
loop_
 _atom_site_type_symbol
 _atom_site_label
 _atom_site_symmetry_multiplicity
 _atom_site_fract_x
 _atom_site_fract_y
 _atom_site_fract_z
 _atom_site_occupancy
  Ac  Ac0  1  0.061316  0.061316  0.778117  1
  Ac  Ac1  1  0.938684  0.938684  0.221883  1
  Ac  Ac2  1  0.334425  0.334425  0.783286  1
  Ac  Ac3  1  0.665575  0.665575  0.216714  1
  Ni  Ni4  1  0.771262  0.771262  0.635281  1
  Ni  Ni5  1  0.228738  0.228738  0.364719  1
  Sn  Sn6  1  0.372880  0.372880  0.061471  1
  Sn  Sn7  1  0.627120  0.627120  0.938529  1
  Sn  Sn8  1  0.000000  0.000000  0.500000  1
  Sn  Sn9  1  0.345651  0.345651  0.480037  1
  Sn  Sn10  1  0.654349  0.654349  0.519963  1
