# generated using pymatgen
data_Ac5In3
_symmetry_space_group_name_H-M   'P 1'
_cell_length_a   6.77152826
_cell_length_b   10.04026780
_cell_length_c   10.04026832
_cell_angle_alpha   83.47040756
_cell_angle_beta   70.29250059
_cell_angle_gamma   70.29249523
_symmetry_Int_Tables_number   1
_chemical_formula_structural   Ac5In3
_chemical_formula_sum   'Ac10 In6'
_cell_volume   604.99259120
_cell_formula_units_Z   2
loop_
 _symmetry_equiv_pos_site_id
 _symmetry_equiv_pos_as_xyz
  1  'x, y, z'
loop_
 _atom_site_type_symbol
 _atom_site_label
 _atom_site_symmetry_multiplicity
 _atom_site_fract_x
 _atom_site_fract_y
 _atom_site_fract_z
 _atom_site_occupancy
  Ac  Ac0  1  0.718720  0.862637  0.699923  1
  Ac  Ac1  1  0.281280  0.137363  0.300077  1
  Ac  Ac2  1  0.781280  0.300077  0.137363  1
  Ac  Ac3  1  0.218720  0.699923  0.862637  1
  Ac  Ac4  1  0.581357  0.699923  0.137363  1
  Ac  Ac5  1  0.418643  0.300077  0.862637  1
  Ac  Ac6  1  0.081357  0.137363  0.699923  1
  Ac  Ac7  1  0.918643  0.862637  0.300077  1
  Ac  Ac8  1  0.750000  0.500000  0.500000  1
  Ac  Ac9  1  0.250000  0.500000  0.500000  1
  In  In10  1  0.162696  0.500000  0.174609  1
  In  In11  1  0.837304  0.500000  0.825391  1
  In  In12  1  0.337304  0.825391  0.500000  1
  In  In13  1  0.662696  0.174609  0.500000  1
  In  In14  1  0.250000  0.000000  0.000000  1
  In  In15  1  0.750000  0.000000  0.000000  1
