# generated using pymatgen
data_Li4Ac4Ge5Pb
_symmetry_space_group_name_H-M   'P 1'
_cell_length_a   10.07788100
_cell_length_b   10.07788117
_cell_length_c   7.09472300
_cell_angle_alpha   90.00000000
_cell_angle_beta   90.00000000
_cell_angle_gamma   152.67861423
_symmetry_Int_Tables_number   1
_chemical_formula_structural   Li4Ac4Ge5Pb
_chemical_formula_sum   'Li4 Ac4 Ge5 Pb1'
_cell_volume   330.72635219
_cell_formula_units_Z   1
loop_
 _symmetry_equiv_pos_site_id
 _symmetry_equiv_pos_as_xyz
  1  'x, y, z'
loop_
 _atom_site_type_symbol
 _atom_site_label
 _atom_site_symmetry_multiplicity
 _atom_site_fract_x
 _atom_site_fract_y
 _atom_site_fract_z
 _atom_site_occupancy
  Li  Li0  1  0.814824  0.185176  0.568429  1
  Li  Li1  1  0.186637  0.813363  0.447529  1
  Li  Li2  1  0.186637  0.813363  0.052471  1
  Li  Li3  1  0.814824  0.185176  0.931571  1
  Ac  Ac4  1  0.546713  0.453287  0.250000  1
  Ac  Ac5  1  0.448139  0.551861  0.750000  1
  Ac  Ac6  1  0.344819  0.655181  0.250000  1
  Ac  Ac7  1  0.658725  0.341275  0.750000  1
  Ge  Ge8  1  0.939781  0.060219  0.068129  1
  Ge  Ge9  1  0.059944  0.940056  0.930157  1
  Ge  Ge10  1  0.059944  0.940056  0.569843  1
  Ge  Ge11  1  0.939781  0.060219  0.431871  1
  Ge  Ge12  1  0.280025  0.719975  0.750000  1
  Pb  Pb13  1  0.719208  0.280792  0.250000  1
