# generated using pymatgen
data_Ca2NdUO6
_symmetry_space_group_name_H-M   'P 1'
_cell_length_a   6.85275331
_cell_length_b   6.83536067
_cell_length_c   6.82231500
_cell_angle_alpha   91.65436017
_cell_angle_beta   91.35714849
_cell_angle_gamma   91.18572342
_symmetry_Int_Tables_number   1
_chemical_formula_structural   Ca2NdUO6
_chemical_formula_sum   'Ca4 Nd2 U2 O12'
_cell_volume   319.26844817
_cell_formula_units_Z   2
loop_
 _symmetry_equiv_pos_site_id
 _symmetry_equiv_pos_as_xyz
  1  'x, y, z'
loop_
 _atom_site_type_symbol
 _atom_site_label
 _atom_site_symmetry_multiplicity
 _atom_site_fract_x
 _atom_site_fract_y
 _atom_site_fract_z
 _atom_site_occupancy
  Ca  Ca0  1  0.551514  0.250921  0.059125  1
  Ca  Ca1  1  0.252802  0.059230  0.557691  1
  Ca  Ca2  1  0.065027  0.556276  0.249483  1
  Ca  Ca3  1  0.445209  0.750453  0.941441  1
  Nd  Nd4  1  0.938587  0.444022  0.749908  1
  Nd  Nd5  1  0.747781  0.939377  0.441029  1
  U  U6  1  0.004126  0.999980  0.002756  1
  U  U7  1  0.493956  0.498769  0.497839  1
  O  O8  1  0.294882  0.064278  0.924428  1
  O  O9  1  0.065073  0.920242  0.302183  1
  O  O10  1  0.924058  0.299387  0.065035  1
  O  O11  1  0.706508  0.935631  0.083090  1
  O  O12  1  0.933167  0.084890  0.698044  1
  O  O13  1  0.079481  0.698799  0.932819  1
  O  O14  1  0.194988  0.406695  0.536592  1
  O  O15  1  0.411886  0.542221  0.202707  1
  O  O16  1  0.463520  0.800826  0.591065  1
  O  O17  1  0.590416  0.457324  0.795414  1
  O  O18  1  0.800117  0.592138  0.462042  1
  O  O19  1  0.536900  0.198539  0.407306  1
