# generated using pymatgen
data_Zr6GeSe2
_symmetry_space_group_name_H-M   'P 1'
_cell_length_a   3.74379600
_cell_length_b   12.69597500
_cell_length_c   15.64633700
_cell_angle_alpha   90.00000000
_cell_angle_beta   90.00000000
_cell_angle_gamma   90.00000000
_symmetry_Int_Tables_number   1
_chemical_formula_structural   Zr6GeSe2
_chemical_formula_sum   'Zr24 Ge4 Se8'
_cell_volume   743.68824102
_cell_formula_units_Z   4
loop_
 _symmetry_equiv_pos_site_id
 _symmetry_equiv_pos_as_xyz
  1  'x, y, z'
loop_
 _atom_site_type_symbol
 _atom_site_label
 _atom_site_symmetry_multiplicity
 _atom_site_fract_x
 _atom_site_fract_y
 _atom_site_fract_z
 _atom_site_occupancy
  Zr  Zr0  1  0.000000  0.028919  0.108468  1
  Zr  Zr1  1  0.000000  0.971081  0.891532  1
  Zr  Zr2  1  0.500000  0.471081  0.608468  1
  Zr  Zr3  1  0.500000  0.528919  0.391532  1
  Zr  Zr4  1  0.000000  0.409430  0.243942  1
  Zr  Zr5  1  0.000000  0.590570  0.756058  1
  Zr  Zr6  1  0.500000  0.090570  0.743942  1
  Zr  Zr7  1  0.500000  0.909430  0.256058  1
  Zr  Zr8  1  0.000000  0.083704  0.576230  1
  Zr  Zr9  1  0.000000  0.916296  0.423770  1
  Zr  Zr10  1  0.500000  0.416296  0.076230  1
  Zr  Zr11  1  0.500000  0.583704  0.923770  1
  Zr  Zr12  1  0.000000  0.347525  0.480277  1
  Zr  Zr13  1  0.000000  0.652475  0.519723  1
  Zr  Zr14  1  0.500000  0.152475  0.980277  1
  Zr  Zr15  1  0.500000  0.847525  0.019723  1
  Zr  Zr16  1  0.000000  0.692748  0.293945  1
  Zr  Zr17  1  0.000000  0.307252  0.706055  1
  Zr  Zr18  1  0.500000  0.807252  0.793945  1
  Zr  Zr19  1  0.500000  0.192748  0.206055  1
  Zr  Zr20  1  0.000000  0.618263  0.078521  1
  Zr  Zr21  1  0.000000  0.381737  0.921479  1
  Zr  Zr22  1  0.500000  0.881737  0.578521  1
  Zr  Zr23  1  0.500000  0.118263  0.421479  1
  Ge  Ge24  1  0.000000  0.256931  0.086657  1
  Ge  Ge25  1  0.000000  0.743069  0.913343  1
  Ge  Ge26  1  0.500000  0.243069  0.586657  1
  Ge  Ge27  1  0.500000  0.756931  0.413343  1
  Se  Se28  1  0.000000  0.066936  0.291059  1
  Se  Se29  1  0.000000  0.933064  0.708941  1
  Se  Se30  1  0.500000  0.433064  0.791059  1
  Se  Se31  1  0.500000  0.566936  0.208941  1
  Se  Se32  1  0.000000  0.813874  0.149820  1
  Se  Se33  1  0.000000  0.186126  0.850180  1
  Se  Se34  1  0.500000  0.686126  0.649820  1
  Se  Se35  1  0.500000  0.313874  0.350180  1
