# generated using pymatgen
data_Nd8Dy11YSi16
_symmetry_space_group_name_H-M   'P 1'
_cell_length_a   7.74445502
_cell_length_b   7.74445502
_cell_length_c   14.49487500
_cell_angle_alpha   90.00041664
_cell_angle_beta   89.99958336
_cell_angle_gamma   89.99199504
_symmetry_Int_Tables_number   1
_chemical_formula_structural   Nd8Dy11YSi16
_chemical_formula_sum   'Nd8 Dy11 Y1 Si16'
_cell_volume   869.35307283
_cell_formula_units_Z   1
loop_
 _symmetry_equiv_pos_site_id
 _symmetry_equiv_pos_as_xyz
  1  'x, y, z'
loop_
 _atom_site_type_symbol
 _atom_site_label
 _atom_site_symmetry_multiplicity
 _atom_site_fract_x
 _atom_site_fract_y
 _atom_site_fract_z
 _atom_site_occupancy
  Nd  Nd0  1  0.634314  0.989750  0.454639  1
  Nd  Nd1  1  0.365414  0.010467  0.954595  1
  Nd  Nd2  1  0.989750  0.634314  0.545361  1
  Nd  Nd3  1  0.489702  0.865722  0.204743  1
  Nd  Nd4  1  0.510240  0.134432  0.704617  1
  Nd  Nd5  1  0.865722  0.489702  0.795257  1
  Nd  Nd6  1  0.134432  0.510240  0.295383  1
  Nd  Nd7  1  0.010467  0.365414  0.045405  1
  Dy  Dy8  1  0.487958  0.365063  0.125106  1
  Dy  Dy9  1  0.988071  0.134710  0.624979  1
  Dy  Dy10  1  0.865486  0.012229  0.874889  1
  Dy  Dy11  1  0.134710  0.988071  0.375021  1
  Dy  Dy12  1  0.511963  0.634631  0.624996  1
  Dy  Dy13  1  0.365063  0.487958  0.874894  1
  Dy  Dy14  1  0.634631  0.511963  0.375004  1
  Dy  Dy15  1  0.012229  0.865486  0.125111  1
  Dy  Dy16  1  0.313914  0.313914  0.500000  1
  Dy  Dy17  1  0.185992  0.813916  0.749973  1
  Dy  Dy18  1  0.813916  0.185992  0.250027  1
  Y  Y19  1  0.686059  0.686059  0.000000  1
  Si  Si20  1  0.287392  0.930698  0.561320  1
  Si  Si21  1  0.712628  0.069431  0.061376  1
  Si  Si22  1  0.930698  0.287392  0.438680  1
  Si  Si23  1  0.430736  0.212639  0.311320  1
  Si  Si24  1  0.569179  0.787396  0.811281  1
  Si  Si25  1  0.212639  0.430736  0.688680  1
  Si  Si26  1  0.787396  0.569179  0.188719  1
  Si  Si27  1  0.069431  0.712628  0.938624  1
  Si  Si28  1  0.801352  0.839879  0.693938  1
  Si  Si29  1  0.198738  0.160085  0.193925  1
  Si  Si30  1  0.839879  0.801352  0.306062  1
  Si  Si31  1  0.339946  0.698799  0.443889  1
  Si  Si32  1  0.659984  0.301086  0.943859  1
  Si  Si33  1  0.698799  0.339946  0.556111  1
  Si  Si34  1  0.301086  0.659984  0.056141  1
  Si  Si35  1  0.160085  0.198738  0.806075  1
