# generated using pymatgen
data_Ce8Sc11Si16Tc
_symmetry_space_group_name_H-M   'P 1'
_cell_length_a   7.11061500
_cell_length_b   7.43655797
_cell_length_c   14.03678600
_cell_angle_alpha   90.00000000
_cell_angle_beta   90.00000000
_cell_angle_gamma   90.07258515
_symmetry_Int_Tables_number   1
_chemical_formula_structural   Ce8Sc11Si16Tc
_chemical_formula_sum   'Ce8 Sc11 Si16 Tc1'
_cell_volume   742.24360176
_cell_formula_units_Z   1
loop_
 _symmetry_equiv_pos_site_id
 _symmetry_equiv_pos_as_xyz
  1  'x, y, z'
loop_
 _atom_site_type_symbol
 _atom_site_label
 _atom_site_symmetry_multiplicity
 _atom_site_fract_x
 _atom_site_fract_y
 _atom_site_fract_z
 _atom_site_occupancy
  Ce  Ce0  1  0.013096  0.173068  0.094418  1
  Ce  Ce1  1  0.992378  0.823983  0.900622  1
  Ce  Ce2  1  0.487328  0.669961  0.900780  1
  Ce  Ce3  1  0.992378  0.823983  0.599378  1
  Ce  Ce4  1  0.511468  0.327064  0.095439  1
  Ce  Ce5  1  0.013096  0.173068  0.405582  1
  Ce  Ce6  1  0.511468  0.327064  0.404561  1
  Ce  Ce7  1  0.487328  0.669961  0.599220  1
  Sc  Sc8  1  0.839991  0.494797  0.250000  1
  Sc  Sc9  1  0.340124  0.005671  0.250000  1
  Sc  Sc10  1  0.660901  0.994358  0.750000  1
  Sc  Sc11  1  0.325118  0.178352  0.626104  1
  Sc  Sc12  1  0.672197  0.823959  0.376307  1
  Sc  Sc13  1  0.172378  0.674977  0.378242  1
  Sc  Sc14  1  0.672197  0.823959  0.123693  1
  Sc  Sc15  1  0.829159  0.329206  0.627374  1
  Sc  Sc16  1  0.325118  0.178352  0.873896  1
  Sc  Sc17  1  0.829159  0.329206  0.872626  1
  Sc  Sc18  1  0.172378  0.674977  0.121758  1
  Si  Si19  1  0.032490  0.126907  0.750000  1
  Si  Si20  1  0.968546  0.880258  0.250000  1
  Si  Si21  1  0.466557  0.619767  0.250000  1
  Si  Si22  1  0.520848  0.387265  0.750000  1
  Si  Si23  1  0.286722  0.870944  0.750000  1
  Si  Si24  1  0.714607  0.123064  0.250000  1
  Si  Si25  1  0.212864  0.377740  0.250000  1
  Si  Si26  1  0.797284  0.622189  0.750000  1
  Si  Si27  1  0.152687  0.466093  0.548049  1
  Si  Si28  1  0.844529  0.535848  0.463458  1
  Si  Si29  1  0.347376  0.964011  0.463076  1
  Si  Si30  1  0.844529  0.535848  0.036542  1
  Si  Si31  1  0.655670  0.034320  0.540806  1
  Si  Si32  1  0.152687  0.466093  0.951951  1
  Si  Si33  1  0.655670  0.034320  0.959194  1
  Si  Si34  1  0.347376  0.964011  0.036924  1
  Tc  Tc35  1  0.152301  0.495352  0.750000  1
