# generated using pymatgen
data_NaRuO4
_symmetry_space_group_name_H-M   'P 1'
_cell_length_a   8.77284500
_cell_length_b   5.94741982
_cell_length_c   9.31514299
_cell_angle_alpha   52.96796453
_cell_angle_beta   90.00000000
_cell_angle_gamma   90.00000000
_symmetry_Int_Tables_number   1
_chemical_formula_structural   NaRuO4
_chemical_formula_sum   'Na4 Ru4 O16'
_cell_volume   387.99319319
_cell_formula_units_Z   4
loop_
 _symmetry_equiv_pos_site_id
 _symmetry_equiv_pos_as_xyz
  1  'x, y, z'
loop_
 _atom_site_type_symbol
 _atom_site_label
 _atom_site_symmetry_multiplicity
 _atom_site_fract_x
 _atom_site_fract_y
 _atom_site_fract_z
 _atom_site_occupancy
  Na  Na0  1  0.533835  0.905688  0.340618  1
  Na  Na1  1  0.033835  0.094312  0.159382  1
  Na  Na2  1  0.966165  0.905688  0.840618  1
  Na  Na3  1  0.466165  0.094312  0.659382  1
  Ru  Ru4  1  0.688280  0.403129  0.840388  1
  Ru  Ru5  1  0.188280  0.596871  0.659612  1
  Ru  Ru6  1  0.811720  0.403129  0.340388  1
  Ru  Ru7  1  0.311720  0.596871  0.159612  1
  O  O8  1  0.774104  0.738062  0.282099  1
  O  O9  1  0.615726  0.438703  0.651605  1
  O  O10  1  0.856543  0.202426  0.908740  1
  O  O11  1  0.056169  0.767846  0.484737  1
  O  O12  1  0.556169  0.232154  0.015263  1
  O  O13  1  0.356543  0.797574  0.591260  1
  O  O14  1  0.115726  0.561297  0.848395  1
  O  O15  1  0.725896  0.738062  0.782099  1
  O  O16  1  0.274104  0.261938  0.217901  1
  O  O17  1  0.884274  0.438703  0.151605  1
  O  O18  1  0.643457  0.202426  0.408740  1
  O  O19  1  0.443831  0.767846  0.984737  1
  O  O20  1  0.943831  0.232154  0.515263  1
  O  O21  1  0.143457  0.797574  0.091260  1
  O  O22  1  0.384274  0.561297  0.348395  1
  O  O23  1  0.225896  0.261938  0.717901  1
