# generated using pymatgen
data_Zr10Tl2InGa2Pb3
_symmetry_space_group_name_H-M   'P 1'
_cell_length_a   8.83937349
_cell_length_b   8.85004265
_cell_length_c   5.95707700
_cell_angle_alpha   90.00000000
_cell_angle_beta   90.00000000
_cell_angle_gamma   120.14607430
_symmetry_Int_Tables_number   1
_chemical_formula_structural   Zr10Tl2InGa2Pb3
_chemical_formula_sum   'Zr10 Tl2 In1 Ga2 Pb3'
_cell_volume   402.98562418
_cell_formula_units_Z   1
loop_
 _symmetry_equiv_pos_site_id
 _symmetry_equiv_pos_as_xyz
  1  'x, y, z'
loop_
 _atom_site_type_symbol
 _atom_site_label
 _atom_site_symmetry_multiplicity
 _atom_site_fract_x
 _atom_site_fract_y
 _atom_site_fract_z
 _atom_site_occupancy
  Zr  Zr0  1  0.664172  0.333557  0.999382  1
  Zr  Zr1  1  0.334341  0.665794  0.999466  1
  Zr  Zr2  1  0.334341  0.665794  0.500534  1
  Zr  Zr3  1  0.664172  0.333557  0.500618  1
  Zr  Zr4  1  0.737695  0.736974  0.750000  1
  Zr  Zr5  1  0.262480  0.002034  0.750000  1
  Zr  Zr6  1  0.002421  0.262564  0.750000  1
  Zr  Zr7  1  0.261225  0.260421  0.250000  1
  Zr  Zr8  1  0.739764  0.999505  0.250000  1
  Zr  Zr9  1  0.000055  0.740102  0.250000  1
  Tl  Tl10  1  0.611563  0.611635  0.250000  1
  Tl  Tl11  1  0.386586  0.999265  0.250000  1
  In  In12  1  0.387264  0.387272  0.750000  1
  Ga  Ga13  1  0.000815  0.000252  0.999494  1
  Ga  Ga14  1  0.000815  0.000252  0.500506  1
  Pb  Pb15  1  0.612607  0.000257  0.750000  1
  Pb  Pb16  1  0.000332  0.613660  0.750000  1
  Pb  Pb17  1  0.999350  0.387103  0.250000  1
