# generated using pymatgen
data_ErPa3Ge4Ir3Rh
_symmetry_space_group_name_H-M   'P 1'
_cell_length_a   4.33343200
_cell_length_b   6.92314194
_cell_length_c   7.66436666
_cell_angle_alpha   89.47964578
_cell_angle_beta   90.00000000
_cell_angle_gamma   90.00000000
_symmetry_Int_Tables_number   1
_chemical_formula_structural   ErPa3Ge4Ir3Rh
_chemical_formula_sum   'Er1 Pa3 Ge4 Ir3 Rh1'
_cell_volume   229.92891205
_cell_formula_units_Z   1
loop_
 _symmetry_equiv_pos_site_id
 _symmetry_equiv_pos_as_xyz
  1  'x, y, z'
loop_
 _atom_site_type_symbol
 _atom_site_label
 _atom_site_symmetry_multiplicity
 _atom_site_fract_x
 _atom_site_fract_y
 _atom_site_fract_z
 _atom_site_occupancy
  Er  Er0  1  0.250000  0.990592  0.297275  1
  Pa  Pa1  1  0.250000  0.491852  0.199704  1
  Pa  Pa2  1  0.750000  0.506889  0.798107  1
  Pa  Pa3  1  0.750000  0.005709  0.703256  1
  Ge  Ge4  1  0.250000  0.823708  0.919293  1
  Ge  Ge5  1  0.750000  0.178895  0.090847  1
  Ge  Ge6  1  0.750000  0.684701  0.413856  1
  Ge  Ge7  1  0.250000  0.314069  0.579295  1
  Ir  Ir8  1  0.250000  0.723483  0.592476  1
  Ir  Ir9  1  0.750000  0.766848  0.082717  1
  Ir  Ir10  1  0.250000  0.228238  0.909758  1
  Rh  Rh11  1  0.750000  0.285015  0.413413  1
