# generated using pymatgen
data_Yb5AgBi3
_symmetry_space_group_name_H-M   'P 1'
_cell_length_a   9.36622800
_cell_length_b   9.36622903
_cell_length_c   7.10292700
_cell_angle_alpha   90.00000000
_cell_angle_beta   90.00000000
_cell_angle_gamma   120.00000342
_symmetry_Int_Tables_number   1
_chemical_formula_structural   Yb5AgBi3
_chemical_formula_sum   'Yb10 Ag2 Bi6'
_cell_volume   539.63171617
_cell_formula_units_Z   2
loop_
 _symmetry_equiv_pos_site_id
 _symmetry_equiv_pos_as_xyz
  1  'x, y, z'
loop_
 _atom_site_type_symbol
 _atom_site_label
 _atom_site_symmetry_multiplicity
 _atom_site_fract_x
 _atom_site_fract_y
 _atom_site_fract_z
 _atom_site_occupancy
  Yb  Yb0  1  0.666667  0.333333  0.500000  1
  Yb  Yb1  1  0.333333  0.666667  0.500000  1
  Yb  Yb2  1  0.333333  0.666667  0.000000  1
  Yb  Yb3  1  0.666667  0.333333  0.000000  1
  Yb  Yb4  1  0.738255  0.738255  0.250000  1
  Yb  Yb5  1  0.261745  0.000000  0.250000  1
  Yb  Yb6  1  0.000000  0.261745  0.250000  1
  Yb  Yb7  1  0.261745  0.261745  0.750000  1
  Yb  Yb8  1  0.738255  0.000000  0.750000  1
  Yb  Yb9  1  0.000000  0.738255  0.750000  1
  Ag  Ag10  1  0.000000  0.000000  0.500000  1
  Ag  Ag11  1  0.000000  0.000000  0.000000  1
  Bi  Bi12  1  0.388329  0.388329  0.250000  1
  Bi  Bi13  1  0.611671  0.000000  0.250000  1
  Bi  Bi14  1  0.000000  0.611671  0.250000  1
  Bi  Bi15  1  0.611671  0.611671  0.750000  1
  Bi  Bi16  1  0.388329  0.000000  0.750000  1
  Bi  Bi17  1  0.000000  0.388329  0.750000  1
