# generated using pymatgen
data_Dy3Lu5B24(RhW)2
_symmetry_space_group_name_H-M   'P 1'
_cell_length_a   3.60835200
_cell_length_b   9.13345636
_cell_length_c   11.55050146
_cell_angle_alpha   90.41959815
_cell_angle_beta   90.00000000
_cell_angle_gamma   90.00000000
_symmetry_Int_Tables_number   1
_chemical_formula_structural   Dy3Lu5B24(RhW)2
_chemical_formula_sum   'Dy3 Lu5 B24 Rh2 W2'
_cell_volume   380.65649856
_cell_formula_units_Z   1
loop_
 _symmetry_equiv_pos_site_id
 _symmetry_equiv_pos_as_xyz
  1  'x, y, z'
loop_
 _atom_site_type_symbol
 _atom_site_label
 _atom_site_symmetry_multiplicity
 _atom_site_fract_x
 _atom_site_fract_y
 _atom_site_fract_z
 _atom_site_occupancy
  Dy  Dy0  1  0.500000  0.319626  0.412339  1
  Dy  Dy1  1  0.500000  0.680398  0.587546  1
  Dy  Dy2  1  0.500000  0.176321  0.916293  1
  Lu  Lu3  1  0.500000  0.824060  0.083230  1
  Lu  Lu4  1  0.500000  0.444474  0.126670  1
  Lu  Lu5  1  0.500000  0.556031  0.873862  1
  Lu  Lu6  1  0.500000  0.055150  0.627664  1
  Lu  Lu7  1  0.500000  0.944524  0.372128  1
  B  B8  1  0.000000  0.103996  0.472802  1
  B  B9  1  0.000000  0.895844  0.527048  1
  B  B10  1  0.000000  0.398191  0.971045  1
  B  B11  1  0.000000  0.603323  0.029534  1
  B  B12  1  0.000000  0.131469  0.318235  1
  B  B13  1  0.000000  0.868137  0.681616  1
  B  B14  1  0.000000  0.368893  0.816225  1
  B  B15  1  0.000000  0.632304  0.183185  1
  B  B16  1  0.000000  0.050591  0.065931  1
  B  B17  1  0.000000  0.947721  0.935028  1
  B  B18  1  0.000000  0.445911  0.565851  1
  B  B19  1  0.000000  0.554231  0.433969  1
  B  B20  1  0.000000  0.483985  0.288020  1
  B  B21  1  0.000000  0.516401  0.711942  1
  B  B22  1  0.000000  0.021139  0.785184  1
  B  B23  1  0.000000  0.977584  0.214213  1
  B  B24  1  0.000000  0.252310  0.079645  1
  B  B25  1  0.000000  0.747817  0.921883  1
  B  B26  1  0.000000  0.249871  0.579504  1
  B  B27  1  0.000000  0.750054  0.420230  1
  B  B28  1  0.000000  0.297022  0.236606  1
  B  B29  1  0.000000  0.702754  0.763503  1
  B  B30  1  0.000000  0.208738  0.734338  1
  B  B31  1  0.000000  0.791529  0.264792  1
  Rh  Rh32  1  0.500000  0.360475  0.679575  1
  Rh  Rh33  1  0.500000  0.639892  0.320120  1
  W  W34  1  0.500000  0.138716  0.180873  1
  W  W35  1  0.500000  0.860518  0.819370  1
