# generated using pymatgen
data_VZn6Ga5Rh12
_symmetry_space_group_name_H-M   'P 1'
_cell_length_a   4.26240300
_cell_length_b   6.07021100
_cell_length_c   12.83640400
_cell_angle_alpha   89.99978905
_cell_angle_beta   90.00104201
_cell_angle_gamma   90.00003232
_symmetry_Int_Tables_number   1
_chemical_formula_structural   VZn6Ga5Rh12
_chemical_formula_sum   'V1 Zn6 Ga5 Rh12'
_cell_volume   332.12508101
_cell_formula_units_Z   1
loop_
 _symmetry_equiv_pos_site_id
 _symmetry_equiv_pos_as_xyz
  1  'x, y, z'
loop_
 _atom_site_type_symbol
 _atom_site_label
 _atom_site_symmetry_multiplicity
 _atom_site_fract_x
 _atom_site_fract_y
 _atom_site_fract_z
 _atom_site_occupancy
  V  V0  1  0.500240  0.999998  0.833333  1
  Zn  Zn1  1  0.999996  0.999999  0.998445  1
  Zn  Zn2  1  0.499774  0.499999  0.168002  1
  Zn  Zn3  1  0.999780  0.000000  0.333333  1
  Zn  Zn4  1  0.499996  0.499999  0.498663  1
  Zn  Zn5  1  0.000220  0.999999  0.668222  1
  Zn  Zn6  1  0.500227  0.500000  0.833334  1
  Ga  Ga7  1  0.000001  0.499999  0.001845  1
  Ga  Ga8  1  0.499779  0.999999  0.167592  1
  Ga  Ga9  1  0.999791  0.499999  0.333332  1
  Ga  Ga10  1  0.499996  0.000000  0.499074  1
  Ga  Ga11  1  0.000223  0.499999  0.664826  1
  Rh  Rh12  1  0.500000  0.248793  0.997981  1
  Rh  Rh13  1  0.499998  0.751207  0.997980  1
  Rh  Rh14  1  0.999782  0.248813  0.165572  1
  Rh  Rh15  1  0.999785  0.751188  0.165572  1
  Rh  Rh16  1  0.499796  0.249433  0.333332  1
  Rh  Rh17  1  0.499794  0.750566  0.333333  1
  Rh  Rh18  1  0.999996  0.248817  0.501095  1
  Rh  Rh19  1  0.999993  0.751185  0.501096  1
  Rh  Rh20  1  0.500210  0.248797  0.668685  1
  Rh  Rh21  1  0.500208  0.751202  0.668686  1
  Rh  Rh22  1  0.000206  0.249424  0.833333  1
  Rh  Rh23  1  0.000210  0.750576  0.833334  1
