# generated using pymatgen
data_La2In4RuRh
_symmetry_space_group_name_H-M   'P 1'
_cell_length_a   5.50013238
_cell_length_b   5.50013235
_cell_length_c   8.46571100
_cell_angle_alpha   90.00000000
_cell_angle_beta   90.00000000
_cell_angle_gamma   132.31965409
_symmetry_Int_Tables_number   1
_chemical_formula_structural   La2In4RuRh
_chemical_formula_sum   'La2 In4 Ru1 Rh1'
_cell_volume   189.36045054
_cell_formula_units_Z   1
loop_
 _symmetry_equiv_pos_site_id
 _symmetry_equiv_pos_as_xyz
  1  'x, y, z'
loop_
 _atom_site_type_symbol
 _atom_site_label
 _atom_site_symmetry_multiplicity
 _atom_site_fract_x
 _atom_site_fract_y
 _atom_site_fract_z
 _atom_site_occupancy
  La  La0  1  0.061376  0.938624  0.250000  1
  La  La1  1  0.943898  0.056102  0.750000  1
  In  In2  1  0.651289  0.348711  0.548102  1
  In  In3  1  0.349873  0.650127  0.452935  1
  In  In4  1  0.651289  0.348711  0.951898  1
  In  In5  1  0.349873  0.650127  0.047065  1
  Ru  Ru6  1  0.202961  0.797039  0.750000  1
  Rh  Rh7  1  0.789443  0.210557  0.250000  1
