# generated using pymatgen
data_NaRuF6
_symmetry_space_group_name_H-M   'P 1'
_cell_length_a   5.88050117
_cell_length_b   5.88050101
_cell_length_c   5.88050000
_cell_angle_alpha   57.99136870
_cell_angle_beta   57.99137039
_cell_angle_gamma   57.99137310
_symmetry_Int_Tables_number   1
_chemical_formula_structural   NaRuF6
_chemical_formula_sum   'Na1 Ru1 F6'
_cell_volume   137.16423373
_cell_formula_units_Z   1
loop_
 _symmetry_equiv_pos_site_id
 _symmetry_equiv_pos_as_xyz
  1  'x, y, z'
loop_
 _atom_site_type_symbol
 _atom_site_label
 _atom_site_symmetry_multiplicity
 _atom_site_fract_x
 _atom_site_fract_y
 _atom_site_fract_z
 _atom_site_occupancy
  Na  Na0  1  0.500000  0.500000  0.500000  1
  Ru  Ru1  1  0.000000  0.000000  0.000000  1
  F  F2  1  0.684983  0.869939  0.220061  1
  F  F3  1  0.869939  0.220061  0.684983  1
  F  F4  1  0.779939  0.315017  0.130061  1
  F  F5  1  0.130061  0.779939  0.315017  1
  F  F6  1  0.315017  0.130061  0.779939  1
  F  F7  1  0.220061  0.684983  0.869939  1
