# generated using pymatgen
data_Li4Nd4Pt3Rh
_symmetry_space_group_name_H-M   'P 1'
_cell_length_a   4.10624000
_cell_length_b   7.20619459
_cell_length_c   8.59426840
_cell_angle_alpha   89.86487619
_cell_angle_beta   90.00000000
_cell_angle_gamma   90.00000000
_symmetry_Int_Tables_number   1
_chemical_formula_structural   Li4Nd4Pt3Rh
_chemical_formula_sum   'Li4 Nd4 Pt3 Rh1'
_cell_volume   254.30682730
_cell_formula_units_Z   1
loop_
 _symmetry_equiv_pos_site_id
 _symmetry_equiv_pos_as_xyz
  1  'x, y, z'
loop_
 _atom_site_type_symbol
 _atom_site_label
 _atom_site_symmetry_multiplicity
 _atom_site_fract_x
 _atom_site_fract_y
 _atom_site_fract_z
 _atom_site_occupancy
  Li  Li0  1  0.250000  0.127724  0.052354  1
  Li  Li1  1  0.250000  0.627396  0.447294  1
  Li  Li2  1  0.750000  0.875469  0.944972  1
  Li  Li3  1  0.750000  0.375071  0.554079  1
  Nd  Nd4  1  0.250000  0.048426  0.676757  1
  Nd  Nd5  1  0.250000  0.547415  0.819792  1
  Nd  Nd6  1  0.750000  0.958749  0.318636  1
  Nd  Nd7  1  0.750000  0.451347  0.187624  1
  Pt  Pt8  1  0.250000  0.747021  0.123315  1
  Pt  Pt9  1  0.750000  0.750217  0.622666  1
  Pt  Pt10  1  0.750000  0.252751  0.877742  1
  Rh  Rh11  1  0.250000  0.238415  0.374768  1
