# generated using pymatgen
data_Ca3Ga24Cu2Pd7
_symmetry_space_group_name_H-M   'P 1'
_cell_length_a   8.48487602
_cell_length_b   8.48487562
_cell_length_c   8.48487600
_cell_angle_alpha   90.52413801
_cell_angle_beta   90.52413799
_cell_angle_gamma   90.52413591
_symmetry_Int_Tables_number   1
_chemical_formula_structural   Ca3Ga24Cu2Pd7
_chemical_formula_sum   'Ca3 Ga24 Cu2 Pd7'
_cell_volume   610.77552783
_cell_formula_units_Z   1
loop_
 _symmetry_equiv_pos_site_id
 _symmetry_equiv_pos_as_xyz
  1  'x, y, z'
loop_
 _atom_site_type_symbol
 _atom_site_label
 _atom_site_symmetry_multiplicity
 _atom_site_fract_x
 _atom_site_fract_y
 _atom_site_fract_z
 _atom_site_occupancy
  Ca  Ca0  1  0.000000  0.500000  0.000000  1
  Ca  Ca1  1  0.500000  0.000000  0.000000  1
  Ca  Ca2  1  0.000000  0.000000  0.500000  1
  Ga  Ga3  1  0.986107  0.646068  0.646068  1
  Ga  Ga4  1  0.646068  0.646068  0.986107  1
  Ga  Ga5  1  0.646068  0.986107  0.646068  1
  Ga  Ga6  1  0.013893  0.353932  0.353932  1
  Ga  Ga7  1  0.353932  0.353932  0.013893  1
  Ga  Ga8  1  0.353932  0.013893  0.353932  1
  Ga  Ga9  1  0.742182  0.500000  0.257818  1
  Ga  Ga10  1  0.257818  0.500000  0.742182  1
  Ga  Ga11  1  0.500000  0.257818  0.742182  1
  Ga  Ga12  1  0.500000  0.742182  0.257818  1
  Ga  Ga13  1  0.257818  0.742182  0.500000  1
  Ga  Ga14  1  0.742182  0.257818  0.500000  1
  Ga  Ga15  1  0.839201  0.144028  0.839201  1
  Ga  Ga16  1  0.144028  0.839201  0.839201  1
  Ga  Ga17  1  0.839201  0.839201  0.144028  1
  Ga  Ga18  1  0.160799  0.855972  0.160799  1
  Ga  Ga19  1  0.855972  0.160799  0.160799  1
  Ga  Ga20  1  0.160799  0.160799  0.855972  1
  Ga  Ga21  1  0.732187  0.482458  0.732187  1
  Ga  Ga22  1  0.482458  0.732187  0.732187  1
  Ga  Ga23  1  0.732187  0.732187  0.482458  1
  Ga  Ga24  1  0.267813  0.517542  0.267813  1
  Ga  Ga25  1  0.517542  0.267813  0.267813  1
  Ga  Ga26  1  0.267813  0.267813  0.517542  1
  Cu  Cu27  1  0.833991  0.833991  0.833991  1
  Cu  Cu28  1  0.166009  0.166009  0.166009  1
  Pd  Pd29  1  0.662848  0.337152  0.000000  1
  Pd  Pd30  1  0.000000  0.337152  0.662848  1
  Pd  Pd31  1  0.337152  0.000000  0.662848  1
  Pd  Pd32  1  0.337152  0.662848  0.000000  1
  Pd  Pd33  1  0.000000  0.662848  0.337152  1
  Pd  Pd34  1  0.662848  0.000000  0.337152  1
  Pd  Pd35  1  0.500000  0.500000  0.500000  1
