# generated using pymatgen
data_La3ScZn2Pt3
_symmetry_space_group_name_H-M   'P 1'
_cell_length_a   7.43203400
_cell_length_b   7.58948443
_cell_length_c   4.19698000
_cell_angle_alpha   90.00000000
_cell_angle_beta   90.00000000
_cell_angle_gamma   119.31607271
_symmetry_Int_Tables_number   1
_chemical_formula_structural   La3ScZn2Pt3
_chemical_formula_sum   'La3 Sc1 Zn2 Pt3'
_cell_volume   206.41414558
_cell_formula_units_Z   1
loop_
 _symmetry_equiv_pos_site_id
 _symmetry_equiv_pos_as_xyz
  1  'x, y, z'
loop_
 _atom_site_type_symbol
 _atom_site_label
 _atom_site_symmetry_multiplicity
 _atom_site_fract_x
 _atom_site_fract_y
 _atom_site_fract_z
 _atom_site_occupancy
  La  La0  1  0.391669  0.000000  0.000000  1
  La  La1  1  0.012975  0.432629  0.000000  1
  La  La2  1  0.580347  0.567372  0.000000  1
  Sc  Sc3  1  0.774955  0.000000  0.500000  1
  Zn  Zn4  1  0.237918  0.239453  0.500000  1
  Zn  Zn5  1  0.998465  0.760547  0.500000  1
  Pt  Pt6  1  0.992181  0.000000  0.000000  1
  Pt  Pt7  1  0.665647  0.319804  0.500000  1
  Pt  Pt8  1  0.345843  0.680196  0.500000  1
