# generated using pymatgen
data_Dy8Nb12Si15Ge
_symmetry_space_group_name_H-M   'P 1'
_cell_length_a   6.87940762
_cell_length_b   7.07638807
_cell_length_c   13.45452284
_cell_angle_alpha   90.06037978
_cell_angle_beta   89.92348092
_cell_angle_gamma   90.01740361
_symmetry_Int_Tables_number   1
_chemical_formula_structural   Dy8Nb12Si15Ge
_chemical_formula_sum   'Dy8 Nb12 Si15 Ge1'
_cell_volume   654.98346551
_cell_formula_units_Z   1
loop_
 _symmetry_equiv_pos_site_id
 _symmetry_equiv_pos_as_xyz
  1  'x, y, z'
loop_
 _atom_site_type_symbol
 _atom_site_label
 _atom_site_symmetry_multiplicity
 _atom_site_fract_x
 _atom_site_fract_y
 _atom_site_fract_z
 _atom_site_occupancy
  Dy  Dy0  1  0.502500  0.328674  0.095660  1
  Dy  Dy1  1  0.001451  0.170965  0.403990  1
  Dy  Dy2  1  0.500453  0.673233  0.596341  1
  Dy  Dy3  1  0.997540  0.828467  0.904706  1
  Dy  Dy4  1  0.497415  0.671317  0.904594  1
  Dy  Dy5  1  0.997266  0.829347  0.595847  1
  Dy  Dy6  1  0.503041  0.327311  0.403461  1
  Dy  Dy7  1  0.002435  0.171644  0.095454  1
  Nb  Nb8  1  0.664993  0.008668  0.750162  1
  Nb  Nb9  1  0.164809  0.490536  0.751918  1
  Nb  Nb10  1  0.334716  0.991362  0.249786  1
  Nb  Nb11  1  0.835061  0.508924  0.249845  1
  Nb  Nb12  1  0.836712  0.324531  0.625940  1
  Nb  Nb13  1  0.338622  0.174825  0.874655  1
  Nb  Nb14  1  0.161347  0.675064  0.125446  1
  Nb  Nb15  1  0.660958  0.825424  0.373998  1
  Nb  Nb16  1  0.159860  0.677463  0.372862  1
  Nb  Nb17  1  0.660659  0.824823  0.125412  1
  Nb  Nb18  1  0.838491  0.324957  0.874612  1
  Nb  Nb19  1  0.341076  0.171435  0.626827  1
  Si  Si20  1  0.797398  0.625730  0.750137  1
  Si  Si21  1  0.296422  0.873127  0.750541  1
  Si  Si22  1  0.203014  0.374244  0.249734  1
  Si  Si23  1  0.703111  0.125767  0.249621  1
  Si  Si24  1  0.543157  0.376467  0.750395  1
  Si  Si25  1  0.043265  0.124016  0.750097  1
  Si  Si26  1  0.456382  0.623731  0.249861  1
  Si  Si27  1  0.955742  0.876704  0.249059  1
  Si  Si28  1  0.663682  0.037922  0.540124  1
  Si  Si29  1  0.163100  0.462315  0.959602  1
  Si  Si30  1  0.336573  0.962462  0.040521  1
  Si  Si31  1  0.832714  0.538463  0.458640  1
  Si  Si32  1  0.336310  0.961989  0.459564  1
  Si  Si33  1  0.836958  0.537787  0.040690  1
  Si  Si34  1  0.663287  0.037650  0.959558  1
  Ge  Ge35  1  0.169479  0.462657  0.540340  1
