# generated using pymatgen
data_LuNb2(SiTc)3
_symmetry_space_group_name_H-M   'P 1'
_cell_length_a   6.88411900
_cell_length_b   6.98584052
_cell_length_c   3.36570700
_cell_angle_alpha   90.00000000
_cell_angle_beta   90.00000000
_cell_angle_gamma   119.51946626
_symmetry_Int_Tables_number   1
_chemical_formula_structural   LuNb2(SiTc)3
_chemical_formula_sum   'Lu1 Nb2 Si3 Tc3'
_cell_volume   140.84991981
_cell_formula_units_Z   1
loop_
 _symmetry_equiv_pos_site_id
 _symmetry_equiv_pos_as_xyz
  1  'x, y, z'
loop_
 _atom_site_type_symbol
 _atom_site_label
 _atom_site_symmetry_multiplicity
 _atom_site_fract_x
 _atom_site_fract_y
 _atom_site_fract_z
 _atom_site_occupancy
  Lu  Lu0  1  0.402745  0.000000  0.500000  1
  Nb  Nb1  1  0.003817  0.404795  0.500000  1
  Nb  Nb2  1  0.599022  0.595205  0.500000  1
  Si  Si3  1  0.332681  0.658693  0.000000  1
  Si  Si4  1  0.673989  0.341307  0.000000  1
  Si  Si5  1  0.995849  0.000000  0.500000  1
  Tc  Tc6  1  0.748358  0.000000  0.000000  1
  Tc  Tc7  1  0.992260  0.740983  0.000000  1
  Tc  Tc8  1  0.251276  0.259017  0.000000  1
