# generated using pymatgen
data_Ho12AlInFe4
_symmetry_space_group_name_H-M   'P 1'
_cell_length_a   8.33505321
_cell_length_b   8.33522346
_cell_length_c   8.33505321
_cell_angle_alpha   111.64961960
_cell_angle_beta   110.23048642
_cell_angle_gamma   106.57435204
_symmetry_Int_Tables_number   1
_chemical_formula_structural   Ho12AlInFe4
_chemical_formula_sum   'Ho12 Al1 In1 Fe4'
_cell_volume   444.85474869
_cell_formula_units_Z   1
loop_
 _symmetry_equiv_pos_site_id
 _symmetry_equiv_pos_as_xyz
  1  'x, y, z'
loop_
 _atom_site_type_symbol
 _atom_site_label
 _atom_site_symmetry_multiplicity
 _atom_site_fract_x
 _atom_site_fract_y
 _atom_site_fract_z
 _atom_site_occupancy
  Ho  Ho0  1  0.437952  0.226816  0.211138  1
  Ho  Ho1  1  0.562048  0.773184  0.788862  1
  Ho  Ho2  1  0.015677  0.226816  0.788864  1
  Ho  Ho3  1  0.984323  0.773184  0.211136  1
  Ho  Ho4  1  0.187311  0.286592  0.473905  1
  Ho  Ho5  1  0.812689  0.713408  0.526095  1
  Ho  Ho6  1  0.187313  0.713408  0.900719  1
  Ho  Ho7  1  0.812687  0.286592  0.099281  1
  Ho  Ho8  1  0.314522  0.614945  0.300424  1
  Ho  Ho9  1  0.685478  0.385055  0.699576  1
  Ho  Ho10  1  0.314519  0.014103  0.699585  1
  Ho  Ho11  1  0.685481  0.985897  0.300415  1
  Al  Al12  1  0.000000  0.000000  0.000000  1
  In  In13  1  0.500000  0.500000  0.000000  1
  Fe  Fe14  1  0.384725  0.000000  0.384725  1
  Fe  Fe15  1  0.615275  0.000000  0.615275  1
  Fe  Fe16  1  0.106981  0.607045  0.500064  1
  Fe  Fe17  1  0.893019  0.392955  0.499936  1
