# generated using pymatgen
data_ScPa3(ZnRh)4
_symmetry_space_group_name_H-M   'P 1'
_cell_length_a   3.91684400
_cell_length_b   6.91735529
_cell_length_c   8.27007453
_cell_angle_alpha   89.84921659
_cell_angle_beta   90.00000000
_cell_angle_gamma   90.00000000
_symmetry_Int_Tables_number   1
_chemical_formula_structural   ScPa3(ZnRh)4
_chemical_formula_sum   'Sc1 Pa3 Zn4 Rh4'
_cell_volume   224.07029014
_cell_formula_units_Z   1
loop_
 _symmetry_equiv_pos_site_id
 _symmetry_equiv_pos_as_xyz
  1  'x, y, z'
loop_
 _atom_site_type_symbol
 _atom_site_label
 _atom_site_symmetry_multiplicity
 _atom_site_fract_x
 _atom_site_fract_y
 _atom_site_fract_z
 _atom_site_occupancy
  Sc  Sc0  1  0.750000  0.940565  0.689470  1
  Pa  Pa1  1  0.250000  0.551651  0.182782  1
  Pa  Pa2  1  0.750000  0.441910  0.810034  1
  Pa  Pa3  1  0.250000  0.049910  0.323624  1
  Zn  Zn4  1  0.250000  0.111104  0.936827  1
  Zn  Zn5  1  0.750000  0.880494  0.050796  1
  Zn  Zn6  1  0.250000  0.639871  0.559803  1
  Zn  Zn7  1  0.750000  0.382713  0.444213  1
  Rh  Rh8  1  0.750000  0.771611  0.360897  1
  Rh  Rh9  1  0.250000  0.242808  0.631507  1
  Rh  Rh10  1  0.750000  0.268923  0.134221  1
  Rh  Rh11  1  0.250000  0.718440  0.875826  1
