# generated using pymatgen
data_Zr10Bi6P
_symmetry_space_group_name_H-M   'P 1'
_cell_length_a   5.94337000
_cell_length_b   8.72914515
_cell_length_c   8.72833901
_cell_angle_alpha   120.00306483
_cell_angle_beta   90.00235082
_cell_angle_gamma   89.99529626
_symmetry_Int_Tables_number   1
_chemical_formula_structural   Zr10Bi6P
_chemical_formula_sum   'Zr10 Bi6 P1'
_cell_volume   392.15098140
_cell_formula_units_Z   1
loop_
 _symmetry_equiv_pos_site_id
 _symmetry_equiv_pos_as_xyz
  1  'x, y, z'
loop_
 _atom_site_type_symbol
 _atom_site_label
 _atom_site_symmetry_multiplicity
 _atom_site_fract_x
 _atom_site_fract_y
 _atom_site_fract_z
 _atom_site_occupancy
  Zr  Zr0  1  0.500000  0.333317  0.666633  1
  Zr  Zr1  1  0.500000  0.666684  0.333367  1
  Zr  Zr2  1  0.000000  0.666691  0.333381  1
  Zr  Zr3  1  0.000000  0.333310  0.666619  1
  Zr  Zr4  1  0.757073  0.246694  0.000000  1
  Zr  Zr5  1  0.756960  0.753316  0.753377  1
  Zr  Zr6  1  0.756960  0.999938  0.246623  1
  Zr  Zr7  1  0.242927  0.753308  0.000000  1
  Zr  Zr8  1  0.243041  0.246685  0.246624  1
  Zr  Zr9  1  0.243041  0.000061  0.753376  1
  Bi  Bi10  1  0.751013  0.606734  0.000000  1
  Bi  Bi11  1  0.751067  0.393215  0.393265  1
  Bi  Bi12  1  0.751067  0.999950  0.606735  1
  Bi  Bi13  1  0.248983  0.393265  0.000000  1
  Bi  Bi14  1  0.248934  0.606786  0.606736  1
  Bi  Bi15  1  0.248934  0.000050  0.393264  1
  P  P16  1  0.499999  0.000000  0.000000  1
