# generated using pymatgen
data_MnHgP2O7
_symmetry_space_group_name_H-M   'P 1'
_cell_length_a   6.69702315
_cell_length_b   6.76136909
_cell_length_c   6.85788716
_cell_angle_alpha   66.78668737
_cell_angle_beta   82.27630908
_cell_angle_gamma   80.41776520
_symmetry_Int_Tables_number   1
_chemical_formula_structural   MnHgP2O7
_chemical_formula_sum   'Mn2 Hg2 P4 O14'
_cell_volume   280.59911043
_cell_formula_units_Z   2
loop_
 _symmetry_equiv_pos_site_id
 _symmetry_equiv_pos_as_xyz
  1  'x, y, z'
loop_
 _atom_site_type_symbol
 _atom_site_label
 _atom_site_symmetry_multiplicity
 _atom_site_fract_x
 _atom_site_fract_y
 _atom_site_fract_z
 _atom_site_occupancy
  Mn  Mn0  1  0.658990  0.100843  0.769323  1
  Mn  Mn1  1  0.341010  0.899157  0.230677  1
  Hg  Hg2  1  0.835434  0.291766  0.161225  1
  Hg  Hg3  1  0.164566  0.708234  0.838775  1
  P  P4  1  0.148976  0.216865  0.760376  1
  P  P5  1  0.851024  0.783135  0.239624  1
  P  P6  1  0.624536  0.642343  0.670113  1
  P  P7  1  0.375464  0.357657  0.329887  1
  O  O8  1  0.767127  0.619401  0.466124  1
  O  O9  1  0.232873  0.380599  0.533876  1
  O  O10  1  0.992947  0.090034  0.730850  1
  O  O11  1  0.007053  0.909966  0.269150  1
  O  O12  1  0.589893  0.255870  0.420629  1
  O  O13  1  0.410107  0.744130  0.579371  1
  O  O14  1  0.380427  0.592730  0.174781  1
  O  O15  1  0.619573  0.407270  0.825219  1
  O  O16  1  0.948078  0.625309  0.131194  1
  O  O17  1  0.051922  0.374691  0.868806  1
  O  O18  1  0.667503  0.937715  0.129389  1
  O  O19  1  0.332497  0.062285  0.870611  1
  O  O20  1  0.285837  0.211050  0.255728  1
  O  O21  1  0.714163  0.788950  0.744272  1
