# generated using pymatgen
data_Ce4TiGa3Ir4
_symmetry_space_group_name_H-M   'P 1'
_cell_length_a   4.33645200
_cell_length_b   6.97600962
_cell_length_c   7.94963048
_cell_angle_alpha   89.06611639
_cell_angle_beta   90.00000000
_cell_angle_gamma   90.00000000
_symmetry_Int_Tables_number   1
_chemical_formula_structural   Ce4TiGa3Ir4
_chemical_formula_sum   'Ce4 Ti1 Ga3 Ir4'
_cell_volume   240.45336814
_cell_formula_units_Z   1
loop_
 _symmetry_equiv_pos_site_id
 _symmetry_equiv_pos_as_xyz
  1  'x, y, z'
loop_
 _atom_site_type_symbol
 _atom_site_label
 _atom_site_symmetry_multiplicity
 _atom_site_fract_x
 _atom_site_fract_y
 _atom_site_fract_z
 _atom_site_occupancy
  Ce  Ce0  1  0.250000  0.529918  0.181452  1
  Ce  Ce1  1  0.750000  0.468347  0.822571  1
  Ce  Ce2  1  0.750000  0.975748  0.692104  1
  Ce  Ce3  1  0.250000  0.038389  0.309392  1
  Ti  Ti4  1  0.250000  0.622023  0.559125  1
  Ga  Ga5  1  0.750000  0.358975  0.434273  1
  Ga  Ga6  1  0.750000  0.851892  0.070933  1
  Ga  Ga7  1  0.250000  0.149304  0.932108  1
  Ir  Ir8  1  0.250000  0.762491  0.869941  1
  Ir  Ir9  1  0.750000  0.237949  0.112324  1
  Ir  Ir10  1  0.750000  0.741887  0.402832  1
  Ir  Ir11  1  0.250000  0.263076  0.612945  1
