# generated using pymatgen
data_Hf8Nb2Ge6B
_symmetry_space_group_name_H-M   'P 1'
_cell_length_a   7.95572100
_cell_length_b   7.95572032
_cell_length_c   5.54440300
_cell_angle_alpha   90.00000000
_cell_angle_beta   90.00000000
_cell_angle_gamma   119.99999865
_symmetry_Int_Tables_number   1
_chemical_formula_structural   Hf8Nb2Ge6B
_chemical_formula_sum   'Hf8 Nb2 Ge6 B1'
_cell_volume   303.90964229
_cell_formula_units_Z   1
loop_
 _symmetry_equiv_pos_site_id
 _symmetry_equiv_pos_as_xyz
  1  'x, y, z'
loop_
 _atom_site_type_symbol
 _atom_site_label
 _atom_site_symmetry_multiplicity
 _atom_site_fract_x
 _atom_site_fract_y
 _atom_site_fract_z
 _atom_site_occupancy
  Hf  Hf0  1  0.000000  0.754504  0.256585  1
  Hf  Hf1  1  0.245496  0.245496  0.256585  1
  Hf  Hf2  1  0.754504  0.000000  0.256585  1
  Hf  Hf3  1  0.000000  0.245496  0.743415  1
  Hf  Hf4  1  0.754504  0.754504  0.743415  1
  Hf  Hf5  1  0.245496  0.000000  0.743415  1
  Hf  Hf6  1  0.333333  0.666667  0.000000  1
  Hf  Hf7  1  0.666667  0.333333  0.000000  1
  Nb  Nb8  1  0.666667  0.333333  0.500000  1
  Nb  Nb9  1  0.333333  0.666667  0.500000  1
  Ge  Ge10  1  0.000000  0.397940  0.253860  1
  Ge  Ge11  1  0.602060  0.602060  0.253860  1
  Ge  Ge12  1  0.397940  0.000000  0.253860  1
  Ge  Ge13  1  0.000000  0.602060  0.746140  1
  Ge  Ge14  1  0.397940  0.397940  0.746140  1
  Ge  Ge15  1  0.602060  0.000000  0.746140  1
  B  B16  1  0.000000  0.000000  0.500000  1
