# generated using pymatgen
data_Cs6PrSmBr12
_symmetry_space_group_name_H-M   'P 1'
_cell_length_a   10.09850903
_cell_length_b   10.11046403
_cell_length_c   8.41635900
_cell_angle_alpha   90.00000000
_cell_angle_beta   90.00000000
_cell_angle_gamma   90.00907831
_symmetry_Int_Tables_number   1
_chemical_formula_structural   Cs6PrSmBr12
_chemical_formula_sum   'Cs6 Pr1 Sm1 Br12'
_cell_volume   859.31539678
_cell_formula_units_Z   1
loop_
 _symmetry_equiv_pos_site_id
 _symmetry_equiv_pos_as_xyz
  1  'x, y, z'
loop_
 _atom_site_type_symbol
 _atom_site_label
 _atom_site_symmetry_multiplicity
 _atom_site_fract_x
 _atom_site_fract_y
 _atom_site_fract_z
 _atom_site_occupancy
  Cs  Cs0  1  0.000000  0.000000  0.500000  1
  Cs  Cs1  1  0.000000  0.000000  0.000000  1
  Cs  Cs2  1  0.234245  0.582874  0.500000  1
  Cs  Cs3  1  0.765755  0.417126  0.500000  1
  Cs  Cs4  1  0.416812  0.236378  0.000000  1
  Cs  Cs5  1  0.583188  0.763622  0.000000  1
  Pr  Pr6  1  0.500000  0.000000  0.500000  1
  Sm  Sm7  1  0.000000  0.500000  0.000000  1
  Br  Br8  1  0.697830  0.058332  0.745891  1
  Br  Br9  1  0.302170  0.941668  0.745891  1
  Br  Br10  1  0.942899  0.694404  0.242376  1
  Br  Br11  1  0.057101  0.305596  0.242376  1
  Br  Br12  1  0.302170  0.941668  0.254109  1
  Br  Br13  1  0.697830  0.058332  0.254109  1
  Br  Br14  1  0.057101  0.305596  0.757624  1
  Br  Br15  1  0.942899  0.694404  0.757624  1
  Br  Br16  1  0.570351  0.719717  0.500000  1
  Br  Br17  1  0.429649  0.280283  0.500000  1
  Br  Br18  1  0.275235  0.569332  0.000000  1
  Br  Br19  1  0.724765  0.430668  0.000000  1
