# generated using pymatgen
data_LaH2BrO2
_symmetry_space_group_name_H-M   'P 1'
_cell_length_a   6.47187450
_cell_length_b   4.04059100
_cell_length_c   7.21791540
_cell_angle_alpha   90.00000000
_cell_angle_beta   112.58668083
_cell_angle_gamma   90.00000000
_symmetry_Int_Tables_number   1
_chemical_formula_structural   LaH2BrO2
_chemical_formula_sum   'La2 H4 Br2 O4'
_cell_volume   174.27270811
_cell_formula_units_Z   2
loop_
 _symmetry_equiv_pos_site_id
 _symmetry_equiv_pos_as_xyz
  1  'x, y, z'
loop_
 _atom_site_type_symbol
 _atom_site_label
 _atom_site_symmetry_multiplicity
 _atom_site_fract_x
 _atom_site_fract_y
 _atom_site_fract_z
 _atom_site_occupancy
  La  La0  1  0.306616  0.249999  0.122824  1
  La  La1  1  0.693384  0.750001  0.877177  1
  H  H2  1  0.891145  0.249999  0.210055  1
  H  H3  1  0.679811  0.750001  0.296292  1
  H  H4  1  0.320189  0.249999  0.703709  1
  H  H5  1  0.108855  0.750001  0.789945  1
  Br  Br6  1  0.237134  0.750001  0.442534  1
  Br  Br7  1  0.762867  0.249999  0.557467  1
  O  O8  1  0.898486  0.249999  0.077312  1
  O  O9  1  0.566928  0.750001  0.158825  1
  O  O10  1  0.433072  0.249999  0.841175  1
  O  O11  1  0.101514  0.750001  0.922688  1
