# generated using pymatgen
data_BaY(TaSe2)6
_symmetry_space_group_name_H-M   'P 1'
_cell_length_a   6.06880200
_cell_length_b   6.06880176
_cell_length_c   15.90196400
_cell_angle_alpha   90.00000000
_cell_angle_beta   90.00000000
_cell_angle_gamma   119.99999042
_symmetry_Int_Tables_number   1
_chemical_formula_structural   BaY(TaSe2)6
_chemical_formula_sum   'Ba1 Y1 Ta6 Se12'
_cell_volume   507.20947655
_cell_formula_units_Z   1
loop_
 _symmetry_equiv_pos_site_id
 _symmetry_equiv_pos_as_xyz
  1  'x, y, z'
loop_
 _atom_site_type_symbol
 _atom_site_label
 _atom_site_symmetry_multiplicity
 _atom_site_fract_x
 _atom_site_fract_y
 _atom_site_fract_z
 _atom_site_occupancy
  Ba  Ba0  1  0.000000  0.000000  0.500000  1
  Y  Y1  1  0.000000  0.000000  0.000000  1
  Ta  Ta2  1  0.000000  0.000000  0.231098  1
  Ta  Ta3  1  0.000000  0.000000  0.768902  1
  Ta  Ta4  1  0.333333  0.666667  0.230765  1
  Ta  Ta5  1  0.666667  0.333333  0.769235  1
  Ta  Ta6  1  0.666667  0.333333  0.230765  1
  Ta  Ta7  1  0.333333  0.666667  0.769235  1
  Se  Se8  1  0.337357  0.000000  0.125463  1
  Se  Se9  1  0.000000  0.337357  0.125463  1
  Se  Se10  1  0.662643  0.662643  0.125463  1
  Se  Se11  1  0.336684  0.336684  0.664098  1
  Se  Se12  1  0.663316  0.663316  0.335902  1
  Se  Se13  1  0.663316  0.000000  0.664098  1
  Se  Se14  1  0.000000  0.663316  0.664098  1
  Se  Se15  1  0.000000  0.662643  0.874537  1
  Se  Se16  1  0.337357  0.337357  0.874537  1
  Se  Se17  1  0.000000  0.336684  0.335902  1
  Se  Se18  1  0.336684  0.000000  0.335902  1
  Se  Se19  1  0.662643  0.000000  0.874537  1
