# generated using pymatgen
data_Er9Th3Fe3Co
_symmetry_space_group_name_H-M   'P 1'
_cell_length_a   6.24645382
_cell_length_b   6.94859367
_cell_length_c   9.42775000
_cell_angle_alpha   90.00000000
_cell_angle_beta   90.00000000
_cell_angle_gamma   90.87996565
_symmetry_Int_Tables_number   1
_chemical_formula_structural   Er9Th3Fe3Co
_chemical_formula_sum   'Er9 Th3 Fe3 Co1'
_cell_volume   409.15445636
_cell_formula_units_Z   1
loop_
 _symmetry_equiv_pos_site_id
 _symmetry_equiv_pos_as_xyz
  1  'x, y, z'
loop_
 _atom_site_type_symbol
 _atom_site_label
 _atom_site_symmetry_multiplicity
 _atom_site_fract_x
 _atom_site_fract_y
 _atom_site_fract_z
 _atom_site_occupancy
  Er  Er0  1  0.325592  0.671476  0.067892  1
  Er  Er1  1  0.171134  0.169855  0.432293  1
  Er  Er2  1  0.673716  0.329211  0.567957  1
  Er  Er3  1  0.827611  0.829600  0.929027  1
  Er  Er4  1  0.673716  0.329211  0.932043  1
  Er  Er5  1  0.827611  0.829600  0.570973  1
  Er  Er6  1  0.325592  0.671476  0.432108  1
  Er  Er7  1  0.171134  0.169855  0.067707  1
  Er  Er8  1  0.360073  0.956040  0.750000  1
  Th  Th9  1  0.845180  0.559273  0.250000  1
  Th  Th10  1  0.645339  0.056668  0.250000  1
  Th  Th11  1  0.153881  0.439211  0.750000  1
  Fe  Fe12  1  0.017912  0.868433  0.250000  1
  Fe  Fe13  1  0.480920  0.368512  0.250000  1
  Fe  Fe14  1  0.968394  0.137485  0.750000  1
  Co  Co15  1  0.532194  0.614097  0.750000  1
