# generated using pymatgen
data_CaNdTaVO6
_symmetry_space_group_name_H-M   'P 1'
_cell_length_a   5.54861157
_cell_length_b   7.96647347
_cell_length_c   11.55719604
_cell_angle_alpha   89.99929748
_cell_angle_beta   90.00189201
_cell_angle_gamma   89.60901419
_symmetry_Int_Tables_number   1
_chemical_formula_structural   CaNdTaVO6
_chemical_formula_sum   'Ca4 Nd4 Ta4 V4 O24'
_cell_volume   510.84930334
_cell_formula_units_Z   4
loop_
 _symmetry_equiv_pos_site_id
 _symmetry_equiv_pos_as_xyz
  1  'x, y, z'
loop_
 _atom_site_type_symbol
 _atom_site_label
 _atom_site_symmetry_multiplicity
 _atom_site_fract_x
 _atom_site_fract_y
 _atom_site_fract_z
 _atom_site_occupancy
  Ca  Ca0  1  0.513796  0.251435  0.277293  1
  Ca  Ca1  1  0.513794  0.251596  0.777317  1
  Ca  Ca2  1  0.013787  0.751454  0.472699  1
  Ca  Ca3  1  0.013866  0.751581  0.972674  1
  Nd  Nd4  1  0.984841  0.247442  0.029664  1
  Nd  Nd5  1  0.984605  0.247454  0.529674  1
  Nd  Nd6  1  0.484631  0.747483  0.220377  1
  Nd  Nd7  1  0.484838  0.747443  0.720378  1
  Ta  Ta8  1  0.999892  0.499095  0.252482  1
  Ta  Ta9  1  0.000026  0.499098  0.752497  1
  Ta  Ta10  1  0.499904  0.999108  0.497523  1
  Ta  Ta11  1  0.500066  0.999096  0.997504  1
  V  V12  1  0.999547  0.999894  0.750525  1
  V  V13  1  0.499579  0.499928  0.999476  1
  V  V14  1  0.999467  0.999886  0.250531  1
  V  V15  1  0.499447  0.499896  0.499462  1
  O  O16  1  0.601778  0.759494  0.018124  1
  O  O17  1  0.601715  0.759494  0.518143  1
  O  O18  1  0.101702  0.259482  0.231826  1
  O  O19  1  0.101656  0.259458  0.731872  1
  O  O20  1  0.208513  0.951236  0.095305  1
  O  O21  1  0.208442  0.951161  0.595322  1
  O  O22  1  0.708432  0.451193  0.154678  1
  O  O23  1  0.708424  0.451279  0.654707  1
  O  O24  1  0.188591  0.557069  0.107869  1
  O  O25  1  0.188542  0.556946  0.607826  1
  O  O26  1  0.688647  0.057017  0.142124  1
  O  O27  1  0.688633  0.057104  0.642099  1
  O  O28  1  0.895381  0.740194  0.269486  1
  O  O29  1  0.895626  0.740205  0.769459  1
  O  O30  1  0.395317  0.240174  0.480569  1
  O  O31  1  0.395593  0.240193  0.980564  1
  O  O32  1  0.293037  0.551232  0.345613  1
  O  O33  1  0.293332  0.551093  0.845534  1
  O  O34  1  0.793019  0.051254  0.404384  1
  O  O35  1  0.793288  0.051167  0.904434  1
  O  O36  1  0.314466  0.942883  0.354285  1
  O  O37  1  0.314655  0.942915  0.854256  1
  O  O38  1  0.814437  0.442869  0.395693  1
  O  O39  1  0.814676  0.442993  0.895750  1
