# generated using pymatgen
data_CrOs2Cl13
_symmetry_space_group_name_H-M   'P 1'
_cell_length_a   11.27447400
_cell_length_b   9.56383777
_cell_length_c   10.05751678
_cell_angle_alpha   83.41166914
_cell_angle_beta   90.00000000
_cell_angle_gamma   90.00000000
_symmetry_Int_Tables_number   1
_chemical_formula_structural   CrOs2Cl13
_chemical_formula_sum   'Cr2 Os4 Cl26'
_cell_volume   1077.31257762
_cell_formula_units_Z   2
loop_
 _symmetry_equiv_pos_site_id
 _symmetry_equiv_pos_as_xyz
  1  'x, y, z'
loop_
 _atom_site_type_symbol
 _atom_site_label
 _atom_site_symmetry_multiplicity
 _atom_site_fract_x
 _atom_site_fract_y
 _atom_site_fract_z
 _atom_site_occupancy
  Cr  Cr0  1  0.250000  0.261640  0.503368  1
  Cr  Cr1  1  0.750000  0.738360  0.496632  1
  Os  Os2  1  0.250000  0.825415  0.090057  1
  Os  Os3  1  0.750000  0.174585  0.909943  1
  Os  Os4  1  0.250000  0.687971  0.871463  1
  Os  Os5  1  0.750000  0.312029  0.128537  1
  Cl  Cl6  1  0.596106  0.815426  0.584159  1
  Cl  Cl7  1  0.096106  0.184574  0.415841  1
  Cl  Cl8  1  0.750000  0.428551  0.901229  1
  Cl  Cl9  1  0.250000  0.571449  0.098771  1
  Cl  Cl10  1  0.903476  0.148822  0.079039  1
  Cl  Cl11  1  0.403476  0.851178  0.920961  1
  Cl  Cl12  1  0.096524  0.851178  0.920961  1
  Cl  Cl13  1  0.596524  0.148822  0.079039  1
  Cl  Cl14  1  0.750000  0.205051  0.342345  1
  Cl  Cl15  1  0.250000  0.794949  0.657655  1
  Cl  Cl16  1  0.894936  0.463347  0.174998  1
  Cl  Cl17  1  0.394936  0.536653  0.825002  1
  Cl  Cl18  1  0.105064  0.536653  0.825002  1
  Cl  Cl19  1  0.605064  0.463347  0.174998  1
  Cl  Cl20  1  0.750000  0.935588  0.915371  1
  Cl  Cl21  1  0.250000  0.064412  0.084629  1
  Cl  Cl22  1  0.894950  0.196723  0.752240  1
  Cl  Cl23  1  0.394950  0.803277  0.247760  1
  Cl  Cl24  1  0.105050  0.803277  0.247760  1
  Cl  Cl25  1  0.605050  0.196723  0.752240  1
  Cl  Cl26  1  0.750000  0.806019  0.288878  1
  Cl  Cl27  1  0.250000  0.193981  0.711122  1
  Cl  Cl28  1  0.750000  0.515909  0.527556  1
  Cl  Cl29  1  0.250000  0.484091  0.472444  1
  Cl  Cl30  1  0.903894  0.815426  0.584159  1
  Cl  Cl31  1  0.403894  0.184574  0.415841  1
