# generated using pymatgen
data_Dy16InCo4Ag2Hg
_symmetry_space_group_name_H-M   'P 1'
_cell_length_a   9.43899435
_cell_length_b   9.44891599
_cell_length_c   9.44891687
_cell_angle_alpha   59.94530598
_cell_angle_beta   59.90653257
_cell_angle_gamma   59.90663125
_symmetry_Int_Tables_number   1
_chemical_formula_structural   Dy16InCo4Ag2Hg
_chemical_formula_sum   'Dy16 In1 Co4 Ag2 Hg1'
_cell_volume   594.81339519
_cell_formula_units_Z   1
loop_
 _symmetry_equiv_pos_site_id
 _symmetry_equiv_pos_as_xyz
  1  'x, y, z'
loop_
 _atom_site_type_symbol
 _atom_site_label
 _atom_site_symmetry_multiplicity
 _atom_site_fract_x
 _atom_site_fract_y
 _atom_site_fract_z
 _atom_site_occupancy
  Dy  Dy0  1  0.597050  0.597704  0.597703  1
  Dy  Dy1  1  0.597697  0.598715  0.206977  1
  Dy  Dy2  1  0.597697  0.206975  0.598715  1
  Dy  Dy3  1  0.205537  0.598748  0.598747  1
  Dy  Dy4  1  0.062308  0.437185  0.437185  1
  Dy  Dy5  1  0.439628  0.060156  0.060156  1
  Dy  Dy6  1  0.438127  0.060996  0.439160  1
  Dy  Dy7  1  0.062099  0.437201  0.061535  1
  Dy  Dy8  1  0.438127  0.439160  0.060997  1
  Dy  Dy9  1  0.062099  0.061535  0.437201  1
  Dy  Dy10  1  0.184213  0.813626  0.813625  1
  Dy  Dy11  1  0.808994  0.189524  0.189525  1
  Dy  Dy12  1  0.809676  0.191365  0.812574  1
  Dy  Dy13  1  0.184043  0.812390  0.191232  1
  Dy  Dy14  1  0.809676  0.812575  0.191364  1
  Dy  Dy15  1  0.184043  0.191233  0.812390  1
  In  In16  1  0.513759  0.827105  0.827104  1
  Co  Co17  1  0.391004  0.391415  0.391414  1
  Co  Co18  1  0.392550  0.389990  0.826613  1
  Co  Co19  1  0.392548  0.826613  0.389990  1
  Co  Co20  1  0.825317  0.391199  0.391200  1
  Ag  Ag21  1  0.833569  0.831275  0.501443  1
  Ag  Ag22  1  0.833570  0.501443  0.831275  1
  Hg  Hg23  1  0.836671  0.831875  0.831875  1
