# generated using pymatgen
data_Tb4Co9NiB4
_symmetry_space_group_name_H-M   'P 1'
_cell_length_a   5.08574400
_cell_length_b   5.08574357
_cell_length_c   20.01414300
_cell_angle_alpha   90.00000000
_cell_angle_beta   90.00000000
_cell_angle_gamma   120.00000282
_symmetry_Int_Tables_number   1
_chemical_formula_structural   Tb4Co9NiB4
_chemical_formula_sum   'Tb8 Co18 Ni2 B8'
_cell_volume   448.30808536
_cell_formula_units_Z   2
loop_
 _symmetry_equiv_pos_site_id
 _symmetry_equiv_pos_as_xyz
  1  'x, y, z'
loop_
 _atom_site_type_symbol
 _atom_site_label
 _atom_site_symmetry_multiplicity
 _atom_site_fract_x
 _atom_site_fract_y
 _atom_site_fract_z
 _atom_site_occupancy
  Tb  Tb0  1  0.666667  0.333333  0.824865  1
  Tb  Tb1  1  0.666667  0.333333  0.977340  1
  Tb  Tb2  1  0.333333  0.666667  0.477340  1
  Tb  Tb3  1  0.333333  0.666667  0.022660  1
  Tb  Tb4  1  0.333333  0.666667  0.175135  1
  Tb  Tb5  1  0.666667  0.333333  0.522660  1
  Tb  Tb6  1  0.666667  0.333333  0.675135  1
  Tb  Tb7  1  0.333333  0.666667  0.324865  1
  Co  Co8  1  0.163033  0.326066  0.893761  1
  Co  Co9  1  0.163033  0.836967  0.606239  1
  Co  Co10  1  0.836967  0.163033  0.393761  1
  Co  Co11  1  0.334671  0.167336  0.250000  1
  Co  Co12  1  0.326066  0.163033  0.393761  1
  Co  Co13  1  0.836967  0.673934  0.106239  1
  Co  Co14  1  0.836967  0.673934  0.393761  1
  Co  Co15  1  0.832664  0.665329  0.250000  1
  Co  Co16  1  0.673934  0.836967  0.606239  1
  Co  Co17  1  0.665329  0.832664  0.750000  1
  Co  Co18  1  0.836967  0.163033  0.106239  1
  Co  Co19  1  0.673934  0.836967  0.893761  1
  Co  Co20  1  0.167336  0.334671  0.750000  1
  Co  Co21  1  0.167336  0.832664  0.750000  1
  Co  Co22  1  0.832664  0.167336  0.250000  1
  Co  Co23  1  0.326066  0.163033  0.106239  1
  Co  Co24  1  0.163033  0.836967  0.893761  1
  Co  Co25  1  0.163033  0.326066  0.606239  1
  Ni  Ni26  1  0.000000  0.000000  0.000000  1
  Ni  Ni27  1  0.000000  0.000000  0.500000  1
  B  B28  1  0.333333  0.666667  0.825200  1
  B  B29  1  0.333333  0.666667  0.674800  1
  B  B30  1  0.666667  0.333333  0.325200  1
  B  B31  1  0.000000  0.000000  0.822641  1
  B  B32  1  0.666667  0.333333  0.174800  1
  B  B33  1  0.000000  0.000000  0.677359  1
  B  B34  1  0.000000  0.000000  0.322641  1
  B  B35  1  0.000000  0.000000  0.177359  1
