# generated using pymatgen
data_Hf4Zr2Ta4Ga12Os7
_symmetry_space_group_name_H-M   'P 1'
_cell_length_a   8.84805243
_cell_length_b   8.84805300
_cell_length_c   8.83182341
_cell_angle_alpha   60.03227748
_cell_angle_beta   60.03227442
_cell_angle_gamma   59.88049147
_symmetry_Int_Tables_number   1
_chemical_formula_structural   Hf4Zr2Ta4Ga12Os7
_chemical_formula_sum   'Hf4 Zr2 Ta4 Ga12 Os7'
_cell_volume   488.70672447
_cell_formula_units_Z   1
loop_
 _symmetry_equiv_pos_site_id
 _symmetry_equiv_pos_as_xyz
  1  'x, y, z'
loop_
 _atom_site_type_symbol
 _atom_site_label
 _atom_site_symmetry_multiplicity
 _atom_site_fract_x
 _atom_site_fract_y
 _atom_site_fract_z
 _atom_site_occupancy
  Hf  Hf0  1  0.703651  0.703651  0.295673  1
  Hf  Hf1  1  0.297176  0.703160  0.296506  1
  Hf  Hf2  1  0.703160  0.297176  0.296506  1
  Hf  Hf3  1  0.296355  0.296355  0.703667  1
  Zr  Zr4  1  0.703113  0.296537  0.703141  1
  Zr  Zr5  1  0.296537  0.703113  0.703141  1
  Ta  Ta6  1  0.877875  0.877875  0.366401  1
  Ta  Ta7  1  0.877951  0.366722  0.877966  1
  Ta  Ta8  1  0.366722  0.877951  0.877966  1
  Ta  Ta9  1  0.877449  0.877449  0.878076  1
  Ga  Ga10  1  0.120451  0.120451  0.638733  1
  Ga  Ga11  1  0.120347  0.638869  0.120423  1
  Ga  Ga12  1  0.638869  0.120347  0.120423  1
  Ga  Ga13  1  0.120342  0.120342  0.120323  1
  Ga  Ga14  1  0.656061  0.656061  0.031903  1
  Ga  Ga15  1  0.656110  0.031474  0.656182  1
  Ga  Ga16  1  0.031474  0.656110  0.656182  1
  Ga  Ga17  1  0.656357  0.656357  0.656225  1
  Ga  Ga18  1  0.339257  0.339257  0.982085  1
  Ga  Ga19  1  0.339420  0.981835  0.339289  1
  Ga  Ga20  1  0.981835  0.339420  0.339289  1
  Ga  Ga21  1  0.339472  0.339472  0.339456  1
  Os  Os22  1  0.000001  0.000001  0.999905  1
  Os  Os23  1  0.997770  0.997770  0.500684  1
  Os  Os24  1  0.502820  0.998904  0.501311  1
  Os  Os25  1  0.998904  0.502820  0.501311  1
  Os  Os26  1  0.502233  0.502233  0.999796  1
  Os  Os27  1  0.996787  0.501503  0.998718  1
  Os  Os28  1  0.501503  0.996787  0.998718  1
