# generated using pymatgen
data_Ba4Tb3Pr5Se16
_symmetry_space_group_name_H-M   'P 1'
_cell_length_a   4.32468500
_cell_length_b   12.99307633
_cell_length_c   15.52551200
_cell_angle_alpha   89.84051800
_cell_angle_beta   90.00000000
_cell_angle_gamma   90.00000000
_symmetry_Int_Tables_number   1
_chemical_formula_structural   Ba4Tb3Pr5Se16
_chemical_formula_sum   'Ba4 Tb3 Pr5 Se16'
_cell_volume   872.39008030
_cell_formula_units_Z   1
loop_
 _symmetry_equiv_pos_site_id
 _symmetry_equiv_pos_as_xyz
  1  'x, y, z'
loop_
 _atom_site_type_symbol
 _atom_site_label
 _atom_site_symmetry_multiplicity
 _atom_site_fract_x
 _atom_site_fract_y
 _atom_site_fract_z
 _atom_site_occupancy
  Ba  Ba0  1  0.250000  0.757127  0.341790  1
  Ba  Ba1  1  0.250000  0.254190  0.161877  1
  Ba  Ba2  1  0.750000  0.242900  0.656093  1
  Ba  Ba3  1  0.750000  0.743566  0.840276  1
  Tb  Tb4  1  0.250000  0.925336  0.600817  1
  Tb  Tb5  1  0.750000  0.576857  0.103753  1
  Tb  Tb6  1  0.750000  0.073356  0.398592  1
  Pr  Pr7  1  0.250000  0.424813  0.390725  1
  Pr  Pr8  1  0.250000  0.923648  0.108730  1
  Pr  Pr9  1  0.750000  0.577890  0.606472  1
  Pr  Pr10  1  0.750000  0.072901  0.889493  1
  Pr  Pr11  1  0.250000  0.424696  0.899836  1
  Se  Se12  1  0.250000  0.211351  0.822353  1
  Se  Se13  1  0.250000  0.717234  0.672411  1
  Se  Se14  1  0.750000  0.784634  0.175886  1
  Se  Se15  1  0.750000  0.282789  0.328150  1
  Se  Se16  1  0.250000  0.126567  0.519817  1
  Se  Se17  1  0.250000  0.632839  0.983203  1
  Se  Se18  1  0.750000  0.872205  0.479522  1
  Se  Se19  1  0.750000  0.372503  0.028027  1
  Se  Se20  1  0.250000  0.019008  0.286756  1
  Se  Se21  1  0.250000  0.520196  0.214270  1
  Se  Se22  1  0.750000  0.979415  0.712039  1
  Se  Se23  1  0.750000  0.484899  0.782868  1
  Se  Se24  1  0.250000  0.419396  0.580610  1
  Se  Se25  1  0.250000  0.917011  0.918367  1
  Se  Se26  1  0.750000  0.581833  0.417047  1
  Se  Se27  1  0.750000  0.080836  0.080222  1
