# generated using pymatgen
data_Y12InCo2Si2Ag
_symmetry_space_group_name_H-M   'P 1'
_cell_length_a   8.47317267
_cell_length_b   8.47317393
_cell_length_c   8.47317400
_cell_angle_alpha   113.51413433
_cell_angle_beta   110.31324733
_cell_angle_gamma   104.70677011
_symmetry_Int_Tables_number   1
_chemical_formula_structural   Y12InCo2Si2Ag
_chemical_formula_sum   'Y12 In1 Co2 Si2 Ag1'
_cell_volume   465.49170012
_cell_formula_units_Z   1
loop_
 _symmetry_equiv_pos_site_id
 _symmetry_equiv_pos_as_xyz
  1  'x, y, z'
loop_
 _atom_site_type_symbol
 _atom_site_label
 _atom_site_symmetry_multiplicity
 _atom_site_fract_x
 _atom_site_fract_y
 _atom_site_fract_z
 _atom_site_occupancy
  Y  Y0  1  0.431947  0.234943  0.197005  1
  Y  Y1  1  0.568053  0.765057  0.802995  1
  Y  Y2  1  0.037938  0.234943  0.802995  1
  Y  Y3  1  0.962062  0.765057  0.197005  1
  Y  Y4  1  0.186555  0.287168  0.473722  1
  Y  Y5  1  0.813445  0.712832  0.526278  1
  Y  Y6  1  0.186555  0.712832  0.899387  1
  Y  Y7  1  0.813445  0.287168  0.100613  1
  Y  Y8  1  0.305677  0.616348  0.310671  1
  Y  Y9  1  0.694323  0.383652  0.689329  1
  Y  Y10  1  0.305677  0.995006  0.689329  1
  Y  Y11  1  0.694323  0.004994  0.310671  1
  In  In12  1  0.500000  0.500000  0.000000  1
  Co  Co13  1  0.106736  0.606736  0.500000  1
  Co  Co14  1  0.893264  0.393264  0.500000  1
  Si  Si15  1  0.363907  0.000000  0.363907  1
  Si  Si16  1  0.636093  0.000000  0.636093  1
  Ag  Ag17  1  0.000000  0.000000  0.000000  1
