# generated using pymatgen
data_Yb4Al18Ni5Pd
_symmetry_space_group_name_H-M   'P 1'
_cell_length_a   7.46243425
_cell_length_b   7.46243324
_cell_length_c   9.30248424
_cell_angle_alpha   89.80135824
_cell_angle_beta   89.80134949
_cell_angle_gamma   119.03753853
_symmetry_Int_Tables_number   1
_chemical_formula_structural   Yb4Al18Ni5Pd
_chemical_formula_sum   'Yb4 Al18 Ni5 Pd1'
_cell_volume   452.90924931
_cell_formula_units_Z   1
loop_
 _symmetry_equiv_pos_site_id
 _symmetry_equiv_pos_as_xyz
  1  'x, y, z'
loop_
 _atom_site_type_symbol
 _atom_site_label
 _atom_site_symmetry_multiplicity
 _atom_site_fract_x
 _atom_site_fract_y
 _atom_site_fract_z
 _atom_site_occupancy
  Yb  Yb0  1  0.995264  0.675117  0.250444  1
  Yb  Yb1  1  0.004736  0.324883  0.749556  1
  Yb  Yb2  1  0.675117  0.995264  0.250444  1
  Yb  Yb3  1  0.324883  0.004736  0.749556  1
  Al  Al4  1  0.132414  0.132414  0.255330  1
  Al  Al5  1  0.867586  0.867586  0.744670  1
  Al  Al6  1  0.330943  0.330943  0.543783  1
  Al  Al7  1  0.662711  0.662711  0.048363  1
  Al  Al8  1  0.337289  0.337289  0.951637  1
  Al  Al9  1  0.669057  0.669057  0.456217  1
  Al  Al10  1  0.341459  0.554388  0.251083  1
  Al  Al11  1  0.658541  0.445612  0.748917  1
  Al  Al12  1  0.554388  0.341459  0.251083  1
  Al  Al13  1  0.445612  0.658541  0.748917  1
  Al  Al14  1  0.998825  0.341485  0.076037  1
  Al  Al15  1  0.004001  0.664128  0.573926  1
  Al  Al16  1  0.335872  0.995999  0.426074  1
  Al  Al17  1  0.658515  0.001175  0.923963  1
  Al  Al18  1  0.001175  0.658515  0.923963  1
  Al  Al19  1  0.995999  0.335872  0.426074  1
  Al  Al20  1  0.664128  0.004001  0.573926  1
  Al  Al21  1  0.341485  0.998825  0.076037  1
  Ni  Ni22  1  0.000000  0.000000  0.500000  1
  Ni  Ni23  1  0.670831  0.329169  0.000000  1
  Ni  Ni24  1  0.329394  0.670606  0.500000  1
  Ni  Ni25  1  0.329169  0.670831  0.000000  1
  Ni  Ni26  1  0.670606  0.329394  0.500000  1
  Pd  Pd27  1  0.000000  0.000000  0.000000  1
