# generated using pymatgen
data_Nd8Er2Pt5Rh
_symmetry_space_group_name_H-M   'P 1'
_cell_length_a   11.31746100
_cell_length_b   11.31746100
_cell_length_c   6.55596600
_cell_angle_alpha   90.00000000
_cell_angle_beta   90.00000000
_cell_angle_gamma   90.00000000
_symmetry_Int_Tables_number   1
_chemical_formula_structural   Nd8Er2Pt5Rh
_chemical_formula_sum   'Nd16 Er4 Pt10 Rh2'
_cell_volume   839.72040349
_cell_formula_units_Z   2
loop_
 _symmetry_equiv_pos_site_id
 _symmetry_equiv_pos_as_xyz
  1  'x, y, z'
loop_
 _atom_site_type_symbol
 _atom_site_label
 _atom_site_symmetry_multiplicity
 _atom_site_fract_x
 _atom_site_fract_y
 _atom_site_fract_z
 _atom_site_occupancy
  Nd  Nd0  1  0.289618  0.088083  0.378319  1
  Nd  Nd1  1  0.289618  0.911917  0.878319  1
  Nd  Nd2  1  0.710382  0.088083  0.878319  1
  Nd  Nd3  1  0.710382  0.911917  0.378319  1
  Nd  Nd4  1  0.588083  0.789618  0.878319  1
  Nd  Nd5  1  0.588083  0.210382  0.378319  1
  Nd  Nd6  1  0.411917  0.789618  0.378319  1
  Nd  Nd7  1  0.411917  0.210382  0.878319  1
  Nd  Nd8  1  0.208477  0.412617  0.621389  1
  Nd  Nd9  1  0.208477  0.587383  0.121389  1
  Nd  Nd10  1  0.791523  0.412617  0.121389  1
  Nd  Nd11  1  0.791523  0.587383  0.621389  1
  Nd  Nd12  1  0.912617  0.708477  0.121389  1
  Nd  Nd13  1  0.912617  0.291523  0.621389  1
  Nd  Nd14  1  0.087383  0.708477  0.621389  1
  Nd  Nd15  1  0.087383  0.291523  0.121389  1
  Er  Er16  1  0.000000  0.000000  0.500115  1
  Er  Er17  1  0.000000  0.000000  0.000115  1
  Er  Er18  1  0.500000  0.500000  0.000115  1
  Er  Er19  1  0.500000  0.500000  0.500115  1
  Pt  Pt20  1  0.852655  0.147713  0.250717  1
  Pt  Pt21  1  0.852655  0.852287  0.750717  1
  Pt  Pt22  1  0.147345  0.147713  0.750717  1
  Pt  Pt23  1  0.147345  0.852287  0.250717  1
  Pt  Pt24  1  0.647713  0.352655  0.750717  1
  Pt  Pt25  1  0.647713  0.647345  0.250717  1
  Pt  Pt26  1  0.352287  0.352655  0.250717  1
  Pt  Pt27  1  0.352287  0.647345  0.750717  1
  Pt  Pt28  1  0.500000  0.000000  0.116174  1
  Pt  Pt29  1  0.500000  0.000000  0.616174  1
  Rh  Rh30  1  0.000000  0.500000  0.881899  1
  Rh  Rh31  1  0.000000  0.500000  0.381899  1
