# generated using pymatgen
data_YbSm3Er4(B6Os)4
_symmetry_space_group_name_H-M   'P 1'
_cell_length_a   3.66354900
_cell_length_b   9.16871984
_cell_length_c   11.57844732
_cell_angle_alpha   90.07253329
_cell_angle_beta   90.00000000
_cell_angle_gamma   90.00000000
_symmetry_Int_Tables_number   1
_chemical_formula_structural   YbSm3Er4(B6Os)4
_chemical_formula_sum   'Yb1 Sm3 Er4 B24 Os4'
_cell_volume   388.92036356
_cell_formula_units_Z   1
loop_
 _symmetry_equiv_pos_site_id
 _symmetry_equiv_pos_as_xyz
  1  'x, y, z'
loop_
 _atom_site_type_symbol
 _atom_site_label
 _atom_site_symmetry_multiplicity
 _atom_site_fract_x
 _atom_site_fract_y
 _atom_site_fract_z
 _atom_site_occupancy
  Yb  Yb0  1  0.000000  0.177537  0.914081  1
  Sm  Sm1  1  0.000000  0.321518  0.414771  1
  Sm  Sm2  1  0.000000  0.677855  0.586444  1
  Sm  Sm3  1  0.000000  0.823281  0.084673  1
  Er  Er4  1  0.000000  0.943945  0.371752  1
  Er  Er5  1  0.000000  0.057157  0.629693  1
  Er  Er6  1  0.000000  0.441867  0.126994  1
  Er  Er7  1  0.000000  0.555613  0.871835  1
  B  B8  1  0.500000  0.555258  0.431215  1
  B  B9  1  0.500000  0.445080  0.568652  1
  B  B10  1  0.500000  0.055687  0.067400  1
  B  B11  1  0.500000  0.946570  0.931234  1
  B  B12  1  0.500000  0.749519  0.417689  1
  B  B13  1  0.500000  0.251098  0.583101  1
  B  B14  1  0.500000  0.248635  0.081032  1
  B  B15  1  0.500000  0.751319  0.917381  1
  B  B16  1  0.500000  0.790359  0.266089  1
  B  B17  1  0.500000  0.209505  0.735184  1
  B  B18  1  0.500000  0.289825  0.233351  1
  B  B19  1  0.500000  0.709413  0.766487  1
  B  B20  1  0.500000  0.630109  0.185050  1
  B  B21  1  0.500000  0.368664  0.815119  1
  B  B22  1  0.500000  0.130268  0.314572  1
  B  B23  1  0.500000  0.870050  0.686382  1
  B  B24  1  0.500000  0.984578  0.212891  1
  B  B25  1  0.500000  0.017276  0.787757  1
  B  B26  1  0.500000  0.483906  0.286186  1
  B  B27  1  0.500000  0.515300  0.713322  1
  B  B28  1  0.500000  0.601855  0.027895  1
  B  B29  1  0.500000  0.397144  0.971647  1
  B  B30  1  0.500000  0.102627  0.472203  1
  B  B31  1  0.500000  0.897493  0.528450  1
  Os  Os32  1  0.000000  0.638252  0.320003  1
  Os  Os33  1  0.000000  0.361806  0.679586  1
  Os  Os34  1  0.000000  0.138507  0.180004  1
  Os  Os35  1  0.000000  0.861123  0.819874  1
