# generated using pymatgen
data_LiDy11Ho5In3Rh4
_symmetry_space_group_name_H-M   'P 1'
_cell_length_a   9.63503303
_cell_length_b   9.63650749
_cell_length_c   9.63672765
_cell_angle_alpha   59.89067729
_cell_angle_beta   59.87534110
_cell_angle_gamma   59.86601203
_symmetry_Int_Tables_number   1
_chemical_formula_structural   LiDy11Ho5In3Rh4
_chemical_formula_sum   'Li1 Dy11 Ho5 In3 Rh4'
_cell_volume   630.92401896
_cell_formula_units_Z   1
loop_
 _symmetry_equiv_pos_site_id
 _symmetry_equiv_pos_as_xyz
  1  'x, y, z'
loop_
 _atom_site_type_symbol
 _atom_site_label
 _atom_site_symmetry_multiplicity
 _atom_site_fract_x
 _atom_site_fract_y
 _atom_site_fract_z
 _atom_site_occupancy
  Li  Li0  1  0.821898  0.822041  0.821820  1
  Dy  Dy1  1  0.187851  0.188203  0.812165  1
  Dy  Dy2  1  0.599882  0.599561  0.202301  1
  Dy  Dy3  1  0.441212  0.058953  0.441460  1
  Dy  Dy4  1  0.441369  0.441331  0.058994  1
  Dy  Dy5  1  0.813332  0.186476  0.813041  1
  Dy  Dy6  1  0.187658  0.812381  0.188219  1
  Dy  Dy7  1  0.436341  0.062823  0.062936  1
  Dy  Dy8  1  0.186292  0.813282  0.812955  1
  Dy  Dy9  1  0.062777  0.436122  0.063317  1
  Dy  Dy10  1  0.813295  0.813324  0.186405  1
  Dy  Dy11  1  0.201997  0.599912  0.599659  1
  Ho  Ho12  1  0.058847  0.441173  0.441452  1
  Ho  Ho13  1  0.062705  0.063162  0.436287  1
  Ho  Ho14  1  0.812241  0.187968  0.188181  1
  Ho  Ho15  1  0.599960  0.202552  0.599375  1
  Ho  Ho16  1  0.600143  0.599709  0.599716  1
  In  In17  1  0.832776  0.833026  0.503622  1
  In  In18  1  0.503945  0.832845  0.832652  1
  In  In19  1  0.832779  0.503637  0.832874  1
  Rh  Rh20  1  0.392727  0.823560  0.393011  1
  Rh  Rh21  1  0.393195  0.392845  0.393238  1
  Rh  Rh22  1  0.823520  0.392395  0.393214  1
  Rh  Rh23  1  0.393262  0.392721  0.823109  1
