# generated using pymatgen
data_HoEr3(Tc3Ge4)2
_symmetry_space_group_name_H-M   'P 1'
_cell_length_a   8.31116216
_cell_length_b   5.65680337
_cell_length_c   6.99097513
_cell_angle_alpha   76.05597634
_cell_angle_beta   90.02077321
_cell_angle_gamma   89.99687647
_symmetry_Int_Tables_number   1
_chemical_formula_structural   HoEr3(Tc3Ge4)2
_chemical_formula_sum   'Ho1 Er3 Tc6 Ge8'
_cell_volume   318.99233610
_cell_formula_units_Z   1
loop_
 _symmetry_equiv_pos_site_id
 _symmetry_equiv_pos_as_xyz
  1  'x, y, z'
loop_
 _atom_site_type_symbol
 _atom_site_label
 _atom_site_symmetry_multiplicity
 _atom_site_fract_x
 _atom_site_fract_y
 _atom_site_fract_z
 _atom_site_occupancy
  Ho  Ho0  1  0.552191  0.077390  0.244946  1
  Er  Er1  1  0.052041  0.422469  0.755292  1
  Er  Er2  1  0.447884  0.922398  0.755355  1
  Er  Er3  1  0.947935  0.577527  0.244706  1
  Tc  Tc4  1  0.204515  0.115094  0.112782  1
  Tc  Tc5  1  0.704848  0.385268  0.886935  1
  Tc  Tc6  1  0.795339  0.885013  0.887114  1
  Tc  Tc7  1  0.295320  0.614858  0.112804  1
  Tc  Tc8  1  0.999946  0.999998  0.499975  1
  Tc  Tc9  1  0.499953  0.499889  0.500244  1
  Ge  Ge10  1  0.900419  0.119954  0.129570  1
  Ge  Ge11  1  0.400198  0.380286  0.870093  1
  Ge  Ge12  1  0.099737  0.880059  0.870314  1
  Ge  Ge13  1  0.599787  0.619912  0.129511  1
  Ge  Ge14  1  0.748731  0.223797  0.577601  1
  Ge  Ge15  1  0.248537  0.276398  0.422630  1
  Ge  Ge16  1  0.251215  0.776159  0.422580  1
  Ge  Ge17  1  0.751404  0.723531  0.577548  1
