# generated using pymatgen
data_Ho4Er6Ir3Ru
_symmetry_space_group_name_H-M   'P 1'
_cell_length_a   6.42014194
_cell_length_b   7.21145136
_cell_length_c   8.42174114
_cell_angle_alpha   96.61027252
_cell_angle_beta   112.08456715
_cell_angle_gamma   90.02993095
_symmetry_Int_Tables_number   1
_chemical_formula_structural   Ho4Er6Ir3Ru
_chemical_formula_sum   'Ho4 Er6 Ir3 Ru1'
_cell_volume   358.49776607
_cell_formula_units_Z   1
loop_
 _symmetry_equiv_pos_site_id
 _symmetry_equiv_pos_as_xyz
  1  'x, y, z'
loop_
 _atom_site_type_symbol
 _atom_site_label
 _atom_site_symmetry_multiplicity
 _atom_site_fract_x
 _atom_site_fract_y
 _atom_site_fract_z
 _atom_site_occupancy
  Ho  Ho0  1  0.791477  0.582628  0.814618  1
  Ho  Ho1  1  0.974554  0.917701  0.183773  1
  Ho  Ho2  1  0.208928  0.417336  0.182533  1
  Ho  Ho3  1  0.025950  0.084131  0.815406  1
  Er  Er4  1  0.210170  0.682168  0.561990  1
  Er  Er5  1  0.649637  0.816652  0.439129  1
  Er  Er6  1  0.789512  0.316021  0.439911  1
  Er  Er7  1  0.348813  0.184025  0.561353  1
  Er  Er8  1  0.425491  0.748856  0.999186  1
  Er  Er9  1  0.574317  0.249939  0.000111  1
  Ir  Ir10  1  0.605557  0.925736  0.779501  1
  Ir  Ir11  1  0.824794  0.575213  0.220529  1
  Ir  Ir12  1  0.395846  0.073939  0.220192  1
  Ru  Ru13  1  0.174951  0.425654  0.781764  1
