# generated using pymatgen
data_TbY7(LuSn4)2
_symmetry_space_group_name_H-M   'P 1'
_cell_length_a   8.00827000
_cell_length_b   8.16268403
_cell_length_c   15.46965705
_cell_angle_alpha   90.00941737
_cell_angle_beta   90.00000000
_cell_angle_gamma   90.00000000
_symmetry_Int_Tables_number   1
_chemical_formula_structural   TbY7(LuSn4)2
_chemical_formula_sum   'Tb2 Y14 Lu4 Sn16'
_cell_volume   1011.23565194
_cell_formula_units_Z   2
loop_
 _symmetry_equiv_pos_site_id
 _symmetry_equiv_pos_as_xyz
  1  'x, y, z'
loop_
 _atom_site_type_symbol
 _atom_site_label
 _atom_site_symmetry_multiplicity
 _atom_site_fract_x
 _atom_site_fract_y
 _atom_site_fract_z
 _atom_site_occupancy
  Tb  Tb0  1  0.520164  0.320154  0.597398  1
  Tb  Tb1  1  0.020164  0.179846  0.902602  1
  Y  Y2  1  0.367316  0.836445  0.878000  1
  Y  Y3  1  0.867316  0.663555  0.622000  1
  Y  Y4  1  0.632670  0.163509  0.377979  1
  Y  Y5  1  0.132670  0.336491  0.122021  1
  Y  Y6  1  0.632673  0.163476  0.122043  1
  Y  Y7  1  0.132673  0.336524  0.377957  1
  Y  Y8  1  0.367281  0.836492  0.622018  1
  Y  Y9  1  0.867281  0.663508  0.877982  1
  Y  Y10  1  0.520340  0.320222  0.902528  1
  Y  Y11  1  0.020340  0.179778  0.597472  1
  Y  Y12  1  0.479727  0.679795  0.402556  1
  Y  Y13  1  0.979727  0.820205  0.097444  1
  Y  Y14  1  0.479715  0.679809  0.097424  1
  Y  Y15  1  0.979715  0.820191  0.402576  1
  Lu  Lu16  1  0.198360  0.502603  0.750036  1
  Lu  Lu17  1  0.698360  0.997397  0.749964  1
  Lu  Lu18  1  0.801696  0.497433  0.250016  1
  Lu  Lu19  1  0.301696  0.002567  0.249984  1
  Sn  Sn20  1  0.292843  0.034778  0.042802  1
  Sn  Sn21  1  0.792843  0.465222  0.457198  1
  Sn  Sn22  1  0.707359  0.965127  0.542744  1
  Sn  Sn23  1  0.207359  0.534873  0.957256  1
  Sn  Sn24  1  0.707214  0.965101  0.957296  1
  Sn  Sn25  1  0.207214  0.534899  0.542704  1
  Sn  Sn26  1  0.292737  0.034873  0.457268  1
  Sn  Sn27  1  0.792737  0.465127  0.042732  1
  Sn  Sn28  1  0.563696  0.618615  0.749949  1
  Sn  Sn29  1  0.063696  0.881385  0.750051  1
  Sn  Sn30  1  0.436316  0.381376  0.249979  1
  Sn  Sn31  1  0.936316  0.118624  0.250021  1
  Sn  Sn32  1  0.329001  0.147983  0.750039  1
  Sn  Sn33  1  0.829001  0.352017  0.749961  1
  Sn  Sn34  1  0.670890  0.851909  0.249994  1
  Sn  Sn35  1  0.170890  0.648091  0.250006  1
