# generated using pymatgen
data_DyEr3(HfRh)4
_symmetry_space_group_name_H-M   'P 1'
_cell_length_a   4.58196700
_cell_length_b   6.99900100
_cell_length_c   8.22591009
_cell_angle_alpha   89.90702381
_cell_angle_beta   90.00000000
_cell_angle_gamma   90.00000000
_symmetry_Int_Tables_number   1
_chemical_formula_structural   DyEr3(HfRh)4
_chemical_formula_sum   'Dy1 Er3 Hf4 Rh4'
_cell_volume   263.79793970
_cell_formula_units_Z   1
loop_
 _symmetry_equiv_pos_site_id
 _symmetry_equiv_pos_as_xyz
  1  'x, y, z'
loop_
 _atom_site_type_symbol
 _atom_site_label
 _atom_site_symmetry_multiplicity
 _atom_site_fract_x
 _atom_site_fract_y
 _atom_site_fract_z
 _atom_site_occupancy
  Dy  Dy0  1  0.250000  0.982478  0.322601  1
  Er  Er1  1  0.250000  0.481131  0.177009  1
  Er  Er2  1  0.750000  0.018728  0.677847  1
  Er  Er3  1  0.750000  0.518598  0.822672  1
  Hf  Hf4  1  0.250000  0.359546  0.573311  1
  Hf  Hf5  1  0.250000  0.858768  0.927044  1
  Hf  Hf6  1  0.750000  0.640322  0.427582  1
  Hf  Hf7  1  0.750000  0.140686  0.071162  1
  Rh  Rh8  1  0.250000  0.231546  0.908623  1
  Rh  Rh9  1  0.250000  0.731132  0.592117  1
  Rh  Rh10  1  0.750000  0.767804  0.090522  1
  Rh  Rh11  1  0.750000  0.269262  0.409509  1
