# generated using pymatgen
data_Tm3Lu2SnSb2
_symmetry_space_group_name_H-M   'P 1'
_cell_length_a   8.81441600
_cell_length_b   8.81097932
_cell_length_c   6.27823100
_cell_angle_alpha   90.00000000
_cell_angle_beta   90.00000000
_cell_angle_gamma   120.01291095
_symmetry_Int_Tables_number   1
_chemical_formula_structural   Tm3Lu2SnSb2
_chemical_formula_sum   'Tm6 Lu4 Sn2 Sb4'
_cell_volume   422.21059926
_cell_formula_units_Z   2
loop_
 _symmetry_equiv_pos_site_id
 _symmetry_equiv_pos_as_xyz
  1  'x, y, z'
loop_
 _atom_site_type_symbol
 _atom_site_label
 _atom_site_symmetry_multiplicity
 _atom_site_fract_x
 _atom_site_fract_y
 _atom_site_fract_z
 _atom_site_occupancy
  Tm  Tm0  1  0.242163  0.000000  0.250000  1
  Tm  Tm1  1  0.757837  0.000000  0.750000  1
  Tm  Tm2  1  0.997119  0.241200  0.250000  1
  Tm  Tm3  1  0.755918  0.758800  0.250000  1
  Tm  Tm4  1  0.244082  0.241200  0.750000  1
  Tm  Tm5  1  0.002881  0.758800  0.750000  1
  Lu  Lu6  1  0.334314  0.668630  0.000000  1
  Lu  Lu7  1  0.665686  0.331370  0.500000  1
  Lu  Lu8  1  0.665686  0.331370  0.000000  1
  Lu  Lu9  1  0.334314  0.668630  0.500000  1
  Sn  Sn10  1  0.605550  0.000000  0.250000  1
  Sn  Sn11  1  0.394450  0.000000  0.750000  1
  Sb  Sb12  1  0.999053  0.608537  0.250000  1
  Sb  Sb13  1  0.390516  0.391463  0.250000  1
  Sb  Sb14  1  0.609484  0.608537  0.750000  1
  Sb  Sb15  1  0.000947  0.391463  0.750000  1
