# generated using pymatgen
data_Ce8TaSi6Mo
_symmetry_space_group_name_H-M   'P 1'
_cell_length_a   5.53517805
_cell_length_b   8.42053228
_cell_length_c   8.42053287
_cell_angle_alpha   83.81832831
_cell_angle_beta   70.84074887
_cell_angle_gamma   70.84076314
_symmetry_Int_Tables_number   1
_chemical_formula_structural   Ce8TaSi6Mo
_chemical_formula_sum   'Ce8 Ta1 Si6 Mo1'
_cell_volume   350.19976528
_cell_formula_units_Z   1
loop_
 _symmetry_equiv_pos_site_id
 _symmetry_equiv_pos_as_xyz
  1  'x, y, z'
loop_
 _atom_site_type_symbol
 _atom_site_label
 _atom_site_symmetry_multiplicity
 _atom_site_fract_x
 _atom_site_fract_y
 _atom_site_fract_z
 _atom_site_occupancy
  Ce  Ce0  1  0.093975  0.135033  0.677073  1
  Ce  Ce1  1  0.906136  0.865011  0.322661  1
  Ce  Ce2  1  0.771034  0.322833  0.135106  1
  Ce  Ce3  1  0.406025  0.322927  0.864967  1
  Ce  Ce4  1  0.228698  0.677224  0.865085  1
  Ce  Ce5  1  0.593864  0.677339  0.134989  1
  Ce  Ce6  1  0.728966  0.864894  0.677167  1
  Ce  Ce7  1  0.271302  0.134915  0.322776  1
  Ta  Ta8  1  0.250000  0.499754  0.500246  1
  Si  Si9  1  0.139615  0.500024  0.215193  1
  Si  Si10  1  0.854639  0.499933  0.784833  1
  Si  Si11  1  0.360385  0.784807  0.499976  1
  Si  Si12  1  0.645361  0.215167  0.500067  1
  Si  Si13  1  0.250000  0.999990  0.000010  1
  Si  Si14  1  0.750000  0.999951  0.000049  1
  Mo  Mo15  1  0.750000  0.500198  0.499802  1
