# generated using pymatgen
data_Ti24As7PH
_symmetry_space_group_name_H-M   'P 1'
_cell_length_a   5.10169085
_cell_length_b   10.16650765
_cell_length_c   10.16969705
_cell_angle_alpha   89.92423479
_cell_angle_beta   90.06570063
_cell_angle_gamma   89.99150634
_symmetry_Int_Tables_number   1
_chemical_formula_structural   Ti24As7PH
_chemical_formula_sum   'Ti24 As7 P1 H1'
_cell_volume   527.46454808
_cell_formula_units_Z   1
loop_
 _symmetry_equiv_pos_site_id
 _symmetry_equiv_pos_as_xyz
  1  'x, y, z'
loop_
 _atom_site_type_symbol
 _atom_site_label
 _atom_site_symmetry_multiplicity
 _atom_site_fract_x
 _atom_site_fract_y
 _atom_site_fract_z
 _atom_site_occupancy
  Ti  Ti0  1  0.794227  0.392105  0.920231  1
  Ti  Ti1  1  0.788898  0.603383  0.081708  1
  Ti  Ti2  1  0.287328  0.581614  0.896131  1
  Ti  Ti3  1  0.281528  0.414194  0.102710  1
  Ti  Ti4  1  0.221713  0.107188  0.583538  1
  Ti  Ti5  1  0.221455  0.892986  0.416228  1
  Ti  Ti6  1  0.711462  0.915149  0.607127  1
  Ti  Ti7  1  0.711434  0.085089  0.392655  1
  Ti  Ti8  1  0.968327  0.032689  0.862623  1
  Ti  Ti9  1  0.967834  0.977826  0.139762  1
  Ti  Ti10  1  0.467488  0.642885  0.527595  1
  Ti  Ti11  1  0.467499  0.356220  0.472059  1
  Ti  Ti12  1  0.037888  0.471771  0.642745  1
  Ti  Ti13  1  0.037381  0.527787  0.357234  1
  Ti  Ti14  1  0.537225  0.857137  0.971980  1
  Ti  Ti15  1  0.535797  0.145172  0.028601  1
  Ti  Ti16  1  0.254652  0.284146  0.822065  1
  Ti  Ti17  1  0.257645  0.714823  0.182078  1
  Ti  Ti18  1  0.756515  0.682171  0.785098  1
  Ti  Ti19  1  0.762784  0.316138  0.211430  1
  Ti  Ti20  1  0.747586  0.216669  0.684015  1
  Ti  Ti21  1  0.747864  0.783352  0.315315  1
  Ti  Ti22  1  0.245221  0.816869  0.717712  1
  Ti  Ti23  1  0.242075  0.184274  0.278876  1
  As  As24  1  0.465628  0.040810  0.794948  1
  As  As25  1  0.465187  0.959519  0.204932  1
  As  As26  1  0.964876  0.705513  0.540601  1
  As  As27  1  0.964998  0.294080  0.458741  1
  As  As28  1  0.539766  0.458441  0.707342  1
  As  As29  1  0.539062  0.538705  0.292996  1
  As  As30  1  0.038821  0.794626  0.959965  1
  P  P31  1  0.038661  0.206556  0.040935  1
  H  H32  1  0.966773  0.000112  0.500024  1
