# generated using pymatgen
data_Y3Ho3CoP12Ir17
_symmetry_space_group_name_H-M   'P 1'
_cell_length_a   3.95605700
_cell_length_b   11.14205201
_cell_length_c   12.77861902
_cell_angle_alpha   89.99424625
_cell_angle_beta   90.00000000
_cell_angle_gamma   90.00000000
_symmetry_Int_Tables_number   1
_chemical_formula_structural   Y3Ho3CoP12Ir17
_chemical_formula_sum   'Y3 Ho3 Co1 P12 Ir17'
_cell_volume   563.26354214
_cell_formula_units_Z   1
loop_
 _symmetry_equiv_pos_site_id
 _symmetry_equiv_pos_as_xyz
  1  'x, y, z'
loop_
 _atom_site_type_symbol
 _atom_site_label
 _atom_site_symmetry_multiplicity
 _atom_site_fract_x
 _atom_site_fract_y
 _atom_site_fract_z
 _atom_site_occupancy
  Y  Y0  1  0.000000  0.500001  0.522179  1
  Y  Y1  1  0.500000  0.000010  0.477433  1
  Y  Y2  1  0.500000  0.819149  0.202559  1
  Ho  Ho3  1  0.500000  0.180968  0.202530  1
  Ho  Ho4  1  0.000000  0.688062  0.798014  1
  Ho  Ho5  1  0.000000  0.311929  0.798020  1
  Co  Co6  1  0.500000  0.000187  0.023495  1
  P  P7  1  0.500000  0.314972  0.618524  1
  P  P8  1  0.500000  0.685017  0.618556  1
  P  P9  1  0.000000  0.184706  0.381097  1
  P  P10  1  0.000000  0.815460  0.381320  1
  P  P11  1  0.500000  0.499996  0.876830  1
  P  P12  1  0.000000  0.000288  0.121648  1
  P  P13  1  0.500000  0.853988  0.896604  1
  P  P14  1  0.500000  0.146008  0.896585  1
  P  P15  1  0.000000  0.657458  0.105732  1
  P  P16  1  0.000000  0.342152  0.105838  1
  P  P17  1  0.500000  0.500052  0.357637  1
  P  P18  1  0.000000  0.000007  0.640659  1
  Ir  Ir19  1  0.000000  0.499895  0.972592  1
  Ir  Ir20  1  0.500000  0.294722  0.429464  1
  Ir  Ir21  1  0.500000  0.705157  0.429680  1
  Ir  Ir22  1  0.000000  0.207139  0.570165  1
  Ir  Ir23  1  0.000000  0.792904  0.570206  1
  Ir  Ir24  1  0.500000  0.869991  0.714206  1
  Ir  Ir25  1  0.500000  0.130027  0.714186  1
  Ir  Ir26  1  0.000000  0.630402  0.285246  1
  Ir  Ir27  1  0.000000  0.368997  0.284942  1
  Ir  Ir28  1  0.500000  0.333205  0.000396  1
  Ir  Ir29  1  0.500000  0.666671  0.000084  1
  Ir  Ir30  1  0.000000  0.157779  0.002389  1
  Ir  Ir31  1  0.000000  0.842387  0.002205  1
  Ir  Ir32  1  0.500000  0.499894  0.178959  1
  Ir  Ir33  1  0.000000  0.000032  0.820134  1
  Ir  Ir34  1  0.500000  0.499994  0.700651  1
  Ir  Ir35  1  0.000000  0.000394  0.299233  1
