# generated using pymatgen
data_Rb2TiZn2CdAs4
_symmetry_space_group_name_H-M   'P 1'
_cell_length_a   8.01546022
_cell_length_b   8.01546035
_cell_length_c   6.01063600
_cell_angle_alpha   90.00000000
_cell_angle_beta   90.00000000
_cell_angle_gamma   135.85621653
_symmetry_Int_Tables_number   1
_chemical_formula_structural   Rb2TiZn2CdAs4
_chemical_formula_sum   'Rb2 Ti1 Zn2 Cd1 As4'
_cell_volume   268.95175867
_cell_formula_units_Z   1
loop_
 _symmetry_equiv_pos_site_id
 _symmetry_equiv_pos_as_xyz
  1  'x, y, z'
loop_
 _atom_site_type_symbol
 _atom_site_label
 _atom_site_symmetry_multiplicity
 _atom_site_fract_x
 _atom_site_fract_y
 _atom_site_fract_z
 _atom_site_occupancy
  Rb  Rb0  1  0.500000  0.000000  0.257859  1
  Rb  Rb1  1  0.000000  0.500000  0.742141  1
  Ti  Ti2  1  0.000000  0.000000  0.000000  1
  Zn  Zn3  1  0.500000  0.500000  0.000000  1
  Zn  Zn4  1  0.000000  0.000000  0.500000  1
  Cd  Cd5  1  0.500000  0.500000  0.500000  1
  As  As6  1  0.665173  0.869757  0.767944  1
  As  As7  1  0.130243  0.334827  0.232056  1
  As  As8  1  0.869757  0.665173  0.232056  1
  As  As9  1  0.334827  0.130243  0.767944  1
