# generated using pymatgen
data_Nd4Sn2Bi4Rh7
_symmetry_space_group_name_H-M   'P 1'
_cell_length_a   7.87960401
_cell_length_b   7.87960512
_cell_length_c   7.86637402
_cell_angle_alpha   109.41205845
_cell_angle_beta   109.41205238
_cell_angle_gamma   109.65749809
_symmetry_Int_Tables_number   1
_chemical_formula_structural   Nd4Sn2Bi4Rh7
_chemical_formula_sum   'Nd4 Sn2 Bi4 Rh7'
_cell_volume   375.65989966
_cell_formula_units_Z   1
loop_
 _symmetry_equiv_pos_site_id
 _symmetry_equiv_pos_as_xyz
  1  'x, y, z'
loop_
 _atom_site_type_symbol
 _atom_site_label
 _atom_site_symmetry_multiplicity
 _atom_site_fract_x
 _atom_site_fract_y
 _atom_site_fract_z
 _atom_site_occupancy
  Nd  Nd0  1  0.516207  0.002110  0.000000  1
  Nd  Nd1  1  0.997890  0.483793  0.000000  1
  Nd  Nd2  1  0.997776  0.002224  0.500000  1
  Nd  Nd3  1  0.497776  0.502224  0.500000  1
  Sn  Sn4  1  0.001646  0.326380  0.328026  1
  Sn  Sn5  1  0.673620  0.998354  0.671974  1
  Bi  Bi6  1  0.685900  0.681304  0.000000  1
  Bi  Bi7  1  0.002280  0.686071  0.688350  1
  Bi  Bi8  1  0.313929  0.997720  0.311650  1
  Bi  Bi9  1  0.318696  0.314100  0.000000  1
  Rh  Rh10  1  0.977364  0.022636  0.000000  1
  Rh  Rh11  1  0.503252  0.749652  0.252905  1
  Rh  Rh12  1  0.753504  0.496593  0.250098  1
  Rh  Rh13  1  0.253200  0.746800  0.500000  1
  Rh  Rh14  1  0.250348  0.496748  0.747095  1
  Rh  Rh15  1  0.503407  0.246496  0.749902  1
  Rh  Rh16  1  0.753200  0.246800  0.500000  1
