# generated using pymatgen
data_Er4GaI6
_symmetry_space_group_name_H-M   'P 1'
_cell_length_a   4.20456300
_cell_length_b   13.92911700
_cell_length_c   14.72451600
_cell_angle_alpha   90.00000000
_cell_angle_beta   90.00000000
_cell_angle_gamma   90.00000000
_symmetry_Int_Tables_number   1
_chemical_formula_structural   Er4GaI6
_chemical_formula_sum   'Er8 Ga2 I12'
_cell_volume   862.35379480
_cell_formula_units_Z   2
loop_
 _symmetry_equiv_pos_site_id
 _symmetry_equiv_pos_as_xyz
  1  'x, y, z'
loop_
 _atom_site_type_symbol
 _atom_site_label
 _atom_site_symmetry_multiplicity
 _atom_site_fract_x
 _atom_site_fract_y
 _atom_site_fract_z
 _atom_site_occupancy
  Er  Er0  1  0.500000  0.114737  0.346290  1
  Er  Er1  1  0.500000  0.885263  0.653710  1
  Er  Er2  1  0.500000  0.614737  0.153710  1
  Er  Er3  1  0.500000  0.385263  0.846290  1
  Er  Er4  1  0.000000  0.112342  0.575229  1
  Er  Er5  1  0.000000  0.887658  0.424771  1
  Er  Er6  1  0.000000  0.612342  0.924771  1
  Er  Er7  1  0.000000  0.387658  0.075229  1
  Ga  Ga8  1  0.500000  0.000000  0.500000  1
  Ga  Ga9  1  0.500000  0.500000  0.000000  1
  I  I10  1  0.500000  0.246129  0.162126  1
  I  I11  1  0.500000  0.753871  0.837874  1
  I  I12  1  0.500000  0.746129  0.337874  1
  I  I13  1  0.500000  0.253871  0.662126  1
  I  I14  1  0.000000  0.258864  0.413912  1
  I  I15  1  0.000000  0.741136  0.586088  1
  I  I16  1  0.000000  0.758864  0.086088  1
  I  I17  1  0.000000  0.241136  0.913912  1
  I  I18  1  0.000000  0.999522  0.240095  1
  I  I19  1  0.000000  0.000478  0.759905  1
  I  I20  1  0.000000  0.499522  0.259905  1
  I  I21  1  0.000000  0.500478  0.740095  1
