# generated using pymatgen
data_CeTh7(Si4Mo3)4
_symmetry_space_group_name_H-M   'P 1'
_cell_length_a   7.01484924
_cell_length_b   7.05725685
_cell_length_c   13.13765789
_cell_angle_alpha   90.07880494
_cell_angle_beta   90.00575393
_cell_angle_gamma   89.90953939
_symmetry_Int_Tables_number   1
_chemical_formula_structural   CeTh7(Si4Mo3)4
_chemical_formula_sum   'Ce1 Th7 Si16 Mo12'
_cell_volume   650.38611315
_cell_formula_units_Z   1
loop_
 _symmetry_equiv_pos_site_id
 _symmetry_equiv_pos_as_xyz
  1  'x, y, z'
loop_
 _atom_site_type_symbol
 _atom_site_label
 _atom_site_symmetry_multiplicity
 _atom_site_fract_x
 _atom_site_fract_y
 _atom_site_fract_z
 _atom_site_occupancy
  Ce  Ce0  1  0.992602  0.164796  0.094909  1
  Th  Th1  1  0.490708  0.338014  0.095633  1
  Th  Th2  1  0.992216  0.161856  0.404930  1
  Th  Th3  1  0.509185  0.663303  0.595373  1
  Th  Th4  1  0.008923  0.837854  0.907294  1
  Th  Th5  1  0.508567  0.663192  0.905792  1
  Th  Th6  1  0.009478  0.836797  0.594821  1
  Th  Th7  1  0.490185  0.334539  0.403776  1
  Si  Si8  1  0.655278  0.049210  0.548593  1
  Si  Si9  1  0.153572  0.449119  0.952868  1
  Si  Si10  1  0.341845  0.952824  0.048463  1
  Si  Si11  1  0.842561  0.547810  0.452066  1
  Si  Si12  1  0.347076  0.947679  0.450340  1
  Si  Si13  1  0.845571  0.545971  0.049379  1
  Si  Si14  1  0.655291  0.049354  0.953009  1
  Si  Si15  1  0.155954  0.451025  0.547924  1
  Si  Si16  1  0.539045  0.350667  0.749758  1
  Si  Si17  1  0.039761  0.148622  0.750997  1
  Si  Si18  1  0.459381  0.650989  0.251871  1
  Si  Si19  1  0.961736  0.856494  0.245590  1
  Si  Si20  1  0.815909  0.616179  0.750782  1
  Si  Si21  1  0.315286  0.883325  0.750801  1
  Si  Si22  1  0.181261  0.382765  0.248614  1
  Si  Si23  1  0.690000  0.116888  0.247793  1
  Mo  Mo24  1  0.833181  0.335981  0.625582  1
  Mo  Mo25  1  0.332814  0.163192  0.875050  1
  Mo  Mo26  1  0.169552  0.662933  0.124467  1
  Mo  Mo27  1  0.674984  0.837377  0.374290  1
  Mo  Mo28  1  0.159852  0.663437  0.374163  1
  Mo  Mo29  1  0.666023  0.835208  0.124813  1
  Mo  Mo30  1  0.830934  0.335859  0.875247  1
  Mo  Mo31  1  0.331040  0.162127  0.625132  1
  Mo  Mo32  1  0.671515  0.996825  0.750652  1
  Mo  Mo33  1  0.171333  0.503893  0.750331  1
  Mo  Mo34  1  0.329688  0.004750  0.249299  1
  Mo  Mo35  1  0.827688  0.499147  0.249595  1
