# generated using pymatgen
data_KFe(PO3)4
_symmetry_space_group_name_H-M   'P 1'
_cell_length_a   10.60209868
_cell_length_b   10.60209849
_cell_length_c   5.28232793
_cell_angle_alpha   80.75858418
_cell_angle_beta   80.75858443
_cell_angle_gamma   71.96257489
_symmetry_Int_Tables_number   1
_chemical_formula_structural   KFe(PO3)4
_chemical_formula_sum   'K2 Fe2 P8 O24'
_cell_volume   553.34700038
_cell_formula_units_Z   2
loop_
 _symmetry_equiv_pos_site_id
 _symmetry_equiv_pos_as_xyz
  1  'x, y, z'
loop_
 _atom_site_type_symbol
 _atom_site_label
 _atom_site_symmetry_multiplicity
 _atom_site_fract_x
 _atom_site_fract_y
 _atom_site_fract_z
 _atom_site_occupancy
  K  K0  1  0.407755  0.407755  0.736368  1
  K  K1  1  0.592245  0.592245  0.263632  1
  Fe  Fe2  1  0.500000  0.000000  0.000000  1
  Fe  Fe3  1  0.000000  0.500000  0.000000  1
  P  P4  1  0.798925  0.354249  0.835637  1
  P  P5  1  0.068476  0.306996  0.536528  1
  P  P6  1  0.306996  0.068476  0.536528  1
  P  P7  1  0.645751  0.201075  0.164363  1
  P  P8  1  0.354249  0.798925  0.835637  1
  P  P9  1  0.693004  0.931524  0.463472  1
  P  P10  1  0.931524  0.693004  0.463472  1
  P  P11  1  0.201075  0.645751  0.164363  1
  O  O12  1  0.425843  0.848089  0.009929  1
  O  O13  1  0.397003  0.099525  0.698014  1
  O  O14  1  0.429274  0.677846  0.710527  1
  O  O15  1  0.151911  0.574157  0.990071  1
  O  O16  1  0.574157  0.151911  0.990071  1
  O  O17  1  0.911977  0.658851  0.751467  1
  O  O18  1  0.215374  0.784626  0.000000  1
  O  O19  1  0.570726  0.322154  0.289473  1
  O  O20  1  0.602997  0.900475  0.301986  1
  O  O21  1  0.708407  0.077558  0.376207  1
  O  O22  1  0.322154  0.570726  0.289473  1
  O  O23  1  0.900475  0.602997  0.301986  1
  O  O24  1  0.848089  0.425843  0.009929  1
  O  O25  1  0.077558  0.708407  0.376207  1
  O  O26  1  0.155575  0.155575  0.609520  1
  O  O27  1  0.099525  0.397003  0.698014  1
  O  O28  1  0.677846  0.429274  0.710527  1
  O  O29  1  0.291593  0.922442  0.623793  1
  O  O30  1  0.784626  0.215374  0.000000  1
  O  O31  1  0.341149  0.088023  0.248533  1
  O  O32  1  0.658851  0.911977  0.751467  1
  O  O33  1  0.844425  0.844425  0.390480  1
  O  O34  1  0.922442  0.291593  0.623793  1
  O  O35  1  0.088023  0.341149  0.248533  1
