# generated using pymatgen
data_MgF37
_symmetry_space_group_name_H-M   'P 1'
_cell_length_a   6.51370153
_cell_length_b   10.29727236
_cell_length_c   11.00103579
_cell_angle_alpha   89.92471233
_cell_angle_beta   99.56175322
_cell_angle_gamma   75.86525166
_symmetry_Int_Tables_number   1
_chemical_formula_structural   MgF37
_chemical_formula_sum   'Mg1 F37'
_cell_volume   704.91871020
_cell_formula_units_Z   1
loop_
 _symmetry_equiv_pos_site_id
 _symmetry_equiv_pos_as_xyz
  1  'x, y, z'
loop_
 _atom_site_type_symbol
 _atom_site_label
 _atom_site_symmetry_multiplicity
 _atom_site_fract_x
 _atom_site_fract_y
 _atom_site_fract_z
 _atom_site_occupancy
  Mg  Mg0  1  0.657314  0.830730  0.854038  1
  F  F1  1  0.317744  0.107908  0.218422  1
  F  F2  1  0.287466  0.398954  0.896393  1
  F  F3  1  0.719587  0.599013  0.111058  1
  F  F4  1  0.332866  0.219956  0.601128  1
  F  F5  1  0.693361  0.716241  0.414699  1
  F  F6  1  0.835049  0.213996  0.825704  1
  F  F7  1  0.104885  0.785192  0.181162  1
  F  F8  1  0.679183  0.880762  0.022137  1
  F  F9  1  0.307717  0.118258  0.952827  1
  F  F10  1  0.761553  0.638028  0.840178  1
  F  F11  1  0.242742  0.397876  0.149941  1
  F  F12  1  0.434036  0.449002  0.838055  1
  F  F13  1  0.553211  0.544088  0.141995  1
  F  F14  1  0.713281  0.743082  0.680927  1
  F  F15  1  0.232970  0.395617  0.278348  1
  F  F16  1  0.775199  0.007403  0.519290  1
  F  F17  1  0.233873  0.017046  0.459779  1
  F  F18  1  0.291592  0.172890  0.714380  1
  F  F19  1  0.701773  0.813636  0.324670  1
  F  F20  1  0.820625  0.077586  0.628491  1
  F  F21  1  0.175182  0.927023  0.369609  1
  F  F22  1  0.827978  0.956041  0.898614  1
  F  F23  1  0.185752  0.030359  0.986522  1
  F  F24  1  0.869448  0.342540  0.801344  1
  F  F25  1  0.142570  0.661169  0.249194  1
  F  F26  1  0.258417  0.728715  0.950637  1
  F  F27  1  0.848661  0.261583  0.093763  1
  F  F28  1  0.454621  0.889690  0.701111  1
  F  F29  1  0.515779  0.102120  0.298632  1
  F  F30  1  0.125003  0.750812  0.558161  1
  F  F31  1  0.943439  0.251534  0.408244  1
  F  F32  1  0.112368  0.637193  0.627655  1
  F  F33  1  0.808996  0.380488  0.366593  1
  F  F34  1  0.309540  0.788143  0.843763  1
  F  F35  1  0.730043  0.187358  0.151603  1
  F  F36  1  0.511544  0.430014  0.558022  1
  F  F37  1  0.484631  0.547952  0.482910  1
