# generated using pymatgen
data_Nd8DyLuPb6
_symmetry_space_group_name_H-M   'P 1'
_cell_length_a   9.31072100
_cell_length_b   9.31072082
_cell_length_c   6.83011800
_cell_angle_alpha   90.00000000
_cell_angle_beta   90.00000000
_cell_angle_gamma   119.99999707
_symmetry_Int_Tables_number   1
_chemical_formula_structural   Nd8DyLuPb6
_chemical_formula_sum   'Nd8 Dy1 Lu1 Pb6'
_cell_volume   512.77337757
_cell_formula_units_Z   1
loop_
 _symmetry_equiv_pos_site_id
 _symmetry_equiv_pos_as_xyz
  1  'x, y, z'
loop_
 _atom_site_type_symbol
 _atom_site_label
 _atom_site_symmetry_multiplicity
 _atom_site_fract_x
 _atom_site_fract_y
 _atom_site_fract_z
 _atom_site_occupancy
  Nd  Nd0  1  0.333333  0.666667  0.500000  1
  Nd  Nd1  1  0.666667  0.333333  0.500000  1
  Nd  Nd2  1  0.759459  0.759659  0.751795  1
  Nd  Nd3  1  0.240341  0.999800  0.751795  1
  Nd  Nd4  1  0.000200  0.240541  0.751795  1
  Nd  Nd5  1  0.240341  0.240541  0.248205  1
  Nd  Nd6  1  0.759459  0.999800  0.248205  1
  Nd  Nd7  1  0.000200  0.759659  0.248205  1
  Dy  Dy8  1  0.666667  0.333333  0.000000  1
  Lu  Lu9  1  0.333333  0.666667  0.000000  1
  Pb  Pb10  1  0.395801  0.396439  0.756749  1
  Pb  Pb11  1  0.603561  0.999362  0.756749  1
  Pb  Pb12  1  0.000638  0.604199  0.756749  1
  Pb  Pb13  1  0.603561  0.604199  0.243251  1
  Pb  Pb14  1  0.395801  0.999362  0.243251  1
  Pb  Pb15  1  0.000638  0.396439  0.243251  1
