# generated using pymatgen
data_Tb5P12Pd2Ru17
_symmetry_space_group_name_H-M   'P 1'
_cell_length_a   3.98624900
_cell_length_b   12.55474945
_cell_length_c   12.55470900
_cell_angle_alpha   119.41868115
_cell_angle_beta   90.00000000
_cell_angle_gamma   90.00000000
_symmetry_Int_Tables_number   1
_chemical_formula_structural   Tb5P12Pd2Ru17
_chemical_formula_sum   'Tb5 P12 Pd2 Ru17'
_cell_volume   547.29824759
_cell_formula_units_Z   1
loop_
 _symmetry_equiv_pos_site_id
 _symmetry_equiv_pos_as_xyz
  1  'x, y, z'
loop_
 _atom_site_type_symbol
 _atom_site_label
 _atom_site_symmetry_multiplicity
 _atom_site_fract_x
 _atom_site_fract_y
 _atom_site_fract_z
 _atom_site_occupancy
  Tb  Tb0  1  0.500000  0.999731  0.181894  1
  Tb  Tb1  1  0.500000  0.181892  0.999734  1
  Tb  Tb2  1  0.500000  0.816820  0.816822  1
  Tb  Tb3  1  0.000000  0.335320  0.663969  1
  Tb  Tb4  1  0.000000  0.663965  0.335321  1
  P  P5  1  0.000000  0.001037  0.813622  1
  P  P6  1  0.000000  0.813620  0.001040  1
  P  P7  1  0.000000  0.183501  0.183503  1
  P  P8  1  0.500000  0.306808  0.477452  1
  P  P9  1  0.500000  0.181748  0.699273  1
  P  P10  1  0.500000  0.522748  0.822318  1
  P  P11  1  0.500000  0.822316  0.522752  1
  P  P12  1  0.500000  0.477451  0.306811  1
  P  P13  1  0.500000  0.699271  0.181751  1
  P  P14  1  0.000000  0.999209  0.365416  1
  P  P15  1  0.000000  0.365410  0.999212  1
  P  P16  1  0.000000  0.625635  0.625639  1
  Pd  Pd17  1  0.000000  0.000208  0.552882  1
  Pd  Pd18  1  0.000000  0.552877  0.000210  1
  Ru  Ru19  1  0.000000  0.444823  0.444826  1
  Ru  Ru20  1  0.500000  0.001796  0.713369  1
  Ru  Ru21  1  0.500000  0.713364  0.001793  1
  Ru  Ru22  1  0.500000  0.283044  0.283049  1
  Ru  Ru23  1  0.000000  0.192042  0.377002  1
  Ru  Ru24  1  0.000000  0.186631  0.805513  1
  Ru  Ru25  1  0.000000  0.623693  0.814894  1
  Ru  Ru26  1  0.000000  0.814890  0.623694  1
  Ru  Ru27  1  0.000000  0.376998  0.192046  1
  Ru  Ru28  1  0.000000  0.805512  0.186632  1
  Ru  Ru29  1  0.500000  0.127619  0.493671  1
  Ru  Ru30  1  0.500000  0.370290  0.877791  1
  Ru  Ru31  1  0.500000  0.507745  0.631770  1
  Ru  Ru32  1  0.500000  0.631768  0.507750  1
  Ru  Ru33  1  0.500000  0.493671  0.127620  1
  Ru  Ru34  1  0.500000  0.877789  0.370293  1
  Ru  Ru35  1  0.000000  0.998660  0.998663  1
