# generated using pymatgen
data_Y3Zn3IrPd2
_symmetry_space_group_name_H-M   'P 1'
_cell_length_a   7.28054800
_cell_length_b   7.28054755
_cell_length_c   3.88274400
_cell_angle_alpha   90.00000000
_cell_angle_beta   90.00000000
_cell_angle_gamma   120.00000205
_symmetry_Int_Tables_number   1
_chemical_formula_structural   Y3Zn3IrPd2
_chemical_formula_sum   'Y3 Zn3 Ir1 Pd2'
_cell_volume   178.23684744
_cell_formula_units_Z   1
loop_
 _symmetry_equiv_pos_site_id
 _symmetry_equiv_pos_as_xyz
  1  'x, y, z'
loop_
 _atom_site_type_symbol
 _atom_site_label
 _atom_site_symmetry_multiplicity
 _atom_site_fract_x
 _atom_site_fract_y
 _atom_site_fract_z
 _atom_site_occupancy
  Y  Y0  1  0.587523  0.598131  0.000000  1
  Y  Y1  1  0.401869  0.989392  0.000000  1
  Y  Y2  1  0.010608  0.412477  0.000000  1
  Zn  Zn3  1  0.252617  0.254479  0.500000  1
  Zn  Zn4  1  0.745521  0.998138  0.500000  1
  Zn  Zn5  1  0.001862  0.747383  0.500000  1
  Ir  Ir6  1  0.333333  0.666667  0.500000  1
  Pd  Pd7  1  0.000000  0.000000  0.000000  1
  Pd  Pd8  1  0.666667  0.333333  0.500000  1
