# generated using pymatgen
data_Nd3MgCdW3O14
_symmetry_space_group_name_H-M   'P 1'
_cell_length_a   7.27867348
_cell_length_b   7.60968605
_cell_length_c   7.60982600
_cell_angle_alpha   119.98731589
_cell_angle_beta   121.52661606
_cell_angle_gamma   90.00455866
_symmetry_Int_Tables_number   1
_chemical_formula_structural   Nd3MgCdW3O14
_chemical_formula_sum   'Nd3 Mg1 Cd1 W3 O14'
_cell_volume   291.02517477
_cell_formula_units_Z   1
loop_
 _symmetry_equiv_pos_site_id
 _symmetry_equiv_pos_as_xyz
  1  'x, y, z'
loop_
 _atom_site_type_symbol
 _atom_site_label
 _atom_site_symmetry_multiplicity
 _atom_site_fract_x
 _atom_site_fract_y
 _atom_site_fract_z
 _atom_site_occupancy
  Nd  Nd0  1  0.375000  0.625000  0.750000  1
  Nd  Nd1  1  0.375000  0.625000  0.250000  1
  Nd  Nd2  1  0.375000  0.125000  0.750000  1
  Mg  Mg3  1  0.375000  0.125000  0.250000  1
  Cd  Cd4  1  0.875000  0.625000  0.250000  1
  W  W5  1  0.875000  0.625000  0.750000  1
  W  W6  1  0.875000  0.125000  0.250000  1
  W  W7  1  0.875000  0.125000  0.750000  1
  O  O8  1  0.806202  0.200651  0.003407  1
  O  O9  1  0.545902  0.466575  0.506311  1
  O  O10  1  0.204070  0.210340  0.993968  1
  O  O11  1  0.943392  0.447082  0.496291  1
  O  O12  1  0.806462  0.802787  0.605537  1
  O  O13  1  0.545958  0.039776  0.079636  1
  O  O14  1  0.246557  0.748870  0.497748  1
  O  O15  1  0.943538  0.447213  0.894463  1
  O  O16  1  0.943798  0.049349  0.496593  1
  O  O17  1  0.545930  0.039660  0.506032  1
  O  O18  1  0.204042  0.210224  0.420364  1
  O  O19  1  0.503443  0.501130  0.002252  1
  O  O20  1  0.806608  0.802918  0.003709  1
  O  O21  1  0.204098  0.783425  0.993689  1
