# generated using pymatgen
data_Ba2NaPa3Se10
_symmetry_space_group_name_H-M   'P 1'
_cell_length_a   8.86840529
_cell_length_b   8.86840487
_cell_length_c   8.85241400
_cell_angle_alpha   127.93234909
_cell_angle_beta   127.93235516
_cell_angle_gamma   76.86510204
_symmetry_Int_Tables_number   1
_chemical_formula_structural   Ba2NaPa3Se10
_chemical_formula_sum   'Ba2 Na1 Pa3 Se10'
_cell_volume   420.23752077
_cell_formula_units_Z   1
loop_
 _symmetry_equiv_pos_site_id
 _symmetry_equiv_pos_as_xyz
  1  'x, y, z'
loop_
 _atom_site_type_symbol
 _atom_site_label
 _atom_site_symmetry_multiplicity
 _atom_site_fract_x
 _atom_site_fract_y
 _atom_site_fract_z
 _atom_site_occupancy
  Ba  Ba0  1  0.752296  0.747704  0.000000  1
  Ba  Ba1  1  0.252296  0.247704  0.000000  1
  Na  Na2  1  0.836604  0.663396  0.500000  1
  Pa  Pa3  1  0.670486  0.154892  0.825378  1
  Pa  Pa4  1  0.345108  0.829514  0.174622  1
  Pa  Pa5  1  0.148955  0.351045  0.500000  1
  Se  Se6  1  0.023436  0.510442  0.801793  1
  Se  Se7  1  0.721643  0.208649  0.198207  1
  Se  Se8  1  0.503673  0.734028  0.500000  1
  Se  Se9  1  0.216190  0.023000  0.500000  1
  Se  Se10  1  0.989558  0.476564  0.198207  1
  Se  Se11  1  0.291351  0.778357  0.801793  1
  Se  Se12  1  0.477000  0.283810  0.500000  1
  Se  Se13  1  0.765972  0.996327  0.500000  1
  Se  Se14  1  0.008989  0.003554  0.012543  1
  Se  Se15  1  0.496446  0.491011  0.987457  1
