# generated using pymatgen
data_Sm3Be(PPd4)5
_symmetry_space_group_name_H-M   'P 1'
_cell_length_a   8.72023249
_cell_length_b   8.67413839
_cell_length_c   8.67413813
_cell_angle_alpha   60.35189342
_cell_angle_beta   59.82405783
_cell_angle_gamma   59.82405575
_symmetry_Int_Tables_number   1
_chemical_formula_structural   Sm3Be(PPd4)5
_chemical_formula_sum   'Sm3 Be1 P5 Pd20'
_cell_volume   463.91787741
_cell_formula_units_Z   1
loop_
 _symmetry_equiv_pos_site_id
 _symmetry_equiv_pos_as_xyz
  1  'x, y, z'
loop_
 _atom_site_type_symbol
 _atom_site_label
 _atom_site_symmetry_multiplicity
 _atom_site_fract_x
 _atom_site_fract_y
 _atom_site_fract_z
 _atom_site_occupancy
  Sm  Sm0  1  0.249731  0.250269  0.250269  1
  Sm  Sm1  1  0.749731  0.750269  0.750269  1
  Sm  Sm2  1  0.996357  0.003643  0.003643  1
  Be  Be3  1  0.731632  0.268368  0.268368  1
  P  P4  1  0.262594  0.737406  0.737406  1
  P  P5  1  0.265145  0.734855  0.263613  1
  P  P6  1  0.736387  0.263613  0.734855  1
  P  P7  1  0.265145  0.263613  0.734855  1
  P  P8  1  0.736387  0.734855  0.263613  1
  Pd  Pd9  1  0.387919  0.383629  0.383629  1
  Pd  Pd10  1  0.614993  0.614269  0.614269  1
  Pd  Pd11  1  0.385731  0.385007  0.843530  1
  Pd  Pd12  1  0.385731  0.843530  0.385007  1
  Pd  Pd13  1  0.616371  0.612081  0.155179  1
  Pd  Pd14  1  0.616371  0.155179  0.612081  1
  Pd  Pd15  1  0.844821  0.383629  0.383629  1
  Pd  Pd16  1  0.156470  0.614269  0.614269  1
  Pd  Pd17  1  0.344368  0.000953  0.000953  1
  Pd  Pd18  1  0.653726  0.000953  0.000953  1
  Pd  Pd19  1  0.999047  0.346274  0.655632  1
  Pd  Pd20  1  0.999047  0.655632  0.346274  1
  Pd  Pd21  1  0.996077  0.343601  0.003923  1
  Pd  Pd22  1  0.656399  0.003923  0.343601  1
  Pd  Pd23  1  0.000960  0.652288  0.999040  1
  Pd  Pd24  1  0.347712  0.999040  0.652288  1
  Pd  Pd25  1  0.996077  0.003923  0.343601  1
  Pd  Pd26  1  0.000960  0.999040  0.652288  1
  Pd  Pd27  1  0.656399  0.343601  0.003923  1
  Pd  Pd28  1  0.347712  0.652288  0.999040  1
