# generated using pymatgen
data_Dy3Zn5Ir
_symmetry_space_group_name_H-M   'P 1'
_cell_length_a   7.47385400
_cell_length_b   7.47385413
_cell_length_c   3.72489400
_cell_angle_alpha   90.00000000
_cell_angle_beta   90.00000000
_cell_angle_gamma   120.00000828
_symmetry_Int_Tables_number   1
_chemical_formula_structural   Dy3Zn5Ir
_chemical_formula_sum   'Dy3 Zn5 Ir1'
_cell_volume   180.19126780
_cell_formula_units_Z   1
loop_
 _symmetry_equiv_pos_site_id
 _symmetry_equiv_pos_as_xyz
  1  'x, y, z'
loop_
 _atom_site_type_symbol
 _atom_site_label
 _atom_site_symmetry_multiplicity
 _atom_site_fract_x
 _atom_site_fract_y
 _atom_site_fract_z
 _atom_site_occupancy
  Dy  Dy0  1  0.019335  0.418189  0.500000  1
  Dy  Dy1  1  0.581811  0.601146  0.500000  1
  Dy  Dy2  1  0.398854  0.980665  0.500000  1
  Zn  Zn3  1  0.996973  0.738167  0.000000  1
  Zn  Zn4  1  0.261833  0.258807  0.000000  1
  Zn  Zn5  1  0.741193  0.003027  0.000000  1
  Zn  Zn6  1  0.666667  0.333333  0.000000  1
  Zn  Zn7  1  0.000000  0.000000  0.500000  1
  Ir  Ir8  1  0.333333  0.666667  0.000000  1
