# generated using pymatgen
data_Hf6Zn23S
_symmetry_space_group_name_H-M   'P 1'
_cell_length_a   8.71537722
_cell_length_b   8.71531046
_cell_length_c   8.71537203
_cell_angle_alpha   59.99991267
_cell_angle_beta   59.99938106
_cell_angle_gamma   60.00009466
_symmetry_Int_Tables_number   1
_chemical_formula_structural   Hf6Zn23S
_chemical_formula_sum   'Hf6 Zn23 S1'
_cell_volume   468.09928361
_cell_formula_units_Z   1
loop_
 _symmetry_equiv_pos_site_id
 _symmetry_equiv_pos_as_xyz
  1  'x, y, z'
loop_
 _atom_site_type_symbol
 _atom_site_label
 _atom_site_symmetry_multiplicity
 _atom_site_fract_x
 _atom_site_fract_y
 _atom_site_fract_z
 _atom_site_occupancy
  Hf  Hf0  1  0.703338  0.296662  0.296661  1
  Hf  Hf1  1  0.296654  0.703347  0.703344  1
  Hf  Hf2  1  0.296643  0.703357  0.296639  1
  Hf  Hf3  1  0.703368  0.296631  0.703366  1
  Hf  Hf4  1  0.296637  0.296634  0.703361  1
  Hf  Hf5  1  0.703361  0.703359  0.296637  1
  Zn  Zn6  1  0.120524  0.120555  0.120549  1
  Zn  Zn7  1  0.879477  0.879452  0.879444  1
  Zn  Zn8  1  0.120550  0.120525  0.638378  1
  Zn  Zn9  1  0.120555  0.638370  0.120522  1
  Zn  Zn10  1  0.879446  0.879477  0.361631  1
  Zn  Zn11  1  0.879451  0.361624  0.879475  1
  Zn  Zn12  1  0.638372  0.120556  0.120549  1
  Zn  Zn13  1  0.361625  0.879453  0.879445  1
  Zn  Zn14  1  0.499999  0.999996  0.000004  1
  Zn  Zn15  1  0.000000  0.500001  0.500000  1
  Zn  Zn16  1  0.999995  0.499999  0.000005  1
  Zn  Zn17  1  0.500001  0.000000  0.500000  1
  Zn  Zn18  1  0.000000  0.000000  0.499999  1
  Zn  Zn19  1  0.500000  0.499999  0.000005  1
  Zn  Zn20  1  0.333535  0.333546  0.333547  1
  Zn  Zn21  1  0.666467  0.666453  0.666453  1
  Zn  Zn22  1  0.333547  0.333534  0.999370  1
  Zn  Zn23  1  0.333544  0.999380  0.333530  1
  Zn  Zn24  1  0.666456  0.666467  0.000621  1
  Zn  Zn25  1  0.666453  0.000630  0.666464  1
  Zn  Zn26  1  0.999375  0.333545  0.333545  1
  Zn  Zn27  1  0.000626  0.666453  0.666454  1
  Zn  Zn28  1  0.999997  0.999996  0.000008  1
  S  S29  1  0.500003  0.499999  0.499995  1
