# generated using pymatgen
data_Al2TlBr7
_symmetry_space_group_name_H-M   'P 1'
_cell_length_a   11.36825600
_cell_length_b   11.09634621
_cell_length_c   14.89945000
_cell_angle_alpha   55.93051408
_cell_angle_beta   90.00000000
_cell_angle_gamma   90.00000000
_symmetry_Int_Tables_number   1
_chemical_formula_structural   Al2TlBr7
_chemical_formula_sum   'Al8 Tl4 Br28'
_cell_volume   1556.90663410
_cell_formula_units_Z   4
loop_
 _symmetry_equiv_pos_site_id
 _symmetry_equiv_pos_as_xyz
  1  'x, y, z'
loop_
 _atom_site_type_symbol
 _atom_site_label
 _atom_site_symmetry_multiplicity
 _atom_site_fract_x
 _atom_site_fract_y
 _atom_site_fract_z
 _atom_site_occupancy
  Al  Al0  1  0.287383  0.599985  0.797507  1
  Al  Al1  1  0.787383  0.400015  0.702493  1
  Al  Al2  1  0.712617  0.400015  0.202493  1
  Al  Al3  1  0.212617  0.599985  0.297507  1
  Al  Al4  1  0.216579  0.172458  0.545775  1
  Al  Al5  1  0.716579  0.827542  0.954225  1
  Al  Al6  1  0.783421  0.827542  0.454225  1
  Al  Al7  1  0.283421  0.172458  0.045775  1
  Tl  Tl8  1  0.381204  0.886048  0.380622  1
  Tl  Tl9  1  0.881204  0.113952  0.119378  1
  Tl  Tl10  1  0.618796  0.113952  0.619378  1
  Tl  Tl11  1  0.118796  0.886048  0.880622  1
  Br  Br12  1  0.406728  0.378899  0.915484  1
  Br  Br13  1  0.906728  0.621101  0.584516  1
  Br  Br14  1  0.593272  0.621101  0.084516  1
  Br  Br15  1  0.093272  0.378899  0.415484  1
  Br  Br16  1  0.132614  0.152158  0.950807  1
  Br  Br17  1  0.632614  0.847842  0.549193  1
  Br  Br18  1  0.867386  0.847842  0.049193  1
  Br  Br19  1  0.367386  0.152158  0.450807  1
  Br  Br20  1  0.213699  0.207346  0.174365  1
  Br  Br21  1  0.713699  0.792654  0.325635  1
  Br  Br22  1  0.786301  0.792654  0.825635  1
  Br  Br23  1  0.286301  0.207346  0.674365  1
  Br  Br24  1  0.417061  0.984049  0.119817  1
  Br  Br25  1  0.917061  0.015951  0.380183  1
  Br  Br26  1  0.582939  0.015951  0.880183  1
  Br  Br27  1  0.082939  0.984049  0.619817  1
  Br  Br28  1  0.223661  0.618730  0.135995  1
  Br  Br29  1  0.723661  0.381270  0.364005  1
  Br  Br30  1  0.776339  0.381270  0.864005  1
  Br  Br31  1  0.276339  0.618730  0.635995  1
  Br  Br32  1  0.105152  0.778523  0.294415  1
  Br  Br33  1  0.605152  0.221477  0.205585  1
  Br  Br34  1  0.894848  0.221477  0.705585  1
  Br  Br35  1  0.394848  0.778523  0.794415  1
  Br  Br36  1  0.391794  0.567405  0.379644  1
  Br  Br37  1  0.891794  0.432595  0.120356  1
  Br  Br38  1  0.608206  0.432595  0.620356  1
  Br  Br39  1  0.108206  0.567405  0.879644  1
