# generated using pymatgen
data_Y6HoEr(CdPt)2
_symmetry_space_group_name_H-M   'P 1'
_cell_length_a   9.69906518
_cell_length_b   9.69906607
_cell_length_c   9.69229400
_cell_angle_alpha   60.02309421
_cell_angle_beta   60.02309117
_cell_angle_gamma   60.05078037
_symmetry_Int_Tables_number   1
_chemical_formula_structural   Y6HoEr(CdPt)2
_chemical_formula_sum   'Y12 Ho2 Er2 Cd4 Pt4'
_cell_volume   645.19261434
_cell_formula_units_Z   2
loop_
 _symmetry_equiv_pos_site_id
 _symmetry_equiv_pos_as_xyz
  1  'x, y, z'
loop_
 _atom_site_type_symbol
 _atom_site_label
 _atom_site_symmetry_multiplicity
 _atom_site_fract_x
 _atom_site_fract_y
 _atom_site_fract_z
 _atom_site_occupancy
  Y  Y0  1  0.810128  0.190305  0.190535  1
  Y  Y1  1  0.190305  0.810128  0.809031  1
  Y  Y2  1  0.190305  0.810128  0.190535  1
  Y  Y3  1  0.810128  0.190305  0.809031  1
  Y  Y4  1  0.190844  0.190844  0.809156  1
  Y  Y5  1  0.809986  0.809986  0.190014  1
  Y  Y6  1  0.936149  0.563502  0.564261  1
  Y  Y7  1  0.563502  0.936149  0.936088  1
  Y  Y8  1  0.563502  0.936149  0.564261  1
  Y  Y9  1  0.936149  0.563502  0.936088  1
  Y  Y10  1  0.564443  0.564443  0.935557  1
  Y  Y11  1  0.936770  0.936770  0.563230  1
  Ho  Ho12  1  0.352001  0.352001  0.350414  1
  Ho  Ho13  1  0.352001  0.352001  0.945584  1
  Er  Er14  1  0.353527  0.942756  0.351858  1
  Er  Er15  1  0.942756  0.353527  0.351858  1
  Cd  Cd16  1  0.581467  0.581467  0.581749  1
  Cd  Cd17  1  0.581467  0.581467  0.255317  1
  Cd  Cd18  1  0.581506  0.254771  0.581862  1
  Cd  Cd19  1  0.254771  0.581506  0.581862  1
  Pt  Pt20  1  0.143917  0.143917  0.146172  1
  Pt  Pt21  1  0.143917  0.143917  0.565994  1
  Pt  Pt22  1  0.142594  0.567864  0.144771  1
  Pt  Pt23  1  0.567864  0.142594  0.144771  1
