# generated using pymatgen
data_Ce3ErMg3ZnIr4
_symmetry_space_group_name_H-M   'P 1'
_cell_length_a   4.03286900
_cell_length_b   7.09752678
_cell_length_c   8.63160328
_cell_angle_alpha   91.05431540
_cell_angle_beta   90.00000000
_cell_angle_gamma   90.00000000
_symmetry_Int_Tables_number   1
_chemical_formula_structural   Ce3ErMg3ZnIr4
_chemical_formula_sum   'Ce3 Er1 Mg3 Zn1 Ir4'
_cell_volume   247.02396856
_cell_formula_units_Z   1
loop_
 _symmetry_equiv_pos_site_id
 _symmetry_equiv_pos_as_xyz
  1  'x, y, z'
loop_
 _atom_site_type_symbol
 _atom_site_label
 _atom_site_symmetry_multiplicity
 _atom_site_fract_x
 _atom_site_fract_y
 _atom_site_fract_z
 _atom_site_occupancy
  Ce  Ce0  1  0.250000  0.532971  0.189138  1
  Ce  Ce1  1  0.750000  0.460545  0.808437  1
  Ce  Ce2  1  0.250000  0.045823  0.329394  1
  Er  Er3  1  0.750000  0.956753  0.678223  1
  Mg  Mg4  1  0.250000  0.130848  0.938399  1
  Mg  Mg5  1  0.750000  0.865164  0.056930  1
  Mg  Mg6  1  0.250000  0.633136  0.554323  1
  Zn  Zn7  1  0.750000  0.367635  0.445073  1
  Ir  Ir8  1  0.750000  0.758851  0.363896  1
  Ir  Ir9  1  0.250000  0.251044  0.631028  1
  Ir  Ir10  1  0.750000  0.258493  0.138828  1
  Ir  Ir11  1  0.250000  0.738736  0.866331  1
