# generated using pymatgen
data_Dy5Si12Ir18Pt
_symmetry_space_group_name_H-M   'P 1'
_cell_length_a   12.86782545
_cell_length_b   12.82617219
_cell_length_c   3.98650800
_cell_angle_alpha   90.00000000
_cell_angle_beta   90.00000000
_cell_angle_gamma   119.89298028
_symmetry_Int_Tables_number   1
_chemical_formula_structural   Dy5Si12Ir18Pt
_chemical_formula_sum   'Dy5 Si12 Ir18 Pt1'
_cell_volume   570.41748963
_cell_formula_units_Z   1
loop_
 _symmetry_equiv_pos_site_id
 _symmetry_equiv_pos_as_xyz
  1  'x, y, z'
loop_
 _atom_site_type_symbol
 _atom_site_label
 _atom_site_symmetry_multiplicity
 _atom_site_fract_x
 _atom_site_fract_y
 _atom_site_fract_z
 _atom_site_occupancy
  Dy  Dy0  1  0.335591  0.668189  0.500000  1
  Dy  Dy1  1  0.664409  0.332597  0.500000  1
  Dy  Dy2  1  0.000000  0.815658  0.000000  1
  Dy  Dy3  1  0.185756  0.184903  0.000000  1
  Dy  Dy4  1  0.814244  0.999147  0.000000  1
  Si  Si5  1  0.000000  0.635544  0.500000  1
  Si  Si6  1  0.368887  0.368743  0.500000  1
  Si  Si7  1  0.631113  0.999856  0.500000  1
  Si  Si8  1  0.519958  0.687950  0.000000  1
  Si  Si9  1  0.312354  0.830902  0.000000  1
  Si  Si10  1  0.172526  0.481511  0.000000  1
  Si  Si11  1  0.480042  0.167992  0.000000  1
  Si  Si12  1  0.687646  0.518547  0.000000  1
  Si  Si13  1  0.827474  0.308985  0.000000  1
  Si  Si14  1  0.000000  0.182248  0.500000  1
  Si  Si15  1  0.819088  0.818711  0.500000  1
  Si  Si16  1  0.180912  0.999622  0.500000  1
  Ir  Ir17  1  0.511753  0.872812  0.000000  1
  Ir  Ir18  1  0.127389  0.638512  0.000000  1
  Ir  Ir19  1  0.362693  0.487506  0.000000  1
  Ir  Ir20  1  0.488247  0.361059  0.000000  1
  Ir  Ir21  1  0.872611  0.511122  0.000000  1
  Ir  Ir22  1  0.637307  0.124812  0.000000  1
  Ir  Ir23  1  0.553428  0.553175  0.500000  1
  Ir  Ir24  1  0.446572  0.999747  0.500000  1
  Ir  Ir25  1  0.000000  0.283425  0.000000  1
  Ir  Ir26  1  0.717772  0.717264  0.000000  1
  Ir  Ir27  1  0.282228  0.999493  0.000000  1
  Ir  Ir28  1  0.624447  0.806703  0.500000  1
  Ir  Ir29  1  0.194668  0.817394  0.500000  1
  Ir  Ir30  1  0.183084  0.376919  0.500000  1
  Ir  Ir31  1  0.375553  0.182257  0.500000  1
  Ir  Ir32  1  0.805332  0.622728  0.500000  1
  Ir  Ir33  1  0.816916  0.193835  0.500000  1
  Ir  Ir34  1  0.000000  0.000455  0.500000  1
  Pt  Pt35  1  0.000000  0.449678  0.500000  1
