# generated using pymatgen
data_LiSm2Er(B6Os)2
_symmetry_space_group_name_H-M   'P 1'
_cell_length_a   3.62505000
_cell_length_b   9.03291871
_cell_length_c   11.47323631
_cell_angle_alpha   89.72732753
_cell_angle_beta   90.00000000
_cell_angle_gamma   90.00000000
_symmetry_Int_Tables_number   1
_chemical_formula_structural   LiSm2Er(B6Os)2
_chemical_formula_sum   'Li2 Sm4 Er2 B24 Os4'
_cell_volume   375.68436700
_cell_formula_units_Z   2
loop_
 _symmetry_equiv_pos_site_id
 _symmetry_equiv_pos_as_xyz
  1  'x, y, z'
loop_
 _atom_site_type_symbol
 _atom_site_label
 _atom_site_symmetry_multiplicity
 _atom_site_fract_x
 _atom_site_fract_y
 _atom_site_fract_z
 _atom_site_occupancy
  Li  Li0  1  0.000000  0.945137  0.374831  1
  Li  Li1  1  0.000000  0.054863  0.625169  1
  Sm  Sm2  1  0.000000  0.315214  0.416135  1
  Sm  Sm3  1  0.000000  0.684786  0.583865  1
  Sm  Sm4  1  0.000000  0.824538  0.087712  1
  Sm  Sm5  1  0.000000  0.175462  0.912288  1
  Er  Er6  1  0.000000  0.442200  0.131994  1
  Er  Er7  1  0.000000  0.557800  0.868006  1
  B  B8  1  0.500000  0.555892  0.432175  1
  B  B9  1  0.500000  0.444108  0.567825  1
  B  B10  1  0.500000  0.054415  0.069724  1
  B  B11  1  0.500000  0.945585  0.930276  1
  B  B12  1  0.500000  0.759899  0.416449  1
  B  B13  1  0.500000  0.240101  0.583551  1
  B  B14  1  0.500000  0.248591  0.084039  1
  B  B15  1  0.500000  0.751409  0.915961  1
  B  B16  1  0.500000  0.795829  0.266159  1
  B  B17  1  0.500000  0.204171  0.733841  1
  B  B18  1  0.500000  0.287402  0.236543  1
  B  B19  1  0.500000  0.712598  0.763457  1
  B  B20  1  0.500000  0.631665  0.187220  1
  B  B21  1  0.500000  0.368335  0.812780  1
  B  B22  1  0.500000  0.122023  0.319165  1
  B  B23  1  0.500000  0.877977  0.680835  1
  B  B24  1  0.500000  0.980019  0.215840  1
  B  B25  1  0.500000  0.019981  0.784160  1
  B  B26  1  0.500000  0.483623  0.289044  1
  B  B27  1  0.500000  0.516377  0.710956  1
  B  B28  1  0.500000  0.599601  0.026924  1
  B  B29  1  0.500000  0.400399  0.973076  1
  B  B30  1  0.500000  0.090160  0.474990  1
  B  B31  1  0.500000  0.909840  0.525010  1
  Os  Os32  1  0.000000  0.643116  0.322156  1
  Os  Os33  1  0.000000  0.356884  0.677844  1
  Os  Os34  1  0.000000  0.135547  0.184707  1
  Os  Os35  1  0.000000  0.864453  0.815293  1
