# generated using pymatgen
data_Ho2Sc8Cd3Re
_symmetry_space_group_name_H-M   'P 1'
_cell_length_a   9.11348200
_cell_length_b   9.10683092
_cell_length_c   9.31973200
_cell_angle_alpha   90.00005033
_cell_angle_beta   90.00040865
_cell_angle_gamma   119.97498706
_symmetry_Int_Tables_number   1
_chemical_formula_structural   Ho2Sc8Cd3Re
_chemical_formula_sum   'Ho4 Sc16 Cd6 Re2'
_cell_volume   670.03127756
_cell_formula_units_Z   2
loop_
 _symmetry_equiv_pos_site_id
 _symmetry_equiv_pos_as_xyz
  1  'x, y, z'
loop_
 _atom_site_type_symbol
 _atom_site_label
 _atom_site_symmetry_multiplicity
 _atom_site_fract_x
 _atom_site_fract_y
 _atom_site_fract_z
 _atom_site_occupancy
  Ho  Ho0  1  0.921687  0.460842  0.250008  1
  Ho  Ho1  1  0.463408  0.535688  0.749996  1
  Ho  Ho2  1  0.463402  0.927715  0.749993  1
  Ho  Ho3  1  0.071162  0.535579  0.749991  1
  Sc  Sc4  1  0.000925  0.000462  0.498553  1
  Sc  Sc5  1  0.000928  0.000463  0.001445  1
  Sc  Sc6  1  0.213125  0.794044  0.440251  1
  Sc  Sc7  1  0.213134  0.419069  0.440264  1
  Sc  Sc8  1  0.580798  0.790391  0.438280  1
  Sc  Sc9  1  0.787417  0.207931  0.554949  1
  Sc  Sc10  1  0.787394  0.579478  0.554954  1
  Sc  Sc11  1  0.423202  0.211619  0.551987  1
  Sc  Sc12  1  0.787417  0.207940  0.945052  1
  Sc  Sc13  1  0.787396  0.579481  0.945050  1
  Sc  Sc14  1  0.423188  0.211609  0.948003  1
  Sc  Sc15  1  0.213130  0.794038  0.059749  1
  Sc  Sc16  1  0.213135  0.419071  0.059735  1
  Sc  Sc17  1  0.580804  0.790397  0.061721  1
  Sc  Sc18  1  0.536071  0.461718  0.250000  1
  Sc  Sc19  1  0.536081  0.074395  0.250005  1
  Cd  Cd20  1  0.881684  0.108916  0.250001  1
  Cd  Cd21  1  0.881684  0.772779  0.250001  1
  Cd  Cd22  1  0.230530  0.115265  0.250002  1
  Cd  Cd23  1  0.112102  0.889524  0.750001  1
  Cd  Cd24  1  0.112112  0.222572  0.750000  1
  Cd  Cd25  1  0.778031  0.889006  0.750001  1
  Re  Re26  1  0.332754  0.666376  0.250001  1
  Re  Re27  1  0.667297  0.333633  0.750005  1
