# generated using pymatgen
data_Dy6Mn(SiS7)2
_symmetry_space_group_name_H-M   'P 1'
_cell_length_a   9.90171600
_cell_length_b   9.90171598
_cell_length_c   5.62429100
_cell_angle_alpha   90.00000000
_cell_angle_beta   90.00000000
_cell_angle_gamma   120.00000674
_symmetry_Int_Tables_number   1
_chemical_formula_structural   Dy6Mn(SiS7)2
_chemical_formula_sum   'Dy6 Mn1 Si2 S14'
_cell_volume   477.55051302
_cell_formula_units_Z   1
loop_
 _symmetry_equiv_pos_site_id
 _symmetry_equiv_pos_as_xyz
  1  'x, y, z'
loop_
 _atom_site_type_symbol
 _atom_site_label
 _atom_site_symmetry_multiplicity
 _atom_site_fract_x
 _atom_site_fract_y
 _atom_site_fract_z
 _atom_site_occupancy
  Dy  Dy0  1  0.876471  0.232697  0.249439  1
  Dy  Dy1  1  0.767303  0.643774  0.249439  1
  Dy  Dy2  1  0.356226  0.123529  0.249439  1
  Dy  Dy3  1  0.123472  0.767491  0.751322  1
  Dy  Dy4  1  0.232509  0.355980  0.751322  1
  Dy  Dy5  1  0.644020  0.876528  0.751322  1
  Mn  Mn6  1  0.000000  0.000000  0.488088  1
  Si  Si7  1  0.666667  0.333333  0.834904  1
  Si  Si8  1  0.333333  0.666667  0.339309  1
  S  S9  1  0.666667  0.333333  0.461330  1
  S  S10  1  0.333333  0.666667  0.965323  1
  S  S11  1  0.912111  0.161398  0.723853  1
  S  S12  1  0.838602  0.750713  0.723853  1
  S  S13  1  0.249287  0.087889  0.723853  1
  S  S14  1  0.085408  0.836512  0.240840  1
  S  S15  1  0.163488  0.248896  0.240840  1
  S  S16  1  0.751104  0.914592  0.240840  1
  S  S17  1  0.588069  0.107390  0.986644  1
  S  S18  1  0.892610  0.480681  0.986644  1
  S  S19  1  0.519319  0.411931  0.986644  1
  S  S20  1  0.412129  0.892672  0.490137  1
  S  S21  1  0.107328  0.519457  0.490137  1
  S  S22  1  0.480543  0.587871  0.490137  1
