# generated using pymatgen
data_DyTa8GaS16
_symmetry_space_group_name_H-M   'P 1'
_cell_length_a   6.69704400
_cell_length_b   6.69704343
_cell_length_c   14.01454300
_cell_angle_alpha   90.00000000
_cell_angle_beta   90.00000000
_cell_angle_gamma   120.00001269
_symmetry_Int_Tables_number   1
_chemical_formula_structural   DyTa8GaS16
_chemical_formula_sum   'Dy1 Ta8 Ga1 S16'
_cell_volume   544.34693795
_cell_formula_units_Z   1
loop_
 _symmetry_equiv_pos_site_id
 _symmetry_equiv_pos_as_xyz
  1  'x, y, z'
loop_
 _atom_site_type_symbol
 _atom_site_label
 _atom_site_symmetry_multiplicity
 _atom_site_fract_x
 _atom_site_fract_y
 _atom_site_fract_z
 _atom_site_occupancy
  Dy  Dy0  1  0.000000  0.000000  0.500000  1
  Ta  Ta1  1  0.503449  0.496551  0.749863  1
  Ta  Ta2  1  0.006896  0.503449  0.250137  1
  Ta  Ta3  1  0.496551  0.993104  0.250137  1
  Ta  Ta4  1  0.503449  0.006896  0.749863  1
  Ta  Ta5  1  0.993104  0.496551  0.749863  1
  Ta  Ta6  1  0.496551  0.503449  0.250137  1
  Ta  Ta7  1  0.000000  0.000000  0.746525  1
  Ta  Ta8  1  0.000000  0.000000  0.253475  1
  Ga  Ga9  1  0.000000  0.000000  0.000000  1
  S  S10  1  0.830993  0.169007  0.363579  1
  S  S11  1  0.830993  0.661985  0.363579  1
  S  S12  1  0.338015  0.169007  0.363579  1
  S  S13  1  0.669626  0.834813  0.858483  1
  S  S14  1  0.169007  0.338015  0.636421  1
  S  S15  1  0.165187  0.834813  0.858483  1
  S  S16  1  0.165187  0.330374  0.858483  1
  S  S17  1  0.834813  0.165187  0.141517  1
  S  S18  1  0.330374  0.165187  0.141517  1
  S  S19  1  0.661985  0.830993  0.636421  1
  S  S20  1  0.333333  0.666667  0.138336  1
  S  S21  1  0.666667  0.333333  0.637209  1
  S  S22  1  0.666667  0.333333  0.861664  1
  S  S23  1  0.333333  0.666667  0.362791  1
  S  S24  1  0.834813  0.669626  0.141517  1
  S  S25  1  0.169007  0.830993  0.636421  1
