# generated using pymatgen
data_YTmFe3Re14C3
_symmetry_space_group_name_H-M   'P 1'
_cell_length_a   6.91924089
_cell_length_b   6.91924229
_cell_length_c   6.91924214
_cell_angle_alpha   82.41631790
_cell_angle_beta   82.41631337
_cell_angle_gamma   82.41631251
_symmetry_Int_Tables_number   1
_chemical_formula_structural   YTmFe3Re14C3
_chemical_formula_sum   'Y1 Tm1 Fe3 Re14 C3'
_cell_volume   323.27553110
_cell_formula_units_Z   1
loop_
 _symmetry_equiv_pos_site_id
 _symmetry_equiv_pos_as_xyz
  1  'x, y, z'
loop_
 _atom_site_type_symbol
 _atom_site_label
 _atom_site_symmetry_multiplicity
 _atom_site_fract_x
 _atom_site_fract_y
 _atom_site_fract_z
 _atom_site_occupancy
  Y  Y0  1  0.648448  0.648448  0.648448  1
  Tm  Tm1  1  0.351124  0.351124  0.351124  1
  Fe  Fe2  1  0.999336  0.999336  0.500294  1
  Fe  Fe3  1  0.500294  0.999336  0.999336  1
  Fe  Fe4  1  0.999336  0.500294  0.999336  1
  Re  Re5  1  0.722114  0.277650  0.000162  1
  Re  Re6  1  0.000162  0.722114  0.277650  1
  Re  Re7  1  0.277650  0.000162  0.722114  1
  Re  Re8  1  0.000162  0.277650  0.722114  1
  Re  Re9  1  0.722114  0.000162  0.277650  1
  Re  Re10  1  0.277650  0.722114  0.000162  1
  Re  Re11  1  0.346359  0.346359  0.861783  1
  Re  Re12  1  0.861783  0.346359  0.346359  1
  Re  Re13  1  0.346359  0.861783  0.346359  1
  Re  Re14  1  0.652964  0.652964  0.140415  1
  Re  Re15  1  0.140415  0.652964  0.652964  1
  Re  Re16  1  0.652964  0.140415  0.652964  1
  Re  Re17  1  0.897658  0.897658  0.897658  1
  Re  Re18  1  0.102595  0.102595  0.102595  1
  C  C19  1  0.498347  0.498347  0.003817  1
  C  C20  1  0.003817  0.498347  0.498347  1
  C  C21  1  0.498347  0.003817  0.498347  1
