# generated using pymatgen
data_Tm15LuCd3InNi4
_symmetry_space_group_name_H-M   'P 1'
_cell_length_a   9.41749820
_cell_length_b   9.41749905
_cell_length_c   9.41885801
_cell_angle_alpha   60.04099834
_cell_angle_beta   60.04099404
_cell_angle_gamma   60.04248023
_symmetry_Int_Tables_number   1
_chemical_formula_structural   Tm15LuCd3InNi4
_chemical_formula_sum   'Tm15 Lu1 Cd3 In1 Ni4'
_cell_volume   591.23838928
_cell_formula_units_Z   1
loop_
 _symmetry_equiv_pos_site_id
 _symmetry_equiv_pos_as_xyz
  1  'x, y, z'
loop_
 _atom_site_type_symbol
 _atom_site_label
 _atom_site_symmetry_multiplicity
 _atom_site_fract_x
 _atom_site_fract_y
 _atom_site_fract_z
 _atom_site_occupancy
  Tm  Tm0  1  0.348260  0.348260  0.348350  1
  Tm  Tm1  1  0.348723  0.348723  0.954483  1
  Tm  Tm2  1  0.348492  0.954548  0.348861  1
  Tm  Tm3  1  0.954548  0.348492  0.348861  1
  Tm  Tm4  1  0.811716  0.187980  0.188366  1
  Tm  Tm5  1  0.188382  0.811111  0.810932  1
  Tm  Tm6  1  0.187980  0.811716  0.188366  1
  Tm  Tm7  1  0.811111  0.188382  0.810932  1
  Tm  Tm8  1  0.188136  0.188136  0.811645  1
  Tm  Tm9  1  0.810966  0.810966  0.188630  1
  Tm  Tm10  1  0.938100  0.564049  0.563800  1
  Tm  Tm11  1  0.564400  0.936685  0.936357  1
  Tm  Tm12  1  0.564049  0.938100  0.563800  1
  Tm  Tm13  1  0.936685  0.564400  0.936357  1
  Tm  Tm14  1  0.563763  0.563763  0.938088  1
  Lu  Lu15  1  0.936821  0.936821  0.563975  1
  Cd  Cd16  1  0.581389  0.581389  0.253687  1
  Cd  Cd17  1  0.581667  0.253369  0.581405  1
  Cd  Cd18  1  0.253369  0.581667  0.581405  1
  In  In19  1  0.581831  0.581831  0.581794  1
  Ni  Ni20  1  0.142403  0.142403  0.142712  1
  Ni  Ni21  1  0.141967  0.141967  0.573097  1
  Ni  Ni22  1  0.142055  0.573187  0.142048  1
  Ni  Ni23  1  0.573187  0.142055  0.142048  1
