# generated using pymatgen
data_Sc4Al4ReTc3
_symmetry_space_group_name_H-M   'P 1'
_cell_length_a   5.33278771
_cell_length_b   5.32086430
_cell_length_c   8.51694900
_cell_angle_alpha   90.00000000
_cell_angle_beta   90.00000000
_cell_angle_gamma   120.17852530
_symmetry_Int_Tables_number   1
_chemical_formula_structural   Sc4Al4ReTc3
_chemical_formula_sum   'Sc4 Al4 Re1 Tc3'
_cell_volume   208.91377339
_cell_formula_units_Z   1
loop_
 _symmetry_equiv_pos_site_id
 _symmetry_equiv_pos_as_xyz
  1  'x, y, z'
loop_
 _atom_site_type_symbol
 _atom_site_label
 _atom_site_symmetry_multiplicity
 _atom_site_fract_x
 _atom_site_fract_y
 _atom_site_fract_z
 _atom_site_occupancy
  Sc  Sc0  1  0.326134  0.664732  0.438945  1
  Sc  Sc1  1  0.663480  0.333918  0.559941  1
  Sc  Sc2  1  0.663480  0.333918  0.940059  1
  Sc  Sc3  1  0.326134  0.664732  0.061055  1
  Al  Al4  1  0.837425  0.649587  0.250000  1
  Al  Al5  1  0.337772  0.154983  0.250000  1
  Al  Al6  1  0.185143  0.844291  0.750000  1
  Al  Al7  1  0.192453  0.351323  0.750000  1
  Re  Re8  1  0.832107  0.155240  0.250000  1
  Tc  Tc9  1  0.978034  0.001156  0.500351  1
  Tc  Tc10  1  0.978034  0.001156  0.999649  1
  Tc  Tc11  1  0.679804  0.844963  0.750000  1
