# generated using pymatgen
data_Y4Ga16Ir3
_symmetry_space_group_name_H-M   'P 1'
_cell_length_a   6.17017600
_cell_length_b   6.17017600
_cell_length_c   11.22499500
_cell_angle_alpha   90.00000000
_cell_angle_beta   90.00000000
_cell_angle_gamma   90.00000000
_symmetry_Int_Tables_number   1
_chemical_formula_structural   Y4Ga16Ir3
_chemical_formula_sum   'Y4 Ga16 Ir3'
_cell_volume   427.34759140
_cell_formula_units_Z   1
loop_
 _symmetry_equiv_pos_site_id
 _symmetry_equiv_pos_as_xyz
  1  'x, y, z'
loop_
 _atom_site_type_symbol
 _atom_site_label
 _atom_site_symmetry_multiplicity
 _atom_site_fract_x
 _atom_site_fract_y
 _atom_site_fract_z
 _atom_site_occupancy
  Y  Y0  1  0.500000  0.000000  0.805474  1
  Y  Y1  1  0.000000  0.500000  0.805474  1
  Y  Y2  1  0.500000  0.000000  0.194526  1
  Y  Y3  1  0.000000  0.500000  0.194526  1
  Ga  Ga4  1  0.248604  0.248604  0.620260  1
  Ga  Ga5  1  0.751396  0.751396  0.620260  1
  Ga  Ga6  1  0.751396  0.248604  0.620260  1
  Ga  Ga7  1  0.248604  0.751396  0.620260  1
  Ga  Ga8  1  0.751396  0.751396  0.379740  1
  Ga  Ga9  1  0.248604  0.248604  0.379740  1
  Ga  Ga10  1  0.248604  0.751396  0.379740  1
  Ga  Ga11  1  0.751396  0.248604  0.379740  1
  Ga  Ga12  1  0.288275  0.288275  0.000000  1
  Ga  Ga13  1  0.711725  0.711725  0.000000  1
  Ga  Ga14  1  0.711725  0.288275  0.000000  1
  Ga  Ga15  1  0.288275  0.711725  0.000000  1
  Ga  Ga16  1  0.500000  0.500000  0.803698  1
  Ga  Ga17  1  0.500000  0.500000  0.196302  1
  Ga  Ga18  1  0.000000  0.000000  0.775412  1
  Ga  Ga19  1  0.000000  0.000000  0.224588  1
  Ir  Ir20  1  0.500000  0.000000  0.500000  1
  Ir  Ir21  1  0.000000  0.500000  0.500000  1
  Ir  Ir22  1  0.000000  0.000000  0.000000  1
