# generated using pymatgen
data_Ce2YTh5(Si3Rh)4
_symmetry_space_group_name_H-M   'P 1'
_cell_length_a   8.23608328
_cell_length_b   8.19604339
_cell_length_c   8.35603400
_cell_angle_alpha   90.00000000
_cell_angle_beta   90.00000000
_cell_angle_gamma   119.83931265
_symmetry_Int_Tables_number   1
_chemical_formula_structural   Ce2YTh5(Si3Rh)4
_chemical_formula_sum   'Ce2 Y1 Th5 Si12 Rh4'
_cell_volume   489.27918426
_cell_formula_units_Z   1
loop_
 _symmetry_equiv_pos_site_id
 _symmetry_equiv_pos_as_xyz
  1  'x, y, z'
loop_
 _atom_site_type_symbol
 _atom_site_label
 _atom_site_symmetry_multiplicity
 _atom_site_fract_x
 _atom_site_fract_y
 _atom_site_fract_z
 _atom_site_occupancy
  Ce  Ce0  1  0.000057  0.000028  0.250000  1
  Ce  Ce1  1  0.999997  0.999998  0.750000  1
  Y  Y2  1  0.999125  0.499563  0.750000  1
  Th  Th3  1  0.000465  0.500232  0.250000  1
  Th  Th4  1  0.499769  0.500276  0.250000  1
  Th  Th5  1  0.500373  0.000678  0.750000  1
  Th  Th6  1  0.499769  0.999492  0.250000  1
  Th  Th7  1  0.500373  0.499696  0.750000  1
  Si  Si8  1  0.164616  0.332404  0.998774  1
  Si  Si9  1  0.672065  0.836033  0.001399  1
  Si  Si10  1  0.164616  0.332404  0.501226  1
  Si  Si11  1  0.327866  0.163933  0.001627  1
  Si  Si12  1  0.164616  0.832212  0.998774  1
  Si  Si13  1  0.672065  0.836033  0.498601  1
  Si  Si14  1  0.835432  0.667668  0.999028  1
  Si  Si15  1  0.327866  0.163933  0.498373  1
  Si  Si16  1  0.164616  0.832212  0.501226  1
  Si  Si17  1  0.835432  0.667668  0.500972  1
  Si  Si18  1  0.835432  0.167765  0.999028  1
  Si  Si19  1  0.835432  0.167765  0.500972  1
  Rh  Rh20  1  0.336993  0.668497  0.995244  1
  Rh  Rh21  1  0.336993  0.668497  0.504756  1
  Rh  Rh22  1  0.663014  0.331507  0.997429  1
  Rh  Rh23  1  0.663014  0.331507  0.502571  1
