# generated using pymatgen
data_Dy6AlSi2
_symmetry_space_group_name_H-M   'P 1'
_cell_length_a   8.46728040
_cell_length_b   8.46728102
_cell_length_c   8.46728000
_cell_angle_alpha   112.23664020
_cell_angle_beta   110.89901351
_cell_angle_gamma   105.35775877
_symmetry_Int_Tables_number   1
_chemical_formula_structural   Dy6AlSi2
_chemical_formula_sum   'Dy12 Al2 Si4'
_cell_volume   465.45707630
_cell_formula_units_Z   2
loop_
 _symmetry_equiv_pos_site_id
 _symmetry_equiv_pos_as_xyz
  1  'x, y, z'
loop_
 _atom_site_type_symbol
 _atom_site_label
 _atom_site_symmetry_multiplicity
 _atom_site_fract_x
 _atom_site_fract_y
 _atom_site_fract_z
 _atom_site_occupancy
  Dy  Dy0  1  0.438744  0.238642  0.200103  1
  Dy  Dy1  1  0.561256  0.761358  0.799897  1
  Dy  Dy2  1  0.038538  0.238642  0.799897  1
  Dy  Dy3  1  0.961462  0.761358  0.200103  1
  Dy  Dy4  1  0.184205  0.274175  0.458380  1
  Dy  Dy5  1  0.815795  0.725825  0.541620  1
  Dy  Dy6  1  0.184205  0.725825  0.910030  1
  Dy  Dy7  1  0.815795  0.274175  0.089970  1
  Dy  Dy8  1  0.320478  0.614875  0.294397  1
  Dy  Dy9  1  0.679522  0.385125  0.705603  1
  Dy  Dy10  1  0.320478  0.026082  0.705603  1
  Dy  Dy11  1  0.679522  0.973918  0.294397  1
  Al  Al12  1  0.500000  0.500000  0.000000  1
  Al  Al13  1  0.000000  0.000000  0.000000  1
  Si  Si14  1  0.368395  0.000000  0.368395  1
  Si  Si15  1  0.631605  0.000000  0.631605  1
  Si  Si16  1  0.115897  0.615897  0.500000  1
  Si  Si17  1  0.884103  0.384103  0.500000  1
