# generated using pymatgen
data_Tl2InF5
_symmetry_space_group_name_H-M   'P 1'
_cell_length_a   6.08619200
_cell_length_b   7.82730100
_cell_length_c   12.48785800
_cell_angle_alpha   90.00000000
_cell_angle_beta   90.00000000
_cell_angle_gamma   90.00000000
_symmetry_Int_Tables_number   1
_chemical_formula_structural   Tl2InF5
_chemical_formula_sum   'Tl8 In4 F20'
_cell_volume   594.90228296
_cell_formula_units_Z   4
loop_
 _symmetry_equiv_pos_site_id
 _symmetry_equiv_pos_as_xyz
  1  'x, y, z'
loop_
 _atom_site_type_symbol
 _atom_site_label
 _atom_site_symmetry_multiplicity
 _atom_site_fract_x
 _atom_site_fract_y
 _atom_site_fract_z
 _atom_site_occupancy
  Tl  Tl0  1  0.749998  0.145497  0.081992  1
  Tl  Tl1  1  0.249999  0.489432  0.239850  1
  Tl  Tl2  1  0.249999  0.989431  0.260149  1
  Tl  Tl3  1  0.749998  0.645496  0.418008  1
  Tl  Tl4  1  0.249999  0.354504  0.581992  1
  Tl  Tl5  1  0.749998  0.010569  0.739851  1
  Tl  Tl6  1  0.749998  0.510568  0.760150  1
  Tl  Tl7  1  0.249999  0.854505  0.918008  1
  In  In8  1  0.749998  0.666823  0.064226  1
  In  In9  1  0.749998  0.166823  0.435774  1
  In  In10  1  0.249999  0.833177  0.564225  1
  In  In11  1  0.249999  0.333176  0.935774  1
  F  F12  1  0.000000  0.499999  0.000000  1
  F  F13  1  0.500001  0.499999  0.000000  1
  F  F14  1  0.249999  0.215625  0.087474  1
  F  F15  1  0.500275  0.834252  0.112223  1
  F  F16  1  0.999723  0.834252  0.112223  1
  F  F17  1  0.749998  0.518478  0.200565  1
  F  F18  1  0.749998  0.018478  0.299436  1
  F  F19  1  0.500275  0.334252  0.387778  1
  F  F20  1  0.999723  0.334252  0.387778  1
  F  F21  1  0.249999  0.715626  0.412525  1
  F  F22  1  0.000000  0.000000  0.500000  1
  F  F23  1  0.500001  0.000000  0.500000  1
  F  F24  1  0.749998  0.284374  0.587475  1
  F  F25  1  0.000276  0.665748  0.612222  1
  F  F26  1  0.499724  0.665748  0.612222  1
  F  F27  1  0.249999  0.981522  0.700564  1
  F  F28  1  0.249999  0.481523  0.799435  1
  F  F29  1  0.000276  0.165748  0.887777  1
  F  F30  1  0.499724  0.165748  0.887777  1
  F  F31  1  0.749998  0.784375  0.912526  1
