# generated using pymatgen
data_Sn4PtRh3
_symmetry_space_group_name_H-M   'P 1'
_cell_length_a   5.80731201
_cell_length_b   4.02471000
_cell_length_c   6.71381718
_cell_angle_alpha   90.00000000
_cell_angle_beta   89.61070099
_cell_angle_gamma   90.00000000
_symmetry_Int_Tables_number   1
_chemical_formula_structural   Sn4PtRh3
_chemical_formula_sum   'Sn4 Pt1 Rh3'
_cell_volume   156.91672613
_cell_formula_units_Z   1
loop_
 _symmetry_equiv_pos_site_id
 _symmetry_equiv_pos_as_xyz
  1  'x, y, z'
loop_
 _atom_site_type_symbol
 _atom_site_label
 _atom_site_symmetry_multiplicity
 _atom_site_fract_x
 _atom_site_fract_y
 _atom_site_fract_z
 _atom_site_occupancy
  Sn  Sn0  1  0.203744  0.749999  0.083293  1
  Sn  Sn1  1  0.712434  0.749999  0.414257  1
  Sn  Sn2  1  0.288896  0.250001  0.596933  1
  Sn  Sn3  1  0.791426  0.250001  0.906821  1
  Pt  Pt4  1  0.491044  0.250001  0.219420  1
  Rh  Rh5  1  0.994544  0.250001  0.284658  1
  Rh  Rh6  1  0.008198  0.749999  0.714980  1
  Rh  Rh7  1  0.509712  0.749999  0.779638  1
