# generated using pymatgen
data_Ac2ZnPdI2
_symmetry_space_group_name_H-M   'P 1'
_cell_length_a   4.42654600
_cell_length_b   4.42654525
_cell_length_c   12.70485900
_cell_angle_alpha   90.00000000
_cell_angle_beta   90.00000000
_cell_angle_gamma   119.99999065
_symmetry_Int_Tables_number   1
_chemical_formula_structural   Ac2ZnPdI2
_chemical_formula_sum   'Ac2 Zn1 Pd1 I2'
_cell_volume   215.59089336
_cell_formula_units_Z   1
loop_
 _symmetry_equiv_pos_site_id
 _symmetry_equiv_pos_as_xyz
  1  'x, y, z'
loop_
 _atom_site_type_symbol
 _atom_site_label
 _atom_site_symmetry_multiplicity
 _atom_site_fract_x
 _atom_site_fract_y
 _atom_site_fract_z
 _atom_site_occupancy
  Ac  Ac0  1  0.000000  0.000000  0.166897  1
  Ac  Ac1  1  0.000000  0.000000  0.834749  1
  Zn  Zn2  1  0.333333  0.666667  0.003856  1
  Pd  Pd3  1  0.666667  0.333333  0.994911  1
  I  I4  1  0.333333  0.666667  0.653264  1
  I  I5  1  0.666667  0.333333  0.346321  1
