# generated using pymatgen
data_Nd2Y3Ni16(As4Pd)3
_symmetry_space_group_name_H-M   'P 1'
_cell_length_a   12.69647300
_cell_length_b   12.69647361
_cell_length_c   3.94478900
_cell_angle_alpha   90.00000000
_cell_angle_beta   90.00000000
_cell_angle_gamma   120.00000622
_symmetry_Int_Tables_number   1
_chemical_formula_structural   Nd2Y3Ni16(As4Pd)3
_chemical_formula_sum   'Nd2 Y3 Ni16 As12 Pd3'
_cell_volume   550.70699252
_cell_formula_units_Z   1
loop_
 _symmetry_equiv_pos_site_id
 _symmetry_equiv_pos_as_xyz
  1  'x, y, z'
loop_
 _atom_site_type_symbol
 _atom_site_label
 _atom_site_symmetry_multiplicity
 _atom_site_fract_x
 _atom_site_fract_y
 _atom_site_fract_z
 _atom_site_occupancy
  Nd  Nd0  1  0.333333  0.666667  0.000000  1
  Nd  Nd1  1  0.666667  0.333333  0.000000  1
  Y  Y2  1  0.185519  0.185519  0.500000  1
  Y  Y3  1  0.814481  0.000000  0.500000  1
  Y  Y4  1  0.000000  0.814481  0.500000  1
  Ni  Ni5  1  0.718381  0.718381  0.500000  1
  Ni  Ni6  1  0.281619  0.000000  0.500000  1
  Ni  Ni7  1  0.000000  0.281619  0.500000  1
  Ni  Ni8  1  0.182334  0.376594  0.000000  1
  Ni  Ni9  1  0.623406  0.805741  0.000000  1
  Ni  Ni10  1  0.194259  0.817666  0.000000  1
  Ni  Ni11  1  0.805741  0.623406  0.000000  1
  Ni  Ni12  1  0.817666  0.194259  0.000000  1
  Ni  Ni13  1  0.376594  0.182334  0.000000  1
  Ni  Ni14  1  0.359207  0.481134  0.500000  1
  Ni  Ni15  1  0.518866  0.878073  0.500000  1
  Ni  Ni16  1  0.121927  0.640793  0.500000  1
  Ni  Ni17  1  0.878073  0.518866  0.500000  1
  Ni  Ni18  1  0.640793  0.121927  0.500000  1
  Ni  Ni19  1  0.481134  0.359207  0.500000  1
  Ni  Ni20  1  0.000000  0.000000  0.000000  1
  As  As21  1  0.822436  0.822436  0.000000  1
  As  As22  1  0.177564  0.000000  0.000000  1
  As  As23  1  0.000000  0.177564  0.000000  1
  As  As24  1  0.168731  0.477548  0.500000  1
  As  As25  1  0.522452  0.691184  0.500000  1
  As  As26  1  0.308816  0.831269  0.500000  1
  As  As27  1  0.691184  0.522452  0.500000  1
  As  As28  1  0.831269  0.308816  0.500000  1
  As  As29  1  0.477548  0.168731  0.500000  1
  As  As30  1  0.361150  0.361150  0.000000  1
  As  As31  1  0.638850  0.000000  0.000000  1
  As  As32  1  0.000000  0.638850  0.000000  1
  Pd  Pd33  1  0.557342  0.557342  0.000000  1
  Pd  Pd34  1  0.442658  0.000000  0.000000  1
  Pd  Pd35  1  0.000000  0.442658  0.000000  1
