# generated using pymatgen
data_In11HgIrRh3
_symmetry_space_group_name_H-M   'P 1'
_cell_length_a   7.11698800
_cell_length_b   7.16219292
_cell_length_c   7.21807400
_cell_angle_alpha   90.00000000
_cell_angle_beta   90.00000000
_cell_angle_gamma   89.67453869
_symmetry_Int_Tables_number   1
_chemical_formula_structural   In11HgIrRh3
_chemical_formula_sum   'In11 Hg1 Ir1 Rh3'
_cell_volume   367.92269027
_cell_formula_units_Z   1
loop_
 _symmetry_equiv_pos_site_id
 _symmetry_equiv_pos_as_xyz
  1  'x, y, z'
loop_
 _atom_site_type_symbol
 _atom_site_label
 _atom_site_symmetry_multiplicity
 _atom_site_fract_x
 _atom_site_fract_y
 _atom_site_fract_z
 _atom_site_occupancy
  In  In0  1  0.500580  0.999187  0.000000  1
  In  In1  1  0.500424  0.999626  0.500000  1
  In  In2  1  0.998792  0.500481  0.000000  1
  In  In3  1  0.346455  0.652595  0.244139  1
  In  In4  1  0.654025  0.347687  0.244061  1
  In  In5  1  0.149995  0.158080  0.737302  1
  In  In6  1  0.849362  0.841402  0.737638  1
  In  In7  1  0.654025  0.347687  0.755939  1
  In  In8  1  0.346455  0.652595  0.755861  1
  In  In9  1  0.849362  0.841402  0.262362  1
  In  In10  1  0.149995  0.158080  0.262698  1
  Hg  Hg11  1  0.999950  0.500225  0.500000  1
  Ir  Ir12  1  0.343961  0.344580  0.000000  1
  Rh  Rh13  1  0.158763  0.852198  0.500000  1
  Rh  Rh14  1  0.841735  0.148350  0.500000  1
  Rh  Rh15  1  0.656121  0.655822  0.000000  1
