# generated using pymatgen
data_Tb(SiAu2)2
_symmetry_space_group_name_H-M   'P 1'
_cell_length_a   4.36191969
_cell_length_b   4.39530900
_cell_length_c   7.20545966
_cell_angle_alpha   90.00000000
_cell_angle_beta   72.38125918
_cell_angle_gamma   90.00000000
_symmetry_Int_Tables_number   1
_chemical_formula_structural   Tb(SiAu2)2
_chemical_formula_sum   'Tb1 Si2 Au4'
_cell_volume   131.66291409
_cell_formula_units_Z   1
loop_
 _symmetry_equiv_pos_site_id
 _symmetry_equiv_pos_as_xyz
  1  'x, y, z'
loop_
 _atom_site_type_symbol
 _atom_site_label
 _atom_site_symmetry_multiplicity
 _atom_site_fract_x
 _atom_site_fract_y
 _atom_site_fract_z
 _atom_site_occupancy
  Tb  Tb0  1  0.000000  0.000000  0.000000  1
  Si  Si1  1  0.414926  0.499999  0.170145  1
  Si  Si2  1  0.585073  0.499999  0.829855  1
  Au  Au3  1  0.827136  0.499999  0.345730  1
  Au  Au4  1  0.329374  0.000000  0.341251  1
  Au  Au5  1  0.670625  0.000000  0.658749  1
  Au  Au6  1  0.172863  0.499999  0.654270  1
