# generated using pymatgen
data_Lu3Sc(Ta3Si4)2
_symmetry_space_group_name_H-M   'P 1'
_cell_length_a   7.00416534
_cell_length_b   7.00397727
_cell_length_c   12.91221600
_cell_angle_alpha   89.96643556
_cell_angle_beta   89.95311902
_cell_angle_gamma   90.00771125
_symmetry_Int_Tables_number   1
_chemical_formula_structural   Lu3Sc(Ta3Si4)2
_chemical_formula_sum   'Lu6 Sc2 Ta12 Si16'
_cell_volume   633.43444541
_cell_formula_units_Z   2
loop_
 _symmetry_equiv_pos_site_id
 _symmetry_equiv_pos_as_xyz
  1  'x, y, z'
loop_
 _atom_site_type_symbol
 _atom_site_label
 _atom_site_symmetry_multiplicity
 _atom_site_fract_x
 _atom_site_fract_y
 _atom_site_fract_z
 _atom_site_occupancy
  Lu  Lu0  1  0.998097  0.658032  0.031199  1
  Lu  Lu1  1  0.002847  0.341139  0.531297  1
  Lu  Lu2  1  0.657937  0.998127  0.968527  1
  Lu  Lu3  1  0.158971  0.502697  0.780895  1
  Lu  Lu4  1  0.842006  0.498163  0.281367  1
  Lu  Lu5  1  0.501637  0.157988  0.219029  1
  Sc  Sc6  1  0.500021  0.843931  0.718390  1
  Sc  Sc7  1  0.344044  0.999815  0.468640  1
  Ta  Ta8  1  0.347924  0.506946  0.376298  1
  Ta  Ta9  1  0.847597  0.994085  0.373764  1
  Ta  Ta10  1  0.006442  0.152015  0.126480  1
  Ta  Ta11  1  0.993335  0.848641  0.626012  1
  Ta  Ta12  1  0.505508  0.348083  0.623709  1
  Ta  Ta13  1  0.151901  0.005457  0.873375  1
  Ta  Ta14  1  0.670943  0.672328  0.500332  1
  Ta  Ta15  1  0.827849  0.170800  0.749566  1
  Ta  Ta16  1  0.171765  0.828556  0.250397  1
  Ta  Ta17  1  0.328472  0.328277  0.999683  1
  Ta  Ta18  1  0.493705  0.652373  0.124047  1
  Ta  Ta19  1  0.651179  0.493351  0.875712  1
  Si  Si20  1  0.046642  0.705027  0.436357  1
  Si  Si21  1  0.955026  0.296308  0.935569  1
  Si  Si22  1  0.698886  0.043291  0.564418  1
  Si  Si23  1  0.203647  0.454402  0.186075  1
  Si  Si24  1  0.795030  0.546318  0.685785  1
  Si  Si25  1  0.455055  0.200373  0.813176  1
  Si  Si26  1  0.543733  0.798173  0.315391  1
  Si  Si27  1  0.296531  0.954872  0.064046  1
  Si  Si28  1  0.795430  0.863967  0.180547  1
  Si  Si29  1  0.298667  0.641418  0.570579  1
  Si  Si30  1  0.703920  0.363967  0.069429  1
  Si  Si31  1  0.634385  0.294233  0.430626  1
  Si  Si32  1  0.364311  0.704768  0.929687  1
  Si  Si33  1  0.138465  0.202026  0.321514  1
  Si  Si34  1  0.206811  0.133900  0.679487  1
  Si  Si35  1  0.861285  0.796148  0.818594  1
