# generated using pymatgen
data_Sc5TlIn3IrRh
_symmetry_space_group_name_H-M   'P 1'
_cell_length_a   3.36809900
_cell_length_b   7.73497652
_cell_length_c   17.70582852
_cell_angle_alpha   90.03202877
_cell_angle_beta   90.00000000
_cell_angle_gamma   90.00000000
_symmetry_Int_Tables_number   1
_chemical_formula_structural   Sc5TlIn3IrRh
_chemical_formula_sum   'Sc10 Tl2 In6 Ir2 Rh2'
_cell_volume   461.27512366
_cell_formula_units_Z   2
loop_
 _symmetry_equiv_pos_site_id
 _symmetry_equiv_pos_as_xyz
  1  'x, y, z'
loop_
 _atom_site_type_symbol
 _atom_site_label
 _atom_site_symmetry_multiplicity
 _atom_site_fract_x
 _atom_site_fract_y
 _atom_site_fract_z
 _atom_site_occupancy
  Sc  Sc0  1  0.000000  0.000000  0.000000  1
  Sc  Sc1  1  0.000000  0.500000  0.500000  1
  Sc  Sc2  1  0.000000  0.747227  0.778906  1
  Sc  Sc3  1  0.000000  0.252773  0.221094  1
  Sc  Sc4  1  0.000000  0.244223  0.721108  1
  Sc  Sc5  1  0.000000  0.755777  0.278892  1
  Sc  Sc6  1  0.000000  0.876253  0.586020  1
  Sc  Sc7  1  0.000000  0.123747  0.413980  1
  Sc  Sc8  1  0.000000  0.376387  0.914242  1
  Sc  Sc9  1  0.000000  0.623613  0.085758  1
  Tl  Tl10  1  0.500000  0.794762  0.434822  1
  Tl  Tl11  1  0.500000  0.205238  0.565178  1
  In  In12  1  0.500000  0.296779  0.066053  1
  In  In13  1  0.500000  0.703221  0.933947  1
  In  In14  1  0.500000  0.930598  0.148340  1
  In  In15  1  0.500000  0.069402  0.851660  1
  In  In16  1  0.500000  0.430095  0.350559  1
  In  In17  1  0.500000  0.569905  0.649441  1
  Ir  Ir18  1  0.500000  0.960306  0.696110  1
  Ir  Ir19  1  0.500000  0.039694  0.303890  1
  Rh  Rh20  1  0.500000  0.461995  0.805641  1
  Rh  Rh21  1  0.500000  0.538005  0.194359  1
