# generated using pymatgen
data_CsLiCO3
_symmetry_space_group_name_H-M   'P 1'
_cell_length_a   7.26619100
_cell_length_b   7.40301803
_cell_length_c   8.25107097
_cell_angle_alpha   61.53192783
_cell_angle_beta   90.00000000
_cell_angle_gamma   90.00000000
_symmetry_Int_Tables_number   1
_chemical_formula_structural   CsLiCO3
_chemical_formula_sum   'Cs4 Li4 C4 O12'
_cell_volume   390.17169177
_cell_formula_units_Z   4
loop_
 _symmetry_equiv_pos_site_id
 _symmetry_equiv_pos_as_xyz
  1  'x, y, z'
loop_
 _atom_site_type_symbol
 _atom_site_label
 _atom_site_symmetry_multiplicity
 _atom_site_fract_x
 _atom_site_fract_y
 _atom_site_fract_z
 _atom_site_occupancy
  Cs  Cs0  1  0.638070  0.164224  0.671125  1
  Cs  Cs1  1  0.138070  0.835776  0.828875  1
  Cs  Cs2  1  0.361930  0.835776  0.328875  1
  Cs  Cs3  1  0.861930  0.164224  0.171125  1
  Li  Li4  1  0.423785  0.413614  0.189253  1
  Li  Li5  1  0.576215  0.586386  0.810747  1
  Li  Li6  1  0.923785  0.586386  0.310747  1
  Li  Li7  1  0.076215  0.413614  0.689253  1
  C  C8  1  0.330207  0.320746  0.904970  1
  C  C9  1  0.669793  0.679254  0.095030  1
  C  C10  1  0.830207  0.679254  0.595030  1
  C  C11  1  0.169793  0.320746  0.404970  1
  O  O12  1  0.336035  0.490422  0.745463  1
  O  O13  1  0.663965  0.509578  0.254537  1
  O  O14  1  0.460382  0.288888  0.024598  1
  O  O15  1  0.163965  0.490422  0.245463  1
  O  O16  1  0.836035  0.509578  0.754537  1
  O  O17  1  0.302717  0.192182  0.436785  1
  O  O18  1  0.197283  0.192182  0.936785  1
  O  O19  1  0.039618  0.288888  0.524598  1
  O  O20  1  0.539618  0.711112  0.975402  1
  O  O21  1  0.802717  0.807818  0.063215  1
  O  O22  1  0.960382  0.711112  0.475402  1
  O  O23  1  0.697283  0.807818  0.563215  1
