# generated using pymatgen
data_CsLa2(H6Ir)2
_symmetry_space_group_name_H-M   'P 1'
_cell_length_a   5.24167300
_cell_length_b   5.24167364
_cell_length_c   9.90406100
_cell_angle_alpha   90.00000000
_cell_angle_beta   90.00000000
_cell_angle_gamma   119.99998967
_symmetry_Int_Tables_number   1
_chemical_formula_structural   CsLa2(H6Ir)2
_chemical_formula_sum   'Cs1 La2 H12 Ir2'
_cell_volume   235.65892078
_cell_formula_units_Z   1
loop_
 _symmetry_equiv_pos_site_id
 _symmetry_equiv_pos_as_xyz
  1  'x, y, z'
loop_
 _atom_site_type_symbol
 _atom_site_label
 _atom_site_symmetry_multiplicity
 _atom_site_fract_x
 _atom_site_fract_y
 _atom_site_fract_z
 _atom_site_occupancy
  Cs  Cs0  1  0.000000  0.000000  0.000000  1
  La  La1  1  0.666667  0.333333  0.372536  1
  La  La2  1  0.333333  0.666667  0.627464  1
  H  H3  1  0.177380  0.822620  0.391016  1
  H  H4  1  0.645239  0.822620  0.391016  1
  H  H5  1  0.177380  0.354761  0.391016  1
  H  H6  1  0.822620  0.177380  0.608984  1
  H  H7  1  0.354761  0.177380  0.608984  1
  H  H8  1  0.822620  0.645239  0.608984  1
  H  H9  1  0.520261  0.040522  0.810875  1
  H  H10  1  0.520261  0.479739  0.810875  1
  H  H11  1  0.959478  0.479739  0.810875  1
  H  H12  1  0.479739  0.959478  0.189125  1
  H  H13  1  0.479739  0.520261  0.189125  1
  H  H14  1  0.040522  0.520261  0.189125  1
  Ir  Ir15  1  0.666667  0.333333  0.706727  1
  Ir  Ir16  1  0.333333  0.666667  0.293273  1
