# generated using pymatgen
data_Y7Sn23IrRu4Pt
_symmetry_space_group_name_H-M   'P 1'
_cell_length_a   9.87435183
_cell_length_b   9.90038435
_cell_length_c   10.10371377
_cell_angle_alpha   90.21274895
_cell_angle_beta   90.10606950
_cell_angle_gamma   119.89364380
_symmetry_Int_Tables_number   1
_chemical_formula_structural   Y7Sn23IrRu4Pt
_chemical_formula_sum   'Y7 Sn23 Ir1 Ru4 Pt1'
_cell_volume   856.30761927
_cell_formula_units_Z   1
loop_
 _symmetry_equiv_pos_site_id
 _symmetry_equiv_pos_as_xyz
  1  'x, y, z'
loop_
 _atom_site_type_symbol
 _atom_site_label
 _atom_site_symmetry_multiplicity
 _atom_site_fract_x
 _atom_site_fract_y
 _atom_site_fract_z
 _atom_site_occupancy
  Y  Y0  1  0.004294  0.010216  0.994854  1
  Y  Y1  1  0.038693  0.517206  0.306709  1
  Y  Y2  1  0.481177  0.961714  0.305457  1
  Y  Y3  1  0.479045  0.517809  0.306856  1
  Y  Y4  1  0.964214  0.481842  0.694287  1
  Y  Y5  1  0.517294  0.034555  0.694920  1
  Y  Y6  1  0.517657  0.481714  0.693860  1
  Sn  Sn7  1  0.999277  0.999879  0.497220  1
  Sn  Sn8  1  0.118873  0.883175  0.283030  1
  Sn  Sn9  1  0.762288  0.883166  0.278719  1
  Sn  Sn10  1  0.117214  0.236581  0.281359  1
  Sn  Sn11  1  0.883049  0.116668  0.722226  1
  Sn  Sn12  1  0.234478  0.117788  0.724044  1
  Sn  Sn13  1  0.882459  0.766105  0.723256  1
  Sn  Sn14  1  0.350914  0.997971  0.998560  1
  Sn  Sn15  1  0.646706  0.649603  0.997304  1
  Sn  Sn16  1  0.998856  0.349142  0.000169  1
  Sn  Sn17  1  0.350917  0.352684  0.999331  1
  Sn  Sn18  1  0.003691  0.649465  0.997568  1
  Sn  Sn19  1  0.651408  0.000778  0.999341  1
  Sn  Sn20  1  0.778250  0.556638  0.462636  1
  Sn  Sn21  1  0.778574  0.220913  0.457810  1
  Sn  Sn22  1  0.442596  0.221487  0.459346  1
  Sn  Sn23  1  0.221222  0.441908  0.544070  1
  Sn  Sn24  1  0.220738  0.778192  0.543195  1
  Sn  Sn25  1  0.558162  0.778152  0.542805  1
  Sn  Sn26  1  0.664555  0.325366  0.177886  1
  Sn  Sn27  1  0.333026  0.666019  0.819615  1
  Sn  Sn28  1  0.666668  0.333472  0.877298  1
  Sn  Sn29  1  0.332636  0.665965  0.122876  1
  Ir  Ir30  1  0.340614  0.171478  0.198444  1
  Ru  Ru31  1  0.169939  0.833321  0.797690  1
  Ru  Ru32  1  0.662488  0.833618  0.798302  1
  Ru  Ru33  1  0.167653  0.336610  0.801292  1
  Ru  Ru34  1  0.831499  0.170766  0.199325  1
  Pt  Pt35  1  0.828880  0.658028  0.198338  1
