# generated using pymatgen
data_Nd10SiSn3Sb4
_symmetry_space_group_name_H-M   'P 1'
_cell_length_a   8.30512500
_cell_length_b   8.37535100
_cell_length_c   15.88784100
_cell_angle_alpha   90.00000000
_cell_angle_beta   90.00000000
_cell_angle_gamma   90.00000000
_symmetry_Int_Tables_number   1
_chemical_formula_structural   Nd10SiSn3Sb4
_chemical_formula_sum   'Nd20 Si2 Sn6 Sb8'
_cell_volume   1105.13179807
_cell_formula_units_Z   2
loop_
 _symmetry_equiv_pos_site_id
 _symmetry_equiv_pos_as_xyz
  1  'x, y, z'
loop_
 _atom_site_type_symbol
 _atom_site_label
 _atom_site_symmetry_multiplicity
 _atom_site_fract_x
 _atom_site_fract_y
 _atom_site_fract_z
 _atom_site_occupancy
  Nd  Nd0  1  0.055675  0.179094  0.386867  1
  Nd  Nd1  1  0.404886  0.834365  0.115751  1
  Nd  Nd2  1  0.095114  0.334365  0.615751  1
  Nd  Nd3  1  0.444325  0.679094  0.886867  1
  Nd  Nd4  1  0.905362  0.659438  0.117708  1
  Nd  Nd5  1  0.095114  0.334365  0.884249  1
  Nd  Nd6  1  0.226540  0.495252  0.250000  1
  Nd  Nd7  1  0.736841  0.009486  0.250000  1
  Nd  Nd8  1  0.444325  0.679094  0.613133  1
  Nd  Nd9  1  0.273460  0.995252  0.750000  1
  Nd  Nd10  1  0.594638  0.159438  0.617708  1
  Nd  Nd11  1  0.763159  0.509486  0.750000  1
  Nd  Nd12  1  0.905362  0.659438  0.382292  1
  Nd  Nd13  1  0.055675  0.179094  0.113133  1
  Nd  Nd14  1  0.930628  0.829249  0.888165  1
  Nd  Nd15  1  0.594638  0.159438  0.882292  1
  Nd  Nd16  1  0.569372  0.329249  0.111835  1
  Nd  Nd17  1  0.404886  0.834365  0.384249  1
  Nd  Nd18  1  0.930628  0.829249  0.611835  1
  Nd  Nd19  1  0.569372  0.329249  0.388165  1
  Si  Si20  1  0.635367  0.868664  0.750000  1
  Si  Si21  1  0.864633  0.368664  0.250000  1
  Sn  Sn22  1  0.607735  0.621504  0.250000  1
  Sn  Sn23  1  0.395416  0.373951  0.750000  1
  Sn  Sn24  1  0.136267  0.633548  0.750000  1
  Sn  Sn25  1  0.892265  0.121504  0.750000  1
  Sn  Sn26  1  0.363733  0.133548  0.250000  1
  Sn  Sn27  1  0.104584  0.873951  0.250000  1
  Sb  Sb28  1  0.759744  0.486170  0.547366  1
  Sb  Sb29  1  0.740256  0.986170  0.452634  1
  Sb  Sb30  1  0.244496  0.510483  0.453523  1
  Sb  Sb31  1  0.255504  0.010483  0.953523  1
  Sb  Sb32  1  0.759744  0.486170  0.952634  1
  Sb  Sb33  1  0.244496  0.510483  0.046477  1
  Sb  Sb34  1  0.255504  0.010483  0.546477  1
  Sb  Sb35  1  0.740256  0.986170  0.047366  1
