# generated using pymatgen
data_Sm2Y4CoBr10
_symmetry_space_group_name_H-M   'P 1'
_cell_length_a   7.38122871
_cell_length_b   9.15232331
_cell_length_c   9.27136365
_cell_angle_alpha   108.39341176
_cell_angle_beta   97.15873058
_cell_angle_gamma   104.87921999
_symmetry_Int_Tables_number   1
_chemical_formula_structural   Sm2Y4CoBr10
_chemical_formula_sum   'Sm2 Y4 Co1 Br10'
_cell_volume   559.77740144
_cell_formula_units_Z   1
loop_
 _symmetry_equiv_pos_site_id
 _symmetry_equiv_pos_as_xyz
  1  'x, y, z'
loop_
 _atom_site_type_symbol
 _atom_site_label
 _atom_site_symmetry_multiplicity
 _atom_site_fract_x
 _atom_site_fract_y
 _atom_site_fract_z
 _atom_site_occupancy
  Sm  Sm0  1  0.469316  0.786542  0.588279  1
  Sm  Sm1  1  0.530684  0.213458  0.411721  1
  Y  Y2  1  0.379003  0.455995  0.745817  1
  Y  Y3  1  0.620997  0.544005  0.254183  1
  Y  Y4  1  0.858370  0.634057  0.678204  1
  Y  Y5  1  0.141630  0.365943  0.321796  1
  Co  Co6  1  0.500000  0.500000  0.500000  1
  Br  Br7  1  0.411426  0.133835  0.677409  1
  Br  Br8  1  0.588574  0.866165  0.322591  1
  Br  Br9  1  0.043284  0.676635  0.413796  1
  Br  Br10  1  0.956716  0.323365  0.586204  1
  Br  Br11  1  0.282821  0.755018  0.848807  1
  Br  Br12  1  0.717179  0.244982  0.151193  1
  Br  Br13  1  0.248086  0.414509  0.041743  1
  Br  Br14  1  0.751914  0.585491  0.958257  1
  Br  Br15  1  0.857493  0.954363  0.774127  1
  Br  Br16  1  0.142507  0.045637  0.225873  1
