# generated using pymatgen
data_NpScB6W
_symmetry_space_group_name_H-M   'P 1'
_cell_length_a   3.56785000
_cell_length_b   9.09090500
_cell_length_c   11.45300400
_cell_angle_alpha   90.00000000
_cell_angle_beta   90.00000000
_cell_angle_gamma   90.00000000
_symmetry_Int_Tables_number   1
_chemical_formula_structural   NpScB6W
_chemical_formula_sum   'Np4 Sc4 B24 W4'
_cell_volume   371.47801757
_cell_formula_units_Z   4
loop_
 _symmetry_equiv_pos_site_id
 _symmetry_equiv_pos_as_xyz
  1  'x, y, z'
loop_
 _atom_site_type_symbol
 _atom_site_label
 _atom_site_symmetry_multiplicity
 _atom_site_fract_x
 _atom_site_fract_y
 _atom_site_fract_z
 _atom_site_occupancy
  Np  Np0  1  0.000000  0.319839  0.414088  1
  Np  Np1  1  0.000000  0.680161  0.585912  1
  Np  Np2  1  0.000000  0.819839  0.085912  1
  Np  Np3  1  0.000000  0.180161  0.914088  1
  Sc  Sc4  1  0.000000  0.945374  0.373773  1
  Sc  Sc5  1  0.000000  0.054626  0.626227  1
  Sc  Sc6  1  0.000000  0.445374  0.126227  1
  Sc  Sc7  1  0.000000  0.554626  0.873773  1
  B  B8  1  0.500000  0.552043  0.435003  1
  B  B9  1  0.500000  0.447957  0.564997  1
  B  B10  1  0.500000  0.052043  0.064997  1
  B  B11  1  0.500000  0.947957  0.935003  1
  B  B12  1  0.500000  0.754865  0.421658  1
  B  B13  1  0.500000  0.245135  0.578342  1
  B  B14  1  0.500000  0.254865  0.078342  1
  B  B15  1  0.500000  0.745135  0.921658  1
  B  B16  1  0.500000  0.796459  0.263782  1
  B  B17  1  0.500000  0.203541  0.736218  1
  B  B18  1  0.500000  0.296459  0.236218  1
  B  B19  1  0.500000  0.703541  0.763782  1
  B  B20  1  0.500000  0.630647  0.181003  1
  B  B21  1  0.500000  0.369353  0.818997  1
  B  B22  1  0.500000  0.130647  0.318997  1
  B  B23  1  0.500000  0.869353  0.681003  1
  B  B24  1  0.500000  0.978475  0.213921  1
  B  B25  1  0.500000  0.021525  0.786079  1
  B  B26  1  0.500000  0.478475  0.286079  1
  B  B27  1  0.500000  0.521525  0.713921  1
  B  B28  1  0.500000  0.599622  0.027445  1
  B  B29  1  0.500000  0.400378  0.972555  1
  B  B30  1  0.500000  0.099622  0.472555  1
  B  B31  1  0.500000  0.900378  0.527445  1
  W  W32  1  0.000000  0.640056  0.320289  1
  W  W33  1  0.000000  0.359944  0.679711  1
  W  W34  1  0.000000  0.140056  0.179711  1
  W  W35  1  0.000000  0.859944  0.820289  1
