# generated using pymatgen
data_Pr4Mn5Fe(AgO10)2
_symmetry_space_group_name_H-M   'P 1'
_cell_length_a   5.85405700
_cell_length_b   7.80107649
_cell_length_c   8.86392988
_cell_angle_alpha   90.27552205
_cell_angle_beta   90.00000000
_cell_angle_gamma   90.00000000
_symmetry_Int_Tables_number   1
_chemical_formula_structural   Pr4Mn5Fe(AgO10)2
_chemical_formula_sum   'Pr4 Mn5 Fe1 Ag2 O20'
_cell_volume   404.79279482
_cell_formula_units_Z   1
loop_
 _symmetry_equiv_pos_site_id
 _symmetry_equiv_pos_as_xyz
  1  'x, y, z'
loop_
 _atom_site_type_symbol
 _atom_site_label
 _atom_site_symmetry_multiplicity
 _atom_site_fract_x
 _atom_site_fract_y
 _atom_site_fract_z
 _atom_site_occupancy
  Pr  Pr0  1  0.000000  0.349528  0.672525  1
  Pr  Pr1  1  0.000000  0.646148  0.328499  1
  Pr  Pr2  1  0.000000  0.858022  0.825342  1
  Pr  Pr3  1  0.000000  0.144537  0.174689  1
  Mn  Mn4  1  0.500000  0.406460  0.347338  1
  Mn  Mn5  1  0.255043  0.494508  0.002034  1
  Mn  Mn6  1  0.742264  0.005626  0.501302  1
  Mn  Mn7  1  0.744957  0.494508  0.002034  1
  Mn  Mn8  1  0.257736  0.005626  0.501302  1
  Fe  Fe9  1  0.500000  0.112633  0.852219  1
  Ag  Ag10  1  0.500000  0.933307  0.153621  1
  Ag  Ag11  1  0.500000  0.564839  0.654751  1
  O  O12  1  0.234348  0.907512  0.298747  1
  O  O13  1  0.248390  0.099044  0.706872  1
  O  O14  1  0.751652  0.400360  0.206152  1
  O  O15  1  0.766349  0.590076  0.799738  1
  O  O16  1  0.751610  0.099044  0.706872  1
  O  O17  1  0.765652  0.907512  0.298747  1
  O  O18  1  0.233651  0.590076  0.799738  1
  O  O19  1  0.248348  0.400360  0.206152  1
  O  O20  1  0.500000  0.342927  0.935280  1
  O  O21  1  0.500000  0.635720  0.057320  1
  O  O22  1  0.500000  0.862153  0.555720  1
  O  O23  1  0.500000  0.155967  0.437512  1
  O  O24  1  0.268430  0.003728  0.993095  1
  O  O25  1  0.731300  0.494455  0.492093  1
  O  O26  1  0.731570  0.003728  0.993095  1
  O  O27  1  0.268700  0.494455  0.492093  1
  O  O28  1  0.000000  0.159817  0.449631  1
  O  O29  1  0.000000  0.849429  0.551995  1
  O  O30  1  0.000000  0.648675  0.052776  1
  O  O31  1  0.000000  0.339225  0.950713  1
