# generated using pymatgen
data_BaAc2Te5O14
_symmetry_space_group_name_H-M   'P 1'
_cell_length_a   6.10216200
_cell_length_b   10.18884062
_cell_length_c   13.43800700
_cell_angle_alpha   106.94733906
_cell_angle_beta   90.00000000
_cell_angle_gamma   107.42476445
_symmetry_Int_Tables_number   1
_chemical_formula_structural   BaAc2Te5O14
_chemical_formula_sum   'Ba2 Ac4 Te10 O28'
_cell_volume   759.04063477
_cell_formula_units_Z   2
loop_
 _symmetry_equiv_pos_site_id
 _symmetry_equiv_pos_as_xyz
  1  'x, y, z'
loop_
 _atom_site_type_symbol
 _atom_site_label
 _atom_site_symmetry_multiplicity
 _atom_site_fract_x
 _atom_site_fract_y
 _atom_site_fract_z
 _atom_site_occupancy
  Ba  Ba0  1  0.000000  0.500000  0.000000  1
  Ba  Ba1  1  0.500000  0.500000  0.500000  1
  Ac  Ac2  1  0.553680  0.651977  0.831680  1
  Ac  Ac3  1  0.446320  0.348023  0.168320  1
  Ac  Ac4  1  0.901703  0.348023  0.668320  1
  Ac  Ac5  1  0.098297  0.651977  0.331680  1
  Te  Te6  1  0.807118  0.105986  0.027200  1
  Te  Te7  1  0.605919  0.718983  0.163687  1
  Te  Te8  1  0.886938  0.281017  0.336313  1
  Te  Te9  1  0.192882  0.894014  0.972800  1
  Te  Te10  1  0.701131  0.894014  0.472800  1
  Te  Te11  1  0.298869  0.105986  0.527200  1
  Te  Te12  1  0.787034  0.000000  0.750000  1
  Te  Te13  1  0.212966  0.000000  0.250000  1
  Te  Te14  1  0.113062  0.718983  0.663687  1
  Te  Te15  1  0.394081  0.281017  0.836313  1
  O  O16  1  0.097701  0.119337  0.087134  1
  O  O17  1  0.644501  0.115542  0.705024  1
  O  O18  1  0.814227  0.596742  0.678544  1
  O  O19  1  0.355499  0.884458  0.294976  1
  O  O20  1  0.740190  0.420737  0.329878  1
  O  O21  1  0.471042  0.115542  0.205024  1
  O  O22  1  0.290975  0.165838  0.403576  1
  O  O23  1  0.824758  0.296739  0.108624  1
  O  O24  1  0.874863  0.165838  0.903576  1
  O  O25  1  0.185773  0.403258  0.321456  1
  O  O26  1  0.528018  0.703261  0.391376  1
  O  O27  1  0.096048  0.670938  0.517842  1
  O  O28  1  0.259810  0.579263  0.670122  1
  O  O29  1  0.217486  0.403258  0.821456  1
  O  O30  1  0.125137  0.834162  0.096424  1
  O  O31  1  0.782514  0.596742  0.178544  1
  O  O32  1  0.902299  0.880663  0.912866  1
  O  O33  1  0.709025  0.834162  0.596424  1
  O  O34  1  0.680547  0.420737  0.829878  1
  O  O35  1  0.021637  0.119337  0.587134  1
  O  O36  1  0.978363  0.880663  0.412866  1
  O  O37  1  0.528958  0.884458  0.794976  1
  O  O38  1  0.903952  0.329062  0.482158  1
  O  O39  1  0.319453  0.579263  0.170122  1
  O  O40  1  0.471982  0.296739  0.608624  1
  O  O41  1  0.175242  0.703261  0.891376  1
  O  O42  1  0.574890  0.670938  0.017842  1
  O  O43  1  0.425110  0.329062  0.982158  1
