# generated using pymatgen
data_Er4Al2Ga2Pd3Ru
_symmetry_space_group_name_H-M   'P 1'
_cell_length_a   4.31995400
_cell_length_b   6.85778785
_cell_length_c   7.86527670
_cell_angle_alpha   90.20156904
_cell_angle_beta   90.00000000
_cell_angle_gamma   90.00000000
_symmetry_Int_Tables_number   1
_chemical_formula_structural   Er4Al2Ga2Pd3Ru
_chemical_formula_sum   'Er4 Al2 Ga2 Pd3 Ru1'
_cell_volume   233.00996059
_cell_formula_units_Z   1
loop_
 _symmetry_equiv_pos_site_id
 _symmetry_equiv_pos_as_xyz
  1  'x, y, z'
loop_
 _atom_site_type_symbol
 _atom_site_label
 _atom_site_symmetry_multiplicity
 _atom_site_fract_x
 _atom_site_fract_y
 _atom_site_fract_z
 _atom_site_occupancy
  Er  Er0  1  0.250000  0.036349  0.318280  1
  Er  Er1  1  0.250000  0.531756  0.178893  1
  Er  Er2  1  0.750000  0.977354  0.683420  1
  Er  Er3  1  0.750000  0.464289  0.816626  1
  Al  Al4  1  0.250000  0.634447  0.561645  1
  Al  Al5  1  0.750000  0.355796  0.442673  1
  Ga  Ga6  1  0.250000  0.153151  0.935819  1
  Ga  Ga7  1  0.750000  0.850552  0.061906  1
  Pd  Pd8  1  0.250000  0.769444  0.876520  1
  Pd  Pd9  1  0.750000  0.731142  0.381057  1
  Pd  Pd10  1  0.750000  0.233743  0.125383  1
  Ru  Ru11  1  0.250000  0.261975  0.617779  1
