# generated using pymatgen
data_Sc6Co5Sn6Au
_symmetry_space_group_name_H-M   'P 1'
_cell_length_a   7.40292100
_cell_length_b   7.40292019
_cell_length_c   6.85938500
_cell_angle_alpha   90.00000000
_cell_angle_beta   90.00000000
_cell_angle_gamma   119.99999916
_symmetry_Int_Tables_number   1
_chemical_formula_structural   Sc6Co5Sn6Au
_chemical_formula_sum   'Sc6 Co5 Sn6 Au1'
_cell_volume   325.55322122
_cell_formula_units_Z   1
loop_
 _symmetry_equiv_pos_site_id
 _symmetry_equiv_pos_as_xyz
  1  'x, y, z'
loop_
 _atom_site_type_symbol
 _atom_site_label
 _atom_site_symmetry_multiplicity
 _atom_site_fract_x
 _atom_site_fract_y
 _atom_site_fract_z
 _atom_site_occupancy
  Sc  Sc0  1  0.388484  0.988580  0.242706  1
  Sc  Sc1  1  0.600095  0.611516  0.242706  1
  Sc  Sc2  1  0.011420  0.399905  0.242706  1
  Sc  Sc3  1  0.388195  0.988117  0.757408  1
  Sc  Sc4  1  0.599922  0.611805  0.757408  1
  Sc  Sc5  1  0.011883  0.400078  0.757408  1
  Co  Co6  1  0.000000  0.000000  0.771260  1
  Co  Co7  1  0.000000  0.000000  0.228690  1
  Co  Co8  1  0.666667  0.333333  0.999016  1
  Co  Co9  1  0.333333  0.666667  0.499417  1
  Co  Co10  1  0.333333  0.666667  0.000575  1
  Sn  Sn11  1  0.282550  0.275626  0.999931  1
  Sn  Sn12  1  0.993076  0.717450  0.999931  1
  Sn  Sn13  1  0.010826  0.746559  0.499963  1
  Sn  Sn14  1  0.735733  0.989174  0.499963  1
  Sn  Sn15  1  0.253441  0.264267  0.499963  1
  Sn  Sn16  1  0.724374  0.006924  0.999931  1
  Au  Au17  1  0.666667  0.333333  0.501019  1
