# generated using pymatgen
data_Ca19Tl4In2Hg2N7
_symmetry_space_group_name_H-M   'P 1'
_cell_length_a   10.43059594
_cell_length_b   10.45003476
_cell_length_c   10.44941437
_cell_angle_alpha   60.20735607
_cell_angle_beta   60.07317482
_cell_angle_gamma   60.17246124
_symmetry_Int_Tables_number   1
_chemical_formula_structural   Ca19Tl4In2Hg2N7
_chemical_formula_sum   'Ca19 Tl4 In2 Hg2 N7'
_cell_volume   808.13772599
_cell_formula_units_Z   1
loop_
 _symmetry_equiv_pos_site_id
 _symmetry_equiv_pos_as_xyz
  1  'x, y, z'
loop_
 _atom_site_type_symbol
 _atom_site_label
 _atom_site_symmetry_multiplicity
 _atom_site_fract_x
 _atom_site_fract_y
 _atom_site_fract_z
 _atom_site_occupancy
  Ca  Ca0  1  0.172464  0.501154  0.825389  1
  Ca  Ca1  1  0.500227  0.826817  0.173083  1
  Ca  Ca2  1  0.827683  0.174535  0.498992  1
  Ca  Ca3  1  0.165437  0.834877  0.165813  1
  Ca  Ca4  1  0.826737  0.500505  0.172152  1
  Ca  Ca5  1  0.173314  0.827835  0.499618  1
  Ca  Ca6  1  0.164696  0.168359  0.831696  1
  Ca  Ca7  1  0.172948  0.499860  0.499956  1
  Ca  Ca8  1  0.834003  0.834916  0.165067  1
  Ca  Ca9  1  0.835227  0.167753  0.831599  1
  Ca  Ca10  1  0.499587  0.827673  0.499539  1
  Ca  Ca11  1  0.500064  0.500589  0.499384  1
  Ca  Ca12  1  0.500839  0.500321  0.172417  1
  Ca  Ca13  1  0.165208  0.836480  0.831805  1
  Ca  Ca14  1  0.500210  0.174651  0.825461  1
  Ca  Ca15  1  0.498916  0.174858  0.498535  1
  Ca  Ca16  1  0.827136  0.499989  0.500121  1
  Ca  Ca17  1  0.834185  0.167506  0.164186  1
  Ca  Ca18  1  0.501395  0.501107  0.825022  1
  Tl  Tl19  1  0.480978  0.172059  0.175455  1
  Tl  Tl20  1  0.172792  0.478895  0.175771  1
  Tl  Tl21  1  0.520933  0.825279  0.826482  1
  Tl  Tl22  1  0.171780  0.172059  0.175183  1
  In  In23  1  0.826460  0.823183  0.824971  1
  In  In24  1  0.825323  0.822978  0.527277  1
  Hg  Hg25  1  0.169726  0.169017  0.491961  1
  Hg  Hg26  1  0.830927  0.510306  0.829617  1
  N  N27  1  0.674557  0.327686  0.672592  1
  N  N28  1  0.674233  0.327138  0.324320  1
  N  N29  1  0.325955  0.675439  0.673182  1
  N  N30  1  0.325589  0.674848  0.324821  1
  N  N31  1  0.325324  0.327320  0.672640  1
  N  N32  1  0.674683  0.674892  0.325079  1
  N  N33  1  0.000461  0.999116  0.000815  1
