# generated using pymatgen
data_TbThTcB6
_symmetry_space_group_name_H-M   'P 1'
_cell_length_a   3.79306200
_cell_length_b   9.28502300
_cell_length_c   11.69713300
_cell_angle_alpha   90.00000000
_cell_angle_beta   90.00000000
_cell_angle_gamma   90.00000000
_symmetry_Int_Tables_number   1
_chemical_formula_structural   TbThTcB6
_chemical_formula_sum   'Tb4 Th4 Tc4 B24'
_cell_volume   411.95744263
_cell_formula_units_Z   4
loop_
 _symmetry_equiv_pos_site_id
 _symmetry_equiv_pos_as_xyz
  1  'x, y, z'
loop_
 _atom_site_type_symbol
 _atom_site_label
 _atom_site_symmetry_multiplicity
 _atom_site_fract_x
 _atom_site_fract_y
 _atom_site_fract_z
 _atom_site_occupancy
  Tb  Tb0  1  0.000000  0.944632  0.372082  1
  Tb  Tb1  1  0.000000  0.055368  0.627918  1
  Tb  Tb2  1  0.000000  0.444632  0.127918  1
  Tb  Tb3  1  0.000000  0.555368  0.872082  1
  Th  Th4  1  0.000000  0.323042  0.413844  1
  Th  Th5  1  0.000000  0.676958  0.586156  1
  Th  Th6  1  0.000000  0.823042  0.086156  1
  Th  Th7  1  0.000000  0.176958  0.913844  1
  Tc  Tc8  1  0.000000  0.639049  0.320566  1
  Tc  Tc9  1  0.000000  0.360951  0.679434  1
  Tc  Tc10  1  0.000000  0.139049  0.179434  1
  Tc  Tc11  1  0.000000  0.860951  0.820566  1
  B  B12  1  0.500000  0.555941  0.430322  1
  B  B13  1  0.500000  0.444059  0.569678  1
  B  B14  1  0.500000  0.055941  0.069678  1
  B  B15  1  0.500000  0.944059  0.930322  1
  B  B16  1  0.500000  0.748889  0.417666  1
  B  B17  1  0.500000  0.251111  0.582334  1
  B  B18  1  0.500000  0.248889  0.082334  1
  B  B19  1  0.500000  0.751111  0.917666  1
  B  B20  1  0.500000  0.790569  0.267163  1
  B  B21  1  0.500000  0.209431  0.732837  1
  B  B22  1  0.500000  0.290569  0.232837  1
  B  B23  1  0.500000  0.709431  0.767163  1
  B  B24  1  0.500000  0.631262  0.186652  1
  B  B25  1  0.500000  0.368738  0.813348  1
  B  B26  1  0.500000  0.131262  0.313348  1
  B  B27  1  0.500000  0.868738  0.686652  1
  B  B28  1  0.500000  0.986009  0.213442  1
  B  B29  1  0.500000  0.013991  0.786558  1
  B  B30  1  0.500000  0.486009  0.286558  1
  B  B31  1  0.500000  0.513991  0.713442  1
  B  B32  1  0.500000  0.605109  0.029128  1
  B  B33  1  0.500000  0.394891  0.970872  1
  B  B34  1  0.500000  0.105109  0.470872  1
  B  B35  1  0.500000  0.894891  0.529128  1
