# generated using pymatgen
data_Ca8Cu7Si6Pd
_symmetry_space_group_name_H-M   'P 1'
_cell_length_a   10.63397059
_cell_length_b   10.65374389
_cell_length_c   7.74842695
_cell_angle_alpha   71.13151116
_cell_angle_beta   71.13243828
_cell_angle_gamma   31.06568198
_symmetry_Int_Tables_number   1
_chemical_formula_structural   Ca8Cu7Si6Pd
_chemical_formula_sum   'Ca8 Cu7 Si6 Pd1'
_cell_volume   426.70053292
_cell_formula_units_Z   1
loop_
 _symmetry_equiv_pos_site_id
 _symmetry_equiv_pos_as_xyz
  1  'x, y, z'
loop_
 _atom_site_type_symbol
 _atom_site_label
 _atom_site_symmetry_multiplicity
 _atom_site_fract_x
 _atom_site_fract_y
 _atom_site_fract_z
 _atom_site_occupancy
  Ca  Ca0  1  0.939524  0.197336  0.325748  1
  Ca  Ca1  1  0.058182  0.804752  0.675087  1
  Ca  Ca2  1  0.803127  0.059920  0.175381  1
  Ca  Ca3  1  0.456381  0.205579  0.903846  1
  Ca  Ca4  1  0.798131  0.539819  0.594591  1
  Ca  Ca5  1  0.205248  0.457730  0.403260  1
  Ca  Ca6  1  0.197405  0.940126  0.825301  1
  Ca  Ca7  1  0.541907  0.795788  0.098703  1
  Cu  Cu8  1  0.569421  0.305785  0.523290  1
  Cu  Cu9  1  0.695388  0.429967  0.976541  1
  Cu  Cu10  1  0.303852  0.571212  0.022464  1
  Cu  Cu11  1  0.429654  0.694152  0.478940  1
  Cu  Cu12  1  0.640274  0.914870  0.311156  1
  Cu  Cu13  1  0.915796  0.638361  0.812484  1
  Cu  Cu14  1  0.361491  0.083165  0.689641  1
  Si  Si15  1  0.312882  0.032221  0.438672  1
  Si  Si16  1  0.383318  0.616794  0.249906  1
  Si  Si17  1  0.038078  0.307941  0.933384  1
  Si  Si18  1  0.691784  0.959346  0.565382  1
  Si  Si19  1  0.954995  0.702958  0.059871  1
  Si  Si20  1  0.617497  0.381705  0.750777  1
  Pd  Pd21  1  0.085666  0.360472  0.185573  1
