# generated using pymatgen
data_La3Pr13Cd4Ir3Pt
_symmetry_space_group_name_H-M   'P 1'
_cell_length_a   10.04448184
_cell_length_b   10.05611041
_cell_length_c   10.05611151
_cell_angle_alpha   60.35714680
_cell_angle_beta   60.32514029
_cell_angle_gamma   60.32514408
_symmetry_Int_Tables_number   1
_chemical_formula_structural   La3Pr13Cd4Ir3Pt
_chemical_formula_sum   'La3 Pr13 Cd4 Ir3 Pt1'
_cell_volume   723.70169731
_cell_formula_units_Z   1
loop_
 _symmetry_equiv_pos_site_id
 _symmetry_equiv_pos_as_xyz
  1  'x, y, z'
loop_
 _atom_site_type_symbol
 _atom_site_label
 _atom_site_symmetry_multiplicity
 _atom_site_fract_x
 _atom_site_fract_y
 _atom_site_fract_z
 _atom_site_occupancy
  La  La0  1  0.345583  0.346575  0.346575  1
  La  La1  1  0.350621  0.351437  0.953728  1
  La  La2  1  0.350621  0.953728  0.351437  1
  Pr  Pr3  1  0.948831  0.351982  0.351982  1
  Pr  Pr4  1  0.806054  0.190255  0.190255  1
  Pr  Pr5  1  0.188915  0.809456  0.809456  1
  Pr  Pr6  1  0.190354  0.806276  0.190101  1
  Pr  Pr7  1  0.810133  0.188816  0.809214  1
  Pr  Pr8  1  0.190354  0.190101  0.806276  1
  Pr  Pr9  1  0.810133  0.809214  0.188816  1
  Pr  Pr10  1  0.939502  0.562386  0.562386  1
  Pr  Pr11  1  0.562556  0.938248  0.938248  1
  Pr  Pr12  1  0.562846  0.939074  0.563010  1
  Pr  Pr13  1  0.938390  0.562500  0.938230  1
  Pr  Pr14  1  0.562846  0.563010  0.939074  1
  Pr  Pr15  1  0.938390  0.938230  0.562500  1
  Cd  Cd16  1  0.581074  0.579782  0.579782  1
  Cd  Cd17  1  0.580664  0.579568  0.259908  1
  Cd  Cd18  1  0.580664  0.259908  0.579568  1
  Cd  Cd19  1  0.259692  0.580092  0.580092  1
  Ir  Ir20  1  0.143208  0.141669  0.573136  1
  Ir  Ir21  1  0.143208  0.573136  0.141669  1
  Ir  Ir22  1  0.572863  0.142051  0.142051  1
  Pt  Pt23  1  0.142498  0.142507  0.142507  1
