# generated using pymatgen
data_Er5Tc2C7
_symmetry_space_group_name_H-M   'P 1'
_cell_length_a   8.24252942
_cell_length_b   8.24252992
_cell_length_c   3.41198300
_cell_angle_alpha   90.00000000
_cell_angle_beta   90.00000000
_cell_angle_gamma   122.15212007
_symmetry_Int_Tables_number   1
_chemical_formula_structural   Er5Tc2C7
_chemical_formula_sum   'Er5 Tc2 C7'
_cell_volume   196.25726584
_cell_formula_units_Z   1
loop_
 _symmetry_equiv_pos_site_id
 _symmetry_equiv_pos_as_xyz
  1  'x, y, z'
loop_
 _atom_site_type_symbol
 _atom_site_label
 _atom_site_symmetry_multiplicity
 _atom_site_fract_x
 _atom_site_fract_y
 _atom_site_fract_z
 _atom_site_occupancy
  Er  Er0  1  0.500000  0.500000  0.000000  1
  Er  Er1  1  0.077286  0.337519  0.500000  1
  Er  Er2  1  0.922714  0.662481  0.500000  1
  Er  Er3  1  0.662481  0.922714  0.500000  1
  Er  Er4  1  0.337519  0.077286  0.500000  1
  Tc  Tc5  1  0.713820  0.286180  0.000000  1
  Tc  Tc6  1  0.286180  0.713820  0.000000  1
  C  C7  1  0.624440  0.375560  0.500000  1
  C  C8  1  0.375560  0.624440  0.500000  1
  C  C9  1  0.000000  0.000000  0.000000  1
  C  C10  1  0.170013  0.170013  0.000000  1
  C  C11  1  0.829987  0.829987  0.000000  1
  C  C12  1  0.000000  0.500000  0.000000  1
  C  C13  1  0.500000  0.000000  0.000000  1
