# generated using pymatgen
data_Li3TbPr2AgSn4
_symmetry_space_group_name_H-M   'P 1'
_cell_length_a   8.84874800
_cell_length_b   8.85663289
_cell_length_c   8.85663205
_cell_angle_alpha   149.08205635
_cell_angle_beta   132.59242735
_cell_angle_gamma   57.68619146
_symmetry_Int_Tables_number   1
_chemical_formula_structural   Li3TbPr2AgSn4
_chemical_formula_sum   'Li3 Tb1 Pr2 Ag1 Sn4'
_cell_volume   260.59513197
_cell_formula_units_Z   1
loop_
 _symmetry_equiv_pos_site_id
 _symmetry_equiv_pos_as_xyz
  1  'x, y, z'
loop_
 _atom_site_type_symbol
 _atom_site_label
 _atom_site_symmetry_multiplicity
 _atom_site_fract_x
 _atom_site_fract_y
 _atom_site_fract_z
 _atom_site_occupancy
  Li  Li0  1  0.481360  0.672102  0.809259  1
  Li  Li1  1  0.859733  0.671353  0.188379  1
  Li  Li2  1  0.140925  0.330483  0.810440  1
  Tb  Tb3  1  0.498610  0.998298  0.500313  1
  Pr  Pr4  1  0.870691  0.869445  0.001246  1
  Pr  Pr5  1  0.134018  0.130614  0.003405  1
  Ag  Ag6  1  0.518829  0.327844  0.190983  1
  Sn  Sn7  1  0.277460  0.787714  0.489746  1
  Sn  Sn8  1  0.713008  0.209222  0.503786  1
  Sn  Sn9  1  0.801526  0.502171  0.299354  1
  Sn  Sn10  1  0.203842  0.500754  0.703088  1
