# generated using pymatgen
data_LaPuNiO6
_symmetry_space_group_name_H-M   'P 1'
_cell_length_a   5.38250400
_cell_length_b   5.38260838
_cell_length_c   5.30824400
_cell_angle_alpha   89.99955293
_cell_angle_beta   90.00105384
_cell_angle_gamma   119.99939537
_symmetry_Int_Tables_number   1
_chemical_formula_structural   LaPuNiO6
_chemical_formula_sum   'La1 Pu1 Ni1 O6'
_cell_volume   133.18683542
_cell_formula_units_Z   1
loop_
 _symmetry_equiv_pos_site_id
 _symmetry_equiv_pos_as_xyz
  1  'x, y, z'
loop_
 _atom_site_type_symbol
 _atom_site_label
 _atom_site_symmetry_multiplicity
 _atom_site_fract_x
 _atom_site_fract_y
 _atom_site_fract_z
 _atom_site_occupancy
  La  La0  1  0.999997  0.999973  0.000031  1
  Pu  Pu1  1  0.666692  0.333323  0.500012  1
  Ni  Ni2  1  0.333483  0.666776  0.499877  1
  O  O3  1  0.648145  0.013328  0.286249  1
  O  O4  1  0.986631  0.634799  0.286251  1
  O  O5  1  0.365133  0.351834  0.286217  1
  O  O6  1  0.986632  0.351828  0.713762  1
  O  O7  1  0.648143  0.634829  0.713799  1
  O  O8  1  0.365141  0.013311  0.713800  1
