# generated using pymatgen
data_Pr2Th(As2Rh3)3
_symmetry_space_group_name_H-M   'P 1'
_cell_length_a   4.07346600
_cell_length_b   8.53193039
_cell_length_c   9.96513522
_cell_angle_alpha   107.48458067
_cell_angle_beta   90.00000000
_cell_angle_gamma   103.81094088
_symmetry_Int_Tables_number   1
_chemical_formula_structural   Pr2Th(As2Rh3)3
_chemical_formula_sum   'Pr2 Th1 As6 Rh9'
_cell_volume   319.81868475
_cell_formula_units_Z   1
loop_
 _symmetry_equiv_pos_site_id
 _symmetry_equiv_pos_as_xyz
  1  'x, y, z'
loop_
 _atom_site_type_symbol
 _atom_site_label
 _atom_site_symmetry_multiplicity
 _atom_site_fract_x
 _atom_site_fract_y
 _atom_site_fract_z
 _atom_site_occupancy
  Pr  Pr0  1  0.843270  0.686538  0.302869  1
  Pr  Pr1  1  0.156730  0.313462  0.697131  1
  Th  Th2  1  0.000000  0.000000  0.000000  1
  As  As3  1  0.802430  0.604863  0.871649  1
  As  As4  1  0.197570  0.395137  0.128351  1
  As  As5  1  0.539171  0.078341  0.779115  1
  As  As6  1  0.460829  0.921659  0.220885  1
  As  As7  1  0.638510  0.277019  0.453143  1
  As  As8  1  0.361490  0.722981  0.546857  1
  Rh  Rh9  1  0.956228  0.912454  0.671714  1
  Rh  Rh10  1  0.043772  0.087546  0.328286  1
  Rh  Rh11  1  0.780921  0.561843  0.608699  1
  Rh  Rh12  1  0.219079  0.438157  0.391301  1
  Rh  Rh13  1  0.380157  0.760313  0.798551  1
  Rh  Rh14  1  0.619843  0.239687  0.201449  1
  Rh  Rh15  1  0.500000  0.000000  0.500000  1
  Rh  Rh16  1  0.679016  0.358033  0.961663  1
  Rh  Rh17  1  0.320984  0.641967  0.038337  1
