# generated using pymatgen
data_Sm3Dy7(In2Rh)4
_symmetry_space_group_name_H-M   'P 1'
_cell_length_a   3.66305000
_cell_length_b   8.03784958
_cell_length_c   18.41753033
_cell_angle_alpha   89.95639675
_cell_angle_beta   90.00000000
_cell_angle_gamma   90.00000000
_symmetry_Int_Tables_number   1
_chemical_formula_structural   Sm3Dy7(In2Rh)4
_chemical_formula_sum   'Sm3 Dy7 In8 Rh4'
_cell_volume   542.26801572
_cell_formula_units_Z   1
loop_
 _symmetry_equiv_pos_site_id
 _symmetry_equiv_pos_as_xyz
  1  'x, y, z'
loop_
 _atom_site_type_symbol
 _atom_site_label
 _atom_site_symmetry_multiplicity
 _atom_site_fract_x
 _atom_site_fract_y
 _atom_site_fract_z
 _atom_site_occupancy
  Sm  Sm0  1  0.500000  0.381485  0.587677  1
  Sm  Sm1  1  0.500000  0.500095  0.000019  1
  Sm  Sm2  1  0.500000  0.999984  0.499869  1
  Dy  Dy3  1  0.500000  0.882705  0.911168  1
  Dy  Dy4  1  0.500000  0.117101  0.088845  1
  Dy  Dy5  1  0.500000  0.753424  0.721659  1
  Dy  Dy6  1  0.500000  0.252835  0.778932  1
  Dy  Dy7  1  0.500000  0.746758  0.221428  1
  Dy  Dy8  1  0.500000  0.246769  0.278534  1
  Dy  Dy9  1  0.500000  0.617087  0.410833  1
  In  In10  1  0.000000  0.794590  0.069527  1
  In  In11  1  0.000000  0.928402  0.348356  1
  In  In12  1  0.000000  0.069304  0.651950  1
  In  In13  1  0.000000  0.571958  0.848626  1
  In  In14  1  0.000000  0.708387  0.569828  1
  In  In15  1  0.000000  0.205341  0.930469  1
  In  In16  1  0.000000  0.293931  0.429560  1
  In  In17  1  0.000000  0.428049  0.151683  1
  Rh  Rh18  1  0.000000  0.976741  0.805587  1
  Rh  Rh19  1  0.000000  0.523500  0.305286  1
  Rh  Rh20  1  0.000000  0.478316  0.695745  1
  Rh  Rh21  1  0.000000  0.023237  0.194419  1
