# generated using pymatgen
data_Hf5Zr(AsP)2
_symmetry_space_group_name_H-M   'P 1'
_cell_length_a   3.71939000
_cell_length_b   9.92286500
_cell_length_c   10.24682900
_cell_angle_alpha   90.00000000
_cell_angle_beta   90.00000000
_cell_angle_gamma   90.00000000
_symmetry_Int_Tables_number   1
_chemical_formula_structural   Hf5Zr(AsP)2
_chemical_formula_sum   'Hf10 Zr2 As4 P4'
_cell_volume   378.17976762
_cell_formula_units_Z   2
loop_
 _symmetry_equiv_pos_site_id
 _symmetry_equiv_pos_as_xyz
  1  'x, y, z'
loop_
 _atom_site_type_symbol
 _atom_site_label
 _atom_site_symmetry_multiplicity
 _atom_site_fract_x
 _atom_site_fract_y
 _atom_site_fract_z
 _atom_site_occupancy
  Hf  Hf0  1  0.750000  0.368041  0.455065  1
  Hf  Hf1  1  0.750000  0.131959  0.955065  1
  Hf  Hf2  1  0.750000  0.068494  0.615671  1
  Hf  Hf3  1  0.750000  0.431506  0.115671  1
  Hf  Hf4  1  0.250000  0.933738  0.384342  1
  Hf  Hf5  1  0.250000  0.566262  0.884342  1
  Hf  Hf6  1  0.250000  0.292053  0.717098  1
  Hf  Hf7  1  0.250000  0.207947  0.217098  1
  Hf  Hf8  1  0.750000  0.707344  0.282863  1
  Hf  Hf9  1  0.750000  0.792656  0.782863  1
  Zr  Zr10  1  0.250000  0.631105  0.545432  1
  Zr  Zr11  1  0.250000  0.868895  0.045432  1
  As  As12  1  0.750000  0.497464  0.697280  1
  As  As13  1  0.750000  0.002536  0.197280  1
  As  As14  1  0.250000  0.499736  0.302886  1
  As  As15  1  0.250000  0.000264  0.802886  1
  P  P16  1  0.250000  0.180785  0.473944  1
  P  P17  1  0.250000  0.319215  0.973944  1
  P  P18  1  0.750000  0.821936  0.525419  1
  P  P19  1  0.750000  0.678064  0.025419  1
