# generated using pymatgen
data_Tb(Ga2Pt)2
_symmetry_space_group_name_H-M   'P 1'
_cell_length_a   4.32174400
_cell_length_b   6.65006600
_cell_length_c   17.43749800
_cell_angle_alpha   90.00000000
_cell_angle_beta   90.00000000
_cell_angle_gamma   90.00000000
_symmetry_Int_Tables_number   1
_chemical_formula_structural   Tb(Ga2Pt)2
_chemical_formula_sum   'Tb4 Ga16 Pt8'
_cell_volume   501.15164946
_cell_formula_units_Z   4
loop_
 _symmetry_equiv_pos_site_id
 _symmetry_equiv_pos_as_xyz
  1  'x, y, z'
loop_
 _atom_site_type_symbol
 _atom_site_label
 _atom_site_symmetry_multiplicity
 _atom_site_fract_x
 _atom_site_fract_y
 _atom_site_fract_z
 _atom_site_occupancy
  Tb  Tb0  1  0.750000  0.989987  0.639710  1
  Tb  Tb1  1  0.250000  0.010013  0.360290  1
  Tb  Tb2  1  0.250000  0.489987  0.860290  1
  Tb  Tb3  1  0.750000  0.510013  0.139710  1
  Ga  Ga4  1  0.250000  0.271733  0.689744  1
  Ga  Ga5  1  0.750000  0.728267  0.310256  1
  Ga  Ga6  1  0.750000  0.771733  0.810256  1
  Ga  Ga7  1  0.250000  0.228267  0.189744  1
  Ga  Ga8  1  0.250000  0.682978  0.683510  1
  Ga  Ga9  1  0.750000  0.317022  0.316490  1
  Ga  Ga10  1  0.750000  0.182978  0.816490  1
  Ga  Ga11  1  0.250000  0.817022  0.183510  1
  Ga  Ga12  1  0.250000  0.156430  0.537152  1
  Ga  Ga13  1  0.750000  0.843570  0.462848  1
  Ga  Ga14  1  0.750000  0.656430  0.962848  1
  Ga  Ga15  1  0.250000  0.343570  0.037152  1
  Ga  Ga16  1  0.250000  0.485367  0.429638  1
  Ga  Ga17  1  0.750000  0.514633  0.570362  1
  Ga  Ga18  1  0.750000  0.985367  0.070362  1
  Ga  Ga19  1  0.250000  0.014633  0.929638  1
  Pt  Pt20  1  0.250000  0.752557  0.536232  1
  Pt  Pt21  1  0.750000  0.247443  0.463768  1
  Pt  Pt22  1  0.750000  0.252557  0.963768  1
  Pt  Pt23  1  0.250000  0.747443  0.036232  1
  Pt  Pt24  1  0.250000  0.972653  0.783509  1
  Pt  Pt25  1  0.750000  0.027347  0.216491  1
  Pt  Pt26  1  0.750000  0.472653  0.716491  1
  Pt  Pt27  1  0.250000  0.527347  0.283509  1
