# generated using pymatgen
data_LiCaYbPt2
_symmetry_space_group_name_H-M   'P 1'
_cell_length_a   5.53120949
_cell_length_b   5.53120905
_cell_length_c   5.53120900
_cell_angle_alpha   136.23553027
_cell_angle_beta   119.76443256
_cell_angle_gamma   77.37174448
_symmetry_Int_Tables_number   1
_chemical_formula_structural   LiCaYbPt2
_chemical_formula_sum   'Li1 Ca1 Yb1 Pt2'
_cell_volume   98.81261003
_cell_formula_units_Z   1
loop_
 _symmetry_equiv_pos_site_id
 _symmetry_equiv_pos_as_xyz
  1  'x, y, z'
loop_
 _atom_site_type_symbol
 _atom_site_label
 _atom_site_symmetry_multiplicity
 _atom_site_fract_x
 _atom_site_fract_y
 _atom_site_fract_z
 _atom_site_occupancy
  Li  Li0  1  0.999575  0.999575  0.000000  1
  Ca  Ca1  1  0.303444  0.803444  0.500000  1
  Yb  Yb2  1  0.694851  0.194851  0.500000  1
  Pt  Pt3  1  0.745573  0.501065  0.244509  1
  Pt  Pt4  1  0.256557  0.501065  0.755491  1
