# generated using pymatgen
data_NdGdZn19Cu3
_symmetry_space_group_name_H-M   'P 1'
_cell_length_a   8.19519486
_cell_length_b   8.20037631
_cell_length_c   8.20037600
_cell_angle_alpha   99.73395956
_cell_angle_beta   99.56251805
_cell_angle_gamma   131.70750829
_symmetry_Int_Tables_number   1
_chemical_formula_structural   NdGdZn19Cu3
_chemical_formula_sum   'Nd1 Gd1 Zn19 Cu3'
_cell_volume   375.30415124
_cell_formula_units_Z   1
loop_
 _symmetry_equiv_pos_site_id
 _symmetry_equiv_pos_as_xyz
  1  'x, y, z'
loop_
 _atom_site_type_symbol
 _atom_site_label
 _atom_site_symmetry_multiplicity
 _atom_site_fract_x
 _atom_site_fract_y
 _atom_site_fract_z
 _atom_site_occupancy
  Nd  Nd0  1  0.502198  0.501405  0.001163  1
  Gd  Gd1  1  0.748971  0.248764  0.499091  1
  Zn  Zn2  1  0.397216  0.072399  0.078981  1
  Zn  Zn3  1  0.988895  0.314247  0.917446  1
  Zn  Zn4  1  0.260308  0.677111  0.825282  1
  Zn  Zn5  1  0.850910  0.430496  0.175975  1
  Zn  Zn6  1  0.925244  0.597051  0.911186  1
  Zn  Zn7  1  0.686509  0.010720  0.080535  1
  Zn  Zn8  1  0.326075  0.737956  0.172568  1
  Zn  Zn9  1  0.564913  0.145512  0.823244  1
  Zn  Zn10  1  0.850883  0.675008  0.420546  1
  Zn  Zn11  1  0.260110  0.435029  0.583305  1
  Zn  Zn12  1  0.988923  0.071566  0.674693  1
  Zn  Zn13  1  0.397214  0.318233  0.324960  1
  Zn  Zn14  1  0.326607  0.153771  0.588146  1
  Zn  Zn15  1  0.564843  0.741499  0.419458  1
  Zn  Zn16  1  0.925382  0.014248  0.328326  1
  Zn  Zn17  1  0.686470  0.606010  0.675891  1
  Zn  Zn18  1  0.250091  0.745933  0.504278  1
  Zn  Zn19  1  0.999602  0.003867  0.995836  1
  Zn  Zn20  1  0.124987  0.874585  0.250488  1
  Cu  Cu21  1  0.124693  0.873409  0.748422  1
  Cu  Cu22  1  0.124920  0.376132  0.251651  1
  Cu  Cu23  1  0.624038  0.875051  0.748529  1
