# generated using pymatgen
data_Ti6Al6CuRu11
_symmetry_space_group_name_H-M   'P 1'
_cell_length_a   4.30419400
_cell_length_b   6.12397000
_cell_length_c   12.81480000
_cell_angle_alpha   90.00037491
_cell_angle_beta   89.99933635
_cell_angle_gamma   90.00073761
_symmetry_Int_Tables_number   1
_chemical_formula_structural   Ti6Al6CuRu11
_chemical_formula_sum   'Ti6 Al6 Cu1 Ru11'
_cell_volume   337.78217265
_cell_formula_units_Z   1
loop_
 _symmetry_equiv_pos_site_id
 _symmetry_equiv_pos_as_xyz
  1  'x, y, z'
loop_
 _atom_site_type_symbol
 _atom_site_label
 _atom_site_symmetry_multiplicity
 _atom_site_fract_x
 _atom_site_fract_y
 _atom_site_fract_z
 _atom_site_occupancy
  Ti  Ti0  1  0.000013  0.493596  0.003364  1
  Ti  Ti1  1  0.500128  0.998461  0.167026  1
  Ti  Ti2  1  0.000121  0.502383  0.333331  1
  Ti  Ti3  1  0.499995  0.998461  0.499639  1
  Ti  Ti4  1  0.999882  0.493594  0.663306  1
  Ti  Ti5  1  0.499859  0.012696  0.833333  1
  Al  Al6  1  0.000004  0.000279  0.000809  1
  Al  Al7  1  0.500119  0.500867  0.166186  1
  Al  Al8  1  0.000131  0.998898  0.333330  1
  Al  Al9  1  0.499993  0.500869  0.500479  1
  Al  Al10  1  0.999886  0.000277  0.665858  1
  Al  Al11  1  0.499850  0.498736  0.833336  1
  Cu  Cu12  1  0.999847  0.749411  0.833338  1
  Ru  Ru13  1  0.500005  0.250173  0.998563  1
  Ru  Ru14  1  0.500020  0.750258  0.995267  1
  Ru  Ru15  1  0.000091  0.250486  0.166387  1
  Ru  Ru16  1  0.000117  0.750480  0.165167  1
  Ru  Ru17  1  0.500132  0.250181  0.333334  1
  Ru  Ru18  1  0.500148  0.750132  0.333332  1
  Ru  Ru19  1  0.999994  0.250478  0.500271  1
  Ru  Ru20  1  0.000003  0.750486  0.501502  1
  Ru  Ru21  1  0.499907  0.250177  0.668110  1
  Ru  Ru22  1  0.499866  0.750256  0.671400  1
  Ru  Ru23  1  0.999890  0.248364  0.833331  1
