# generated using pymatgen
data_Ti10CuSn4GeSb2
_symmetry_space_group_name_H-M   'P 1'
_cell_length_a   8.26280574
_cell_length_b   8.23915320
_cell_length_c   5.52761250
_cell_angle_alpha   89.94536245
_cell_angle_beta   90.10896929
_cell_angle_gamma   120.09500912
_symmetry_Int_Tables_number   1
_chemical_formula_structural   Ti10CuSn4GeSb2
_chemical_formula_sum   'Ti10 Cu1 Sn4 Ge1 Sb2'
_cell_volume   325.58244327
_cell_formula_units_Z   1
loop_
 _symmetry_equiv_pos_site_id
 _symmetry_equiv_pos_as_xyz
  1  'x, y, z'
loop_
 _atom_site_type_symbol
 _atom_site_label
 _atom_site_symmetry_multiplicity
 _atom_site_fract_x
 _atom_site_fract_y
 _atom_site_fract_z
 _atom_site_occupancy
  Ti  Ti0  1  0.269190  0.000000  0.748542  1
  Ti  Ti1  1  0.730810  0.000000  0.251458  1
  Ti  Ti2  1  0.999164  0.265684  0.748034  1
  Ti  Ti3  1  0.000836  0.734316  0.251966  1
  Ti  Ti4  1  0.733480  0.734316  0.748034  1
  Ti  Ti5  1  0.266520  0.265684  0.251966  1
  Ti  Ti6  1  0.334734  0.669470  0.500000  1
  Ti  Ti7  1  0.665266  0.330530  0.500000  1
  Ti  Ti8  1  0.664943  0.329885  0.000000  1
  Ti  Ti9  1  0.335057  0.670115  0.000000  1
  Cu  Cu10  1  0.000000  0.000000  0.000000  1
  Sn  Sn11  1  0.998515  0.611471  0.752310  1
  Sn  Sn12  1  0.001485  0.388529  0.247690  1
  Sn  Sn13  1  0.387045  0.388529  0.752310  1
  Sn  Sn14  1  0.612955  0.611471  0.247690  1
  Ge  Ge15  1  0.000000  0.000000  0.500000  1
  Sb  Sb16  1  0.614154  0.000000  0.752034  1
  Sb  Sb17  1  0.385846  0.000000  0.247966  1
