# generated using pymatgen
data_Nd3Zn2SiRh6
_symmetry_space_group_name_H-M   'P 1'
_cell_length_a   5.62192200
_cell_length_b   5.62192177
_cell_length_c   15.87599100
_cell_angle_alpha   90.00000000
_cell_angle_beta   90.00000000
_cell_angle_gamma   120.00000138
_symmetry_Int_Tables_number   1
_chemical_formula_structural   Nd3Zn2SiRh6
_chemical_formula_sum   'Nd6 Zn4 Si2 Rh12'
_cell_volume   434.55132976
_cell_formula_units_Z   2
loop_
 _symmetry_equiv_pos_site_id
 _symmetry_equiv_pos_as_xyz
  1  'x, y, z'
loop_
 _atom_site_type_symbol
 _atom_site_label
 _atom_site_symmetry_multiplicity
 _atom_site_fract_x
 _atom_site_fract_y
 _atom_site_fract_z
 _atom_site_occupancy
  Nd  Nd0  1  0.666667  0.333333  0.039689  1
  Nd  Nd1  1  0.666667  0.333333  0.250000  1
  Nd  Nd2  1  0.666667  0.333333  0.460311  1
  Nd  Nd3  1  0.333333  0.666667  0.541163  1
  Nd  Nd4  1  0.333333  0.666667  0.750000  1
  Nd  Nd5  1  0.333333  0.666667  0.958837  1
  Zn  Zn6  1  0.000000  0.000000  0.994154  1
  Zn  Zn7  1  0.000000  0.000000  0.250000  1
  Zn  Zn8  1  0.333333  0.666667  0.250000  1
  Zn  Zn9  1  0.000000  0.000000  0.505846  1
  Si  Si10  1  0.000000  0.000000  0.750000  1
  Si  Si11  1  0.666667  0.333333  0.750000  1
  Rh  Rh12  1  0.167621  0.335243  0.122568  1
  Rh  Rh13  1  0.167621  0.832379  0.122568  1
  Rh  Rh14  1  0.664757  0.832379  0.122568  1
  Rh  Rh15  1  0.167621  0.335243  0.377432  1
  Rh  Rh16  1  0.167621  0.832379  0.377432  1
  Rh  Rh17  1  0.664757  0.832379  0.377432  1
  Rh  Rh18  1  0.334435  0.167217  0.639056  1
  Rh  Rh19  1  0.832783  0.167217  0.639056  1
  Rh  Rh20  1  0.832783  0.665565  0.639056  1
  Rh  Rh21  1  0.334435  0.167217  0.860944  1
  Rh  Rh22  1  0.832783  0.167217  0.860944  1
  Rh  Rh23  1  0.832783  0.665565  0.860944  1
