# generated using pymatgen
data_Y2ErCoSn6
_symmetry_space_group_name_H-M   'P 1'
_cell_length_a   8.48056427
_cell_length_b   8.48056341
_cell_length_c   13.14890200
_cell_angle_alpha   90.00000000
_cell_angle_beta   90.00000000
_cell_angle_gamma   148.86962483
_symmetry_Int_Tables_number   1
_chemical_formula_structural   Y2ErCoSn6
_chemical_formula_sum   'Y4 Er2 Co2 Sn12'
_cell_volume   488.89853699
_cell_formula_units_Z   2
loop_
 _symmetry_equiv_pos_site_id
 _symmetry_equiv_pos_as_xyz
  1  'x, y, z'
loop_
 _atom_site_type_symbol
 _atom_site_label
 _atom_site_symmetry_multiplicity
 _atom_site_fract_x
 _atom_site_fract_y
 _atom_site_fract_z
 _atom_site_occupancy
  Y  Y0  1  0.899750  0.100250  0.092896  1
  Y  Y1  1  0.100250  0.899750  0.592896  1
  Y  Y2  1  0.100250  0.899750  0.907104  1
  Y  Y3  1  0.899750  0.100250  0.407104  1
  Er  Er4  1  0.900748  0.099252  0.750000  1
  Er  Er5  1  0.099252  0.900748  0.250000  1
  Co  Co6  1  0.298244  0.701756  0.250000  1
  Co  Co7  1  0.701756  0.298244  0.750000  1
  Sn  Sn8  1  0.756042  0.243958  0.571014  1
  Sn  Sn9  1  0.426787  0.573213  0.576786  1
  Sn  Sn10  1  0.573213  0.426787  0.423214  1
  Sn  Sn11  1  0.731952  0.268048  0.250000  1
  Sn  Sn12  1  0.268048  0.731952  0.750000  1
  Sn  Sn13  1  0.243958  0.756042  0.071014  1
  Sn  Sn14  1  0.243958  0.756042  0.428986  1
  Sn  Sn15  1  0.573213  0.426787  0.076786  1
  Sn  Sn16  1  0.453022  0.546978  0.250000  1
  Sn  Sn17  1  0.546978  0.453022  0.750000  1
  Sn  Sn18  1  0.756042  0.243958  0.928986  1
  Sn  Sn19  1  0.426787  0.573213  0.923214  1
