# generated using pymatgen
data_Dy3Er2Tm3(P3Ir4)4
_symmetry_space_group_name_H-M   'P 1'
_cell_length_a   12.95245900
_cell_length_b   12.95383492
_cell_length_c   3.99341700
_cell_angle_alpha   90.00000000
_cell_angle_beta   90.00000000
_cell_angle_gamma   119.99648897
_symmetry_Int_Tables_number   1
_chemical_formula_structural   Dy3Er2Tm3(P3Ir4)4
_chemical_formula_sum   'Dy3 Er2 Tm3 P12 Ir16'
_cell_volume   580.28486409
_cell_formula_units_Z   1
loop_
 _symmetry_equiv_pos_site_id
 _symmetry_equiv_pos_as_xyz
  1  'x, y, z'
loop_
 _atom_site_type_symbol
 _atom_site_label
 _atom_site_symmetry_multiplicity
 _atom_site_fract_x
 _atom_site_fract_y
 _atom_site_fract_z
 _atom_site_occupancy
  Dy  Dy0  1  0.333336  0.666674  0.500000  1
  Dy  Dy1  1  0.666663  0.333326  0.500000  1
  Dy  Dy2  1  0.814358  0.000000  0.000000  1
  Er  Er3  1  0.999994  0.814326  0.000000  1
  Er  Er4  1  0.185668  0.185674  0.000000  1
  Tm  Tm5  1  0.999995  0.446199  0.500000  1
  Tm  Tm6  1  0.553796  0.553801  0.500000  1
  Tm  Tm7  1  0.446101  0.000000  0.500000  1
  P  P8  1  0.000004  0.652246  0.500000  1
  P  P9  1  0.347758  0.347754  0.500000  1
  P  P10  1  0.651960  0.000000  0.500000  1
  P  P11  1  0.516840  0.688297  0.000000  1
  P  P12  1  0.311675  0.828483  0.000000  1
  P  P13  1  0.171485  0.483218  0.000000  1
  P  P14  1  0.483193  0.171517  0.000000  1
  P  P15  1  0.688267  0.516782  0.000000  1
  P  P16  1  0.828543  0.311703  0.000000  1
  P  P17  1  0.000134  0.176419  0.500000  1
  P  P18  1  0.823714  0.823581  0.500000  1
  P  P19  1  0.176311  0.000000  0.500000  1
  Ir  Ir20  1  0.509457  0.866155  0.000000  1
  Ir  Ir21  1  0.133886  0.643337  0.000000  1
  Ir  Ir22  1  0.356688  0.490564  0.000000  1
  Ir  Ir23  1  0.490549  0.356663  0.000000  1
  Ir  Ir24  1  0.866124  0.509436  0.000000  1
  Ir  Ir25  1  0.643302  0.133845  0.000000  1
  Ir  Ir26  1  0.000198  0.275114  0.000000  1
  Ir  Ir27  1  0.725084  0.724886  0.000000  1
  Ir  Ir28  1  0.274830  0.000000  0.000000  1
  Ir  Ir29  1  0.630009  0.808832  0.500000  1
  Ir  Ir30  1  0.190755  0.821171  0.500000  1
  Ir  Ir31  1  0.178877  0.369586  0.500000  1
  Ir  Ir32  1  0.369584  0.178829  0.500000  1
  Ir  Ir33  1  0.809291  0.630414  0.500000  1
  Ir  Ir34  1  0.821177  0.191168  0.500000  1
  Ir  Ir35  1  0.000394  0.000000  0.500000  1
