# generated using pymatgen
data_ErThSc2(Al3Rh)6
_symmetry_space_group_name_H-M   'P 1'
_cell_length_a   7.53322702
_cell_length_b   7.54811124
_cell_length_c   9.40873300
_cell_angle_alpha   90.00000000
_cell_angle_beta   90.00000000
_cell_angle_gamma   119.40069380
_symmetry_Int_Tables_number   1
_chemical_formula_structural   ErThSc2(Al3Rh)6
_chemical_formula_sum   'Er1 Th1 Sc2 Al18 Rh6'
_cell_volume   466.09267767
_cell_formula_units_Z   1
loop_
 _symmetry_equiv_pos_site_id
 _symmetry_equiv_pos_as_xyz
  1  'x, y, z'
loop_
 _atom_site_type_symbol
 _atom_site_label
 _atom_site_symmetry_multiplicity
 _atom_site_fract_x
 _atom_site_fract_y
 _atom_site_fract_z
 _atom_site_occupancy
  Er  Er0  1  0.672731  0.993600  0.750000  1
  Th  Th1  1  0.993702  0.671674  0.750000  1
  Sc  Sc2  1  0.003050  0.327223  0.250000  1
  Sc  Sc3  1  0.326950  0.004226  0.250000  1
  Al  Al4  1  0.132088  0.134905  0.750000  1
  Al  Al5  1  0.878527  0.880682  0.250000  1
  Al  Al6  1  0.001616  0.330994  0.568043  1
  Al  Al7  1  0.003350  0.663970  0.411297  1
  Al  Al8  1  0.003350  0.663970  0.088703  1
  Al  Al9  1  0.340277  0.005618  0.931751  1
  Al  Al10  1  0.001616  0.330994  0.931957  1
  Al  Al11  1  0.664267  0.004324  0.083514  1
  Al  Al12  1  0.664267  0.004324  0.416486  1
  Al  Al13  1  0.340277  0.005618  0.568249  1
  Al  Al14  1  0.328779  0.329083  0.064137  1
  Al  Al15  1  0.662537  0.666258  0.960716  1
  Al  Al16  1  0.662537  0.666258  0.539284  1
  Al  Al17  1  0.328779  0.329083  0.435863  1
  Al  Al18  1  0.344562  0.548686  0.750000  1
  Al  Al19  1  0.657499  0.442109  0.250000  1
  Al  Al20  1  0.543951  0.334805  0.750000  1
  Al  Al21  1  0.442851  0.660078  0.250000  1
  Rh  Rh22  1  0.673795  0.329521  0.498627  1
  Rh  Rh23  1  0.326951  0.672218  0.498841  1
  Rh  Rh24  1  0.326951  0.672218  0.001159  1
  Rh  Rh25  1  0.673795  0.329521  0.001373  1
  Rh  Rh26  1  0.000474  0.999019  0.499402  1
  Rh  Rh27  1  0.000474  0.999019  0.000598  1
