# generated using pymatgen
data_Dy10AlTl5
_symmetry_space_group_name_H-M   'P 1'
_cell_length_a   9.12510776
_cell_length_b   9.12510667
_cell_length_c   9.12510808
_cell_angle_alpha   96.43621829
_cell_angle_beta   96.43620564
_cell_angle_gamma   140.87818143
_symmetry_Int_Tables_number   1
_chemical_formula_structural   Dy10AlTl5
_chemical_formula_sum   'Dy10 Al1 Tl5'
_cell_volume   451.75847438
_cell_formula_units_Z   1
loop_
 _symmetry_equiv_pos_site_id
 _symmetry_equiv_pos_as_xyz
  1  'x, y, z'
loop_
 _atom_site_type_symbol
 _atom_site_label
 _atom_site_symmetry_multiplicity
 _atom_site_fract_x
 _atom_site_fract_y
 _atom_site_fract_z
 _atom_site_occupancy
  Dy  Dy0  1  0.219201  0.086063  0.296575  1
  Dy  Dy1  1  0.789488  0.922627  0.703424  1
  Dy  Dy2  1  0.280799  0.577372  0.866862  1
  Dy  Dy3  1  0.710511  0.413937  0.133138  1
  Dy  Dy4  1  0.413936  0.280799  0.703424  1
  Dy  Dy5  1  0.577371  0.710511  0.296575  1
  Dy  Dy6  1  0.922627  0.219201  0.133138  1
  Dy  Dy7  1  0.086063  0.789489  0.866862  1
  Dy  Dy8  1  0.750000  0.250000  0.500000  1
  Dy  Dy9  1  0.250000  0.750000  0.500000  1
  Al  Al10  1  0.250000  0.250000  0.000000  1
  Tl  Tl11  1  0.750001  0.750001  0.000000  1
  Tl  Tl12  1  0.661977  0.161978  0.823955  1
  Tl  Tl13  1  0.338022  0.838022  0.176044  1
  Tl  Tl14  1  0.838022  0.661977  0.500000  1
  Tl  Tl15  1  0.161978  0.338022  0.500000  1
