# generated using pymatgen
data_Li3Pr4GaPd4
_symmetry_space_group_name_H-M   'P 1'
_cell_length_a   4.18729100
_cell_length_b   7.35864076
_cell_length_c   8.60988122
_cell_angle_alpha   90.36538099
_cell_angle_beta   90.00000000
_cell_angle_gamma   90.00000000
_symmetry_Int_Tables_number   1
_chemical_formula_structural   Li3Pr4GaPd4
_chemical_formula_sum   'Li3 Pr4 Ga1 Pd4'
_cell_volume   265.28889709
_cell_formula_units_Z   1
loop_
 _symmetry_equiv_pos_site_id
 _symmetry_equiv_pos_as_xyz
  1  'x, y, z'
loop_
 _atom_site_type_symbol
 _atom_site_label
 _atom_site_symmetry_multiplicity
 _atom_site_fract_x
 _atom_site_fract_y
 _atom_site_fract_z
 _atom_site_occupancy
  Li  Li0  1  0.250000  0.129697  0.059829  1
  Li  Li1  1  0.250000  0.622311  0.443421  1
  Li  Li2  1  0.750000  0.874479  0.943311  1
  Pr  Pr3  1  0.250000  0.053220  0.685127  1
  Pr  Pr4  1  0.250000  0.542301  0.807348  1
  Pr  Pr5  1  0.750000  0.957445  0.315337  1
  Pr  Pr6  1  0.750000  0.452597  0.186146  1
  Ga  Ga7  1  0.750000  0.368260  0.559835  1
  Pd  Pd8  1  0.250000  0.259118  0.388641  1
  Pd  Pd9  1  0.250000  0.746427  0.120218  1
  Pd  Pd10  1  0.750000  0.741769  0.614355  1
  Pd  Pd11  1  0.750000  0.252375  0.876431  1
