# generated using pymatgen
data_Pr16Sm4Sn9Bi7
_symmetry_space_group_name_H-M   'P 1'
_cell_length_a   8.41192307
_cell_length_b   8.46177146
_cell_length_c   16.21569100
_cell_angle_alpha   90.06286321
_cell_angle_beta   89.60285960
_cell_angle_gamma   89.88436090
_symmetry_Int_Tables_number   1
_chemical_formula_structural   Pr16Sm4Sn9Bi7
_chemical_formula_sum   'Pr16 Sm4 Sn9 Bi7'
_cell_volume   1154.19837450
_cell_formula_units_Z   1
loop_
 _symmetry_equiv_pos_site_id
 _symmetry_equiv_pos_as_xyz
  1  'x, y, z'
loop_
 _atom_site_type_symbol
 _atom_site_label
 _atom_site_symmetry_multiplicity
 _atom_site_fract_x
 _atom_site_fract_y
 _atom_site_fract_z
 _atom_site_occupancy
  Pr  Pr0  1  0.395865  0.838020  0.880690  1
  Pr  Pr1  1  0.899054  0.663704  0.618373  1
  Pr  Pr2  1  0.600633  0.162348  0.380946  1
  Pr  Pr3  1  0.100816  0.338361  0.118294  1
  Pr  Pr4  1  0.605646  0.166199  0.118742  1
  Pr  Pr5  1  0.100825  0.336283  0.381365  1
  Pr  Pr6  1  0.398316  0.838091  0.619643  1
  Pr  Pr7  1  0.893447  0.660589  0.882961  1
  Pr  Pr8  1  0.560612  0.331261  0.892278  1
  Pr  Pr9  1  0.062107  0.170344  0.611627  1
  Pr  Pr10  1  0.438293  0.669424  0.388880  1
  Pr  Pr11  1  0.942275  0.823111  0.109298  1
  Pr  Pr12  1  0.448027  0.668741  0.108027  1
  Pr  Pr13  1  0.938202  0.829235  0.388298  1
  Pr  Pr14  1  0.562514  0.330745  0.611103  1
  Pr  Pr15  1  0.053879  0.174665  0.891569  1
  Sm  Sm16  1  0.227416  0.498141  0.750705  1
  Sm  Sm17  1  0.727650  0.003988  0.750821  1
  Sm  Sm18  1  0.772765  0.501847  0.246334  1
  Sm  Sm19  1  0.272445  0.996076  0.248698  1
  Sn  Sn20  1  0.766205  0.481829  0.046944  1
  Sn  Sn21  1  0.597410  0.627943  0.750023  1
  Sn  Sn22  1  0.095716  0.873758  0.751187  1
  Sn  Sn23  1  0.401613  0.372627  0.250111  1
  Sn  Sn24  1  0.902749  0.125930  0.250017  1
  Sn  Sn25  1  0.361897  0.140041  0.751312  1
  Sn  Sn26  1  0.862118  0.363222  0.750172  1
  Sn  Sn27  1  0.638590  0.861987  0.249684  1
  Sn  Sn28  1  0.140078  0.636362  0.249717  1
  Bi  Bi29  1  0.264326  0.015451  0.046955  1
  Bi  Bi30  1  0.761811  0.487396  0.451176  1
  Bi  Bi31  1  0.738019  0.988060  0.548208  1
  Bi  Bi32  1  0.234916  0.517186  0.952760  1
  Bi  Bi33  1  0.733679  0.983029  0.952960  1
  Bi  Bi34  1  0.238652  0.512600  0.548269  1
  Bi  Bi35  1  0.261428  0.011405  0.451852  1
