# generated using pymatgen
data_CsLi3Dy2S5
_symmetry_space_group_name_H-M   'P 1'
_cell_length_a   4.02562100
_cell_length_b   7.63986915
_cell_length_c   16.89907700
_cell_angle_alpha   90.00000000
_cell_angle_beta   90.00000000
_cell_angle_gamma   74.72444810
_symmetry_Int_Tables_number   1
_chemical_formula_structural   CsLi3Dy2S5
_chemical_formula_sum   'Cs2 Li6 Dy4 S10'
_cell_volume   501.37252268
_cell_formula_units_Z   2
loop_
 _symmetry_equiv_pos_site_id
 _symmetry_equiv_pos_as_xyz
  1  'x, y, z'
loop_
 _atom_site_type_symbol
 _atom_site_label
 _atom_site_symmetry_multiplicity
 _atom_site_fract_x
 _atom_site_fract_y
 _atom_site_fract_z
 _atom_site_occupancy
  Cs  Cs0  1  0.931563  0.136873  0.250000  1
  Cs  Cs1  1  0.068437  0.863127  0.750000  1
  Li  Li2  1  0.419964  0.160073  0.042081  1
  Li  Li3  1  0.644535  0.710930  0.250000  1
  Li  Li4  1  0.419964  0.160073  0.457919  1
  Li  Li5  1  0.580036  0.839925  0.542081  1
  Li  Li6  1  0.355465  0.289070  0.750000  1
  Li  Li7  1  0.580036  0.839925  0.957919  1
  Dy  Dy8  1  0.194906  0.610188  0.094355  1
  Dy  Dy9  1  0.194906  0.610188  0.405645  1
  Dy  Dy10  1  0.805094  0.389812  0.594355  1
  Dy  Dy11  1  0.805094  0.389812  0.905645  1
  S  S12  1  0.824168  0.351664  0.067592  1
  S  S13  1  0.570669  0.858660  0.109162  1
  S  S14  1  0.231388  0.537222  0.250000  1
  S  S15  1  0.570669  0.858660  0.390838  1
  S  S16  1  0.824168  0.351664  0.432408  1
  S  S17  1  0.175832  0.648336  0.567592  1
  S  S18  1  0.429330  0.141340  0.609162  1
  S  S19  1  0.768611  0.462778  0.750000  1
  S  S20  1  0.429330  0.141340  0.890838  1
  S  S21  1  0.175832  0.648336  0.932408  1
