# generated using pymatgen
data_Nd4Lu7(Sc3Bi4)3
_symmetry_space_group_name_H-M   'P 1'
_cell_length_a   7.98014556
_cell_length_b   9.20509364
_cell_length_c   11.78831200
_cell_angle_alpha   90.05735745
_cell_angle_beta   89.93237353
_cell_angle_gamma   90.00447454
_symmetry_Int_Tables_number   1
_chemical_formula_structural   Nd4Lu7(Sc3Bi4)3
_chemical_formula_sum   'Nd4 Lu7 Sc9 Bi12'
_cell_volume   865.94463148
_cell_formula_units_Z   1
loop_
 _symmetry_equiv_pos_site_id
 _symmetry_equiv_pos_as_xyz
  1  'x, y, z'
loop_
 _atom_site_type_symbol
 _atom_site_label
 _atom_site_symmetry_multiplicity
 _atom_site_fract_x
 _atom_site_fract_y
 _atom_site_fract_z
 _atom_site_occupancy
  Nd  Nd0  1  0.320872  0.251810  0.220211  1
  Nd  Nd1  1  0.820670  0.249852  0.280642  1
  Nd  Nd2  1  0.679303  0.750156  0.780527  1
  Nd  Nd3  1  0.179966  0.749554  0.719060  1
  Lu  Lu4  1  0.351930  0.749331  0.221301  1
  Lu  Lu5  1  0.851698  0.752407  0.279028  1
  Lu  Lu6  1  0.651253  0.251220  0.777582  1
  Lu  Lu7  1  0.148855  0.251192  0.720485  1
  Lu  Lu8  1  0.690000  0.564520  0.063004  1
  Lu  Lu9  1  0.187597  0.935468  0.437988  1
  Lu  Lu10  1  0.310481  0.064329  0.936597  1
  Sc  Sc11  1  0.809504  0.433355  0.562752  1
  Sc  Sc12  1  0.310595  0.429950  0.938460  1
  Sc  Sc13  1  0.810120  0.068423  0.561266  1
  Sc  Sc14  1  0.689585  0.929685  0.062222  1
  Sc  Sc15  1  0.188183  0.569595  0.438646  1
  Sc  Sc16  1  0.484754  0.250781  0.490155  1
  Sc  Sc17  1  0.983610  0.250708  0.010366  1
  Sc  Sc18  1  0.515848  0.748842  0.511193  1
  Sc  Sc19  1  0.016069  0.750667  0.988881  1
  Bi  Bi20  1  0.395850  0.744818  0.965771  1
  Bi  Bi21  1  0.894088  0.748656  0.534934  1
  Bi  Bi22  1  0.604079  0.244368  0.033692  1
  Bi  Bi23  1  0.100285  0.257216  0.466909  1
  Bi  Bi24  1  0.567065  0.990946  0.334057  1
  Bi  Bi25  1  0.067474  0.510307  0.166307  1
  Bi  Bi26  1  0.434661  0.490211  0.666165  1
  Bi  Bi27  1  0.932593  0.009851  0.832562  1
  Bi  Bi28  1  0.436360  0.010045  0.664912  1
  Bi  Bi29  1  0.936096  0.490719  0.833623  1
  Bi  Bi30  1  0.565649  0.509538  0.336406  1
  Bi  Bi31  1  0.064907  0.991476  0.164293  1
