# generated using pymatgen
data_Cs12Rb5Na(AlSb4)2
_symmetry_space_group_name_H-M   'P 1'
_cell_length_a   11.35456500
_cell_length_b   11.18509219
_cell_length_c   11.80737900
_cell_angle_alpha   90.00000000
_cell_angle_beta   90.00000000
_cell_angle_gamma   120.50248878
_symmetry_Int_Tables_number   1
_chemical_formula_structural   Cs12Rb5Na(AlSb4)2
_chemical_formula_sum   'Cs12 Rb5 Na1 Al2 Sb8'
_cell_volume   1292.03074604
_cell_formula_units_Z   1
loop_
 _symmetry_equiv_pos_site_id
 _symmetry_equiv_pos_as_xyz
  1  'x, y, z'
loop_
 _atom_site_type_symbol
 _atom_site_label
 _atom_site_symmetry_multiplicity
 _atom_site_fract_x
 _atom_site_fract_y
 _atom_site_fract_z
 _atom_site_occupancy
  Cs  Cs0  1  0.207550  0.415099  0.537131  1
  Cs  Cs1  1  0.794080  0.209951  0.045743  1
  Cs  Cs2  1  0.415869  0.209951  0.045743  1
  Cs  Cs3  1  0.580646  0.790374  0.542629  1
  Cs  Cs4  1  0.209730  0.790374  0.542629  1
  Cs  Cs5  1  0.790597  0.581196  0.457173  1
  Cs  Cs6  1  0.794080  0.209951  0.454257  1
  Cs  Cs7  1  0.790597  0.581196  0.042827  1
  Cs  Cs8  1  0.415869  0.209951  0.454257  1
  Cs  Cs9  1  0.580646  0.790374  0.957371  1
  Cs  Cs10  1  0.207550  0.415099  0.962869  1
  Cs  Cs11  1  0.209730  0.790374  0.957371  1
  Rb  Rb12  1  0.880787  0.120206  0.750000  1
  Rb  Rb13  1  0.239417  0.120206  0.750000  1
  Rb  Rb14  1  0.764066  0.883939  0.250000  1
  Rb  Rb15  1  0.119875  0.883939  0.250000  1
  Rb  Rb16  1  0.882491  0.764983  0.750000  1
  Na  Na17  1  0.121110  0.242218  0.250000  1
  Al  Al18  1  0.332539  0.665079  0.250000  1
  Al  Al19  1  0.666774  0.333546  0.750000  1
  Sb  Sb20  1  0.458026  0.515575  0.250000  1
  Sb  Sb21  1  0.943015  0.474046  0.750000  1
  Sb  Sb22  1  0.526825  0.053651  0.750000  1
  Sb  Sb23  1  0.471939  0.943878  0.250000  1
  Sb  Sb24  1  0.057549  0.515575  0.250000  1
  Sb  Sb25  1  0.531031  0.474046  0.750000  1
  Sb  Sb26  1  0.003805  0.007611  0.006489  1
  Sb  Sb27  1  0.003805  0.007611  0.493511  1
