# generated using pymatgen
data_Na3Eu3AlP4
_symmetry_space_group_name_H-M   'P 1'
_cell_length_a   9.39786200
_cell_length_b   9.39786266
_cell_length_c   7.19906000
_cell_angle_alpha   90.00000000
_cell_angle_beta   90.00000000
_cell_angle_gamma   119.99999766
_symmetry_Int_Tables_number   1
_chemical_formula_structural   Na3Eu3AlP4
_chemical_formula_sum   'Na6 Eu6 Al2 P8'
_cell_volume   550.63598862
_cell_formula_units_Z   2
loop_
 _symmetry_equiv_pos_site_id
 _symmetry_equiv_pos_as_xyz
  1  'x, y, z'
loop_
 _atom_site_type_symbol
 _atom_site_label
 _atom_site_symmetry_multiplicity
 _atom_site_fract_x
 _atom_site_fract_y
 _atom_site_fract_z
 _atom_site_occupancy
  Na  Na0  1  0.729874  0.864937  0.170807  1
  Na  Na1  1  0.864937  0.135063  0.670807  1
  Na  Na2  1  0.864937  0.729874  0.670807  1
  Na  Na3  1  0.135063  0.270126  0.170807  1
  Na  Na4  1  0.135063  0.864937  0.170807  1
  Na  Na5  1  0.270126  0.135063  0.670807  1
  Eu  Eu6  1  0.049451  0.524726  0.499589  1
  Eu  Eu7  1  0.475274  0.950549  0.499589  1
  Eu  Eu8  1  0.475274  0.524726  0.499589  1
  Eu  Eu9  1  0.524726  0.475274  0.999589  1
  Eu  Eu10  1  0.524726  0.049451  0.999589  1
  Eu  Eu11  1  0.950549  0.475274  0.999589  1
  Al  Al12  1  0.333333  0.666667  0.874510  1
  Al  Al13  1  0.666667  0.333333  0.374510  1
  P  P14  1  0.666667  0.333333  0.719289  1
  P  P15  1  0.615071  0.807536  0.774738  1
  P  P16  1  0.807536  0.192464  0.274738  1
  P  P17  1  0.807536  0.615071  0.274738  1
  P  P18  1  0.333333  0.666667  0.219289  1
  P  P19  1  0.192464  0.384929  0.774738  1
  P  P20  1  0.192464  0.807536  0.774738  1
  P  P21  1  0.384929  0.192464  0.274738  1
