# generated using pymatgen
data_SmTh3Pd11Pt
_symmetry_space_group_name_H-M   'P 1'
_cell_length_a   5.93588395
_cell_length_b   5.93588227
_cell_length_c   9.78325866
_cell_angle_alpha   90.13192988
_cell_angle_beta   89.86806990
_cell_angle_gamma   119.99067936
_symmetry_Int_Tables_number   1
_chemical_formula_structural   SmTh3Pd11Pt
_chemical_formula_sum   'Sm1 Th3 Pd11 Pt1'
_cell_volume   298.55482496
_cell_formula_units_Z   1
loop_
 _symmetry_equiv_pos_site_id
 _symmetry_equiv_pos_as_xyz
  1  'x, y, z'
loop_
 _atom_site_type_symbol
 _atom_site_label
 _atom_site_symmetry_multiplicity
 _atom_site_fract_x
 _atom_site_fract_y
 _atom_site_fract_z
 _atom_site_occupancy
  Sm  Sm0  1  0.000000  0.000000  0.500000  1
  Th  Th1  1  0.000000  0.000000  0.000000  1
  Th  Th2  1  0.333588  0.666412  0.253523  1
  Th  Th3  1  0.666412  0.333588  0.746477  1
  Pd  Pd4  1  0.500000  0.500000  0.500000  1
  Pd  Pd5  1  0.500000  0.000000  0.500000  1
  Pd  Pd6  1  0.000000  0.500000  0.500000  1
  Pd  Pd7  1  0.500000  0.000000  0.000000  1
  Pd  Pd8  1  0.000000  0.500000  0.000000  1
  Pd  Pd9  1  0.825356  0.650161  0.249100  1
  Pd  Pd10  1  0.349839  0.174644  0.249100  1
  Pd  Pd11  1  0.825415  0.174585  0.249429  1
  Pd  Pd12  1  0.174644  0.349839  0.750900  1
  Pd  Pd13  1  0.650161  0.825356  0.750900  1
  Pd  Pd14  1  0.174585  0.825415  0.750571  1
  Pt  Pt15  1  0.500000  0.500000  0.000000  1
