# generated using pymatgen
data_ErPb4W3O13
_symmetry_space_group_name_H-M   'P 1'
_cell_length_a   7.59876545
_cell_length_b   7.59876584
_cell_length_c   7.59876401
_cell_angle_alpha   60.51937190
_cell_angle_beta   60.51937443
_cell_angle_gamma   60.51936517
_symmetry_Int_Tables_number   1
_chemical_formula_structural   ErPb4W3O13
_chemical_formula_sum   'Er1 Pb4 W3 O13'
_cell_volume   313.89280620
_cell_formula_units_Z   1
loop_
 _symmetry_equiv_pos_site_id
 _symmetry_equiv_pos_as_xyz
  1  'x, y, z'
loop_
 _atom_site_type_symbol
 _atom_site_label
 _atom_site_symmetry_multiplicity
 _atom_site_fract_x
 _atom_site_fract_y
 _atom_site_fract_z
 _atom_site_occupancy
  Er  Er0  1  0.500863  0.500863  0.500863  1
  Pb  Pb1  1  0.996771  0.996771  0.996771  1
  Pb  Pb2  1  0.496234  0.002139  0.002139  1
  Pb  Pb3  1  0.002139  0.002139  0.496234  1
  Pb  Pb4  1  0.002139  0.496234  0.002139  1
  W  W5  1  0.001474  0.500066  0.500066  1
  W  W6  1  0.500066  0.500066  0.001474  1
  W  W7  1  0.500066  0.001474  0.500066  1
  O  O8  1  0.852630  0.417218  0.417218  1
  O  O9  1  0.419531  0.817300  0.817300  1
  O  O10  1  0.417218  0.417218  0.852630  1
  O  O11  1  0.817300  0.817300  0.419531  1
  O  O12  1  0.817300  0.419531  0.817300  1
  O  O13  1  0.417218  0.852630  0.417218  1
  O  O14  1  0.153426  0.579130  0.579130  1
  O  O15  1  0.579809  0.185166  0.185166  1
  O  O16  1  0.579130  0.579130  0.153426  1
  O  O17  1  0.185166  0.185166  0.579809  1
  O  O18  1  0.185166  0.579809  0.185166  1
  O  O19  1  0.579130  0.153426  0.579130  1
  O  O20  1  0.122221  0.122221  0.122221  1
