# generated using pymatgen
data_Tm4Al4Pt3Rh
_symmetry_space_group_name_H-M   'P 1'
_cell_length_a   4.37642100
_cell_length_b   6.75958226
_cell_length_c   7.76711930
_cell_angle_alpha   90.03168505
_cell_angle_beta   90.00000000
_cell_angle_gamma   90.00000000
_symmetry_Int_Tables_number   1
_chemical_formula_structural   Tm4Al4Pt3Rh
_chemical_formula_sum   'Tm4 Al4 Pt3 Rh1'
_cell_volume   229.77292876
_cell_formula_units_Z   1
loop_
 _symmetry_equiv_pos_site_id
 _symmetry_equiv_pos_as_xyz
  1  'x, y, z'
loop_
 _atom_site_type_symbol
 _atom_site_label
 _atom_site_symmetry_multiplicity
 _atom_site_fract_x
 _atom_site_fract_y
 _atom_site_fract_z
 _atom_site_occupancy
  Tm  Tm0  1  0.250000  0.032885  0.677255  1
  Tm  Tm1  1  0.250000  0.531322  0.820624  1
  Tm  Tm2  1  0.750000  0.971395  0.320834  1
  Tm  Tm3  1  0.750000  0.469239  0.181100  1
  Al  Al4  1  0.250000  0.145021  0.061538  1
  Al  Al5  1  0.250000  0.637476  0.438025  1
  Al  Al6  1  0.750000  0.857112  0.938797  1
  Al  Al7  1  0.750000  0.357092  0.560153  1
  Pt  Pt8  1  0.250000  0.770651  0.120544  1
  Pt  Pt9  1  0.750000  0.732197  0.620567  1
  Pt  Pt10  1  0.750000  0.232885  0.879309  1
  Rh  Rh11  1  0.250000  0.262726  0.381257  1
