# generated using pymatgen
data_TcHgF7
_symmetry_space_group_name_H-M   'P 1'
_cell_length_a   10.42968200
_cell_length_b   7.40911029
_cell_length_c   8.20146594
_cell_angle_alpha   78.57909156
_cell_angle_beta   90.00000000
_cell_angle_gamma   90.00000000
_symmetry_Int_Tables_number   1
_chemical_formula_structural   TcHgF7
_chemical_formula_sum   'Tc4 Hg4 F28'
_cell_volume   621.21632344
_cell_formula_units_Z   4
loop_
 _symmetry_equiv_pos_site_id
 _symmetry_equiv_pos_as_xyz
  1  'x, y, z'
loop_
 _atom_site_type_symbol
 _atom_site_label
 _atom_site_symmetry_multiplicity
 _atom_site_fract_x
 _atom_site_fract_y
 _atom_site_fract_z
 _atom_site_occupancy
  Tc  Tc0  1  0.562750  0.193910  0.203399  1
  Tc  Tc1  1  0.062750  0.806090  0.296601  1
  Tc  Tc2  1  0.437250  0.806090  0.796601  1
  Tc  Tc3  1  0.937250  0.193910  0.703399  1
  Hg  Hg4  1  0.245153  0.276890  0.903382  1
  Hg  Hg5  1  0.745153  0.723110  0.596618  1
  Hg  Hg6  1  0.754847  0.723110  0.096618  1
  Hg  Hg7  1  0.254847  0.276890  0.403382  1
  F  F8  1  0.703402  0.355607  0.147044  1
  F  F9  1  0.203402  0.644393  0.352956  1
  F  F10  1  0.296598  0.644393  0.852956  1
  F  F11  1  0.796598  0.355607  0.647044  1
  F  F12  1  0.640024  0.074976  0.401114  1
  F  F13  1  0.140024  0.925024  0.098886  1
  F  F14  1  0.359976  0.925024  0.598886  1
  F  F15  1  0.859976  0.074976  0.901114  1
  F  F16  1  0.479493  0.309533  0.002971  1
  F  F17  1  0.979493  0.690467  0.497029  1
  F  F18  1  0.520507  0.690467  0.997029  1
  F  F19  1  0.020507  0.309533  0.502971  1
  F  F20  1  0.414698  0.046104  0.252836  1
  F  F21  1  0.914698  0.953896  0.247164  1
  F  F22  1  0.585302  0.953896  0.747164  1
  F  F23  1  0.085302  0.046104  0.752836  1
  F  F24  1  0.639326  0.017464  0.087256  1
  F  F25  1  0.139326  0.982536  0.412744  1
  F  F26  1  0.360674  0.982536  0.912744  1
  F  F27  1  0.860674  0.017464  0.587256  1
  F  F28  1  0.479223  0.367419  0.318827  1
  F  F29  1  0.979223  0.632581  0.181173  1
  F  F30  1  0.520777  0.632581  0.681173  1
  F  F31  1  0.020777  0.367419  0.818827  1
  F  F32  1  0.194439  0.317478  0.146364  1
  F  F33  1  0.694439  0.682522  0.353636  1
  F  F34  1  0.805561  0.682522  0.853636  1
  F  F35  1  0.305561  0.317478  0.646364  1
