# generated using pymatgen
data_Ba5La(Sn4Bi)2
_symmetry_space_group_name_H-M   'P 1'
_cell_length_a   9.25922269
_cell_length_b   9.25922283
_cell_length_c   9.31790114
_cell_angle_alpha   119.79190558
_cell_angle_beta   119.79190316
_cell_angle_gamma   90.00000183
_symmetry_Int_Tables_number   1
_chemical_formula_structural   Ba5La(Sn4Bi)2
_chemical_formula_sum   'Ba5 La1 Sn8 Bi2'
_cell_volume   568.40967652
_cell_formula_units_Z   1
loop_
 _symmetry_equiv_pos_site_id
 _symmetry_equiv_pos_as_xyz
  1  'x, y, z'
loop_
 _atom_site_type_symbol
 _atom_site_label
 _atom_site_symmetry_multiplicity
 _atom_site_fract_x
 _atom_site_fract_y
 _atom_site_fract_z
 _atom_site_occupancy
  Ba  Ba0  1  0.750000  0.750000  0.500000  1
  Ba  Ba1  1  0.662877  0.162877  0.000000  1
  Ba  Ba2  1  0.337123  0.837123  0.000000  1
  Ba  Ba3  1  0.837123  0.662877  0.000000  1
  Ba  Ba4  1  0.162877  0.337123  0.000000  1
  La  La5  1  0.250000  0.250000  0.500000  1
  Sn  Sn6  1  0.332698  0.838674  0.386195  1
  Sn  Sn7  1  0.661326  0.167302  0.613805  1
  Sn  Sn8  1  0.053498  0.547522  0.386195  1
  Sn  Sn9  1  0.547522  0.332698  0.386195  1
  Sn  Sn10  1  0.167302  0.952478  0.613805  1
  Sn  Sn11  1  0.952478  0.446502  0.613805  1
  Sn  Sn12  1  0.446502  0.661326  0.613805  1
  Sn  Sn13  1  0.838674  0.053498  0.386195  1
  Bi  Bi14  1  0.009802  0.009802  0.019603  1
  Bi  Bi15  1  0.490198  0.490198  0.980397  1
