# generated using pymatgen
data_Li3EuP2Pd
_symmetry_space_group_name_H-M   'P 1'
_cell_length_a   8.09764817
_cell_length_b   8.09764844
_cell_length_c   8.09764833
_cell_angle_alpha   29.94377691
_cell_angle_beta   29.94377103
_cell_angle_gamma   29.94378054
_symmetry_Int_Tables_number   1
_chemical_formula_structural   Li3EuP2Pd
_chemical_formula_sum   'Li3 Eu1 P2 Pd1'
_cell_volume   117.17351056
_cell_formula_units_Z   1
loop_
 _symmetry_equiv_pos_site_id
 _symmetry_equiv_pos_as_xyz
  1  'x, y, z'
loop_
 _atom_site_type_symbol
 _atom_site_label
 _atom_site_symmetry_multiplicity
 _atom_site_fract_x
 _atom_site_fract_y
 _atom_site_fract_z
 _atom_site_occupancy
  Li  Li0  1  0.142025  0.142025  0.142025  1
  Li  Li1  1  0.563221  0.563221  0.563221  1
  Li  Li2  1  0.862319  0.862319  0.862319  1
  Eu  Eu3  1  0.999875  0.999875  0.999875  1
  P  P4  1  0.752694  0.752694  0.752694  1
  P  P5  1  0.251031  0.251031  0.251031  1
  Pd  Pd6  1  0.428835  0.428835  0.428835  1
