# generated using pymatgen
data_Dy6Si12NiIr17
_symmetry_space_group_name_H-M   'P 1'
_cell_length_a   3.98819800
_cell_length_b   11.26975900
_cell_length_c   12.93255200
_cell_angle_alpha   90.00000000
_cell_angle_beta   90.00000000
_cell_angle_gamma   90.00000000
_symmetry_Int_Tables_number   1
_chemical_formula_structural   Dy6Si12NiIr17
_chemical_formula_sum   'Dy6 Si12 Ni1 Ir17'
_cell_volume   581.26687410
_cell_formula_units_Z   1
loop_
 _symmetry_equiv_pos_site_id
 _symmetry_equiv_pos_as_xyz
  1  'x, y, z'
loop_
 _atom_site_type_symbol
 _atom_site_label
 _atom_site_symmetry_multiplicity
 _atom_site_fract_x
 _atom_site_fract_y
 _atom_site_fract_z
 _atom_site_occupancy
  Dy  Dy0  1  0.000000  0.500000  0.525658  1
  Dy  Dy1  1  0.500000  0.000000  0.473881  1
  Dy  Dy2  1  0.500000  0.816943  0.207086  1
  Dy  Dy3  1  0.500000  0.183057  0.207086  1
  Dy  Dy4  1  0.000000  0.684773  0.796334  1
  Dy  Dy5  1  0.000000  0.315227  0.796334  1
  Si  Si6  1  0.500000  0.500000  0.879255  1
  Si  Si7  1  0.000000  0.000000  0.123424  1
  Si  Si8  1  0.500000  0.500000  0.342818  1
  Si  Si9  1  0.000000  0.000000  0.654753  1
  Si  Si10  1  0.500000  0.307605  0.616709  1
  Si  Si11  1  0.500000  0.692395  0.616709  1
  Si  Si12  1  0.000000  0.193932  0.382790  1
  Si  Si13  1  0.000000  0.806068  0.382790  1
  Si  Si14  1  0.500000  0.856801  0.895491  1
  Si  Si15  1  0.500000  0.143199  0.895491  1
  Si  Si16  1  0.000000  0.655025  0.104526  1
  Si  Si17  1  0.000000  0.344975  0.104526  1
  Ni  Ni18  1  0.500000  0.000000  0.023063  1
  Ir  Ir19  1  0.500000  0.500000  0.156434  1
  Ir  Ir20  1  0.000000  0.000000  0.839486  1
  Ir  Ir21  1  0.500000  0.500000  0.695786  1
  Ir  Ir22  1  0.000000  0.000000  0.304648  1
  Ir  Ir23  1  0.000000  0.500000  0.982112  1
  Ir  Ir24  1  0.500000  0.327453  0.990048  1
  Ir  Ir25  1  0.500000  0.672547  0.990048  1
  Ir  Ir26  1  0.000000  0.159868  0.010339  1
  Ir  Ir27  1  0.000000  0.840132  0.010339  1
  Ir  Ir28  1  0.500000  0.301588  0.429309  1
  Ir  Ir29  1  0.500000  0.698412  0.429309  1
  Ir  Ir30  1  0.000000  0.199228  0.569125  1
  Ir  Ir31  1  0.000000  0.800772  0.569125  1
  Ir  Ir32  1  0.500000  0.876909  0.711385  1
  Ir  Ir33  1  0.500000  0.123091  0.711385  1
  Ir  Ir34  1  0.000000  0.622595  0.286203  1
  Ir  Ir35  1  0.000000  0.377405  0.286203  1
