# generated using pymatgen
data_Tb6Er3Tm7(CdPt)4
_symmetry_space_group_name_H-M   'P 1'
_cell_length_a   9.63600282
_cell_length_b   9.63444632
_cell_length_c   9.63444600
_cell_angle_alpha   59.99999424
_cell_angle_beta   60.00533745
_cell_angle_gamma   60.00534224
_symmetry_Int_Tables_number   1
_chemical_formula_structural   Tb6Er3Tm7(CdPt)4
_chemical_formula_sum   'Tb6 Er3 Tm7 Cd4 Pt4'
_cell_volume   632.51445946
_cell_formula_units_Z   1
loop_
 _symmetry_equiv_pos_site_id
 _symmetry_equiv_pos_as_xyz
  1  'x, y, z'
loop_
 _atom_site_type_symbol
 _atom_site_label
 _atom_site_symmetry_multiplicity
 _atom_site_fract_x
 _atom_site_fract_y
 _atom_site_fract_z
 _atom_site_occupancy
  Tb  Tb0  1  0.935817  0.564136  0.564136  1
  Tb  Tb1  1  0.564196  0.935801  0.935801  1
  Tb  Tb2  1  0.564196  0.935801  0.564201  1
  Tb  Tb3  1  0.935817  0.564136  0.935911  1
  Tb  Tb4  1  0.564196  0.564201  0.935801  1
  Tb  Tb5  1  0.935817  0.935911  0.564136  1
  Er  Er6  1  0.351650  0.351695  0.351695  1
  Er  Er7  1  0.351650  0.351695  0.944960  1
  Er  Er8  1  0.351650  0.944960  0.351695  1
  Tm  Tm9  1  0.945296  0.351568  0.351568  1
  Tm  Tm10  1  0.811796  0.188302  0.188302  1
  Tm  Tm11  1  0.188207  0.811795  0.811795  1
  Tm  Tm12  1  0.188207  0.811795  0.188202  1
  Tm  Tm13  1  0.811796  0.188302  0.811600  1
  Tm  Tm14  1  0.188207  0.188202  0.811795  1
  Tm  Tm15  1  0.811796  0.811600  0.188302  1
  Cd  Cd16  1  0.581495  0.581227  0.581227  1
  Cd  Cd17  1  0.581495  0.581227  0.256052  1
  Cd  Cd18  1  0.581495  0.256052  0.581227  1
  Cd  Cd19  1  0.256098  0.581301  0.581301  1
  Pt  Pt20  1  0.142403  0.143017  0.143017  1
  Pt  Pt21  1  0.142403  0.143017  0.571566  1
  Pt  Pt22  1  0.142403  0.571566  0.143017  1
  Pt  Pt23  1  0.571915  0.142696  0.142696  1
