# generated using pymatgen
data_Ca4Sn4Ir3Pd
_symmetry_space_group_name_H-M   'P 1'
_cell_length_a   4.53319900
_cell_length_b   7.41035058
_cell_length_c   8.03727304
_cell_angle_alpha   90.32863889
_cell_angle_beta   90.00000000
_cell_angle_gamma   90.00000000
_symmetry_Int_Tables_number   1
_chemical_formula_structural   Ca4Sn4Ir3Pd
_chemical_formula_sum   'Ca4 Sn4 Ir3 Pd1'
_cell_volume   269.98840740
_cell_formula_units_Z   1
loop_
 _symmetry_equiv_pos_site_id
 _symmetry_equiv_pos_as_xyz
  1  'x, y, z'
loop_
 _atom_site_type_symbol
 _atom_site_label
 _atom_site_symmetry_multiplicity
 _atom_site_fract_x
 _atom_site_fract_y
 _atom_site_fract_z
 _atom_site_occupancy
  Ca  Ca0  1  0.750000  0.482031  0.820264  1
  Ca  Ca1  1  0.250000  0.520310  0.180585  1
  Ca  Ca2  1  0.250000  0.017348  0.314720  1
  Ca  Ca3  1  0.750000  0.976802  0.683854  1
  Sn  Sn4  1  0.750000  0.338585  0.424667  1
  Sn  Sn5  1  0.250000  0.666180  0.571778  1
  Sn  Sn6  1  0.750000  0.840316  0.074479  1
  Sn  Sn7  1  0.250000  0.158684  0.931168  1
  Ir  Ir8  1  0.750000  0.214109  0.108690  1
  Ir  Ir9  1  0.750000  0.710495  0.389824  1
  Ir  Ir10  1  0.250000  0.787259  0.888817  1
  Pd  Pd11  1  0.250000  0.287880  0.611155  1
