# generated using pymatgen
data_LaPr7(DyRu2)2
_symmetry_space_group_name_H-M   'P 1'
_cell_length_a   8.90847472
_cell_length_b   8.90413299
_cell_length_c   7.31086616
_cell_angle_alpha   84.21406045
_cell_angle_beta   84.65058521
_cell_angle_gamma   43.89342771
_symmetry_Int_Tables_number   1
_chemical_formula_structural   LaPr7(DyRu2)2
_chemical_formula_sum   'La1 Pr7 Dy2 Ru4'
_cell_volume   399.83928034
_cell_formula_units_Z   1
loop_
 _symmetry_equiv_pos_site_id
 _symmetry_equiv_pos_as_xyz
  1  'x, y, z'
loop_
 _atom_site_type_symbol
 _atom_site_label
 _atom_site_symmetry_multiplicity
 _atom_site_fract_x
 _atom_site_fract_y
 _atom_site_fract_z
 _atom_site_occupancy
  La  La0  1  0.203578  0.980679  0.593651  1
  Pr  Pr1  1  0.021348  0.794547  0.916726  1
  Pr  Pr2  1  0.209670  0.361591  0.312231  1
  Pr  Pr3  1  0.640402  0.789771  0.186529  1
  Pr  Pr4  1  0.793804  0.637259  0.686579  1
  Pr  Pr5  1  0.362145  0.209442  0.813569  1
  Pr  Pr6  1  0.975835  0.206461  0.085935  1
  Pr  Pr7  1  0.796207  0.020844  0.415371  1
  Dy  Dy8  1  0.568145  0.430413  0.750208  1
  Dy  Dy9  1  0.431386  0.569555  0.249694  1
  Ru  Ru10  1  0.185416  0.599976  0.570367  1
  Ru  Ru11  1  0.390640  0.820979  0.917343  1
  Ru  Ru12  1  0.820753  0.392316  0.430723  1
  Ru  Ru13  1  0.600672  0.186167  0.071073  1
