# generated using pymatgen
data_EuLu(Si7Ir3)2
_symmetry_space_group_name_H-M   'P 1'
_cell_length_a   8.04199225
_cell_length_b   8.04199380
_cell_length_c   8.04199315
_cell_angle_alpha   56.82641480
_cell_angle_beta   56.82641933
_cell_angle_gamma   56.82640901
_symmetry_Int_Tables_number   1
_chemical_formula_structural   EuLu(Si7Ir3)2
_chemical_formula_sum   'Eu1 Lu1 Si14 Ir6'
_cell_volume   340.83509310
_cell_formula_units_Z   1
loop_
 _symmetry_equiv_pos_site_id
 _symmetry_equiv_pos_as_xyz
  1  'x, y, z'
loop_
 _atom_site_type_symbol
 _atom_site_label
 _atom_site_symmetry_multiplicity
 _atom_site_fract_x
 _atom_site_fract_y
 _atom_site_fract_z
 _atom_site_occupancy
  Eu  Eu0  1  0.000000  0.000000  0.000000  1
  Lu  Lu1  1  0.500000  0.500000  0.500000  1
  Si  Si2  1  0.850116  0.066033  0.672246  1
  Si  Si3  1  0.672246  0.850116  0.066033  1
  Si  Si4  1  0.066033  0.672246  0.850116  1
  Si  Si5  1  0.649553  0.827119  0.435509  1
  Si  Si6  1  0.249556  0.249556  0.249556  1
  Si  Si7  1  0.750444  0.750444  0.750444  1
  Si  Si8  1  0.172881  0.564491  0.350447  1
  Si  Si9  1  0.564491  0.350447  0.172881  1
  Si  Si10  1  0.350447  0.172881  0.564491  1
  Si  Si11  1  0.933967  0.327754  0.149884  1
  Si  Si12  1  0.327754  0.149884  0.933967  1
  Si  Si13  1  0.149884  0.933967  0.327754  1
  Si  Si14  1  0.827119  0.435509  0.649553  1
  Si  Si15  1  0.435509  0.649553  0.827119  1
  Ir  Ir16  1  0.746644  0.072926  0.433219  1
  Ir  Ir17  1  0.433219  0.746644  0.072926  1
  Ir  Ir18  1  0.072926  0.433219  0.746644  1
  Ir  Ir19  1  0.253356  0.927074  0.566781  1
  Ir  Ir20  1  0.566781  0.253356  0.927074  1
  Ir  Ir21  1  0.927074  0.566781  0.253356  1
