# generated using pymatgen
data_Y3Tm5(InNi)2
_symmetry_space_group_name_H-M   'P 1'
_cell_length_a   9.52522033
_cell_length_b   9.52512237
_cell_length_c   9.52533900
_cell_angle_alpha   60.00004564
_cell_angle_beta   59.99935899
_cell_angle_gamma   59.99955607
_symmetry_Int_Tables_number   1
_chemical_formula_structural   Y3Tm5(InNi)2
_chemical_formula_sum   'Y6 Tm10 In4 Ni4'
_cell_volume   611.09344617
_cell_formula_units_Z   2
loop_
 _symmetry_equiv_pos_site_id
 _symmetry_equiv_pos_as_xyz
  1  'x, y, z'
loop_
 _atom_site_type_symbol
 _atom_site_label
 _atom_site_symmetry_multiplicity
 _atom_site_fract_x
 _atom_site_fract_y
 _atom_site_fract_z
 _atom_site_occupancy
  Y  Y0  1  0.188754  0.811245  0.811234  1
  Y  Y1  1  0.811238  0.188754  0.188755  1
  Y  Y2  1  0.811237  0.188752  0.811257  1
  Y  Y3  1  0.188754  0.811246  0.188769  1
  Y  Y4  1  0.811231  0.811260  0.188755  1
  Y  Y5  1  0.188753  0.188768  0.811243  1
  Tm  Tm6  1  0.597425  0.597406  0.597466  1
  Tm  Tm7  1  0.597404  0.597389  0.207723  1
  Tm  Tm8  1  0.597382  0.207741  0.597421  1
  Tm  Tm9  1  0.207740  0.597371  0.597425  1
  Tm  Tm10  1  0.063141  0.436906  0.436904  1
  Tm  Tm11  1  0.436923  0.063115  0.063062  1
  Tm  Tm12  1  0.436914  0.063136  0.436899  1
  Tm  Tm13  1  0.063114  0.436916  0.063061  1
  Tm  Tm14  1  0.436912  0.436895  0.063117  1
  Tm  Tm15  1  0.063088  0.063085  0.436917  1
  In  In16  1  0.832355  0.832357  0.832360  1
  In  In17  1  0.832357  0.832359  0.502925  1
  In  In18  1  0.832356  0.502926  0.832361  1
  In  In19  1  0.502930  0.832356  0.832358  1
  Ni  Ni20  1  0.392465  0.392462  0.392459  1
  Ni  Ni21  1  0.392470  0.392474  0.822593  1
  Ni  Ni22  1  0.392468  0.822606  0.392466  1
  Ni  Ni23  1  0.822589  0.392474  0.392470  1
