# generated using pymatgen
data_CaPr2Mg3HgPb2
_symmetry_space_group_name_H-M   'P 1'
_cell_length_a   7.74363915
_cell_length_b   7.74363975
_cell_length_c   4.78756200
_cell_angle_alpha   90.00000000
_cell_angle_beta   90.00000000
_cell_angle_gamma   119.80374127
_symmetry_Int_Tables_number   1
_chemical_formula_structural   CaPr2Mg3HgPb2
_chemical_formula_sum   'Ca1 Pr2 Mg3 Hg1 Pb2'
_cell_volume   249.10977692
_cell_formula_units_Z   1
loop_
 _symmetry_equiv_pos_site_id
 _symmetry_equiv_pos_as_xyz
  1  'x, y, z'
loop_
 _atom_site_type_symbol
 _atom_site_label
 _atom_site_symmetry_multiplicity
 _atom_site_fract_x
 _atom_site_fract_y
 _atom_site_fract_z
 _atom_site_occupancy
  Ca  Ca0  1  0.412969  0.412969  0.500000  1
  Pr  Pr1  1  0.582344  0.000413  0.500000  1
  Pr  Pr2  1  0.000413  0.582344  0.500000  1
  Mg  Mg3  1  0.766060  0.766060  0.000000  1
  Mg  Mg4  1  0.235226  0.999257  0.000000  1
  Mg  Mg5  1  0.999257  0.235226  0.000000  1
  Hg  Hg6  1  0.000668  0.000668  0.500000  1
  Pb  Pb7  1  0.668109  0.334954  0.000000  1
  Pb  Pb8  1  0.334954  0.668109  0.000000  1
