# generated using pymatgen
data_Tb3Tm(Al8Ni3)3
_symmetry_space_group_name_H-M   'P 1'
_cell_length_a   7.31250624
_cell_length_b   7.34450150
_cell_length_c   12.78876331
_cell_angle_alpha   84.56830934
_cell_angle_beta   79.07488104
_cell_angle_gamma   59.97832737
_symmetry_Int_Tables_number   1
_chemical_formula_structural   Tb3Tm(Al8Ni3)3
_chemical_formula_sum   'Tb3 Tm1 Al24 Ni9'
_cell_volume   583.91466112
_cell_formula_units_Z   1
loop_
 _symmetry_equiv_pos_site_id
 _symmetry_equiv_pos_as_xyz
  1  'x, y, z'
loop_
 _atom_site_type_symbol
 _atom_site_label
 _atom_site_symmetry_multiplicity
 _atom_site_fract_x
 _atom_site_fract_y
 _atom_site_fract_z
 _atom_site_occupancy
  Tb  Tb0  1  0.394280  0.168654  0.805365  1
  Tb  Tb1  1  0.605729  0.831526  0.194885  1
  Tb  Tb2  1  0.734636  0.497863  0.805469  1
  Tm  Tm3  1  0.264752  0.501935  0.195723  1
  Al  Al4  1  0.681282  0.833585  0.948609  1
  Al  Al5  1  0.318722  0.167288  0.052453  1
  Al  Al6  1  0.146202  0.833244  0.559344  1
  Al  Al7  1  0.854013  0.166693  0.439831  1
  Al  Al8  1  0.480693  0.166846  0.557031  1
  Al  Al9  1  0.519408  0.833243  0.442491  1
  Al  Al10  1  0.214650  0.165936  0.336154  1
  Al  Al11  1  0.785727  0.834482  0.662883  1
  Al  Al12  1  0.439181  0.506881  0.662968  1
  Al  Al13  1  0.560643  0.493133  0.336037  1
  Al  Al14  1  0.111851  0.159007  0.661735  1
  Al  Al15  1  0.889074  0.840395  0.337248  1
  Al  Al16  1  0.352852  0.497548  0.949400  1
  Al  Al17  1  0.645249  0.502852  0.052435  1
  Al  Al18  1  0.012789  0.168883  0.961561  1
  Al  Al19  1  0.987227  0.830253  0.040138  1
  Al  Al20  1  0.186354  0.499669  0.442238  1
  Al  Al21  1  0.813980  0.500232  0.557113  1
  Al  Al22  1  0.727968  0.165660  0.184857  1
  Al  Al23  1  0.270688  0.835596  0.815286  1
  Al  Al24  1  0.062142  0.626891  0.814106  1
  Al  Al25  1  0.939293  0.373078  0.185973  1
  Al  Al26  1  0.852198  0.045221  0.815236  1
  Al  Al27  1  0.148035  0.953135  0.184654  1
  Ni  Ni28  1  0.120009  0.493126  0.637319  1
  Ni  Ni29  1  0.880696  0.507063  0.362019  1
  Ni  Ni30  1  0.658653  0.170610  0.000299  1
  Ni  Ni31  1  0.341121  0.829480  0.000241  1
  Ni  Ni32  1  0.537978  0.167404  0.362114  1
  Ni  Ni33  1  0.461713  0.833051  0.637217  1
  Ni  Ni34  1  0.779219  0.174082  0.637082  1
  Ni  Ni35  1  0.221174  0.825320  0.362123  1
  Ni  Ni36  1  0.999818  0.500134  0.000362  1
