# generated using pymatgen
data_LaEr7Sc12Si15Ni
_symmetry_space_group_name_H-M   'P 1'
_cell_length_a   7.06539773
_cell_length_b   7.43919678
_cell_length_c   13.94493529
_cell_angle_alpha   90.18571387
_cell_angle_beta   90.07487133
_cell_angle_gamma   90.04392836
_symmetry_Int_Tables_number   1
_chemical_formula_structural   LaEr7Sc12Si15Ni
_chemical_formula_sum   'La1 Er7 Sc12 Si15 Ni1'
_cell_volume   732.95343274
_cell_formula_units_Z   1
loop_
 _symmetry_equiv_pos_site_id
 _symmetry_equiv_pos_as_xyz
  1  'x, y, z'
loop_
 _atom_site_type_symbol
 _atom_site_label
 _atom_site_symmetry_multiplicity
 _atom_site_fract_x
 _atom_site_fract_y
 _atom_site_fract_z
 _atom_site_occupancy
  La  La0  1  0.010261  0.175599  0.093413  1
  Er  Er1  1  0.989644  0.823387  0.902240  1
  Er  Er2  1  0.491463  0.678189  0.902631  1
  Er  Er3  1  0.989447  0.823938  0.595570  1
  Er  Er4  1  0.510642  0.323058  0.095295  1
  Er  Er5  1  0.011218  0.179636  0.404034  1
  Er  Er6  1  0.511287  0.322819  0.406498  1
  Er  Er7  1  0.489360  0.678294  0.595588  1
  Sc  Sc8  1  0.163504  0.509411  0.749732  1
  Sc  Sc9  1  0.838934  0.497906  0.251138  1
  Sc  Sc10  1  0.338673  0.004995  0.251143  1
  Sc  Sc11  1  0.670530  0.998497  0.749943  1
  Sc  Sc12  1  0.315528  0.171860  0.628160  1
  Sc  Sc13  1  0.670091  0.825773  0.375696  1
  Sc  Sc14  1  0.171564  0.676654  0.376055  1
  Sc  Sc15  1  0.670853  0.825421  0.126301  1
  Sc  Sc16  1  0.837598  0.318691  0.628240  1
  Sc  Sc17  1  0.317671  0.172269  0.870790  1
  Sc  Sc18  1  0.834885  0.320791  0.870982  1
  Sc  Sc19  1  0.171508  0.675782  0.125793  1
  Si  Si20  1  0.967984  0.880090  0.252751  1
  Si  Si21  1  0.469830  0.614250  0.251317  1
  Si  Si22  1  0.532114  0.386659  0.749115  1
  Si  Si23  1  0.283239  0.873227  0.749091  1
  Si  Si24  1  0.708595  0.130782  0.253971  1
  Si  Si25  1  0.217248  0.373812  0.252928  1
  Si  Si26  1  0.782732  0.626318  0.748930  1
  Si  Si27  1  0.159694  0.466360  0.539359  1
  Si  Si28  1  0.841262  0.535131  0.463111  1
  Si  Si29  1  0.342587  0.966560  0.461720  1
  Si  Si30  1  0.837902  0.541701  0.034879  1
  Si  Si31  1  0.657354  0.034091  0.540903  1
  Si  Si32  1  0.161215  0.472727  0.958371  1
  Si  Si33  1  0.655105  0.032797  0.957894  1
  Si  Si34  1  0.350145  0.961242  0.036350  1
  Ni  Ni35  1  0.028333  0.101286  0.750066  1
