# generated using pymatgen
data_Sc9PaTc3
_symmetry_space_group_name_H-M   'P 1'
_cell_length_a   8.84978000
_cell_length_b   8.84978011
_cell_length_c   8.29376400
_cell_angle_alpha   90.00000000
_cell_angle_beta   90.00000000
_cell_angle_gamma   119.99999212
_symmetry_Int_Tables_number   1
_chemical_formula_structural   Sc9PaTc3
_chemical_formula_sum   'Sc18 Pa2 Tc6'
_cell_volume   562.53207935
_cell_formula_units_Z   2
loop_
 _symmetry_equiv_pos_site_id
 _symmetry_equiv_pos_as_xyz
  1  'x, y, z'
loop_
 _atom_site_type_symbol
 _atom_site_label
 _atom_site_symmetry_multiplicity
 _atom_site_fract_x
 _atom_site_fract_y
 _atom_site_fract_z
 _atom_site_occupancy
  Sc  Sc0  1  0.413562  0.206781  0.055638  1
  Sc  Sc1  1  0.793219  0.206781  0.055638  1
  Sc  Sc2  1  0.793218  0.586437  0.055638  1
  Sc  Sc3  1  0.096174  0.548087  0.250000  1
  Sc  Sc4  1  0.451913  0.548087  0.250000  1
  Sc  Sc5  1  0.451913  0.903827  0.250000  1
  Sc  Sc6  1  0.413562  0.206781  0.444362  1
  Sc  Sc7  1  0.793219  0.206781  0.444362  1
  Sc  Sc8  1  0.793218  0.586437  0.444362  1
  Sc  Sc9  1  0.206781  0.413563  0.555639  1
  Sc  Sc10  1  0.206780  0.793219  0.555639  1
  Sc  Sc11  1  0.586438  0.793219  0.555639  1
  Sc  Sc12  1  0.548086  0.096173  0.750001  1
  Sc  Sc13  1  0.548087  0.451913  0.750001  1
  Sc  Sc14  1  0.903827  0.451913  0.750001  1
  Sc  Sc15  1  0.206781  0.413563  0.944361  1
  Sc  Sc16  1  0.206780  0.793219  0.944361  1
  Sc  Sc17  1  0.586438  0.793219  0.944361  1
  Pa  Pa18  1  0.000000  0.000000  0.000000  1
  Pa  Pa19  1  0.000000  0.000000  0.500000  1
  Tc  Tc20  1  0.111759  0.223518  0.250000  1
  Tc  Tc21  1  0.111758  0.888241  0.250000  1
  Tc  Tc22  1  0.776483  0.888241  0.250000  1
  Tc  Tc23  1  0.223518  0.111759  0.750001  1
  Tc  Tc24  1  0.888241  0.111759  0.750001  1
  Tc  Tc25  1  0.888240  0.776482  0.750001  1
