# generated using pymatgen
data_TbNd4P12Ru15Rh4
_symmetry_space_group_name_H-M   'P 1'
_cell_length_a   4.00806700
_cell_length_b   12.62383769
_cell_length_c   12.63751701
_cell_angle_alpha   119.76556643
_cell_angle_beta   90.00000000
_cell_angle_gamma   90.00000000
_symmetry_Int_Tables_number   1
_chemical_formula_structural   TbNd4P12Ru15Rh4
_chemical_formula_sum   'Tb1 Nd4 P12 Ru15 Rh4'
_cell_volume   555.05990537
_cell_formula_units_Z   1
loop_
 _symmetry_equiv_pos_site_id
 _symmetry_equiv_pos_as_xyz
  1  'x, y, z'
loop_
 _atom_site_type_symbol
 _atom_site_label
 _atom_site_symmetry_multiplicity
 _atom_site_fract_x
 _atom_site_fract_y
 _atom_site_fract_z
 _atom_site_occupancy
  Tb  Tb0  1  0.000000  0.666187  0.332896  1
  Nd  Nd1  1  0.500000  0.999342  0.182430  1
  Nd  Nd2  1  0.500000  0.182569  0.998076  1
  Nd  Nd3  1  0.500000  0.816838  0.816496  1
  Nd  Nd4  1  0.000000  0.333416  0.667053  1
  P  P5  1  0.000000  0.998263  0.810294  1
  P  P6  1  0.000000  0.812005  0.000902  1
  P  P7  1  0.000000  0.187889  0.184034  1
  P  P8  1  0.500000  0.308125  0.479534  1
  P  P9  1  0.500000  0.175053  0.697425  1
  P  P10  1  0.500000  0.523739  0.826993  1
  P  P11  1  0.500000  0.821858  0.519894  1
  P  P12  1  0.500000  0.479226  0.302384  1
  P  P13  1  0.500000  0.698160  0.178262  1
  P  P14  1  0.000000  0.996661  0.371644  1
  P  P15  1  0.000000  0.372002  0.000083  1
  P  P16  1  0.000000  0.627608  0.628143  1
  Ru  Ru17  1  0.500000  0.998304  0.710767  1
  Ru  Ru18  1  0.500000  0.713127  0.001766  1
  Ru  Ru19  1  0.500000  0.286665  0.287063  1
  Ru  Ru20  1  0.000000  0.184445  0.805855  1
  Ru  Ru21  1  0.000000  0.622030  0.816254  1
  Ru  Ru22  1  0.000000  0.813120  0.617804  1
  Ru  Ru23  1  0.000000  0.380660  0.195682  1
  Ru  Ru24  1  0.000000  0.804813  0.186130  1
  Ru  Ru25  1  0.500000  0.126264  0.490752  1
  Ru  Ru26  1  0.500000  0.367982  0.876891  1
  Ru  Ru27  1  0.500000  0.510962  0.634516  1
  Ru  Ru28  1  0.500000  0.630105  0.505519  1
  Ru  Ru29  1  0.500000  0.494111  0.125558  1
  Ru  Ru30  1  0.500000  0.876281  0.369772  1
  Ru  Ru31  1  0.000000  0.999996  0.999860  1
  Rh  Rh32  1  0.000000  0.003005  0.554399  1
  Rh  Rh33  1  0.000000  0.552753  0.999603  1
  Rh  Rh34  1  0.000000  0.445156  0.449169  1
  Rh  Rh35  1  0.000000  0.191179  0.376100  1
