# generated using pymatgen
data_Sc8V11Si16Tc
_symmetry_space_group_name_H-M   'P 1'
_cell_length_a   6.62825552
_cell_length_b   6.62825552
_cell_length_c   12.26730842
_cell_angle_alpha   89.97887424
_cell_angle_beta   90.02112576
_cell_angle_gamma   89.78738979
_symmetry_Int_Tables_number   1
_chemical_formula_structural   Sc8V11Si16Tc
_chemical_formula_sum   'Sc8 V11 Si16 Tc1'
_cell_volume   538.94533789
_cell_formula_units_Z   1
loop_
 _symmetry_equiv_pos_site_id
 _symmetry_equiv_pos_as_xyz
  1  'x, y, z'
loop_
 _atom_site_type_symbol
 _atom_site_label
 _atom_site_symmetry_multiplicity
 _atom_site_fract_x
 _atom_site_fract_y
 _atom_site_fract_z
 _atom_site_occupancy
  Sc  Sc0  1  0.001452  0.662373  0.028953  1
  Sc  Sc1  1  0.837121  0.500937  0.279786  1
  Sc  Sc2  1  0.162881  0.497806  0.779770  1
  Sc  Sc3  1  0.500937  0.837121  0.720214  1
  Sc  Sc4  1  0.497806  0.162881  0.220230  1
  Sc  Sc5  1  0.998559  0.337676  0.529424  1
  Sc  Sc6  1  0.662373  0.001452  0.971047  1
  Sc  Sc7  1  0.337676  0.998559  0.470576  1
  V  V8  1  0.169755  0.832704  0.248683  1
  V  V9  1  0.832704  0.169755  0.751317  1
  V  V10  1  0.668921  0.668921  0.500000  1
  V  V11  1  0.002995  0.153509  0.128020  1
  V  V12  1  0.343671  0.506383  0.376084  1
  V  V13  1  0.661627  0.494087  0.875350  1
  V  V14  1  0.506383  0.343671  0.623916  1
  V  V15  1  0.494087  0.661627  0.124650  1
  V  V16  1  0.992797  0.842942  0.626168  1
  V  V17  1  0.153509  0.002995  0.871980  1
  V  V18  1  0.842942  0.992797  0.373832  1
  Si  Si19  1  0.291655  0.960442  0.063888  1
  Si  Si20  1  0.540225  0.794559  0.315709  1
  Si  Si21  1  0.459737  0.205977  0.815040  1
  Si  Si22  1  0.794559  0.540225  0.684291  1
  Si  Si23  1  0.205977  0.459737  0.184960  1
  Si  Si24  1  0.706178  0.040571  0.565228  1
  Si  Si25  1  0.960442  0.291655  0.936112  1
  Si  Si26  1  0.040571  0.706178  0.434772  1
  Si  Si27  1  0.703567  0.372898  0.070775  1
  Si  Si28  1  0.129541  0.203416  0.320238  1
  Si  Si29  1  0.869939  0.795210  0.819358  1
  Si  Si30  1  0.203416  0.129541  0.679762  1
  Si  Si31  1  0.795210  0.869939  0.180642  1
  Si  Si32  1  0.296165  0.629791  0.569714  1
  Si  Si33  1  0.372898  0.703567  0.929225  1
  Si  Si34  1  0.629791  0.296165  0.430286  1
  Tc  Tc35  1  0.331936  0.331936  0.000000  1
