# generated using pymatgen
data_YbTm3(Si5Pt3)2
_symmetry_space_group_name_H-M   'P 1'
_cell_length_a   8.14541990
_cell_length_b   8.15641002
_cell_length_c   8.15641099
_cell_angle_alpha   136.97737610
_cell_angle_beta   103.63474629
_cell_angle_gamma   91.92246110
_symmetry_Int_Tables_number   1
_chemical_formula_structural   YbTm3(Si5Pt3)2
_chemical_formula_sum   'Yb1 Tm3 Si10 Pt6'
_cell_volume   341.54501071
_cell_formula_units_Z   1
loop_
 _symmetry_equiv_pos_site_id
 _symmetry_equiv_pos_as_xyz
  1  'x, y, z'
loop_
 _atom_site_type_symbol
 _atom_site_label
 _atom_site_symmetry_multiplicity
 _atom_site_fract_x
 _atom_site_fract_y
 _atom_site_fract_z
 _atom_site_occupancy
  Yb  Yb0  1  0.861982  0.628717  0.233265  1
  Tm  Tm1  1  0.140445  0.370638  0.769807  1
  Tm  Tm2  1  0.399179  0.128684  0.270495  1
  Tm  Tm3  1  0.601421  0.871901  0.729520  1
  Si  Si4  1  0.500641  0.746825  0.247753  1
  Si  Si5  1  0.500641  0.252888  0.753817  1
  Si  Si6  1  0.228327  0.979571  0.748408  1
  Si  Si7  1  0.771224  0.521900  0.751836  1
  Si  Si8  1  0.771224  0.019388  0.249324  1
  Si  Si9  1  0.228327  0.479919  0.248756  1
  Si  Si10  1  0.040122  0.888885  0.151236  1
  Si  Si11  1  0.959246  0.111696  0.847550  1
  Si  Si12  1  0.735963  0.386485  0.349479  1
  Si  Si13  1  0.262324  0.611971  0.650354  1
  Pt  Pt14  1  0.000445  0.750137  0.750335  1
  Pt  Pt15  1  0.000445  0.250110  0.250308  1
  Pt  Pt16  1  0.247942  0.864081  0.383861  1
  Pt  Pt17  1  0.751945  0.137162  0.614782  1
  Pt  Pt18  1  0.478014  0.361218  0.116796  1
  Pt  Pt19  1  0.520143  0.637824  0.882319  1
