# generated using pymatgen
data_Ac4As2S9
_symmetry_space_group_name_H-M   'P 1'
_cell_length_a   7.25329700
_cell_length_b   7.31855600
_cell_length_c   30.22977400
_cell_angle_alpha   90.00000000
_cell_angle_beta   90.00000000
_cell_angle_gamma   90.00000000
_symmetry_Int_Tables_number   1
_chemical_formula_structural   Ac4As2S9
_chemical_formula_sum   'Ac16 As8 S36'
_cell_volume   1604.70705333
_cell_formula_units_Z   4
loop_
 _symmetry_equiv_pos_site_id
 _symmetry_equiv_pos_as_xyz
  1  'x, y, z'
loop_
 _atom_site_type_symbol
 _atom_site_label
 _atom_site_symmetry_multiplicity
 _atom_site_fract_x
 _atom_site_fract_y
 _atom_site_fract_z
 _atom_site_occupancy
  Ac  Ac0  1  0.703961  0.545896  0.443250  1
  Ac  Ac1  1  0.796039  0.045896  0.056750  1
  Ac  Ac2  1  0.796039  0.454104  0.943250  1
  Ac  Ac3  1  0.703961  0.954104  0.556750  1
  Ac  Ac4  1  0.296039  0.454104  0.556750  1
  Ac  Ac5  1  0.203961  0.954104  0.943250  1
  Ac  Ac6  1  0.203961  0.545896  0.056750  1
  Ac  Ac7  1  0.296039  0.045896  0.443250  1
  Ac  Ac8  1  0.793141  0.819421  0.293860  1
  Ac  Ac9  1  0.706859  0.319421  0.206140  1
  Ac  Ac10  1  0.706859  0.180579  0.793860  1
  Ac  Ac11  1  0.793141  0.680579  0.706140  1
  Ac  Ac12  1  0.206859  0.180579  0.706140  1
  Ac  Ac13  1  0.293141  0.680579  0.793860  1
  Ac  Ac14  1  0.293141  0.819421  0.206140  1
  Ac  Ac15  1  0.206859  0.319421  0.293860  1
  As  As16  1  0.693796  0.568784  0.094871  1
  As  As17  1  0.806204  0.068784  0.405129  1
  As  As18  1  0.806204  0.431216  0.594871  1
  As  As19  1  0.693796  0.931216  0.905129  1
  As  As20  1  0.306204  0.431216  0.905129  1
  As  As21  1  0.193796  0.931216  0.594871  1
  As  As22  1  0.193796  0.568784  0.405129  1
  As  As23  1  0.306204  0.068784  0.094871  1
  S  S24  1  0.937206  0.750000  0.000000  1
  S  S25  1  0.562794  0.250000  0.500000  1
  S  S26  1  0.062794  0.250000  0.000000  1
  S  S27  1  0.437206  0.750000  0.500000  1
  S  S28  1  0.999932  0.071182  0.236169  1
  S  S29  1  0.500068  0.571182  0.263831  1
  S  S30  1  0.500068  0.928818  0.736169  1
  S  S31  1  0.999932  0.428818  0.763831  1
  S  S32  1  0.000068  0.928818  0.763831  1
  S  S33  1  0.499932  0.428818  0.736169  1
  S  S34  1  0.499932  0.071182  0.263831  1
  S  S35  1  0.000068  0.571182  0.236169  1
  S  S36  1  0.916146  0.888121  0.459663  1
  S  S37  1  0.583854  0.388121  0.040337  1
  S  S38  1  0.583854  0.111879  0.959663  1
  S  S39  1  0.916146  0.611879  0.540337  1
  S  S40  1  0.083854  0.111879  0.540337  1
  S  S41  1  0.416146  0.611879  0.959663  1
  S  S42  1  0.416146  0.888121  0.040337  1
  S  S43  1  0.083854  0.388121  0.459663  1
  S  S44  1  0.951849  0.520861  0.357982  1
  S  S45  1  0.548151  0.020861  0.142018  1
  S  S46  1  0.548151  0.479139  0.857982  1
  S  S47  1  0.951849  0.979139  0.642018  1
  S  S48  1  0.048151  0.479139  0.642018  1
  S  S49  1  0.451849  0.979139  0.857982  1
  S  S50  1  0.451849  0.520861  0.142018  1
  S  S51  1  0.048151  0.020861  0.357982  1
  S  S52  1  0.578968  0.872918  0.380554  1
  S  S53  1  0.921032  0.372918  0.119446  1
  S  S54  1  0.921032  0.127082  0.880554  1
  S  S55  1  0.578968  0.627082  0.619446  1
  S  S56  1  0.421032  0.127082  0.619446  1
  S  S57  1  0.078968  0.627082  0.880554  1
  S  S58  1  0.078968  0.872918  0.119446  1
  S  S59  1  0.421032  0.372918  0.380554  1
