# generated using pymatgen
data_Hf3Zr(Sc2P)4
_symmetry_space_group_name_H-M   'P 1'
_cell_length_a   10.80504435
_cell_length_b   10.80443222
_cell_length_c   5.37367427
_cell_angle_alpha   89.97745127
_cell_angle_beta   90.02869478
_cell_angle_gamma   89.99418561
_symmetry_Int_Tables_number   1
_chemical_formula_structural   Hf3Zr(Sc2P)4
_chemical_formula_sum   'Hf6 Zr2 Sc16 P8'
_cell_volume   627.33533633
_cell_formula_units_Z   2
loop_
 _symmetry_equiv_pos_site_id
 _symmetry_equiv_pos_as_xyz
  1  'x, y, z'
loop_
 _atom_site_type_symbol
 _atom_site_label
 _atom_site_symmetry_multiplicity
 _atom_site_fract_x
 _atom_site_fract_y
 _atom_site_fract_z
 _atom_site_occupancy
  Hf  Hf0  1  0.894142  0.419088  0.034287  1
  Hf  Hf1  1  0.919189  0.606041  0.534142  1
  Hf  Hf2  1  0.080878  0.394227  0.534043  1
  Hf  Hf3  1  0.106046  0.580767  0.033567  1
  Hf  Hf4  1  0.606852  0.080087  0.467169  1
  Hf  Hf5  1  0.581774  0.894694  0.965215  1
  Zr  Zr6  1  0.419076  0.108226  0.965571  1
  Zr  Zr7  1  0.393346  0.917379  0.463393  1
  Sc  Sc8  1  0.031476  0.861828  0.278650  1
  Sc  Sc9  1  0.361849  0.468193  0.778828  1
  Sc  Sc10  1  0.638465  0.531457  0.778818  1
  Sc  Sc11  1  0.968243  0.138392  0.278968  1
  Sc  Sc12  1  0.468303  0.637806  0.220581  1
  Sc  Sc13  1  0.137212  0.031763  0.721205  1
  Sc  Sc14  1  0.861703  0.968296  0.720927  1
  Sc  Sc15  1  0.531751  0.362129  0.221418  1
  Sc  Sc16  1  0.284958  0.826538  0.979984  1
  Sc  Sc17  1  0.326797  0.214996  0.481084  1
  Sc  Sc18  1  0.673621  0.784727  0.478694  1
  Sc  Sc19  1  0.715367  0.173406  0.979930  1
  Sc  Sc20  1  0.214397  0.672319  0.521524  1
  Sc  Sc21  1  0.172637  0.285467  0.020978  1
  Sc  Sc22  1  0.827235  0.714731  0.020968  1
  Sc  Sc23  1  0.785182  0.326962  0.520357  1
  P  P24  1  0.543856  0.294788  0.711440  1
  P  P25  1  0.794228  0.957161  0.212896  1
  P  P26  1  0.204246  0.043550  0.212595  1
  P  P27  1  0.457423  0.704998  0.714014  1
  P  P28  1  0.956948  0.206188  0.787203  1
  P  P29  1  0.706122  0.542916  0.287093  1
  P  P30  1  0.293789  0.457034  0.287226  1
  P  P31  1  0.042890  0.793848  0.787229  1
