# generated using pymatgen
data_Tb4MnSi12Ni19
_symmetry_space_group_name_H-M   'P 1'
_cell_length_a   3.80668600
_cell_length_b   6.58080459
_cell_length_c   18.86638790
_cell_angle_alpha   89.84909480
_cell_angle_beta   90.00000000
_cell_angle_gamma   90.00000000
_symmetry_Int_Tables_number   1
_chemical_formula_structural   Tb4MnSi12Ni19
_chemical_formula_sum   'Tb4 Mn1 Si12 Ni19'
_cell_volume   472.62131393
_cell_formula_units_Z   1
loop_
 _symmetry_equiv_pos_site_id
 _symmetry_equiv_pos_as_xyz
  1  'x, y, z'
loop_
 _atom_site_type_symbol
 _atom_site_label
 _atom_site_symmetry_multiplicity
 _atom_site_fract_x
 _atom_site_fract_y
 _atom_site_fract_z
 _atom_site_occupancy
  Tb  Tb0  1  0.250000  0.622567  0.642983  1
  Tb  Tb1  1  0.750000  0.377425  0.356855  1
  Tb  Tb2  1  0.750000  0.122175  0.855630  1
  Tb  Tb3  1  0.250000  0.876117  0.144694  1
  Mn  Mn4  1  0.250000  0.140631  0.996315  1
  Si  Si5  1  0.250000  0.840183  0.924867  1
  Si  Si6  1  0.750000  0.162410  0.078187  1
  Si  Si7  1  0.750000  0.342221  0.573314  1
  Si  Si8  1  0.250000  0.657356  0.426552  1
  Si  Si9  1  0.750000  0.616638  0.762016  1
  Si  Si10  1  0.250000  0.381009  0.239017  1
  Si  Si11  1  0.250000  0.427745  0.910996  1
  Si  Si12  1  0.750000  0.578569  0.085295  1
  Si  Si13  1  0.750000  0.921465  0.586025  1
  Si  Si14  1  0.250000  0.078484  0.413991  1
  Si  Si15  1  0.250000  0.115920  0.736282  1
  Si  Si16  1  0.750000  0.879992  0.263482  1
  Ni  Ni17  1  0.750000  0.385888  0.982519  1
  Ni  Ni18  1  0.750000  0.113003  0.483928  1
  Ni  Ni19  1  0.250000  0.612017  0.016152  1
  Ni  Ni20  1  0.250000  0.360143  0.118470  1
  Ni  Ni21  1  0.750000  0.644950  0.883016  1
  Ni  Ni22  1  0.750000  0.855234  0.384520  1
  Ni  Ni23  1  0.250000  0.143623  0.615063  1
  Ni  Ni24  1  0.250000  0.070278  0.293971  1
  Ni  Ni25  1  0.750000  0.926275  0.706305  1
  Ni  Ni26  1  0.750000  0.571147  0.206789  1
  Ni  Ni27  1  0.250000  0.426361  0.790143  1
  Ni  Ni28  1  0.750000  0.634988  0.505260  1
  Ni  Ni29  1  0.250000  0.364383  0.494605  1
  Ni  Ni30  1  0.250000  0.809509  0.799084  1
  Ni  Ni31  1  0.750000  0.187769  0.202422  1
  Ni  Ni32  1  0.750000  0.310608  0.698136  1
  Ni  Ni33  1  0.250000  0.687140  0.301568  1
  Ni  Ni34  1  0.250000  0.886310  0.515879  1
  Ni  Ni35  1  0.750000  0.869468  0.005670  1
