# generated using pymatgen
data_DyHo5(CdIn4)2
_symmetry_space_group_name_H-M   'P 1'
_cell_length_a   6.34716526
_cell_length_b   6.34716529
_cell_length_c   10.50471200
_cell_angle_alpha   90.00142551
_cell_angle_beta   90.00143046
_cell_angle_gamma   103.32985492
_symmetry_Int_Tables_number   1
_chemical_formula_structural   DyHo5(CdIn4)2
_chemical_formula_sum   'Dy1 Ho5 Cd2 In8'
_cell_volume   411.79671694
_cell_formula_units_Z   1
loop_
 _symmetry_equiv_pos_site_id
 _symmetry_equiv_pos_as_xyz
  1  'x, y, z'
loop_
 _atom_site_type_symbol
 _atom_site_label
 _atom_site_symmetry_multiplicity
 _atom_site_fract_x
 _atom_site_fract_y
 _atom_site_fract_z
 _atom_site_occupancy
  Dy  Dy0  1  0.204504  0.795496  0.500000  1
  Ho  Ho1  1  0.618061  0.618016  0.250010  1
  Ho  Ho2  1  0.381984  0.381939  0.749990  1
  Ho  Ho3  1  0.204524  0.795476  0.000000  1
  Ho  Ho4  1  0.795444  0.204556  0.500000  1
  Ho  Ho5  1  0.795462  0.204538  0.000000  1
  Cd  Cd6  1  0.009458  0.009509  0.249962  1
  Cd  Cd7  1  0.990491  0.990542  0.750038  1
  In  In8  1  0.307520  0.307493  0.043260  1
  In  In9  1  0.692507  0.692480  0.956740  1
  In  In10  1  0.307569  0.307582  0.456713  1
  In  In11  1  0.692418  0.692431  0.543287  1
  In  In12  1  0.513032  0.073587  0.249970  1
  In  In13  1  0.926413  0.486968  0.750030  1
  In  In14  1  0.487096  0.926482  0.750073  1
  In  In15  1  0.073518  0.512904  0.249927  1
