# generated using pymatgen
data_Lu3TaIn2Ir3
_symmetry_space_group_name_H-M   'P 1'
_cell_length_a   7.28539669
_cell_length_b   7.04330509
_cell_length_c   4.17274400
_cell_angle_alpha   90.00000000
_cell_angle_beta   90.00000000
_cell_angle_gamma   118.90672308
_symmetry_Int_Tables_number   1
_chemical_formula_structural   Lu3TaIn2Ir3
_chemical_formula_sum   'Lu3 Ta1 In2 Ir3'
_cell_volume   187.43982259
_cell_formula_units_Z   1
loop_
 _symmetry_equiv_pos_site_id
 _symmetry_equiv_pos_as_xyz
  1  'x, y, z'
loop_
 _atom_site_type_symbol
 _atom_site_label
 _atom_site_symmetry_multiplicity
 _atom_site_fract_x
 _atom_site_fract_y
 _atom_site_fract_z
 _atom_site_occupancy
  Lu  Lu0  1  0.590138  0.586322  0.000000  1
  Lu  Lu1  1  0.409862  0.996183  0.000000  1
  Lu  Lu2  1  0.000000  0.402613  0.000000  1
  Ta  Ta3  1  0.000000  0.750658  0.500000  1
  In  In4  1  0.252628  0.253904  0.500000  1
  In  In5  1  0.747372  0.001275  0.500000  1
  Ir  Ir6  1  0.000000  0.964546  0.000000  1
  Ir  Ir7  1  0.685920  0.365209  0.500000  1
  Ir  Ir8  1  0.314080  0.679290  0.500000  1
