# generated using pymatgen
data_SrTlAsS4
_symmetry_space_group_name_H-M   'P 1'
_cell_length_a   6.86967045
_cell_length_b   6.75161900
_cell_length_c   8.84114200
_cell_angle_alpha   90.00000000
_cell_angle_beta   106.94017788
_cell_angle_gamma   90.00000000
_symmetry_Int_Tables_number   1
_chemical_formula_structural   SrTlAsS4
_chemical_formula_sum   'Sr2 Tl2 As2 S8'
_cell_volume   392.27161627
_cell_formula_units_Z   2
loop_
 _symmetry_equiv_pos_site_id
 _symmetry_equiv_pos_as_xyz
  1  'x, y, z'
loop_
 _atom_site_type_symbol
 _atom_site_label
 _atom_site_symmetry_multiplicity
 _atom_site_fract_x
 _atom_site_fract_y
 _atom_site_fract_z
 _atom_site_occupancy
  Sr  Sr0  1  0.737533  0.249999  0.053643  1
  Sr  Sr1  1  0.262468  0.749999  0.946358  1
  Tl  Tl2  1  0.236765  0.749999  0.434160  1
  Tl  Tl3  1  0.763235  0.249999  0.565841  1
  As  As4  1  0.288656  0.249999  0.192409  1
  As  As5  1  0.711344  0.749999  0.807591  1
  S  S6  1  0.882593  0.749999  0.059723  1
  S  S7  1  0.495425  0.504693  0.237222  1
  S  S8  1  0.495425  0.995308  0.237222  1
  S  S9  1  0.093823  0.249999  0.347103  1
  S  S10  1  0.906177  0.749999  0.652897  1
  S  S11  1  0.504575  0.004693  0.762778  1
  S  S12  1  0.504575  0.495308  0.762778  1
  S  S13  1  0.117407  0.249999  0.940277  1
