# generated using pymatgen
data_Ho20Co3Bi8Ru
_symmetry_space_group_name_H-M   'P 1'
_cell_length_a   7.97614028
_cell_length_b   8.91565400
_cell_length_c   12.39876881
_cell_angle_alpha   90.00000000
_cell_angle_beta   89.81190151
_cell_angle_gamma   90.00000000
_symmetry_Int_Tables_number   1
_chemical_formula_structural   Ho20Co3Bi8Ru
_chemical_formula_sum   'Ho20 Co3 Bi8 Ru1'
_cell_volume   881.70278260
_cell_formula_units_Z   1
loop_
 _symmetry_equiv_pos_site_id
 _symmetry_equiv_pos_as_xyz
  1  'x, y, z'
loop_
 _atom_site_type_symbol
 _atom_site_label
 _atom_site_symmetry_multiplicity
 _atom_site_fract_x
 _atom_site_fract_y
 _atom_site_fract_z
 _atom_site_occupancy
  Ho  Ho0  1  0.346038  0.750000  0.700603  1
  Ho  Ho1  1  0.653254  0.250000  0.300762  1
  Ho  Ho2  1  0.847083  0.250000  0.799895  1
  Ho  Ho3  1  0.155007  0.750000  0.205757  1
  Ho  Ho4  1  0.881459  0.750000  0.806220  1
  Ho  Ho5  1  0.114569  0.250000  0.189259  1
  Ho  Ho6  1  0.385080  0.250000  0.688413  1
  Ho  Ho7  1  0.614888  0.750000  0.312560  1
  Ho  Ho8  1  0.674820  0.537146  0.563068  1
  Ho  Ho9  1  0.324453  0.461235  0.436917  1
  Ho  Ho10  1  0.176400  0.456456  0.935426  1
  Ho  Ho11  1  0.324453  0.038765  0.436917  1
  Ho  Ho12  1  0.824401  0.536996  0.063719  1
  Ho  Ho13  1  0.674820  0.962854  0.563068  1
  Ho  Ho14  1  0.824401  0.963004  0.063719  1
  Ho  Ho15  1  0.176400  0.043544  0.935426  1
  Ho  Ho16  1  0.052903  0.750000  0.497983  1
  Ho  Ho17  1  0.946968  0.250000  0.502424  1
  Ho  Ho18  1  0.554521  0.250000  0.002735  1
  Ho  Ho19  1  0.445817  0.750000  0.996956  1
  Co  Co20  1  0.930793  0.250000  0.009011  1
  Co  Co21  1  0.565128  0.250000  0.507917  1
  Co  Co22  1  0.433575  0.750000  0.492379  1
  Bi  Bi23  1  0.571703  0.508953  0.826369  1
  Bi  Bi24  1  0.429327  0.490774  0.173358  1
  Bi  Bi25  1  0.071838  0.490320  0.672518  1
  Bi  Bi26  1  0.429327  0.009226  0.173358  1
  Bi  Bi27  1  0.927844  0.509066  0.327271  1
  Bi  Bi28  1  0.571703  0.991047  0.826369  1
  Bi  Bi29  1  0.927844  0.990934  0.327271  1
  Bi  Bi30  1  0.071838  0.009680  0.672518  1
  Ru  Ru31  1  0.071346  0.750000  0.989835  1
