# generated using pymatgen
data_Pa2Si2IrRh
_symmetry_space_group_name_H-M   'P 1'
_cell_length_a   4.23556300
_cell_length_b   6.85905600
_cell_length_c   7.42074000
_cell_angle_alpha   90.00000000
_cell_angle_beta   90.00000000
_cell_angle_gamma   90.00000000
_symmetry_Int_Tables_number   1
_chemical_formula_structural   Pa2Si2IrRh
_chemical_formula_sum   'Pa4 Si4 Ir2 Rh2'
_cell_volume   215.58706991
_cell_formula_units_Z   2
loop_
 _symmetry_equiv_pos_site_id
 _symmetry_equiv_pos_as_xyz
  1  'x, y, z'
loop_
 _atom_site_type_symbol
 _atom_site_label
 _atom_site_symmetry_multiplicity
 _atom_site_fract_x
 _atom_site_fract_y
 _atom_site_fract_z
 _atom_site_occupancy
  Pa  Pa0  1  0.750000  0.507182  0.798424  1
  Pa  Pa1  1  0.250000  0.994910  0.300965  1
  Pa  Pa2  1  0.750000  0.007182  0.701576  1
  Pa  Pa3  1  0.250000  0.494910  0.199035  1
  Si  Si4  1  0.250000  0.811097  0.913589  1
  Si  Si5  1  0.250000  0.311097  0.586411  1
  Si  Si6  1  0.750000  0.189607  0.085895  1
  Si  Si7  1  0.750000  0.689607  0.414105  1
  Ir  Ir8  1  0.750000  0.786114  0.086334  1
  Ir  Ir9  1  0.750000  0.286114  0.413666  1
  Rh  Rh10  1  0.250000  0.711090  0.586592  1
  Rh  Rh11  1  0.250000  0.211090  0.913408  1
