# generated using pymatgen
data_Tm7Lu3(SiSn3)2
_symmetry_space_group_name_H-M   'P 1'
_cell_length_a   9.07546400
_cell_length_b   9.07546418
_cell_length_c   6.34951000
_cell_angle_alpha   90.00000000
_cell_angle_beta   90.00000000
_cell_angle_gamma   120.00000665
_symmetry_Int_Tables_number   1
_chemical_formula_structural   Tm7Lu3(SiSn3)2
_chemical_formula_sum   'Tm7 Lu3 Si2 Sn6'
_cell_volume   452.90644332
_cell_formula_units_Z   1
loop_
 _symmetry_equiv_pos_site_id
 _symmetry_equiv_pos_as_xyz
  1  'x, y, z'
loop_
 _atom_site_type_symbol
 _atom_site_label
 _atom_site_symmetry_multiplicity
 _atom_site_fract_x
 _atom_site_fract_y
 _atom_site_fract_z
 _atom_site_occupancy
  Tm  Tm0  1  0.666667  0.333333  0.000000  1
  Tm  Tm1  1  0.746489  0.746567  0.750259  1
  Tm  Tm2  1  0.253433  0.999922  0.750259  1
  Tm  Tm3  1  0.000078  0.253511  0.750259  1
  Tm  Tm4  1  0.253433  0.253511  0.249741  1
  Tm  Tm5  1  0.746489  0.999922  0.249741  1
  Tm  Tm6  1  0.000078  0.746567  0.249741  1
  Lu  Lu7  1  0.333333  0.666667  0.000000  1
  Lu  Lu8  1  0.333333  0.666667  0.500000  1
  Lu  Lu9  1  0.666667  0.333333  0.500000  1
  Si  Si10  1  0.000000  0.000000  0.000000  1
  Si  Si11  1  0.000000  0.000000  0.500000  1
  Sn  Sn12  1  0.392521  0.392744  0.749948  1
  Sn  Sn13  1  0.607256  0.999777  0.749948  1
  Sn  Sn14  1  0.000223  0.607479  0.749948  1
  Sn  Sn15  1  0.607256  0.607479  0.250052  1
  Sn  Sn16  1  0.392521  0.999777  0.250052  1
  Sn  Sn17  1  0.000223  0.392744  0.250052  1
