# generated using pymatgen
data_Eu4ZnSb3O14
_symmetry_space_group_name_H-M   'P 1'
_cell_length_a   7.56163475
_cell_length_b   7.56163450
_cell_length_c   7.44765350
_cell_angle_alpha   59.49242804
_cell_angle_beta   59.49242800
_cell_angle_gamma   60.00001088
_symmetry_Int_Tables_number   1
_chemical_formula_structural   Eu4ZnSb3O14
_chemical_formula_sum   'Eu4 Zn1 Sb3 O14'
_cell_volume   298.78654530
_cell_formula_units_Z   1
loop_
 _symmetry_equiv_pos_site_id
 _symmetry_equiv_pos_as_xyz
  1  'x, y, z'
loop_
 _atom_site_type_symbol
 _atom_site_label
 _atom_site_symmetry_multiplicity
 _atom_site_fract_x
 _atom_site_fract_y
 _atom_site_fract_z
 _atom_site_occupancy
  Eu  Eu0  1  0.125000  0.625000  0.125000  1
  Eu  Eu1  1  0.125000  0.125000  0.625000  1
  Eu  Eu2  1  0.625000  0.125000  0.125000  1
  Eu  Eu3  1  0.125000  0.125000  0.125000  1
  Zn  Zn4  1  0.625000  0.625000  0.125000  1
  Sb  Sb5  1  0.625000  0.625000  0.625000  1
  Sb  Sb6  1  0.125000  0.625000  0.625000  1
  Sb  Sb7  1  0.625000  0.125000  0.625000  1
  O  O8  1  0.301302  0.709195  0.688200  1
  O  O9  1  0.539183  0.972726  0.948907  1
  O  O10  1  0.710817  0.710817  0.301093  1
  O  O11  1  0.301302  0.301302  0.688200  1
  O  O12  1  0.000575  0.000575  0.998276  1
  O  O13  1  0.277274  0.710817  0.301093  1
  O  O14  1  0.709195  0.301302  0.688200  1
  O  O15  1  0.972726  0.539183  0.948907  1
  O  O16  1  0.539183  0.539183  0.948907  1
  O  O17  1  0.948698  0.948698  0.561800  1
  O  O18  1  0.249425  0.249425  0.251724  1
  O  O19  1  0.540805  0.948698  0.561800  1
  O  O20  1  0.710817  0.277274  0.301093  1
  O  O21  1  0.948698  0.540805  0.561800  1
