# generated using pymatgen
data_NdCo4(Ni4B3)2
_symmetry_space_group_name_H-M   'P 1'
_cell_length_a   6.00931398
_cell_length_b   6.00571584
_cell_length_c   6.00931369
_cell_angle_alpha   104.44507312
_cell_angle_beta   104.31773535
_cell_angle_gamma   104.44507098
_symmetry_Int_Tables_number   1
_chemical_formula_structural   NdCo4(Ni4B3)2
_chemical_formula_sum   'Nd1 Co4 Ni8 B6'
_cell_volume   191.98426148
_cell_formula_units_Z   1
loop_
 _symmetry_equiv_pos_site_id
 _symmetry_equiv_pos_as_xyz
  1  'x, y, z'
loop_
 _atom_site_type_symbol
 _atom_site_label
 _atom_site_symmetry_multiplicity
 _atom_site_fract_x
 _atom_site_fract_y
 _atom_site_fract_z
 _atom_site_occupancy
  Nd  Nd0  1  0.999787  0.000000  0.000213  1
  Co  Co1  1  0.866347  0.500000  0.133653  1
  Co  Co2  1  0.499030  0.866776  0.134987  1
  Co  Co3  1  0.134377  0.500000  0.865623  1
  Co  Co4  1  0.865013  0.133224  0.500970  1
  Ni  Ni5  1  0.544354  0.811342  0.545067  1
  Ni  Ni6  1  0.545638  0.544804  0.813677  1
  Ni  Ni7  1  0.811573  0.547692  0.545455  1
  Ni  Ni8  1  0.454933  0.188658  0.455646  1
  Ni  Ni9  1  0.454545  0.452308  0.188427  1
  Ni  Ni10  1  0.186323  0.455196  0.454362  1
  Ni  Ni11  1  0.132849  0.868294  0.500592  1
  Ni  Ni12  1  0.499408  0.131706  0.867151  1
  B  B13  1  0.774047  0.337233  0.770649  1
  B  B14  1  0.765593  0.768704  0.324786  1
  B  B15  1  0.333506  0.765711  0.771887  1
  B  B16  1  0.229351  0.662767  0.225953  1
  B  B17  1  0.228113  0.234289  0.666494  1
  B  B18  1  0.675214  0.231296  0.234407  1
