# generated using pymatgen
data_Sc6Zn2Os3Ru
_symmetry_space_group_name_H-M   'P 1'
_cell_length_a   4.58899608
_cell_length_b   6.54179500
_cell_length_c   13.78315423
_cell_angle_alpha   90.00003000
_cell_angle_beta   89.97925299
_cell_angle_gamma   90.00015374
_symmetry_Int_Tables_number   1
_chemical_formula_structural   Sc6Zn2Os3Ru
_chemical_formula_sum   'Sc12 Zn4 Os6 Ru2'
_cell_volume   413.77400596
_cell_formula_units_Z   2
loop_
 _symmetry_equiv_pos_site_id
 _symmetry_equiv_pos_as_xyz
  1  'x, y, z'
loop_
 _atom_site_type_symbol
 _atom_site_label
 _atom_site_symmetry_multiplicity
 _atom_site_fract_x
 _atom_site_fract_y
 _atom_site_fract_z
 _atom_site_occupancy
  Sc  Sc0  1  0.499944  0.245090  0.004213  1
  Sc  Sc1  1  0.499943  0.754910  0.004211  1
  Sc  Sc2  1  0.999671  0.254849  0.162565  1
  Sc  Sc3  1  0.999670  0.745153  0.162563  1
  Sc  Sc4  1  0.499498  0.256418  0.328071  1
  Sc  Sc5  1  0.499497  0.743581  0.328071  1
  Sc  Sc6  1  0.999994  0.250164  0.499916  1
  Sc  Sc7  1  0.999997  0.749836  0.499917  1
  Sc  Sc8  1  0.500454  0.249713  0.666613  1
  Sc  Sc9  1  0.500452  0.750288  0.666615  1
  Sc  Sc10  1  0.000371  0.243455  0.838594  1
  Sc  Sc11  1  0.000370  0.756544  0.838593  1
  Zn  Zn12  1  0.999432  0.000000  0.329185  1
  Zn  Zn13  1  0.500024  0.500000  0.495943  1
  Zn  Zn14  1  0.000551  0.000002  0.670724  1
  Zn  Zn15  1  0.500471  0.500000  0.837479  1
  Os  Os16  1  0.999971  0.500002  0.997543  1
  Os  Os17  1  0.499663  0.999999  0.169079  1
  Os  Os18  1  0.999514  0.500001  0.336308  1
  Os  Os19  1  0.499973  0.999999  0.499386  1
  Os  Os20  1  0.000446  0.499997  0.667328  1
  Os  Os21  1  0.500364  0.000002  0.830376  1
  Ru  Ru22  1  0.999973  0.999999  0.000564  1
  Ru  Ru23  1  0.499755  0.500000  0.166140  1
