# generated using pymatgen
data_Ho2Al3Cu7
_symmetry_space_group_name_H-M   'P 1'
_cell_length_a   4.18670700
_cell_length_b   5.09821078
_cell_length_c   8.85212201
_cell_angle_alpha   90.66546673
_cell_angle_beta   90.00000000
_cell_angle_gamma   90.00000000
_symmetry_Int_Tables_number   1
_chemical_formula_structural   Ho2Al3Cu7
_chemical_formula_sum   'Ho2 Al3 Cu7'
_cell_volume   188.93327498
_cell_formula_units_Z   1
loop_
 _symmetry_equiv_pos_site_id
 _symmetry_equiv_pos_as_xyz
  1  'x, y, z'
loop_
 _atom_site_type_symbol
 _atom_site_label
 _atom_site_symmetry_multiplicity
 _atom_site_fract_x
 _atom_site_fract_y
 _atom_site_fract_z
 _atom_site_occupancy
  Ho  Ho0  1  0.000000  0.001040  0.999404  1
  Ho  Ho1  1  0.000000  0.498846  0.500406  1
  Al  Al2  1  0.500000  0.515135  0.995026  1
  Al  Al3  1  0.500000  0.985459  0.505126  1
  Al  Al4  1  0.500000  0.249290  0.249856  1
  Cu  Cu5  1  0.000000  0.998982  0.334905  1
  Cu  Cu6  1  0.000000  0.498890  0.833079  1
  Cu  Cu7  1  0.000000  0.499821  0.165023  1
  Cu  Cu8  1  0.000000  0.001918  0.666620  1
  Cu  Cu9  1  0.500000  0.750674  0.750056  1
  Cu  Cu10  1  0.500000  0.749079  0.250377  1
  Cu  Cu11  1  0.500000  0.250663  0.750122  1
