# generated using pymatgen
data_AcCr4AgO14
_symmetry_space_group_name_H-M   'P 1'
_cell_length_a   7.60786747
_cell_length_b   7.60786708
_cell_length_c   7.60786690
_cell_angle_alpha   108.93030032
_cell_angle_beta   108.93030264
_cell_angle_gamma   110.55856413
_symmetry_Int_Tables_number   1
_chemical_formula_structural   AcCr4AgO14
_chemical_formula_sum   'Ac1 Cr4 Ag1 O14'
_cell_volume   338.88260332
_cell_formula_units_Z   1
loop_
 _symmetry_equiv_pos_site_id
 _symmetry_equiv_pos_as_xyz
  1  'x, y, z'
loop_
 _atom_site_type_symbol
 _atom_site_label
 _atom_site_symmetry_multiplicity
 _atom_site_fract_x
 _atom_site_fract_y
 _atom_site_fract_z
 _atom_site_occupancy
  Ac  Ac0  1  0.010018  0.010018  0.000000  1
  Cr  Cr1  1  0.822280  0.367104  0.776853  1
  Cr  Cr2  1  0.045428  0.822280  0.455176  1
  Cr  Cr3  1  0.367104  0.590252  0.544824  1
  Cr  Cr4  1  0.590252  0.045428  0.223147  1
  Ag  Ag5  1  0.453610  0.453610  0.000000  1
  O  O6  1  0.225813  0.725813  0.500000  1
  O  O7  1  0.725813  0.225813  0.500000  1
  O  O8  1  0.954559  0.628287  0.863685  1
  O  O9  1  0.090873  0.954559  0.326272  1
  O  O10  1  0.628287  0.764601  0.673728  1
  O  O11  1  0.764601  0.090873  0.136315  1
  O  O12  1  0.484999  0.797841  0.176189  1
  O  O13  1  0.308810  0.484999  0.687159  1
  O  O14  1  0.797841  0.621651  0.312841  1
  O  O15  1  0.621651  0.308810  0.823811  1
  O  O16  1  0.399051  0.087660  0.101330  1
  O  O17  1  0.297721  0.399051  0.311392  1
  O  O18  1  0.087660  0.986329  0.688608  1
  O  O19  1  0.986329  0.297721  0.898670  1
