# generated using pymatgen
data_Nd5Dy11MgAg3Rh4
_symmetry_space_group_name_H-M   'P 1'
_cell_length_a   9.67557445
_cell_length_b   9.68095455
_cell_length_c   9.68095401
_cell_angle_alpha   59.99543790
_cell_angle_beta   59.98056774
_cell_angle_gamma   59.98056449
_symmetry_Int_Tables_number   1
_chemical_formula_structural   Nd5Dy11MgAg3Rh4
_chemical_formula_sum   'Nd5 Dy11 Mg1 Ag3 Rh4'
_cell_volume   640.99626531
_cell_formula_units_Z   1
loop_
 _symmetry_equiv_pos_site_id
 _symmetry_equiv_pos_as_xyz
  1  'x, y, z'
loop_
 _atom_site_type_symbol
 _atom_site_label
 _atom_site_symmetry_multiplicity
 _atom_site_fract_x
 _atom_site_fract_y
 _atom_site_fract_z
 _atom_site_occupancy
  Nd  Nd0  1  0.810126  0.189133  0.189133  1
  Nd  Nd1  1  0.813322  0.185753  0.811863  1
  Nd  Nd2  1  0.188880  0.810302  0.185222  1
  Nd  Nd3  1  0.813322  0.811863  0.185753  1
  Nd  Nd4  1  0.188880  0.185222  0.810302  1
  Dy  Dy5  1  0.599467  0.599079  0.599079  1
  Dy  Dy6  1  0.598481  0.599333  0.206536  1
  Dy  Dy7  1  0.598481  0.206536  0.599333  1
  Dy  Dy8  1  0.191501  0.603338  0.603338  1
  Dy  Dy9  1  0.061123  0.437246  0.437246  1
  Dy  Dy10  1  0.433024  0.065748  0.065748  1
  Dy  Dy11  1  0.433470  0.064055  0.436315  1
  Dy  Dy12  1  0.061361  0.437669  0.062477  1
  Dy  Dy13  1  0.433470  0.436315  0.064055  1
  Dy  Dy14  1  0.061361  0.062477  0.437669  1
  Dy  Dy15  1  0.186307  0.809653  0.809653  1
  Mg  Mg16  1  0.539510  0.820225  0.820225  1
  Ag  Ag17  1  0.835651  0.830809  0.830809  1
  Ag  Ag18  1  0.831032  0.832169  0.506084  1
  Ag  Ag19  1  0.831032  0.506084  0.832169  1
  Rh  Rh20  1  0.390047  0.393113  0.393113  1
  Rh  Rh21  1  0.388874  0.398493  0.822025  1
  Rh  Rh22  1  0.388874  0.822025  0.398493  1
  Rh  Rh23  1  0.822401  0.393360  0.393360  1
