# generated using pymatgen
data_Ta24Si7As
_symmetry_space_group_name_H-M   'P 1'
_cell_length_a   10.22343534
_cell_length_b   10.25103871
_cell_length_c   5.21908903
_cell_angle_alpha   90.00231695
_cell_angle_beta   90.00040153
_cell_angle_gamma   89.99905319
_symmetry_Int_Tables_number   1
_chemical_formula_structural   Ta24Si7As
_chemical_formula_sum   'Ta24 Si7 As1'
_cell_volume   546.96486931
_cell_formula_units_Z   1
loop_
 _symmetry_equiv_pos_site_id
 _symmetry_equiv_pos_as_xyz
  1  'x, y, z'
loop_
 _atom_site_type_symbol
 _atom_site_label
 _atom_site_symmetry_multiplicity
 _atom_site_fract_x
 _atom_site_fract_y
 _atom_site_fract_z
 _atom_site_occupancy
  Ta  Ta0  1  0.913989  0.599856  0.529864  1
  Ta  Ta1  1  0.085761  0.399419  0.530302  1
  Ta  Ta2  1  0.899765  0.414381  0.030517  1
  Ta  Ta3  1  0.100531  0.586181  0.030175  1
  Ta  Ta4  1  0.583666  0.897478  0.967256  1
  Ta  Ta5  1  0.414735  0.099954  0.968829  1
  Ta  Ta6  1  0.597666  0.087996  0.472763  1
  Ta  Ta7  1  0.400086  0.913541  0.469986  1
  Ta  Ta8  1  0.854615  0.982454  0.726299  1
  Ta  Ta9  1  0.145863  0.018701  0.726201  1
  Ta  Ta10  1  0.518715  0.354025  0.226411  1
  Ta  Ta11  1  0.480827  0.645486  0.226295  1
  Ta  Ta12  1  0.646166  0.518628  0.773589  1
  Ta  Ta13  1  0.353593  0.481197  0.774198  1
  Ta  Ta14  1  0.984715  0.148034  0.275112  1
  Ta  Ta15  1  0.021165  0.853128  0.272388  1
  Ta  Ta16  1  0.813363  0.711499  0.012362  1
  Ta  Ta17  1  0.187499  0.286553  0.013976  1
  Ta  Ta18  1  0.786542  0.313543  0.513805  1
  Ta  Ta19  1  0.213703  0.686759  0.513868  1
  Ta  Ta20  1  0.686669  0.784157  0.488062  1
  Ta  Ta21  1  0.312988  0.213548  0.486320  1
  Ta  Ta22  1  0.712980  0.189694  0.984684  1
  Ta  Ta23  1  0.286517  0.812994  0.985753  1
  Si  Si24  1  0.206005  0.029919  0.220664  1
  Si  Si25  1  0.529013  0.296023  0.721222  1
  Si  Si26  1  0.469334  0.703861  0.720016  1
  Si  Si27  1  0.704690  0.529740  0.279168  1
  Si  Si28  1  0.294830  0.469600  0.279883  1
  Si  Si29  1  0.970155  0.205387  0.779947  1
  Si  Si30  1  0.029743  0.794881  0.777683  1
  As  As31  1  0.794113  0.971384  0.222403  1
