# generated using pymatgen
data_SrCa2Lu(ReN3)4
_symmetry_space_group_name_H-M   'P 1'
_cell_length_a   7.39303005
_cell_length_b   7.39303004
_cell_length_c   6.24039345
_cell_angle_alpha   75.40836062
_cell_angle_beta   75.40835525
_cell_angle_gamma   85.15423920
_symmetry_Int_Tables_number   1
_chemical_formula_structural   SrCa2Lu(ReN3)4
_chemical_formula_sum   'Sr1 Ca2 Lu1 Re4 N12'
_cell_volume   319.35252370
_cell_formula_units_Z   1
loop_
 _symmetry_equiv_pos_site_id
 _symmetry_equiv_pos_as_xyz
  1  'x, y, z'
loop_
 _atom_site_type_symbol
 _atom_site_label
 _atom_site_symmetry_multiplicity
 _atom_site_fract_x
 _atom_site_fract_y
 _atom_site_fract_z
 _atom_site_occupancy
  Sr  Sr0  1  0.302273  0.697727  0.750000  1
  Ca  Ca1  1  0.084821  0.915179  0.250000  1
  Ca  Ca2  1  0.702996  0.297004  0.250000  1
  Lu  Lu3  1  0.906551  0.093449  0.750000  1
  Re  Re4  1  0.627277  0.799093  0.250921  1
  Re  Re5  1  0.200907  0.372723  0.249079  1
  Re  Re6  1  0.377714  0.201799  0.739776  1
  Re  Re7  1  0.798201  0.622286  0.760224  1
  N  N8  1  0.343575  0.340331  0.964435  1
  N  N9  1  0.003467  0.218818  0.363897  1
  N  N10  1  0.781182  0.996533  0.136103  1
  N  N11  1  0.206467  0.022148  0.835954  1
  N  N12  1  0.650336  0.639429  0.047240  1
  N  N13  1  0.886630  0.386771  0.811830  1
  N  N14  1  0.122954  0.606672  0.187714  1
  N  N15  1  0.977852  0.793533  0.664046  1
  N  N16  1  0.393328  0.877046  0.312286  1
  N  N17  1  0.659669  0.656425  0.535565  1
  N  N18  1  0.613229  0.113370  0.688170  1
  N  N19  1  0.360571  0.349664  0.452760  1
