# generated using pymatgen
data_Al5V12Zn(NiN2)2
_symmetry_space_group_name_H-M   'P 1'
_cell_length_a   6.56449350
_cell_length_b   6.56187350
_cell_length_c   6.56248206
_cell_angle_alpha   90.17333514
_cell_angle_beta   89.93909083
_cell_angle_gamma   89.93518986
_symmetry_Int_Tables_number   1
_chemical_formula_structural   Al5V12Zn(NiN2)2
_chemical_formula_sum   'Al5 V12 Zn1 Ni2 N4'
_cell_volume   282.67974681
_cell_formula_units_Z   1
loop_
 _symmetry_equiv_pos_site_id
 _symmetry_equiv_pos_as_xyz
  1  'x, y, z'
loop_
 _atom_site_type_symbol
 _atom_site_label
 _atom_site_symmetry_multiplicity
 _atom_site_fract_x
 _atom_site_fract_y
 _atom_site_fract_z
 _atom_site_occupancy
  Al  Al0  1  0.178875  0.817846  0.331558  1
  Al  Al1  1  0.321496  0.165120  0.812078  1
  Al  Al2  1  0.830269  0.328887  0.190698  1
  Al  Al3  1  0.679544  0.685597  0.663646  1
  Al  Al4  1  0.573367  0.427529  0.926524  1
  V  V5  1  0.788843  0.960355  0.377004  1
  V  V6  1  0.708386  0.039863  0.875746  1
  V  V7  1  0.210545  0.461558  0.122684  1
  V  V8  1  0.288915  0.538837  0.627342  1
  V  V9  1  0.959739  0.376619  0.787922  1
  V  V10  1  0.039710  0.876237  0.708062  1
  V  V11  1  0.462503  0.127225  0.212030  1
  V  V12  1  0.539930  0.622400  0.289185  1
  V  V13  1  0.377607  0.788082  0.959069  1
  V  V14  1  0.871636  0.708907  0.039488  1
  V  V15  1  0.122673  0.209729  0.461513  1
  V  V16  1  0.622892  0.290247  0.539933  1
  Zn  Zn17  1  0.072542  0.069087  0.073066  1
  Ni  Ni18  1  0.429262  0.925958  0.567558  1
  Ni  Ni19  1  0.931672  0.574977  0.430117  1
  N  N20  1  0.871670  0.126087  0.626108  1
  N  N21  1  0.624869  0.874051  0.129086  1
  N  N22  1  0.123272  0.629968  0.873668  1
  N  N23  1  0.369785  0.374830  0.375912  1
