# generated using pymatgen
data_PrDy3(Rh2O7)2
_symmetry_space_group_name_H-M   'P 1'
_cell_length_a   7.29557708
_cell_length_b   7.29557858
_cell_length_c   7.29557836
_cell_angle_alpha   59.72383670
_cell_angle_beta   59.72383551
_cell_angle_gamma   59.72383894
_symmetry_Int_Tables_number   1
_chemical_formula_structural   PrDy3(Rh2O7)2
_chemical_formula_sum   'Pr1 Dy3 Rh4 O14'
_cell_volume   272.85480447
_cell_formula_units_Z   1
loop_
 _symmetry_equiv_pos_site_id
 _symmetry_equiv_pos_as_xyz
  1  'x, y, z'
loop_
 _atom_site_type_symbol
 _atom_site_label
 _atom_site_symmetry_multiplicity
 _atom_site_fract_x
 _atom_site_fract_y
 _atom_site_fract_z
 _atom_site_occupancy
  Pr  Pr0  1  0.125000  0.125000  0.125000  1
  Dy  Dy1  1  0.125000  0.625000  0.125000  1
  Dy  Dy2  1  0.625000  0.125000  0.125000  1
  Dy  Dy3  1  0.125000  0.125000  0.625000  1
  Rh  Rh4  1  0.625000  0.625000  0.625000  1
  Rh  Rh5  1  0.625000  0.625000  0.125000  1
  Rh  Rh6  1  0.125000  0.625000  0.625000  1
  Rh  Rh7  1  0.625000  0.125000  0.625000  1
  O  O8  1  0.254249  0.254249  0.254249  1
  O  O9  1  0.290323  0.702718  0.290323  1
  O  O10  1  0.959677  0.959677  0.547282  1
  O  O11  1  0.539286  0.960396  0.539286  1
  O  O12  1  0.710714  0.710714  0.289604  1
  O  O13  1  0.960396  0.539286  0.539286  1
  O  O14  1  0.710714  0.289604  0.710714  1
  O  O15  1  0.290323  0.290323  0.702718  1
  O  O16  1  0.702718  0.290323  0.290323  1
  O  O17  1  0.289604  0.710714  0.710714  1
  O  O18  1  0.959677  0.547282  0.959677  1
  O  O19  1  0.539286  0.539286  0.960396  1
  O  O20  1  0.995751  0.995751  0.995751  1
  O  O21  1  0.547282  0.959677  0.959677  1
