# generated using pymatgen
data_YbErB4Ru5
_symmetry_space_group_name_H-M   'P 1'
_cell_length_a   3.03013000
_cell_length_b   8.70231556
_cell_length_c   10.21382303
_cell_angle_alpha   89.71051317
_cell_angle_beta   90.00000000
_cell_angle_gamma   90.00000000
_symmetry_Int_Tables_number   1
_chemical_formula_structural   YbErB4Ru5
_chemical_formula_sum   'Yb2 Er2 B8 Ru10'
_cell_volume   269.32636780
_cell_formula_units_Z   2
loop_
 _symmetry_equiv_pos_site_id
 _symmetry_equiv_pos_as_xyz
  1  'x, y, z'
loop_
 _atom_site_type_symbol
 _atom_site_label
 _atom_site_symmetry_multiplicity
 _atom_site_fract_x
 _atom_site_fract_y
 _atom_site_fract_z
 _atom_site_occupancy
  Yb  Yb0  1  0.500000  0.842045  0.180823  1
  Yb  Yb1  1  0.500000  0.157955  0.819177  1
  Er  Er2  1  0.500000  0.658789  0.683582  1
  Er  Er3  1  0.500000  0.341211  0.316418  1
  B  B4  1  0.500000  0.966160  0.589296  1
  B  B5  1  0.500000  0.033840  0.410704  1
  B  B6  1  0.500000  0.854837  0.901188  1
  B  B7  1  0.500000  0.145163  0.098812  1
  B  B8  1  0.500000  0.648226  0.398399  1
  B  B9  1  0.500000  0.351774  0.601601  1
  B  B10  1  0.500000  0.464887  0.911496  1
  B  B11  1  0.500000  0.535113  0.088504  1
  Ru  Ru12  1  0.000000  0.656651  0.953669  1
  Ru  Ru13  1  0.000000  0.343349  0.046331  1
  Ru  Ru14  1  0.000000  0.842613  0.454662  1
  Ru  Ru15  1  0.000000  0.157387  0.545338  1
  Ru  Ru16  1  0.000000  0.000000  0.000000  1
  Ru  Ru17  1  0.000000  0.404552  0.760953  1
  Ru  Ru18  1  0.000000  0.595448  0.239047  1
  Ru  Ru19  1  0.000000  0.500000  0.500000  1
  Ru  Ru20  1  0.000000  0.906551  0.739951  1
  Ru  Ru21  1  0.000000  0.093449  0.260049  1
