# generated using pymatgen
data_TbTm5ScCo17P12
_symmetry_space_group_name_H-M   'P 1'
_cell_length_a   3.68911100
_cell_length_b   10.54519800
_cell_length_c   12.21614400
_cell_angle_alpha   90.00000000
_cell_angle_beta   90.00000000
_cell_angle_gamma   90.00000000
_symmetry_Int_Tables_number   1
_chemical_formula_structural   TbTm5ScCo17P12
_chemical_formula_sum   'Tb1 Tm5 Sc1 Co17 P12'
_cell_volume   475.23739290
_cell_formula_units_Z   1
loop_
 _symmetry_equiv_pos_site_id
 _symmetry_equiv_pos_as_xyz
  1  'x, y, z'
loop_
 _atom_site_type_symbol
 _atom_site_label
 _atom_site_symmetry_multiplicity
 _atom_site_fract_x
 _atom_site_fract_y
 _atom_site_fract_z
 _atom_site_occupancy
  Tb  Tb0  1  0.500000  0.000000  0.477015  1
  Tm  Tm1  1  0.000000  0.500000  0.528053  1
  Tm  Tm2  1  0.500000  0.821692  0.207265  1
  Tm  Tm3  1  0.500000  0.178308  0.207265  1
  Tm  Tm4  1  0.000000  0.682139  0.795626  1
  Tm  Tm5  1  0.000000  0.317861  0.795626  1
  Sc  Sc6  1  0.500000  0.500000  0.153328  1
  Co  Co7  1  0.000000  0.000000  0.837131  1
  Co  Co8  1  0.500000  0.500000  0.703295  1
  Co  Co9  1  0.000000  0.000000  0.294917  1
  Co  Co10  1  0.000000  0.500000  0.984228  1
  Co  Co11  1  0.500000  0.000000  0.013557  1
  Co  Co12  1  0.500000  0.326737  0.989369  1
  Co  Co13  1  0.500000  0.673263  0.989369  1
  Co  Co14  1  0.000000  0.162354  0.001492  1
  Co  Co15  1  0.000000  0.837646  0.001492  1
  Co  Co16  1  0.500000  0.295536  0.434344  1
  Co  Co17  1  0.500000  0.704464  0.434344  1
  Co  Co18  1  0.000000  0.202853  0.570933  1
  Co  Co19  1  0.000000  0.797147  0.570933  1
  Co  Co20  1  0.500000  0.879492  0.708076  1
  Co  Co21  1  0.500000  0.120508  0.708076  1
  Co  Co22  1  0.000000  0.623056  0.296027  1
  Co  Co23  1  0.000000  0.376944  0.296027  1
  P  P24  1  0.500000  0.500000  0.882197  1
  P  P25  1  0.000000  0.000000  0.116601  1
  P  P26  1  0.500000  0.500000  0.359407  1
  P  P27  1  0.000000  0.000000  0.654880  1
  P  P28  1  0.500000  0.310583  0.618478  1
  P  P29  1  0.500000  0.689417  0.618478  1
  P  P30  1  0.000000  0.188942  0.385232  1
  P  P31  1  0.000000  0.811058  0.385232  1
  P  P32  1  0.500000  0.851169  0.888390  1
  P  P33  1  0.500000  0.148831  0.888390  1
  P  P34  1  0.000000  0.664018  0.102464  1
  P  P35  1  0.000000  0.335982  0.102464  1
