# generated using pymatgen
data_Ho8Tc(B8Ru)3
_symmetry_space_group_name_H-M   'P 1'
_cell_length_a   3.65669900
_cell_length_b   9.11831459
_cell_length_c   11.50167100
_cell_angle_alpha   89.90757047
_cell_angle_beta   90.00000000
_cell_angle_gamma   90.00000000
_symmetry_Int_Tables_number   1
_chemical_formula_structural   Ho8Tc(B8Ru)3
_chemical_formula_sum   'Ho8 Tc1 B24 Ru3'
_cell_volume   383.49893340
_cell_formula_units_Z   1
loop_
 _symmetry_equiv_pos_site_id
 _symmetry_equiv_pos_as_xyz
  1  'x, y, z'
loop_
 _atom_site_type_symbol
 _atom_site_label
 _atom_site_symmetry_multiplicity
 _atom_site_fract_x
 _atom_site_fract_y
 _atom_site_fract_z
 _atom_site_occupancy
  Ho  Ho0  1  0.000000  0.324060  0.413287  1
  Ho  Ho1  1  0.000000  0.677066  0.583451  1
  Ho  Ho2  1  0.000000  0.820322  0.088038  1
  Ho  Ho3  1  0.000000  0.177289  0.915048  1
  Ho  Ho4  1  0.000000  0.943314  0.372185  1
  Ho  Ho5  1  0.000000  0.057182  0.628419  1
  Ho  Ho6  1  0.000000  0.444136  0.128260  1
  Ho  Ho7  1  0.000000  0.556796  0.871266  1
  Tc  Tc8  1  0.000000  0.637737  0.321113  1
  B  B9  1  0.500000  0.553019  0.433235  1
  B  B10  1  0.500000  0.446230  0.567350  1
  B  B11  1  0.500000  0.053808  0.067033  1
  B  B12  1  0.500000  0.946039  0.933203  1
  B  B13  1  0.500000  0.748407  0.419510  1
  B  B14  1  0.500000  0.251931  0.580475  1
  B  B15  1  0.500000  0.248219  0.080272  1
  B  B16  1  0.500000  0.751650  0.919628  1
  B  B17  1  0.500000  0.791591  0.265830  1
  B  B18  1  0.500000  0.209048  0.734184  1
  B  B19  1  0.500000  0.290913  0.233463  1
  B  B20  1  0.500000  0.709433  0.765756  1
  B  B21  1  0.500000  0.631533  0.185437  1
  B  B22  1  0.500000  0.368129  0.814949  1
  B  B23  1  0.500000  0.131696  0.314395  1
  B  B24  1  0.500000  0.868730  0.685180  1
  B  B25  1  0.500000  0.983177  0.212502  1
  B  B26  1  0.500000  0.016821  0.787882  1
  B  B27  1  0.500000  0.482316  0.287468  1
  B  B28  1  0.500000  0.516612  0.712500  1
  B  B29  1  0.500000  0.606716  0.028934  1
  B  B30  1  0.500000  0.392798  0.970079  1
  B  B31  1  0.500000  0.107442  0.470637  1
  B  B32  1  0.500000  0.894008  0.529947  1
  Ru  Ru33  1  0.000000  0.361853  0.679510  1
  Ru  Ru34  1  0.000000  0.137703  0.178468  1
  Ru  Ru35  1  0.000000  0.862278  0.821108  1
