# generated using pymatgen
data_Dy4TmLu(Al3Ru)8
_symmetry_space_group_name_H-M   'P 1'
_cell_length_a   8.77249507
_cell_length_b   8.76921785
_cell_length_c   9.59890700
_cell_angle_alpha   90.00089885
_cell_angle_beta   90.00081746
_cell_angle_gamma   120.02093035
_symmetry_Int_Tables_number   1
_chemical_formula_structural   Dy4TmLu(Al3Ru)8
_chemical_formula_sum   'Dy4 Tm1 Lu1 Al24 Ru8'
_cell_volume   639.35898558
_cell_formula_units_Z   1
loop_
 _symmetry_equiv_pos_site_id
 _symmetry_equiv_pos_as_xyz
  1  'x, y, z'
loop_
 _atom_site_type_symbol
 _atom_site_label
 _atom_site_symmetry_multiplicity
 _atom_site_fract_x
 _atom_site_fract_y
 _atom_site_fract_z
 _atom_site_occupancy
  Dy  Dy0  1  0.193517  0.806360  0.250009  1
  Dy  Dy1  1  0.386441  0.193249  0.750005  1
  Dy  Dy2  1  0.613148  0.806404  0.249993  1
  Dy  Dy3  1  0.806740  0.613449  0.749987  1
  Tm  Tm4  1  0.194261  0.388308  0.250010  1
  Lu  Lu5  1  0.805109  0.195018  0.749989  1
  Al  Al6  1  0.666918  0.333116  0.980634  1
  Al  Al7  1  0.333158  0.666163  0.018948  1
  Al  Al8  1  0.333173  0.666176  0.481051  1
  Al  Al9  1  0.666903  0.333104  0.519370  1
  Al  Al10  1  0.837456  0.162953  0.423366  1
  Al  Al11  1  0.162928  0.837136  0.577618  1
  Al  Al12  1  0.325671  0.163041  0.422627  1
  Al  Al13  1  0.162939  0.837149  0.922382  1
  Al  Al14  1  0.674646  0.837755  0.577696  1
  Al  Al15  1  0.837453  0.162953  0.076632  1
  Al  Al16  1  0.837081  0.674128  0.422651  1
  Al  Al17  1  0.674657  0.837752  0.922308  1
  Al  Al18  1  0.162318  0.325409  0.577278  1
  Al  Al19  1  0.325662  0.163033  0.077367  1
  Al  Al20  1  0.162318  0.325412  0.922722  1
  Al  Al21  1  0.837066  0.674127  0.077346  1
  Al  Al22  1  0.438059  0.561924  0.749996  1
  Al  Al23  1  0.561296  0.437870  0.250005  1
  Al  Al24  1  0.122791  0.560700  0.750003  1
  Al  Al25  1  0.876737  0.437796  0.249998  1
  Al  Al26  1  0.439267  0.877191  0.749992  1
  Al  Al27  1  0.562119  0.123969  0.250008  1
  Al  Al28  1  0.998762  0.000968  0.749995  1
  Al  Al29  1  0.000601  0.000599  0.250005  1
  Ru  Ru30  1  0.499681  0.499458  0.000161  1
  Ru  Ru31  1  0.999807  0.498781  0.999662  1
  Ru  Ru32  1  0.499701  0.499471  0.499844  1
  Ru  Ru33  1  0.500797  0.000175  0.999359  1
  Ru  Ru34  1  0.999807  0.498773  0.500338  1
  Ru  Ru35  1  0.500787  0.000180  0.500644  1
  Ru  Ru36  1  0.000112  0.999980  0.000088  1
  Ru  Ru37  1  0.000108  0.999974  0.499914  1
