# generated using pymatgen
data_Nd8HfPd19Pt5
_symmetry_space_group_name_H-M   'P 1'
_cell_length_a   8.51611800
_cell_length_b   8.51611800
_cell_length_c   8.52628000
_cell_angle_alpha   90.00000000
_cell_angle_beta   90.00000000
_cell_angle_gamma   90.00000000
_symmetry_Int_Tables_number   1
_chemical_formula_structural   Nd8HfPd19Pt5
_chemical_formula_sum   'Nd8 Hf1 Pd19 Pt5'
_cell_volume   618.36219692
_cell_formula_units_Z   1
loop_
 _symmetry_equiv_pos_site_id
 _symmetry_equiv_pos_as_xyz
  1  'x, y, z'
loop_
 _atom_site_type_symbol
 _atom_site_label
 _atom_site_symmetry_multiplicity
 _atom_site_fract_x
 _atom_site_fract_y
 _atom_site_fract_z
 _atom_site_occupancy
  Nd  Nd0  1  0.250288  0.250288  0.250877  1
  Nd  Nd1  1  0.748458  0.748458  0.748819  1
  Nd  Nd2  1  0.749712  0.749712  0.250877  1
  Nd  Nd3  1  0.748458  0.251542  0.748819  1
  Nd  Nd4  1  0.251542  0.251542  0.748819  1
  Nd  Nd5  1  0.250288  0.749712  0.250877  1
  Nd  Nd6  1  0.251542  0.748458  0.748819  1
  Nd  Nd7  1  0.749712  0.250288  0.250877  1
  Hf  Hf8  1  0.000000  0.000000  0.006059  1
  Pd  Pd9  1  0.267837  0.500000  0.000187  1
  Pd  Pd10  1  0.732163  0.500000  0.000187  1
  Pd  Pd11  1  0.000000  0.267949  0.500499  1
  Pd  Pd12  1  0.500000  0.267837  0.000187  1
  Pd  Pd13  1  0.000000  0.732051  0.500499  1
  Pd  Pd14  1  0.500000  0.732163  0.000187  1
  Pd  Pd15  1  0.500000  0.000000  0.266807  1
  Pd  Pd16  1  0.267949  0.000000  0.500499  1
  Pd  Pd17  1  0.500000  0.000000  0.731141  1
  Pd  Pd18  1  0.732051  0.000000  0.500499  1
  Pd  Pd19  1  0.000000  0.500000  0.266807  1
  Pd  Pd20  1  0.000000  0.500000  0.731141  1
  Pd  Pd21  1  0.255541  0.500000  0.499374  1
  Pd  Pd22  1  0.744459  0.500000  0.499374  1
  Pd  Pd23  1  0.500000  0.255541  0.499374  1
  Pd  Pd24  1  0.500000  0.744459  0.499374  1
  Pd  Pd25  1  0.500000  0.500000  0.255283  1
  Pd  Pd26  1  0.500000  0.500000  0.744362  1
  Pd  Pd27  1  0.000000  0.000000  0.689981  1
  Pt  Pt28  1  0.311386  0.000000  0.998352  1
  Pt  Pt29  1  0.688614  0.000000  0.998352  1
  Pt  Pt30  1  0.000000  0.311386  0.998352  1
  Pt  Pt31  1  0.000000  0.688614  0.998352  1
  Pt  Pt32  1  0.000000  0.000000  0.315984  1
