# generated using pymatgen
data_TbNd5Dy10(CdPt)4
_symmetry_space_group_name_H-M   'P 1'
_cell_length_a   9.78129616
_cell_length_b   9.78305263
_cell_length_c   9.78305190
_cell_angle_alpha   60.14923290
_cell_angle_beta   60.00593979
_cell_angle_gamma   60.00593867
_symmetry_Int_Tables_number   1
_chemical_formula_structural   TbNd5Dy10(CdPt)4
_chemical_formula_sum   'Tb1 Nd5 Dy10 Cd4 Pt4'
_cell_volume   662.76054150
_cell_formula_units_Z   1
loop_
 _symmetry_equiv_pos_site_id
 _symmetry_equiv_pos_as_xyz
  1  'x, y, z'
loop_
 _atom_site_type_symbol
 _atom_site_label
 _atom_site_symmetry_multiplicity
 _atom_site_fract_x
 _atom_site_fract_y
 _atom_site_fract_z
 _atom_site_occupancy
  Tb  Tb0  1  0.940362  0.559638  0.559638  1
  Nd  Nd1  1  0.561335  0.938665  0.938665  1
  Nd  Nd2  1  0.564601  0.936683  0.561537  1
  Nd  Nd3  1  0.937179  0.561537  0.936683  1
  Nd  Nd4  1  0.564601  0.561537  0.936683  1
  Nd  Nd5  1  0.937179  0.936683  0.561537  1
  Dy  Dy6  1  0.350080  0.350594  0.350594  1
  Dy  Dy7  1  0.350500  0.352259  0.946740  1
  Dy  Dy8  1  0.350500  0.946740  0.352259  1
  Dy  Dy9  1  0.948731  0.350594  0.350594  1
  Dy  Dy10  1  0.810699  0.189301  0.189301  1
  Dy  Dy11  1  0.188640  0.811360  0.811360  1
  Dy  Dy12  1  0.188254  0.811520  0.189855  1
  Dy  Dy13  1  0.810371  0.189855  0.811520  1
  Dy  Dy14  1  0.188254  0.189855  0.811520  1
  Dy  Dy15  1  0.810371  0.811520  0.189855  1
  Cd  Cd16  1  0.581877  0.579685  0.579685  1
  Cd  Cd17  1  0.579644  0.580347  0.260366  1
  Cd  Cd18  1  0.579644  0.260366  0.580347  1
  Cd  Cd19  1  0.258755  0.579685  0.579685  1
  Pt  Pt20  1  0.143732  0.142874  0.142874  1
  Pt  Pt21  1  0.142086  0.144255  0.571572  1
  Pt  Pt22  1  0.142086  0.571572  0.144255  1
  Pt  Pt23  1  0.570519  0.142874  0.142874  1
