# generated using pymatgen
data_Ca12LuV6Fe(GeO4)12
_symmetry_space_group_name_H-M   'P 1'
_cell_length_a   10.87182486
_cell_length_b   10.87182528
_cell_length_c   10.87182500
_cell_angle_alpha   109.48331317
_cell_angle_beta   109.48330837
_cell_angle_gamma   109.48331557
_symmetry_Int_Tables_number   1
_chemical_formula_structural   Ca12LuV6Fe(GeO4)12
_chemical_formula_sum   'Ca12 Lu1 V6 Fe1 Ge12 O48'
_cell_volume   988.76001308
_cell_formula_units_Z   1
loop_
 _symmetry_equiv_pos_site_id
 _symmetry_equiv_pos_as_xyz
  1  'x, y, z'
loop_
 _atom_site_type_symbol
 _atom_site_label
 _atom_site_symmetry_multiplicity
 _atom_site_fract_x
 _atom_site_fract_y
 _atom_site_fract_z
 _atom_site_occupancy
  Ca  Ca0  1  0.250152  0.875779  0.626008  1
  Ca  Ca1  1  0.755245  0.627209  0.880317  1
  Ca  Ca2  1  0.628017  0.880603  0.755718  1
  Ca  Ca3  1  0.875586  0.625936  0.250073  1
  Ca  Ca4  1  0.626029  0.249857  0.875331  1
  Ca  Ca5  1  0.880185  0.755811  0.627525  1
  Ca  Ca6  1  0.749848  0.124221  0.373992  1
  Ca  Ca7  1  0.244755  0.372791  0.119683  1
  Ca  Ca8  1  0.371983  0.119397  0.244282  1
  Ca  Ca9  1  0.124414  0.374064  0.749927  1
  Ca  Ca10  1  0.373971  0.750143  0.124669  1
  Ca  Ca11  1  0.119815  0.244189  0.372475  1
  Lu  Lu12  1  0.500000  0.500000  0.500000  1
  V  V13  1  0.500000  0.000000  0.500000  1
  V  V14  1  0.500000  0.500000  0.000000  1
  V  V15  1  0.000000  0.000000  0.500000  1
  V  V16  1  0.000000  0.500000  0.000000  1
  V  V17  1  0.500000  0.000000  0.000000  1
  V  V18  1  0.000000  0.000000  0.000000  1
  Fe  Fe19  1  0.000000  0.500000  0.500000  1
  Ge  Ge20  1  0.124011  0.749726  0.875276  1
  Ge  Ge21  1  0.875989  0.250274  0.124724  1
  Ge  Ge22  1  0.625958  0.371392  0.244768  1
  Ge  Ge23  1  0.750236  0.875620  0.124168  1
  Ge  Ge24  1  0.875213  0.123876  0.749753  1
  Ge  Ge25  1  0.244415  0.625635  0.371211  1
  Ge  Ge26  1  0.755585  0.374365  0.628789  1
  Ge  Ge27  1  0.249764  0.124380  0.875832  1
  Ge  Ge28  1  0.124787  0.876124  0.250247  1
  Ge  Ge29  1  0.374042  0.628608  0.755232  1
  Ge  Ge30  1  0.629044  0.755516  0.374368  1
  Ge  Ge31  1  0.370956  0.244484  0.625632  1
  O  O32  1  0.414281  0.816648  0.797910  1
  O  O33  1  0.883342  0.398891  0.085058  1
  O  O34  1  0.103028  0.981797  0.687647  1
  O  O35  1  0.519236  0.626230  0.715124  1
  O  O36  1  0.687485  0.084912  0.704145  1
  O  O37  1  0.626034  0.714989  0.519086  1
  O  O38  1  0.621777  0.415999  0.099483  1
  O  O39  1  0.715047  0.519110  0.626262  1
  O  O40  1  0.813234  0.514417  0.396103  1
  O  O41  1  0.983202  0.798101  0.881687  1
  O  O42  1  0.798430  0.881980  0.983157  1
  O  O43  1  0.704414  0.687963  0.084724  1
  O  O44  1  0.415872  0.099803  0.622214  1
  O  O45  1  0.395954  0.813603  0.514245  1
  O  O46  1  0.083657  0.702460  0.686308  1
  O  O47  1  0.099462  0.621531  0.416157  1
  O  O48  1  0.514298  0.395927  0.813404  1
  O  O49  1  0.085007  0.883167  0.399017  1
  O  O50  1  0.982060  0.687719  0.102880  1
  O  O51  1  0.186766  0.485583  0.603897  1
  O  O52  1  0.687867  0.103014  0.982250  1
  O  O53  1  0.797979  0.414468  0.816711  1
  O  O54  1  0.398863  0.084968  0.883410  1
  O  O55  1  0.881271  0.982861  0.796440  1
  O  O56  1  0.585719  0.183352  0.202090  1
  O  O57  1  0.116658  0.601109  0.914942  1
  O  O58  1  0.896972  0.018203  0.312353  1
  O  O59  1  0.480764  0.373770  0.284876  1
  O  O60  1  0.312515  0.915088  0.295855  1
  O  O61  1  0.373966  0.285011  0.480914  1
  O  O62  1  0.378223  0.584001  0.900517  1
  O  O63  1  0.284953  0.480890  0.373738  1
  O  O64  1  0.118729  0.017139  0.203560  1
  O  O65  1  0.601137  0.915032  0.116590  1
  O  O66  1  0.202021  0.585532  0.183289  1
  O  O67  1  0.183191  0.202079  0.585573  1
  O  O68  1  0.312133  0.896986  0.017750  1
  O  O69  1  0.017940  0.312281  0.897120  1
  O  O70  1  0.914993  0.116833  0.600983  1
  O  O71  1  0.485702  0.604073  0.186596  1
  O  O72  1  0.900538  0.378469  0.583843  1
  O  O73  1  0.916343  0.297540  0.313692  1
  O  O74  1  0.604046  0.186397  0.485755  1
  O  O75  1  0.584128  0.900197  0.377786  1
  O  O76  1  0.295586  0.312037  0.915276  1
  O  O77  1  0.201570  0.118020  0.016843  1
  O  O78  1  0.016798  0.201899  0.118313  1
  O  O79  1  0.816809  0.797921  0.414427  1
