# generated using pymatgen
data_Y2Tm10Co5Bi
_symmetry_space_group_name_H-M   'P 1'
_cell_length_a   8.23169534
_cell_length_b   8.23169535
_cell_length_c   8.19729133
_cell_angle_alpha   111.06013374
_cell_angle_beta   110.71981376
_cell_angle_gamma   106.84805467
_symmetry_Int_Tables_number   1
_chemical_formula_structural   Y2Tm10Co5Bi
_chemical_formula_sum   'Y2 Tm10 Co5 Bi1'
_cell_volume   425.92751582
_cell_formula_units_Z   1
loop_
 _symmetry_equiv_pos_site_id
 _symmetry_equiv_pos_as_xyz
  1  'x, y, z'
loop_
 _atom_site_type_symbol
 _atom_site_label
 _atom_site_symmetry_multiplicity
 _atom_site_fract_x
 _atom_site_fract_y
 _atom_site_fract_z
 _atom_site_occupancy
  Y  Y0  1  0.285715  0.184667  0.470382  1
  Y  Y1  1  0.714285  0.815333  0.529618  1
  Tm  Tm2  1  0.287156  0.816273  0.103428  1
  Tm  Tm3  1  0.712844  0.183727  0.896572  1
  Tm  Tm4  1  0.621336  0.310331  0.308729  1
  Tm  Tm5  1  0.378664  0.689669  0.691271  1
  Tm  Tm6  1  0.001602  0.312608  0.691271  1
  Tm  Tm7  1  0.998398  0.687392  0.308729  1
  Tm  Tm8  1  0.207819  0.403990  0.193232  1
  Tm  Tm9  1  0.792181  0.596010  0.806768  1
  Tm  Tm10  1  0.210759  0.014588  0.806768  1
  Tm  Tm11  1  0.789241  0.985412  0.193232  1
  Co  Co12  1  0.998864  0.374125  0.372990  1
  Co  Co13  1  0.001136  0.625875  0.627010  1
  Co  Co14  1  0.387966  0.887966  0.500000  1
  Co  Co15  1  0.612034  0.112034  0.500000  1
  Co  Co16  1  0.000000  0.000000  0.000000  1
  Bi  Bi17  1  0.500000  0.500000  0.000000  1
