# generated using pymatgen
data_Cr3GaPt8
_symmetry_space_group_name_H-M   'P 1'
_cell_length_a   16.52932100
_cell_length_b   3.95482400
_cell_length_c   5.53639600
_cell_angle_alpha   90.00000000
_cell_angle_beta   90.00000000
_cell_angle_gamma   90.00000000
_symmetry_Int_Tables_number   1
_chemical_formula_structural   Cr3GaPt8
_chemical_formula_sum   'Cr6 Ga2 Pt16'
_cell_volume   361.91728140
_cell_formula_units_Z   2
loop_
 _symmetry_equiv_pos_site_id
 _symmetry_equiv_pos_as_xyz
  1  'x, y, z'
loop_
 _atom_site_type_symbol
 _atom_site_label
 _atom_site_symmetry_multiplicity
 _atom_site_fract_x
 _atom_site_fract_y
 _atom_site_fract_z
 _atom_site_occupancy
  Cr  Cr0  1  0.089043  0.000000  0.296243  1
  Cr  Cr1  1  0.410957  0.000000  0.296243  1
  Cr  Cr2  1  0.589043  0.000000  0.703756  1
  Cr  Cr3  1  0.910958  0.000000  0.703756  1
  Cr  Cr4  1  0.250000  0.000000  0.789200  1
  Cr  Cr5  1  0.750000  0.000000  0.210800  1
  Ga  Ga6  1  0.000000  0.500001  0.000000  1
  Ga  Ga7  1  0.500000  0.500001  0.000000  1
  Pt  Pt8  1  0.162303  0.500001  0.043002  1
  Pt  Pt9  1  0.337697  0.500001  0.043002  1
  Pt  Pt10  1  0.662303  0.500001  0.956997  1
  Pt  Pt11  1  0.837696  0.500001  0.956997  1
  Pt  Pt12  1  0.166745  0.500001  0.544789  1
  Pt  Pt13  1  0.333255  0.500001  0.544789  1
  Pt  Pt14  1  0.666745  0.500001  0.455210  1
  Pt  Pt15  1  0.833255  0.500001  0.455210  1
  Pt  Pt16  1  0.075070  0.000000  0.790692  1
  Pt  Pt17  1  0.424930  0.000000  0.790692  1
  Pt  Pt18  1  0.575070  0.000000  0.209309  1
  Pt  Pt19  1  0.924930  0.000000  0.209309  1
  Pt  Pt20  1  0.250000  0.000000  0.283232  1
  Pt  Pt21  1  0.750000  0.000000  0.716767  1
  Pt  Pt22  1  0.000000  0.500001  0.500000  1
  Pt  Pt23  1  0.500000  0.500001  0.500000  1
