# generated using pymatgen
data_Ho2MgBe2Rh5
_symmetry_space_group_name_H-M   'P 1'
_cell_length_a   9.61642300
_cell_length_b   9.61642300
_cell_length_c   3.30459000
_cell_angle_alpha   90.00000000
_cell_angle_beta   90.00000000
_cell_angle_gamma   90.00000000
_symmetry_Int_Tables_number   1
_chemical_formula_structural   Ho2MgBe2Rh5
_chemical_formula_sum   'Ho4 Mg2 Be4 Rh10'
_cell_volume   305.59391430
_cell_formula_units_Z   2
loop_
 _symmetry_equiv_pos_site_id
 _symmetry_equiv_pos_as_xyz
  1  'x, y, z'
loop_
 _atom_site_type_symbol
 _atom_site_label
 _atom_site_symmetry_multiplicity
 _atom_site_fract_x
 _atom_site_fract_y
 _atom_site_fract_z
 _atom_site_occupancy
  Ho  Ho0  1  0.676196  0.176196  0.000000  1
  Ho  Ho1  1  0.323804  0.823804  0.000000  1
  Ho  Ho2  1  0.176196  0.323804  0.000000  1
  Ho  Ho3  1  0.823804  0.676196  0.000000  1
  Mg  Mg4  1  0.000000  0.000000  0.000000  1
  Mg  Mg5  1  0.500000  0.500000  0.000000  1
  Be  Be6  1  0.121885  0.621885  0.000000  1
  Be  Be7  1  0.878115  0.378115  0.000000  1
  Be  Be8  1  0.621885  0.878115  0.000000  1
  Be  Be9  1  0.378115  0.121885  0.000000  1
  Rh  Rh10  1  0.500000  0.000000  0.500000  1
  Rh  Rh11  1  0.000000  0.500000  0.500000  1
  Rh  Rh12  1  0.216581  0.069004  0.500000  1
  Rh  Rh13  1  0.783419  0.930996  0.500000  1
  Rh  Rh14  1  0.069004  0.783419  0.500000  1
  Rh  Rh15  1  0.716581  0.430996  0.500000  1
  Rh  Rh16  1  0.930996  0.216581  0.500000  1
  Rh  Rh17  1  0.283419  0.569004  0.500000  1
  Rh  Rh18  1  0.569004  0.716581  0.500000  1
  Rh  Rh19  1  0.430996  0.283419  0.500000  1
