# generated using pymatgen
data_Y2Be23Au3
_symmetry_space_group_name_H-M   'P 1'
_cell_length_a   7.41193400
_cell_length_b   7.41183638
_cell_length_c   7.58379677
_cell_angle_alpha   119.25140408
_cell_angle_beta   90.00000695
_cell_angle_gamma   120.00013749
_symmetry_Int_Tables_number   1
_chemical_formula_structural   Y2Be23Au3
_chemical_formula_sum   'Y2 Be23 Au3'
_cell_volume   297.88636560
_cell_formula_units_Z   1
loop_
 _symmetry_equiv_pos_site_id
 _symmetry_equiv_pos_as_xyz
  1  'x, y, z'
loop_
 _atom_site_type_symbol
 _atom_site_label
 _atom_site_symmetry_multiplicity
 _atom_site_fract_x
 _atom_site_fract_y
 _atom_site_fract_z
 _atom_site_occupancy
  Y  Y0  1  0.758461  0.516939  0.275381  1
  Y  Y1  1  0.244865  0.489733  0.734571  1
  Be  Be2  1  0.997390  0.994798  0.992165  1
  Be  Be3  1  0.436193  0.013169  0.237023  1
  Be  Be4  1  0.223842  0.660064  0.237076  1
  Be  Be5  1  0.576999  0.800828  0.237044  1
  Be  Be6  1  0.291815  0.232726  0.306711  1
  Be  Be7  1  0.073955  0.365795  0.306684  1
  Be  Be8  1  0.940923  0.014882  0.306713  1
  Be  Be9  1  0.213802  0.001724  0.441410  1
  Be  Be10  1  0.439693  0.653498  0.441405  1
  Be  Be11  1  0.787909  0.227595  0.441388  1
  Be  Be12  1  0.501221  0.002419  0.503621  1
  Be  Be13  1  0.789816  0.003084  0.565774  1
  Be  Be14  1  0.562730  0.352498  0.565747  1
  Be  Be15  1  0.213244  0.775945  0.565758  1
  Be  Be16  1  0.933325  0.640157  0.696610  1
  Be  Be17  1  0.056451  0.989792  0.696607  1
  Be  Be18  1  0.706823  0.763236  0.696600  1
  Be  Be19  1  0.561265  0.990715  0.766109  1
  Be  Be20  1  0.429465  0.204823  0.766115  1
  Be  Be21  1  0.775371  0.336655  0.766139  1
  Be  Be22  1  0.305670  0.986570  0.928774  1
  Be  Be23  1  0.680878  0.623078  0.928795  1
  Be  Be24  1  0.942216  0.247938  0.928803  1
  Au  Au25  1  0.315633  0.362375  0.055649  1
  Au  Au26  1  0.693297  0.008919  0.055660  1
  Au  Au27  1  0.046742  0.740043  0.055664  1
