# generated using pymatgen
data_IrOs5W2
_symmetry_space_group_name_H-M   'P 1'
_cell_length_a   5.57764000
_cell_length_b   5.56979658
_cell_length_c   4.39620800
_cell_angle_alpha   90.00000000
_cell_angle_beta   90.00000000
_cell_angle_gamma   120.04659404
_symmetry_Int_Tables_number   1
_chemical_formula_structural   IrOs5W2
_chemical_formula_sum   'Ir1 Os5 W2'
_cell_volume   118.22098663
_cell_formula_units_Z   1
loop_
 _symmetry_equiv_pos_site_id
 _symmetry_equiv_pos_as_xyz
  1  'x, y, z'
loop_
 _atom_site_type_symbol
 _atom_site_label
 _atom_site_symmetry_multiplicity
 _atom_site_fract_x
 _atom_site_fract_y
 _atom_site_fract_z
 _atom_site_occupancy
  Ir  Ir0  1  0.165242  0.330485  0.250000  1
  Os  Os1  1  0.665534  0.836507  0.250000  1
  Os  Os2  1  0.170973  0.836507  0.250000  1
  Os  Os3  1  0.833551  0.667102  0.750000  1
  Os  Os4  1  0.333489  0.164632  0.750000  1
  Os  Os5  1  0.831143  0.164632  0.750000  1
  W  W6  1  0.334653  0.669308  0.750000  1
  W  W7  1  0.665414  0.330827  0.250000  1
