# generated using pymatgen
data_Yb7Y(TlCd)4
_symmetry_space_group_name_H-M   'P 1'
_cell_length_a   7.62796855
_cell_length_b   7.53176900
_cell_length_c   7.62897600
_cell_angle_alpha   90.00000000
_cell_angle_beta   89.81549269
_cell_angle_gamma   90.00000000
_symmetry_Int_Tables_number   1
_chemical_formula_structural   Yb7Y(TlCd)4
_chemical_formula_sum   'Yb7 Y1 Tl4 Cd4'
_cell_volume   438.29839707
_cell_formula_units_Z   1
loop_
 _symmetry_equiv_pos_site_id
 _symmetry_equiv_pos_as_xyz
  1  'x, y, z'
loop_
 _atom_site_type_symbol
 _atom_site_label
 _atom_site_symmetry_multiplicity
 _atom_site_fract_x
 _atom_site_fract_y
 _atom_site_fract_z
 _atom_site_occupancy
  Yb  Yb0  1  0.250191  0.000000  0.249964  1
  Yb  Yb1  1  0.250197  0.499997  0.249964  1
  Yb  Yb2  1  0.750197  0.000000  0.250038  1
  Yb  Yb3  1  0.750199  0.500004  0.250037  1
  Yb  Yb4  1  0.249804  0.000000  0.749965  1
  Yb  Yb5  1  0.249803  0.499997  0.749962  1
  Yb  Yb6  1  0.749802  0.000000  0.750037  1
  Y  Y7  1  0.749814  0.500004  0.750042  1
  Tl  Tl8  1  0.500129  0.250298  0.999875  1
  Tl  Tl9  1  0.500121  0.749703  0.999875  1
  Tl  Tl10  1  0.999874  0.250298  0.500121  1
  Tl  Tl11  1  0.999874  0.749703  0.500128  1
  Cd  Cd12  1  0.999923  0.250075  0.999923  1
  Cd  Cd13  1  0.999923  0.749926  0.999923  1
  Cd  Cd14  1  0.500069  0.749926  0.500073  1
  Cd  Cd15  1  0.500081  0.250075  0.500080  1
