# generated using pymatgen
data_NaAl3As2(HO3)4
_symmetry_space_group_name_H-M   'P 1'
_cell_length_a   10.53016500
_cell_length_b   7.36232822
_cell_length_c   11.52563942
_cell_angle_alpha   83.21545278
_cell_angle_beta   90.00000000
_cell_angle_gamma   90.00000000
_symmetry_Int_Tables_number   1
_chemical_formula_structural   NaAl3As2(HO3)4
_chemical_formula_sum   'Na4 Al12 As8 H16 O48'
_cell_volume   887.28572310
_cell_formula_units_Z   4
loop_
 _symmetry_equiv_pos_site_id
 _symmetry_equiv_pos_as_xyz
  1  'x, y, z'
loop_
 _atom_site_type_symbol
 _atom_site_label
 _atom_site_symmetry_multiplicity
 _atom_site_fract_x
 _atom_site_fract_y
 _atom_site_fract_z
 _atom_site_occupancy
  Na  Na0  1  0.575326  0.707152  0.569541  1
  Na  Na1  1  0.922626  0.203373  0.063878  1
  Na  Na2  1  0.422626  0.796627  0.936122  1
  Na  Na3  1  0.075326  0.292848  0.430459  1
  Al  Al4  1  0.574370  0.243073  0.515655  1
  Al  Al5  1  0.925513  0.743611  0.016074  1
  Al  Al6  1  0.425513  0.256389  0.983926  1
  Al  Al7  1  0.074370  0.756927  0.484345  1
  Al  Al8  1  0.716900  0.184752  0.293947  1
  Al  Al9  1  0.782916  0.681855  0.794990  1
  Al  Al10  1  0.282916  0.318145  0.205010  1
  Al  Al11  1  0.216900  0.815248  0.706053  1
  Al  Al12  1  0.757190  0.321426  0.711196  1
  Al  Al13  1  0.741924  0.824145  0.210344  1
  Al  Al14  1  0.241924  0.175855  0.789656  1
  Al  Al15  1  0.257190  0.678574  0.288804  1
  As  As16  1  0.811827  0.517721  0.428501  1
  As  As17  1  0.687203  0.011532  0.927042  1
  As  As18  1  0.187203  0.988468  0.072958  1
  As  As19  1  0.311827  0.482279  0.571499  1
  As  As20  1  0.831183  0.995000  0.562748  1
  As  As21  1  0.667909  0.496213  0.061066  1
  As  As22  1  0.167909  0.503787  0.938934  1
  As  As23  1  0.331183  0.005000  0.437252  1
  H  H24  1  0.546134  0.923761  0.294513  1
  H  H25  1  0.954020  0.421945  0.794666  1
  H  H26  1  0.454020  0.578055  0.205334  1
  H  H27  1  0.046134  0.076239  0.705487  1
  H  H28  1  0.901391  0.994193  0.322570  1
  H  H29  1  0.602912  0.487552  0.826977  1
  H  H30  1  0.102912  0.512448  0.173023  1
  H  H31  1  0.401391  0.005807  0.677430  1
  H  H32  1  0.515393  0.384637  0.319978  1
  H  H33  1  0.984416  0.883235  0.820223  1
  H  H34  1  0.484416  0.116765  0.179777  1
  H  H35  1  0.015393  0.615363  0.680022  1
  H  H36  1  0.537456  0.211256  0.725843  1
  H  H37  1  0.037456  0.788744  0.274157  1
  H  H38  1  0.892563  0.558632  0.212171  1
  H  H39  1  0.392563  0.441368  0.787829  1
  O  O40  1  0.717795  0.426109  0.544680  1
  O  O41  1  0.782836  0.924688  0.045770  1
  O  O42  1  0.282836  0.075312  0.954230  1
  O  O43  1  0.217795  0.573891  0.455320  1
  O  O44  1  0.960404  0.565951  0.474098  1
  O  O45  1  0.539420  0.066313  0.972402  1
  O  O46  1  0.039420  0.933687  0.027598  1
  O  O47  1  0.460404  0.434049  0.525902  1
  O  O48  1  0.709214  0.078372  0.469596  1
  O  O49  1  0.793518  0.571713  0.970385  1
  O  O50  1  0.293518  0.428287  0.029615  1
  O  O51  1  0.209214  0.921628  0.530404  1
  O  O52  1  0.729530  0.702991  0.365130  1
  O  O53  1  0.770199  0.197261  0.865249  1
  O  O54  1  0.270199  0.802739  0.134751  1
  O  O55  1  0.229530  0.297009  0.634870  1
  O  O56  1  0.778167  0.797393  0.638811  1
  O  O57  1  0.720734  0.299034  0.138038  1
  O  O58  1  0.220734  0.700966  0.861962  1
  O  O59  1  0.278167  0.202607  0.361189  1
  O  O60  1  0.609412  0.189756  0.675075  1
  O  O61  1  0.891036  0.687310  0.177365  1
  O  O62  1  0.391036  0.312690  0.822635  1
  O  O63  1  0.109412  0.810244  0.324925  1
  O  O64  1  0.843735  0.023225  0.255639  1
  O  O65  1  0.656253  0.519701  0.757172  1
  O  O66  1  0.156253  0.480299  0.242828  1
  O  O67  1  0.343735  0.976775  0.744361  1
  O  O68  1  0.843238  0.354724  0.336099  1
  O  O69  1  0.655708  0.837107  0.845586  1
  O  O70  1  0.155708  0.162893  0.154414  1
  O  O71  1  0.343238  0.645276  0.663901  1
  O  O72  1  0.887669  0.485109  0.745011  1
  O  O73  1  0.612043  0.987212  0.244474  1
  O  O74  1  0.112043  0.012788  0.755526  1
  O  O75  1  0.387669  0.514891  0.254989  1
  O  O76  1  0.875777  0.158777  0.648907  1
  O  O77  1  0.622436  0.659539  0.147531  1
  O  O78  1  0.122436  0.340461  0.852469  1
  O  O79  1  0.375777  0.841223  0.351093  1
  O  O80  1  0.582768  0.302489  0.355826  1
  O  O81  1  0.917079  0.801328  0.856364  1
  O  O82  1  0.417079  0.198672  0.143636  1
  O  O83  1  0.082768  0.697511  0.644174  1
  O  O84  1  0.958692  0.957893  0.475228  1
  O  O85  1  0.541165  0.457156  0.973149  1
  O  O86  1  0.041165  0.542844  0.026851  1
  O  O87  1  0.458692  0.042107  0.524772  1
