# generated using pymatgen
data_Yb5TlPd2
_symmetry_space_group_name_H-M   'P 1'
_cell_length_a   9.09375088
_cell_length_b   9.09374972
_cell_length_c   9.09375000
_cell_angle_alpha   128.91919890
_cell_angle_beta   128.91919300
_cell_angle_gamma   75.14061913
_symmetry_Int_Tables_number   1
_chemical_formula_structural   Yb5TlPd2
_chemical_formula_sum   'Yb10 Tl2 Pd4'
_cell_volume   443.19809610
_cell_formula_units_Z   2
loop_
 _symmetry_equiv_pos_site_id
 _symmetry_equiv_pos_as_xyz
  1  'x, y, z'
loop_
 _atom_site_type_symbol
 _atom_site_label
 _atom_site_symmetry_multiplicity
 _atom_site_fract_x
 _atom_site_fract_y
 _atom_site_fract_z
 _atom_site_occupancy
  Yb  Yb0  1  0.500000  0.500000  0.000000  1
  Yb  Yb1  1  0.000000  0.000000  0.000000  1
  Yb  Yb2  1  0.534362  0.034362  0.833387  1
  Yb  Yb3  1  0.200976  0.700976  0.166613  1
  Yb  Yb4  1  0.034362  0.200976  0.500000  1
  Yb  Yb5  1  0.700976  0.534362  0.500000  1
  Yb  Yb6  1  0.465638  0.965638  0.166613  1
  Yb  Yb7  1  0.799024  0.299024  0.833387  1
  Yb  Yb8  1  0.965638  0.799024  0.500000  1
  Yb  Yb9  1  0.299024  0.465638  0.500000  1
  Tl  Tl10  1  0.250000  0.250000  0.000000  1
  Tl  Tl11  1  0.750000  0.750000  0.000000  1
  Pd  Pd12  1  0.130053  0.630053  0.760108  1
  Pd  Pd13  1  0.869947  0.369947  0.239892  1
  Pd  Pd14  1  0.630053  0.869947  0.500000  1
  Pd  Pd15  1  0.369947  0.130053  0.500000  1
