# generated using pymatgen
data_LiTa4Ti3H16
_symmetry_space_group_name_H-M   'P 1'
_cell_length_a   6.33741599
_cell_length_b   6.30595862
_cell_length_c   6.33741669
_cell_angle_alpha   60.16406426
_cell_angle_beta   59.67188250
_cell_angle_gamma   60.16406998
_symmetry_Int_Tables_number   1
_chemical_formula_structural   LiTa4Ti3H16
_chemical_formula_sum   'Li1 Ta4 Ti3 H16'
_cell_volume   179.07681280
_cell_formula_units_Z   1
loop_
 _symmetry_equiv_pos_site_id
 _symmetry_equiv_pos_as_xyz
  1  'x, y, z'
loop_
 _atom_site_type_symbol
 _atom_site_label
 _atom_site_symmetry_multiplicity
 _atom_site_fract_x
 _atom_site_fract_y
 _atom_site_fract_z
 _atom_site_occupancy
  Li  Li0  1  0.000000  0.000000  0.000000  1
  Ta  Ta1  1  0.000000  0.000000  0.500000  1
  Ta  Ta2  1  0.000000  0.500000  0.500000  1
  Ta  Ta3  1  0.500000  0.500000  0.000000  1
  Ta  Ta4  1  0.500000  0.000000  0.000000  1
  Ti  Ti5  1  0.500000  0.500000  0.500000  1
  Ti  Ti6  1  0.500000  0.000000  0.500000  1
  Ti  Ti7  1  0.000000  0.500000  0.000000  1
  H  H8  1  0.874172  0.876521  0.372789  1
  H  H9  1  0.876521  0.372789  0.876521  1
  H  H10  1  0.372789  0.876521  0.874172  1
  H  H11  1  0.876521  0.874172  0.876521  1
  H  H12  1  0.125828  0.123479  0.627211  1
  H  H13  1  0.123479  0.627211  0.123479  1
  H  H14  1  0.627211  0.123479  0.125828  1
  H  H15  1  0.123479  0.125828  0.123479  1
  H  H16  1  0.628274  0.621416  0.128893  1
  H  H17  1  0.621416  0.128893  0.621416  1
  H  H18  1  0.128893  0.621416  0.628274  1
  H  H19  1  0.621416  0.628274  0.621416  1
  H  H20  1  0.371726  0.378584  0.871107  1
  H  H21  1  0.378584  0.871107  0.378584  1
  H  H22  1  0.871107  0.378584  0.371726  1
  H  H23  1  0.378584  0.371726  0.378584  1
