# generated using pymatgen
data_Y2Al9Co2Pd
_symmetry_space_group_name_H-M   'P 1'
_cell_length_a   7.49494520
_cell_length_b   7.49494491
_cell_length_c   9.40350800
_cell_angle_alpha   90.00000000
_cell_angle_beta   90.00000000
_cell_angle_gamma   119.45715293
_symmetry_Int_Tables_number   1
_chemical_formula_structural   Y2Al9Co2Pd
_chemical_formula_sum   'Y4 Al18 Co4 Pd2'
_cell_volume   459.94634245
_cell_formula_units_Z   2
loop_
 _symmetry_equiv_pos_site_id
 _symmetry_equiv_pos_as_xyz
  1  'x, y, z'
loop_
 _atom_site_type_symbol
 _atom_site_label
 _atom_site_symmetry_multiplicity
 _atom_site_fract_x
 _atom_site_fract_y
 _atom_site_fract_z
 _atom_site_occupancy
  Y  Y0  1  0.993335  0.670625  0.250222  1
  Y  Y1  1  0.006665  0.329375  0.750222  1
  Y  Y2  1  0.670625  0.993335  0.249778  1
  Y  Y3  1  0.329375  0.006665  0.749778  1
  Al  Al4  1  0.122736  0.122736  0.250000  1
  Al  Al5  1  0.877264  0.877264  0.750000  1
  Al  Al6  1  0.331469  0.325225  0.545099  1
  Al  Al7  1  0.668531  0.674775  0.045099  1
  Al  Al8  1  0.325225  0.331469  0.954901  1
  Al  Al9  1  0.674775  0.668531  0.454901  1
  Al  Al10  1  0.341218  0.550376  0.241864  1
  Al  Al11  1  0.658782  0.449624  0.741864  1
  Al  Al12  1  0.550376  0.341218  0.258136  1
  Al  Al13  1  0.449624  0.658782  0.758136  1
  Al  Al14  1  0.006327  0.334738  0.073010  1
  Al  Al15  1  0.993673  0.665262  0.573010  1
  Al  Al16  1  0.334738  0.006327  0.426990  1
  Al  Al17  1  0.665262  0.993673  0.926990  1
  Al  Al18  1  0.009959  0.673494  0.927001  1
  Al  Al19  1  0.990041  0.326506  0.427001  1
  Al  Al20  1  0.673494  0.009959  0.572999  1
  Al  Al21  1  0.326506  0.990041  0.072999  1
  Co  Co22  1  0.000043  0.999957  0.000000  1
  Co  Co23  1  0.999957  0.000043  0.500000  1
  Co  Co24  1  0.329238  0.670762  0.000000  1
  Co  Co25  1  0.670762  0.329238  0.500000  1
  Pd  Pd26  1  0.672088  0.327912  0.000000  1
  Pd  Pd27  1  0.327912  0.672088  0.500000  1
