# generated using pymatgen
data_Ta8Nb2Si6B
_symmetry_space_group_name_H-M   'P 1'
_cell_length_a   7.57381600
_cell_length_b   7.57381595
_cell_length_c   5.29068100
_cell_angle_alpha   90.00000000
_cell_angle_beta   90.00000000
_cell_angle_gamma   120.00000023
_symmetry_Int_Tables_number   1
_chemical_formula_structural   Ta8Nb2Si6B
_chemical_formula_sum   'Ta8 Nb2 Si6 B1'
_cell_volume   262.82804494
_cell_formula_units_Z   1
loop_
 _symmetry_equiv_pos_site_id
 _symmetry_equiv_pos_as_xyz
  1  'x, y, z'
loop_
 _atom_site_type_symbol
 _atom_site_label
 _atom_site_symmetry_multiplicity
 _atom_site_fract_x
 _atom_site_fract_y
 _atom_site_fract_z
 _atom_site_occupancy
  Ta  Ta0  1  0.000000  0.755096  0.250857  1
  Ta  Ta1  1  0.244904  0.244904  0.250857  1
  Ta  Ta2  1  0.755096  0.000000  0.250857  1
  Ta  Ta3  1  0.000000  0.244904  0.749143  1
  Ta  Ta4  1  0.755096  0.755096  0.749143  1
  Ta  Ta5  1  0.244904  0.000000  0.749143  1
  Ta  Ta6  1  0.333333  0.666667  0.500000  1
  Ta  Ta7  1  0.666667  0.333333  0.500000  1
  Nb  Nb8  1  0.666667  0.333333  0.000000  1
  Nb  Nb9  1  0.333333  0.666667  0.000000  1
  Si  Si10  1  0.000000  0.398113  0.243994  1
  Si  Si11  1  0.601887  0.601887  0.243994  1
  Si  Si12  1  0.398113  0.000000  0.243994  1
  Si  Si13  1  0.000000  0.601887  0.756006  1
  Si  Si14  1  0.398113  0.398113  0.756006  1
  Si  Si15  1  0.601887  0.000000  0.756006  1
  B  B16  1  0.000000  0.000000  0.500000  1
