# generated using pymatgen
data_Li8Tb7Ho(Sn3Bi)2
_symmetry_space_group_name_H-M   'P 1'
_cell_length_a   9.44466829
_cell_length_b   9.44526510
_cell_length_c   7.31819100
_cell_angle_alpha   90.00004966
_cell_angle_beta   90.10206975
_cell_angle_gamma   120.00211193
_symmetry_Int_Tables_number   1
_chemical_formula_structural   Li8Tb7Ho(Sn3Bi)2
_chemical_formula_sum   'Li8 Tb7 Ho1 Sn6 Bi2'
_cell_volume   565.35999069
_cell_formula_units_Z   1
loop_
 _symmetry_equiv_pos_site_id
 _symmetry_equiv_pos_as_xyz
  1  'x, y, z'
loop_
 _atom_site_type_symbol
 _atom_site_label
 _atom_site_symmetry_multiplicity
 _atom_site_fract_x
 _atom_site_fract_y
 _atom_site_fract_z
 _atom_site_occupancy
  Li  Li0  1  0.167705  0.333928  0.282616  1
  Li  Li1  1  0.167703  0.833776  0.282616  1
  Li  Li2  1  0.665220  0.832610  0.286099  1
  Li  Li3  1  0.829315  0.664765  0.787527  1
  Li  Li4  1  0.829314  0.164553  0.787530  1
  Li  Li5  1  0.337657  0.168828  0.791684  1
  Li  Li6  1  0.337912  0.668957  0.669436  1
  Li  Li7  1  0.665437  0.332717  0.173077  1
  Tb  Tb8  1  0.516616  0.026195  0.491026  1
  Tb  Tb9  1  0.516615  0.490422  0.491025  1
  Tb  Tb10  1  0.972449  0.486224  0.488939  1
  Tb  Tb11  1  0.493113  0.978583  0.997096  1
  Tb  Tb12  1  0.493109  0.514527  0.997095  1
  Tb  Tb13  1  0.017499  0.508750  0.999460  1
  Tb  Tb14  1  0.994943  0.997471  0.494749  1
  Ho  Ho15  1  0.995188  0.997592  0.005477  1
  Sn  Sn16  1  0.667471  0.833736  0.732992  1
  Sn  Sn17  1  0.834038  0.667194  0.231583  1
  Sn  Sn18  1  0.834041  0.166841  0.231590  1
  Sn  Sn19  1  0.332587  0.166293  0.231321  1
  Sn  Sn20  1  0.332433  0.666217  0.260157  1
  Sn  Sn21  1  0.667577  0.333790  0.760119  1
  Bi  Bi22  1  0.166032  0.333008  0.734380  1
  Bi  Bi23  1  0.166033  0.833023  0.734378  1
