# generated using pymatgen
data_Ca(PdAu2)2
_symmetry_space_group_name_H-M   'P 1'
_cell_length_a   5.66351340
_cell_length_b   5.66351426
_cell_length_c   5.66351449
_cell_angle_alpha   103.62677365
_cell_angle_beta   103.62677671
_cell_angle_gamma   121.92492423
_symmetry_Int_Tables_number   1
_chemical_formula_structural   Ca(PdAu2)2
_chemical_formula_sum   'Ca1 Pd2 Au4'
_cell_volume   134.80154382
_cell_formula_units_Z   1
loop_
 _symmetry_equiv_pos_site_id
 _symmetry_equiv_pos_as_xyz
  1  'x, y, z'
loop_
 _atom_site_type_symbol
 _atom_site_label
 _atom_site_symmetry_multiplicity
 _atom_site_fract_x
 _atom_site_fract_y
 _atom_site_fract_z
 _atom_site_occupancy
  Ca  Ca0  1  0.000000  0.000000  0.000000  1
  Pd  Pd1  1  0.250000  0.750000  0.500000  1
  Pd  Pd2  1  0.750000  0.250000  0.500000  1
  Au  Au3  1  0.298473  0.298473  0.596947  1
  Au  Au4  1  0.701527  0.701527  0.403053  1
  Au  Au5  1  0.701527  0.298473  0.000000  1
  Au  Au6  1  0.298473  0.701527  0.000000  1
