# generated using pymatgen
data_Eu2CrH9
_symmetry_space_group_name_H-M   'P 1'
_cell_length_a   8.41401800
_cell_length_b   8.41401648
_cell_length_c   4.83540100
_cell_angle_alpha   90.00000000
_cell_angle_beta   90.00000000
_cell_angle_gamma   120.00001385
_symmetry_Int_Tables_number   1
_chemical_formula_structural   Eu2CrH9
_chemical_formula_sum   'Eu6 Cr3 H27'
_cell_volume   296.46256511
_cell_formula_units_Z   3
loop_
 _symmetry_equiv_pos_site_id
 _symmetry_equiv_pos_as_xyz
  1  'x, y, z'
loop_
 _atom_site_type_symbol
 _atom_site_label
 _atom_site_symmetry_multiplicity
 _atom_site_fract_x
 _atom_site_fract_y
 _atom_site_fract_z
 _atom_site_occupancy
  Eu  Eu0  1  0.000000  0.264604  0.500000  1
  Eu  Eu1  1  0.735396  0.735396  0.500000  1
  Eu  Eu2  1  0.264604  0.000000  0.500000  1
  Eu  Eu3  1  0.000000  0.603882  0.000000  1
  Eu  Eu4  1  0.396118  0.396118  0.000000  1
  Eu  Eu5  1  0.603882  0.000000  0.000000  1
  Cr  Cr6  1  0.666667  0.333333  0.500000  1
  Cr  Cr7  1  0.333333  0.666667  0.500000  1
  Cr  Cr8  1  0.000000  0.000000  0.000000  1
  H  H9  1  0.796598  0.321453  0.753583  1
  H  H10  1  0.678547  0.475144  0.753583  1
  H  H11  1  0.524856  0.203402  0.753583  1
  H  H12  1  0.203402  0.524856  0.246417  1
  H  H13  1  0.524856  0.203402  0.246417  1
  H  H14  1  0.796598  0.321453  0.246417  1
  H  H15  1  0.678547  0.475144  0.246417  1
  H  H16  1  0.321453  0.796598  0.753583  1
  H  H17  1  0.475144  0.678547  0.753583  1
  H  H18  1  0.208754  0.000000  0.000000  1
  H  H19  1  0.791246  0.791246  0.000000  1
  H  H20  1  0.000000  0.208754  0.000000  1
  H  H21  1  0.850917  0.000000  0.245206  1
  H  H22  1  0.149083  0.149083  0.754794  1
  H  H23  1  0.000000  0.850917  0.754794  1
  H  H24  1  0.000000  0.850917  0.245206  1
  H  H25  1  0.149083  0.149083  0.245206  1
  H  H26  1  0.850917  0.000000  0.754794  1
  H  H27  1  0.134663  0.660133  0.500000  1
  H  H28  1  0.525470  0.865337  0.500000  1
  H  H29  1  0.339867  0.474530  0.500000  1
  H  H30  1  0.474530  0.339867  0.500000  1
  H  H31  1  0.865337  0.525470  0.500000  1
  H  H32  1  0.660133  0.134663  0.500000  1
  H  H33  1  0.203402  0.524856  0.753583  1
  H  H34  1  0.321453  0.796598  0.246417  1
  H  H35  1  0.475144  0.678547  0.246417  1
