# generated using pymatgen
data_Nd2Y2P7Ir8
_symmetry_space_group_name_H-M   'P 1'
_cell_length_a   3.95763600
_cell_length_b   12.80269053
_cell_length_c   13.18507409
_cell_angle_alpha   80.88262223
_cell_angle_beta   90.00000000
_cell_angle_gamma   90.00000000
_symmetry_Int_Tables_number   1
_chemical_formula_structural   Nd2Y2P7Ir8
_chemical_formula_sum   'Nd4 Y4 P14 Ir16'
_cell_volume   659.62597154
_cell_formula_units_Z   2
loop_
 _symmetry_equiv_pos_site_id
 _symmetry_equiv_pos_as_xyz
  1  'x, y, z'
loop_
 _atom_site_type_symbol
 _atom_site_label
 _atom_site_symmetry_multiplicity
 _atom_site_fract_x
 _atom_site_fract_y
 _atom_site_fract_z
 _atom_site_occupancy
  Nd  Nd0  1  0.250000  0.105179  0.787623  1
  Nd  Nd1  1  0.750000  0.894821  0.212377  1
  Nd  Nd2  1  0.250000  0.279532  0.101999  1
  Nd  Nd3  1  0.750000  0.720468  0.898001  1
  Y  Y4  1  0.250000  0.520405  0.294428  1
  Y  Y5  1  0.750000  0.479595  0.705572  1
  Y  Y6  1  0.250000  0.208443  0.439448  1
  Y  Y7  1  0.750000  0.791557  0.560552  1
  P  P8  1  0.250000  0.051276  0.100226  1
  P  P9  1  0.750000  0.948724  0.899774  1
  P  P10  1  0.250000  0.315618  0.687082  1
  P  P11  1  0.750000  0.684382  0.312918  1
  P  P12  1  0.250000  0.607782  0.565904  1
  P  P13  1  0.750000  0.392218  0.434096  1
  P  P14  1  0.250000  0.841975  0.716489  1
  P  P15  1  0.750000  0.158025  0.283511  1
  P  P16  1  0.750000  0.258278  0.917891  1
  P  P17  1  0.250000  0.741722  0.082109  1
  P  P18  1  0.750000  0.092528  0.588298  1
  P  P19  1  0.250000  0.907472  0.411702  1
  P  P20  1  0.750000  0.472627  0.129377  1
  P  P21  1  0.250000  0.527373  0.870623  1
  Ir  Ir22  1  0.250000  0.990246  0.575992  1
  Ir  Ir23  1  0.750000  0.009754  0.424008  1
  Ir  Ir24  1  0.250000  0.661137  0.728682  1
  Ir  Ir25  1  0.750000  0.338863  0.271318  1
  Ir  Ir26  1  0.250000  0.551140  0.048486  1
  Ir  Ir27  1  0.750000  0.448860  0.951514  1
  Ir  Ir28  1  0.250000  0.063394  0.273252  1
  Ir  Ir29  1  0.750000  0.936606  0.726748  1
  Ir  Ir30  1  0.250000  0.422341  0.523169  1
  Ir  Ir31  1  0.750000  0.577659  0.476831  1
  Ir  Ir32  1  0.250000  0.914444  0.997927  1
  Ir  Ir33  1  0.750000  0.085556  0.002073  1
  Ir  Ir34  1  0.250000  0.728695  0.396587  1
  Ir  Ir35  1  0.750000  0.271305  0.603413  1
  Ir  Ir36  1  0.250000  0.343513  0.856086  1
  Ir  Ir37  1  0.750000  0.656487  0.143914  1
