# generated using pymatgen
data_NdEu2(Co3P2)3
_symmetry_space_group_name_H-M   'P 1'
_cell_length_a   3.76877900
_cell_length_b   10.67389800
_cell_length_c   12.34845100
_cell_angle_alpha   90.00000000
_cell_angle_beta   90.00000000
_cell_angle_gamma   90.00000000
_symmetry_Int_Tables_number   1
_chemical_formula_structural   NdEu2(Co3P2)3
_chemical_formula_sum   'Nd2 Eu4 Co18 P12'
_cell_volume   496.74808599
_cell_formula_units_Z   2
loop_
 _symmetry_equiv_pos_site_id
 _symmetry_equiv_pos_as_xyz
  1  'x, y, z'
loop_
 _atom_site_type_symbol
 _atom_site_label
 _atom_site_symmetry_multiplicity
 _atom_site_fract_x
 _atom_site_fract_y
 _atom_site_fract_z
 _atom_site_occupancy
  Nd  Nd0  1  0.750000  0.250000  0.477050  1
  Nd  Nd1  1  0.250000  0.750000  0.522950  1
  Eu  Eu2  1  0.250000  0.930669  0.794569  1
  Eu  Eu3  1  0.250000  0.569331  0.794569  1
  Eu  Eu4  1  0.750000  0.069331  0.205431  1
  Eu  Eu5  1  0.750000  0.430669  0.205431  1
  Co  Co6  1  0.250000  0.250000  0.844449  1
  Co  Co7  1  0.750000  0.750000  0.155551  1
  Co  Co8  1  0.250000  0.250000  0.297133  1
  Co  Co9  1  0.750000  0.750000  0.702867  1
  Co  Co10  1  0.750000  0.250000  0.010203  1
  Co  Co11  1  0.250000  0.750000  0.989797  1
  Co  Co12  1  0.250000  0.416850  0.003874  1
  Co  Co13  1  0.250000  0.083150  0.003874  1
  Co  Co14  1  0.750000  0.583150  0.996126  1
  Co  Co15  1  0.750000  0.916850  0.996126  1
  Co  Co16  1  0.250000  0.453104  0.569276  1
  Co  Co17  1  0.250000  0.046896  0.569276  1
  Co  Co18  1  0.750000  0.546896  0.430724  1
  Co  Co19  1  0.750000  0.953104  0.430724  1
  Co  Co20  1  0.250000  0.868468  0.289270  1
  Co  Co21  1  0.250000  0.631532  0.289270  1
  Co  Co22  1  0.750000  0.131532  0.710730  1
  Co  Co23  1  0.750000  0.368468  0.710730  1
  P  P24  1  0.250000  0.250000  0.112976  1
  P  P25  1  0.750000  0.750000  0.887024  1
  P  P26  1  0.250000  0.250000  0.662380  1
  P  P27  1  0.750000  0.750000  0.337620  1
  P  P28  1  0.250000  0.445280  0.384361  1
  P  P29  1  0.250000  0.054720  0.384361  1
  P  P30  1  0.750000  0.554720  0.615639  1
  P  P31  1  0.750000  0.945280  0.615639  1
  P  P32  1  0.250000  0.903485  0.105009  1
  P  P33  1  0.250000  0.596515  0.105009  1
  P  P34  1  0.750000  0.096515  0.894991  1
  P  P35  1  0.750000  0.403485  0.894991  1
