# generated using pymatgen
data_La2Yb(ErGe2)2
_symmetry_space_group_name_H-M   'P 1'
_cell_length_a   7.57023800
_cell_length_b   7.94797800
_cell_length_c   14.98342700
_cell_angle_alpha   90.00000000
_cell_angle_beta   90.00000000
_cell_angle_gamma   90.00000000
_symmetry_Int_Tables_number   1
_chemical_formula_structural   La2Yb(ErGe2)2
_chemical_formula_sum   'La8 Yb4 Er8 Ge16'
_cell_volume   901.52411051
_cell_formula_units_Z   4
loop_
 _symmetry_equiv_pos_site_id
 _symmetry_equiv_pos_as_xyz
  1  'x, y, z'
loop_
 _atom_site_type_symbol
 _atom_site_label
 _atom_site_symmetry_multiplicity
 _atom_site_fract_x
 _atom_site_fract_y
 _atom_site_fract_z
 _atom_site_occupancy
  La  La0  1  0.979619  0.819746  0.401930  1
  La  La1  1  0.479619  0.680254  0.098070  1
  La  La2  1  0.520381  0.319746  0.598070  1
  La  La3  1  0.020381  0.180254  0.901930  1
  La  La4  1  0.020381  0.180254  0.598070  1
  La  La5  1  0.520381  0.319746  0.901930  1
  La  La6  1  0.479619  0.680254  0.401930  1
  La  La7  1  0.979619  0.819746  0.098070  1
  Yb  Yb8  1  0.342964  0.009646  0.750000  1
  Yb  Yb9  1  0.842964  0.490354  0.750000  1
  Yb  Yb10  1  0.157036  0.509646  0.250000  1
  Yb  Yb11  1  0.657036  0.990354  0.250000  1
  Er  Er12  1  0.322118  0.176400  0.122999  1
  Er  Er13  1  0.822118  0.323600  0.377001  1
  Er  Er14  1  0.177882  0.676400  0.877001  1
  Er  Er15  1  0.677882  0.823600  0.622999  1
  Er  Er16  1  0.322118  0.176400  0.377001  1
  Er  Er17  1  0.822118  0.323600  0.122999  1
  Er  Er18  1  0.177882  0.676400  0.622999  1
  Er  Er19  1  0.677882  0.823600  0.877001  1
  Ge  Ge20  1  0.842143  0.535114  0.537965  1
  Ge  Ge21  1  0.342143  0.964886  0.962035  1
  Ge  Ge22  1  0.657857  0.035114  0.462035  1
  Ge  Ge23  1  0.157857  0.464886  0.037965  1
  Ge  Ge24  1  0.157857  0.464886  0.462035  1
  Ge  Ge25  1  0.657857  0.035114  0.037965  1
  Ge  Ge26  1  0.342143  0.964886  0.537965  1
  Ge  Ge27  1  0.842143  0.535114  0.962035  1
  Ge  Ge28  1  0.974195  0.880111  0.750000  1
  Ge  Ge29  1  0.474195  0.619889  0.750000  1
  Ge  Ge30  1  0.525805  0.380111  0.250000  1
  Ge  Ge31  1  0.025805  0.119889  0.250000  1
  Ge  Ge32  1  0.224824  0.382926  0.750000  1
  Ge  Ge33  1  0.724824  0.117074  0.750000  1
  Ge  Ge34  1  0.275176  0.882926  0.250000  1
  Ge  Ge35  1  0.775176  0.617074  0.250000  1
