# generated using pymatgen
data_Th10Sn5SbC2
_symmetry_space_group_name_H-M   'P 1'
_cell_length_a   9.39305651
_cell_length_b   9.35437715
_cell_length_c   6.49050900
_cell_angle_alpha   90.00000000
_cell_angle_beta   90.00000000
_cell_angle_gamma   119.86387972
_symmetry_Int_Tables_number   1
_chemical_formula_structural   Th10Sn5SbC2
_chemical_formula_sum   'Th10 Sn5 Sb1 C2'
_cell_volume   494.56714407
_cell_formula_units_Z   1
loop_
 _symmetry_equiv_pos_site_id
 _symmetry_equiv_pos_as_xyz
  1  'x, y, z'
loop_
 _atom_site_type_symbol
 _atom_site_label
 _atom_site_symmetry_multiplicity
 _atom_site_fract_x
 _atom_site_fract_y
 _atom_site_fract_z
 _atom_site_occupancy
  Th  Th0  1  0.666866  0.333430  0.499201  1
  Th  Th1  1  0.333134  0.666565  0.499201  1
  Th  Th2  1  0.333134  0.666565  0.000799  1
  Th  Th3  1  0.666866  0.333430  0.000799  1
  Th  Th4  1  0.776652  0.777094  0.250000  1
  Th  Th5  1  0.223348  0.000442  0.250000  1
  Th  Th6  1  0.000000  0.222408  0.250000  1
  Th  Th7  1  0.223814  0.222968  0.750000  1
  Th  Th8  1  0.776186  0.999154  0.750000  1
  Th  Th9  1  0.000000  0.777269  0.750000  1
  Sn  Sn10  1  0.399753  0.399323  0.250000  1
  Sn  Sn11  1  0.600247  0.999570  0.250000  1
  Sn  Sn12  1  0.000000  0.600869  0.250000  1
  Sn  Sn13  1  0.600881  0.600456  0.750000  1
  Sn  Sn14  1  0.399119  0.999576  0.750000  1
  Sb  Sb15  1  0.000000  0.399077  0.750000  1
  C  C16  1  0.000000  0.000902  0.500440  1
  C  C17  1  0.000000  0.000902  0.999560  1
