# generated using pymatgen
data_Mg2Bi3Ir3O14
_symmetry_space_group_name_H-M   'P 1'
_cell_length_a   7.21328973
_cell_length_b   7.21328977
_cell_length_c   7.21329009
_cell_angle_alpha   60.84444571
_cell_angle_beta   60.84444778
_cell_angle_gamma   60.84444051
_symmetry_Int_Tables_number   1
_chemical_formula_structural   Mg2Bi3Ir3O14
_chemical_formula_sum   'Mg2 Bi3 Ir3 O14'
_cell_volume   270.44364915
_cell_formula_units_Z   1
loop_
 _symmetry_equiv_pos_site_id
 _symmetry_equiv_pos_as_xyz
  1  'x, y, z'
loop_
 _atom_site_type_symbol
 _atom_site_label
 _atom_site_symmetry_multiplicity
 _atom_site_fract_x
 _atom_site_fract_y
 _atom_site_fract_z
 _atom_site_occupancy
  Mg  Mg0  1  0.500000  0.500000  0.500000  1
  Mg  Mg1  1  0.000000  0.000000  0.000000  1
  Bi  Bi2  1  0.000000  0.500000  0.500000  1
  Bi  Bi3  1  0.500000  0.500000  0.000000  1
  Bi  Bi4  1  0.500000  0.000000  0.500000  1
  Ir  Ir5  1  0.500000  0.000000  0.000000  1
  Ir  Ir6  1  0.000000  0.000000  0.500000  1
  Ir  Ir7  1  0.000000  0.500000  0.000000  1
  O  O8  1  0.386828  0.386828  0.386828  1
  O  O9  1  0.613172  0.613172  0.613172  1
  O  O10  1  0.908323  0.327460  0.327460  1
  O  O11  1  0.350291  0.908567  0.908567  1
  O  O12  1  0.327460  0.327460  0.908323  1
  O  O13  1  0.908567  0.908567  0.350291  1
  O  O14  1  0.908567  0.350291  0.908567  1
  O  O15  1  0.327460  0.908323  0.327460  1
  O  O16  1  0.091677  0.672540  0.672540  1
  O  O17  1  0.649709  0.091433  0.091433  1
  O  O18  1  0.672540  0.672540  0.091677  1
  O  O19  1  0.091433  0.091433  0.649709  1
  O  O20  1  0.091433  0.649709  0.091433  1
  O  O21  1  0.672540  0.091677  0.672540  1
