# generated using pymatgen
data_Ce4Zn3Si5
_symmetry_space_group_name_H-M   'P 1'
_cell_length_a   4.16473500
_cell_length_b   4.16473585
_cell_length_c   16.70664500
_cell_angle_alpha   90.00000000
_cell_angle_beta   90.00000000
_cell_angle_gamma   120.00000121
_symmetry_Int_Tables_number   1
_chemical_formula_structural   Ce4Zn3Si5
_chemical_formula_sum   'Ce4 Zn3 Si5'
_cell_volume   250.95433639
_cell_formula_units_Z   1
loop_
 _symmetry_equiv_pos_site_id
 _symmetry_equiv_pos_as_xyz
  1  'x, y, z'
loop_
 _atom_site_type_symbol
 _atom_site_label
 _atom_site_symmetry_multiplicity
 _atom_site_fract_x
 _atom_site_fract_y
 _atom_site_fract_z
 _atom_site_occupancy
  Ce  Ce0  1  0.333333  0.666667  0.118644  1
  Ce  Ce1  1  0.333333  0.666667  0.626322  1
  Ce  Ce2  1  0.333333  0.666667  0.373678  1
  Ce  Ce3  1  0.333333  0.666667  0.881356  1
  Zn  Zn4  1  0.666667  0.333333  0.500000  1
  Zn  Zn5  1  0.000000  0.000000  0.248570  1
  Zn  Zn6  1  0.000000  0.000000  0.751430  1
  Si  Si7  1  0.666667  0.333333  0.250859  1
  Si  Si8  1  0.666667  0.333333  0.749141  1
  Si  Si9  1  0.000000  0.000000  0.000000  1
  Si  Si10  1  0.000000  0.000000  0.500000  1
  Si  Si11  1  0.666667  0.333333  0.000000  1
