# generated using pymatgen
data_Dy5Er5(Sn3P)2
_symmetry_space_group_name_H-M   'P 1'
_cell_length_a   9.04229139
_cell_length_b   9.03770688
_cell_length_c   6.64723001
_cell_angle_alpha   89.99548402
_cell_angle_beta   90.00225646
_cell_angle_gamma   119.98322430
_symmetry_Int_Tables_number   1
_chemical_formula_structural   Dy5Er5(Sn3P)2
_chemical_formula_sum   'Dy5 Er5 Sn6 P2'
_cell_volume   470.52367066
_cell_formula_units_Z   1
loop_
 _symmetry_equiv_pos_site_id
 _symmetry_equiv_pos_as_xyz
  1  'x, y, z'
loop_
 _atom_site_type_symbol
 _atom_site_label
 _atom_site_symmetry_multiplicity
 _atom_site_fract_x
 _atom_site_fract_y
 _atom_site_fract_z
 _atom_site_occupancy
  Dy  Dy0  1  0.757709  0.757608  0.749997  1
  Dy  Dy1  1  0.242291  0.999899  0.749997  1
  Dy  Dy2  1  0.000000  0.242225  0.750004  1
  Dy  Dy3  1  0.242345  0.242300  0.249992  1
  Dy  Dy4  1  0.757655  0.999955  0.249992  1
  Er  Er5  1  0.666734  0.333432  0.000011  1
  Er  Er6  1  0.333266  0.666699  0.000011  1
  Er  Er7  1  0.333212  0.666683  0.499989  1
  Er  Er8  1  0.666788  0.333470  0.499989  1
  Er  Er9  1  0.000000  0.758621  0.250012  1
  Sn  Sn10  1  0.399089  0.399029  0.750001  1
  Sn  Sn11  1  0.600911  0.999940  0.750001  1
  Sn  Sn12  1  0.000000  0.600918  0.750006  1
  Sn  Sn13  1  0.601506  0.601188  0.250002  1
  Sn  Sn14  1  0.398494  0.999682  0.250002  1
  Sn  Sn15  1  0.000000  0.399535  0.249992  1
  P  P16  1  0.000000  0.999411  0.000519  1
  P  P17  1  0.000000  0.999405  0.499484  1
