# generated using pymatgen
data_Ni8Mo11WN4
_symmetry_space_group_name_H-M   'P 1'
_cell_length_a   6.67522745
_cell_length_b   6.67546032
_cell_length_c   6.67540234
_cell_angle_alpha   90.01953971
_cell_angle_beta   90.03021038
_cell_angle_gamma   90.02976402
_symmetry_Int_Tables_number   1
_chemical_formula_structural   Ni8Mo11WN4
_chemical_formula_sum   'Ni8 Mo11 W1 N4'
_cell_volume   297.45727109
_cell_formula_units_Z   1
loop_
 _symmetry_equiv_pos_site_id
 _symmetry_equiv_pos_as_xyz
  1  'x, y, z'
loop_
 _atom_site_type_symbol
 _atom_site_label
 _atom_site_symmetry_multiplicity
 _atom_site_fract_x
 _atom_site_fract_y
 _atom_site_fract_z
 _atom_site_occupancy
  Ni  Ni0  1  0.066941  0.065749  0.066042  1
  Ni  Ni1  1  0.816708  0.316405  0.183293  1
  Ni  Ni2  1  0.183988  0.816287  0.315374  1
  Ni  Ni3  1  0.933262  0.566821  0.433589  1
  Ni  Ni4  1  0.432873  0.932884  0.567232  1
  Ni  Ni5  1  0.683160  0.684087  0.684303  1
  Ni  Ni6  1  0.317069  0.182763  0.817018  1
  Ni  Ni7  1  0.566109  0.434565  0.933641  1
  Mo  Mo8  1  0.875022  0.700426  0.049580  1
  Mo  Mo9  1  0.200873  0.450362  0.125522  1
  Mo  Mo10  1  0.451113  0.125581  0.201032  1
  Mo  Mo11  1  0.549131  0.624472  0.299651  1
  Mo  Mo12  1  0.798608  0.950730  0.374454  1
  Mo  Mo13  1  0.124893  0.200180  0.450585  1
  Mo  Mo14  1  0.625041  0.299414  0.549846  1
  Mo  Mo15  1  0.298877  0.548998  0.624302  1
  Mo  Mo16  1  0.048245  0.874540  0.699620  1
  Mo  Mo17  1  0.951393  0.375654  0.799225  1
  Mo  Mo18  1  0.701755  0.050360  0.875467  1
  W  W19  1  0.374991  0.799988  0.949976  1
  N  N20  1  0.623903  0.874408  0.124546  1
  N  N21  1  0.374961  0.374573  0.375348  1
  N  N22  1  0.874955  0.125238  0.624837  1
  N  N23  1  0.126129  0.625516  0.875517  1
