# generated using pymatgen
data_KSc(CO3)2
_symmetry_space_group_name_H-M   'P 1'
_cell_length_a   6.63459525
_cell_length_b   6.63459549
_cell_length_c   6.63459650
_cell_angle_alpha   45.10494448
_cell_angle_beta   45.10494136
_cell_angle_gamma   45.10494732
_symmetry_Int_Tables_number   1
_chemical_formula_structural   KSc(CO3)2
_chemical_formula_sum   'K1 Sc1 C2 O6'
_cell_volume   133.42130095
_cell_formula_units_Z   1
loop_
 _symmetry_equiv_pos_site_id
 _symmetry_equiv_pos_as_xyz
  1  'x, y, z'
loop_
 _atom_site_type_symbol
 _atom_site_label
 _atom_site_symmetry_multiplicity
 _atom_site_fract_x
 _atom_site_fract_y
 _atom_site_fract_z
 _atom_site_occupancy
  K  K0  1  0.500000  0.500000  0.500000  1
  Sc  Sc1  1  0.000000  0.000000  0.000000  1
  C  C2  1  0.265467  0.265467  0.265467  1
  C  C3  1  0.734533  0.734533  0.734533  1
  O  O4  1  0.548730  0.185573  0.058198  1
  O  O5  1  0.058197  0.548730  0.185573  1
  O  O6  1  0.814426  0.941803  0.451271  1
  O  O7  1  0.185574  0.058197  0.548729  1
  O  O8  1  0.941803  0.451270  0.814427  1
  O  O9  1  0.451270  0.814427  0.941802  1
