# generated using pymatgen
data_Ce2AsP(RhO)2
_symmetry_space_group_name_H-M   'P 1'
_cell_length_a   3.98999400
_cell_length_b   3.98999400
_cell_length_c   8.32730100
_cell_angle_alpha   90.00000000
_cell_angle_beta   90.00000000
_cell_angle_gamma   90.00000000
_symmetry_Int_Tables_number   1
_chemical_formula_structural   Ce2AsP(RhO)2
_chemical_formula_sum   'Ce2 As1 P1 Rh2 O2'
_cell_volume   132.57106594
_cell_formula_units_Z   1
loop_
 _symmetry_equiv_pos_site_id
 _symmetry_equiv_pos_as_xyz
  1  'x, y, z'
loop_
 _atom_site_type_symbol
 _atom_site_label
 _atom_site_symmetry_multiplicity
 _atom_site_fract_x
 _atom_site_fract_y
 _atom_site_fract_z
 _atom_site_occupancy
  Ce  Ce0  1  0.250001  0.250001  0.143459  1
  Ce  Ce1  1  0.750001  0.750001  0.847475  1
  As  As2  1  0.750001  0.750001  0.329436  1
  P  P3  1  0.250001  0.250001  0.659905  1
  Rh  Rh4  1  0.750001  0.250003  0.512577  1
  Rh  Rh5  1  0.250003  0.750001  0.512577  1
  O  O6  1  0.750001  0.250003  0.997284  1
  O  O7  1  0.250003  0.750001  0.997284  1
