# generated using pymatgen
data_TbDy3(B10Ir)2
_symmetry_space_group_name_H-M   'P 1'
_cell_length_a   4.17494300
_cell_length_b   5.68418500
_cell_length_c   11.34974001
_cell_angle_alpha   89.99556122
_cell_angle_beta   90.00000000
_cell_angle_gamma   90.00000000
_symmetry_Int_Tables_number   1
_chemical_formula_structural   TbDy3(B10Ir)2
_chemical_formula_sum   'Tb1 Dy3 B20 Ir2'
_cell_volume   269.34236357
_cell_formula_units_Z   1
loop_
 _symmetry_equiv_pos_site_id
 _symmetry_equiv_pos_as_xyz
  1  'x, y, z'
loop_
 _atom_site_type_symbol
 _atom_site_label
 _atom_site_symmetry_multiplicity
 _atom_site_fract_x
 _atom_site_fract_y
 _atom_site_fract_z
 _atom_site_occupancy
  Tb  Tb0  1  0.500000  0.204856  0.365689  1
  Dy  Dy1  1  0.500000  0.795126  0.634192  1
  Dy  Dy2  1  0.500000  0.295151  0.865839  1
  Dy  Dy3  1  0.500000  0.704799  0.134144  1
  B  B4  1  0.000000  0.381518  0.042478  1
  B  B5  1  0.000000  0.618552  0.957465  1
  B  B6  1  0.000000  0.118576  0.542615  1
  B  B7  1  0.000000  0.881563  0.457502  1
  B  B8  1  0.000000  0.363560  0.197179  1
  B  B9  1  0.000000  0.636447  0.802809  1
  B  B10  1  0.000000  0.136469  0.697270  1
  B  B11  1  0.000000  0.863544  0.302776  1
  B  B12  1  0.000000  0.055792  0.192994  1
  B  B13  1  0.000000  0.944117  0.806934  1
  B  B14  1  0.000000  0.444157  0.693162  1
  B  B15  1  0.000000  0.555835  0.306930  1
  B  B16  1  0.301615  0.220140  0.119153  1
  B  B17  1  0.698375  0.779832  0.880710  1
  B  B18  1  0.301625  0.779832  0.880710  1
  B  B19  1  0.698351  0.279855  0.619331  1
  B  B20  1  0.698385  0.220140  0.119153  1
  B  B21  1  0.301643  0.719902  0.380706  1
  B  B22  1  0.698357  0.719902  0.380706  1
  B  B23  1  0.301649  0.279855  0.619331  1
  Ir  Ir24  1  0.000000  0.999995  0.999942  1
  Ir  Ir25  1  0.000000  0.500485  0.500282  1
