# generated using pymatgen
data_Ho17Zr2SnIr12
_symmetry_space_group_name_H-M   'P 1'
_cell_length_a   10.81517200
_cell_length_b   10.81517200
_cell_length_c   6.25701400
_cell_angle_alpha   90.00000000
_cell_angle_beta   90.00000000
_cell_angle_gamma   90.00000000
_symmetry_Int_Tables_number   1
_chemical_formula_structural   Ho17Zr2SnIr12
_chemical_formula_sum   'Ho17 Zr2 Sn1 Ir12'
_cell_volume   731.87007185
_cell_formula_units_Z   1
loop_
 _symmetry_equiv_pos_site_id
 _symmetry_equiv_pos_as_xyz
  1  'x, y, z'
loop_
 _atom_site_type_symbol
 _atom_site_label
 _atom_site_symmetry_multiplicity
 _atom_site_fract_x
 _atom_site_fract_y
 _atom_site_fract_z
 _atom_site_occupancy
  Ho  Ho0  1  0.286306  0.085010  0.378220  1
  Ho  Ho1  1  0.292030  0.911567  0.879316  1
  Ho  Ho2  1  0.707970  0.088433  0.879316  1
  Ho  Ho3  1  0.713694  0.914990  0.378220  1
  Ho  Ho4  1  0.587965  0.789279  0.877728  1
  Ho  Ho5  1  0.587445  0.210009  0.374922  1
  Ho  Ho6  1  0.412555  0.789991  0.374922  1
  Ho  Ho7  1  0.412035  0.210721  0.877728  1
  Ho  Ho8  1  0.210009  0.412555  0.625078  1
  Ho  Ho9  1  0.210721  0.587965  0.122272  1
  Ho  Ho10  1  0.789279  0.412035  0.122272  1
  Ho  Ho11  1  0.789991  0.587445  0.625078  1
  Ho  Ho12  1  0.911567  0.707970  0.120684  1
  Ho  Ho13  1  0.914990  0.286306  0.621780  1
  Ho  Ho14  1  0.085010  0.713694  0.621780  1
  Ho  Ho15  1  0.088433  0.292030  0.120684  1
  Ho  Ho16  1  0.000000  0.000000  0.000000  1
  Zr  Zr17  1  0.500000  0.500000  0.000000  1
  Zr  Zr18  1  0.500000  0.500000  0.500000  1
  Sn  Sn19  1  0.000000  0.000000  0.500000  1
  Ir  Ir20  1  0.846315  0.155941  0.247395  1
  Ir  Ir21  1  0.844059  0.846315  0.752605  1
  Ir  Ir22  1  0.155941  0.153685  0.752605  1
  Ir  Ir23  1  0.153685  0.844059  0.247395  1
  Ir  Ir24  1  0.645010  0.356141  0.746807  1
  Ir  Ir25  1  0.643859  0.645010  0.253193  1
  Ir  Ir26  1  0.356141  0.354990  0.253193  1
  Ir  Ir27  1  0.354990  0.643859  0.746807  1
  Ir  Ir28  1  0.500000  0.000000  0.124651  1
  Ir  Ir29  1  0.500000  0.000000  0.620904  1
  Ir  Ir30  1  0.000000  0.500000  0.875349  1
  Ir  Ir31  1  0.000000  0.500000  0.379096  1
