# generated using pymatgen
data_MnSb2Br2O3
_symmetry_space_group_name_H-M   'P 1'
_cell_length_a   8.48715407
_cell_length_b   9.26784947
_cell_length_c   10.60732136
_cell_angle_alpha   67.09322842
_cell_angle_beta   82.81336011
_cell_angle_gamma   92.84099160
_symmetry_Int_Tables_number   1
_chemical_formula_structural   MnSb2Br2O3
_chemical_formula_sum   'Mn4 Sb8 Br8 O12'
_cell_volume   758.09231390
_cell_formula_units_Z   4
loop_
 _symmetry_equiv_pos_site_id
 _symmetry_equiv_pos_as_xyz
  1  'x, y, z'
loop_
 _atom_site_type_symbol
 _atom_site_label
 _atom_site_symmetry_multiplicity
 _atom_site_fract_x
 _atom_site_fract_y
 _atom_site_fract_z
 _atom_site_occupancy
  Mn  Mn0  1  0.510715  0.612371  0.098674  1
  Mn  Mn1  1  0.489167  0.887837  0.401124  1
  Mn  Mn2  1  0.511305  0.112525  0.598932  1
  Mn  Mn3  1  0.488336  0.386926  0.901174  1
  Sb  Sb4  1  0.685963  0.028440  0.935823  1
  Sb  Sb5  1  0.685848  0.528721  0.435618  1
  Sb  Sb6  1  0.314166  0.971276  0.064365  1
  Sb  Sb7  1  0.314152  0.471445  0.564218  1
  Sb  Sb8  1  0.694714  0.790668  0.735825  1
  Sb  Sb9  1  0.694721  0.290812  0.235828  1
  Sb  Sb10  1  0.305371  0.209212  0.264265  1
  Sb  Sb11  1  0.305350  0.709335  0.764150  1
  Br  Br12  1  0.785511  0.931201  0.278256  1
  Br  Br13  1  0.785389  0.431291  0.778215  1
  Br  Br14  1  0.214586  0.068900  0.721890  1
  Br  Br15  1  0.214392  0.568809  0.221811  1
  Br  Br16  1  0.847969  0.223182  0.470834  1
  Br  Br17  1  0.847941  0.723222  0.970700  1
  Br  Br18  1  0.152091  0.776918  0.529181  1
  Br  Br19  1  0.152175  0.276891  0.029206  1
  O  O20  1  0.486252  0.647200  0.434766  1
  O  O21  1  0.486264  0.146959  0.934847  1
  O  O22  1  0.513800  0.352943  0.565214  1
  O  O23  1  0.513705  0.852729  0.065153  1
  O  O24  1  0.365661  0.014487  0.229741  1
  O  O25  1  0.365453  0.514537  0.729669  1
  O  O26  1  0.634601  0.985507  0.770325  1
  O  O27  1  0.634425  0.485581  0.270178  1
  O  O28  1  0.507257  0.148508  0.379588  1
  O  O29  1  0.507245  0.648527  0.879339  1
  O  O30  1  0.492773  0.851623  0.620508  1
  O  O31  1  0.492697  0.351413  0.120581  1
