# generated using pymatgen
data_CeLu(Co3Si2)2
_symmetry_space_group_name_H-M   'P 1'
_cell_length_a   6.25238605
_cell_length_b   6.25238670
_cell_length_c   6.25238701
_cell_angle_alpha   130.28220374
_cell_angle_beta   113.30776890
_cell_angle_gamma   87.58009727
_symmetry_Int_Tables_number   1
_chemical_formula_structural   CeLu(Co3Si2)2
_chemical_formula_sum   'Ce1 Lu1 Co6 Si4'
_cell_volume   163.09176532
_cell_formula_units_Z   1
loop_
 _symmetry_equiv_pos_site_id
 _symmetry_equiv_pos_as_xyz
  1  'x, y, z'
loop_
 _atom_site_type_symbol
 _atom_site_label
 _atom_site_symmetry_multiplicity
 _atom_site_fract_x
 _atom_site_fract_y
 _atom_site_fract_z
 _atom_site_occupancy
  Ce  Ce0  1  0.750000  0.038217  0.288217  1
  Lu  Lu1  1  0.250000  0.957676  0.707676  1
  Co  Co2  1  0.506632  0.499727  0.506358  1
  Co  Co3  1  0.993368  0.499727  0.993096  1
  Co  Co4  1  0.278779  0.999634  0.279680  1
  Co  Co5  1  0.719953  0.999634  0.720855  1
  Co  Co6  1  0.221221  0.500902  0.720855  1
  Co  Co7  1  0.780047  0.500902  0.279680  1
  Si  Si8  1  0.087609  0.289323  0.201715  1
  Si  Si9  1  0.924774  0.724850  0.800075  1
  Si  Si10  1  0.412391  0.614106  0.201715  1
  Si  Si11  1  0.575226  0.375301  0.800075  1
