# generated using pymatgen
data_Li2Tb8Hf9Si16W
_symmetry_space_group_name_H-M   'P 1'
_cell_length_a   7.27165739
_cell_length_b   7.27165853
_cell_length_c   13.16921996
_cell_angle_alpha   90.04298529
_cell_angle_beta   90.04298315
_cell_angle_gamma   89.64433803
_symmetry_Int_Tables_number   1
_chemical_formula_structural   Li2Tb8Hf9Si16W
_chemical_formula_sum   'Li2 Tb8 Hf9 Si16 W1'
_cell_volume   696.33516341
_cell_formula_units_Z   1
loop_
 _symmetry_equiv_pos_site_id
 _symmetry_equiv_pos_as_xyz
  1  'x, y, z'
loop_
 _atom_site_type_symbol
 _atom_site_label
 _atom_site_symmetry_multiplicity
 _atom_site_fract_x
 _atom_site_fract_y
 _atom_site_fract_z
 _atom_site_occupancy
  Li  Li0  1  0.177880  0.176392  0.002100  1
  Li  Li1  1  0.823608  0.822120  0.497900  1
  Tb  Tb2  1  0.997732  0.347219  0.213907  1
  Tb  Tb3  1  0.003534  0.654150  0.713038  1
  Tb  Tb4  1  0.151997  0.502638  0.463962  1
  Tb  Tb5  1  0.497362  0.848003  0.036038  1
  Tb  Tb6  1  0.849371  0.498326  0.967439  1
  Tb  Tb7  1  0.501674  0.150629  0.532561  1
  Tb  Tb8  1  0.345850  0.996466  0.786962  1
  Tb  Tb9  1  0.652781  0.002268  0.286093  1
  Hf  Hf10  1  0.678034  0.321966  0.750000  1
  Hf  Hf11  1  0.143329  0.998535  0.377376  1
  Hf  Hf12  1  0.858721  0.001167  0.879269  1
  Hf  Hf13  1  0.510036  0.644705  0.621172  1
  Hf  Hf14  1  0.355295  0.489964  0.878828  1
  Hf  Hf15  1  0.489422  0.358258  0.126212  1
  Hf  Hf16  1  0.641742  0.510578  0.373788  1
  Hf  Hf17  1  0.998833  0.141279  0.620731  1
  Hf  Hf18  1  0.001465  0.856671  0.122624  1
  Si  Si19  1  0.359142  0.298365  0.318442  1
  Si  Si20  1  0.639703  0.702966  0.818274  1
  Si  Si21  1  0.221720  0.865376  0.571016  1
  Si  Si22  1  0.134624  0.778280  0.928984  1
  Si  Si23  1  0.778518  0.135435  0.073208  1
  Si  Si24  1  0.864565  0.221482  0.426792  1
  Si  Si25  1  0.297034  0.360297  0.681726  1
  Si  Si26  1  0.701635  0.640858  0.181558  1
  Si  Si27  1  0.293183  0.047529  0.190348  1
  Si  Si28  1  0.706386  0.948288  0.689570  1
  Si  Si29  1  0.435146  0.790578  0.431118  1
  Si  Si30  1  0.209422  0.564854  0.068882  1
  Si  Si31  1  0.563299  0.208423  0.936499  1
  Si  Si32  1  0.791577  0.436701  0.563501  1
  Si  Si33  1  0.051712  0.293614  0.810430  1
  Si  Si34  1  0.952471  0.706817  0.309652  1
  W  W35  1  0.321198  0.678802  0.250000  1
