# generated using pymatgen
data_Tb3Y7CdHg2Ru
_symmetry_space_group_name_H-M   'P 1'
_cell_length_a   9.64974918
_cell_length_b   9.64974858
_cell_length_c   9.79813401
_cell_angle_alpha   90.00326906
_cell_angle_beta   89.99672975
_cell_angle_gamma   120.02168693
_symmetry_Int_Tables_number   1
_chemical_formula_structural   Tb3Y7CdHg2Ru
_chemical_formula_sum   'Tb6 Y14 Cd2 Hg4 Ru2'
_cell_volume   789.97087499
_cell_formula_units_Z   2
loop_
 _symmetry_equiv_pos_site_id
 _symmetry_equiv_pos_as_xyz
  1  'x, y, z'
loop_
 _atom_site_type_symbol
 _atom_site_label
 _atom_site_symmetry_multiplicity
 _atom_site_fract_x
 _atom_site_fract_y
 _atom_site_fract_z
 _atom_site_occupancy
  Tb  Tb0  1  0.209517  0.790483  0.438538  1
  Tb  Tb1  1  0.209298  0.418990  0.439637  1
  Tb  Tb2  1  0.581010  0.790702  0.439637  1
  Tb  Tb3  1  0.790349  0.209651  0.560309  1
  Tb  Tb4  1  0.789847  0.580425  0.560065  1
  Tb  Tb5  1  0.419575  0.210153  0.560065  1
  Y  Y6  1  0.001478  0.998522  0.494581  1
  Y  Y7  1  0.001457  0.998543  0.005619  1
  Y  Y8  1  0.790267  0.209733  0.939649  1
  Y  Y9  1  0.789769  0.580400  0.940204  1
  Y  Y10  1  0.419600  0.210231  0.940204  1
  Y  Y11  1  0.209679  0.790321  0.061209  1
  Y  Y12  1  0.209318  0.419137  0.060059  1
  Y  Y13  1  0.580863  0.790682  0.060059  1
  Y  Y14  1  0.541319  0.458681  0.249963  1
  Y  Y15  1  0.541372  0.082824  0.250048  1
  Y  Y16  1  0.917176  0.458628  0.250048  1
  Y  Y17  1  0.458599  0.541401  0.749938  1
  Y  Y18  1  0.456444  0.917431  0.749878  1
  Y  Y19  1  0.082569  0.543556  0.749878  1
  Cd  Cd20  1  0.112401  0.228671  0.750806  1
  Cd  Cd21  1  0.771329  0.887599  0.750806  1
  Hg  Hg22  1  0.881033  0.118967  0.249146  1
  Hg  Hg23  1  0.881761  0.761030  0.249321  1
  Hg  Hg24  1  0.238970  0.118239  0.249321  1
  Hg  Hg25  1  0.115661  0.884339  0.750954  1
  Ru  Ru26  1  0.333241  0.666759  0.252158  1
  Ru  Ru27  1  0.666097  0.333903  0.747902  1
