# generated using pymatgen
data_CaYb2HoBi3
_symmetry_space_group_name_H-M   'P 1'
_cell_length_a   8.16707724
_cell_length_b   8.35859551
_cell_length_c   8.36122504
_cell_angle_alpha   109.93314347
_cell_angle_beta   109.01030539
_cell_angle_gamma   108.98943947
_symmetry_Int_Tables_number   1
_chemical_formula_structural   CaYb2HoBi3
_chemical_formula_sum   'Ca2 Yb4 Ho2 Bi6'
_cell_volume   441.94617384
_cell_formula_units_Z   2
loop_
 _symmetry_equiv_pos_site_id
 _symmetry_equiv_pos_as_xyz
  1  'x, y, z'
loop_
 _atom_site_type_symbol
 _atom_site_label
 _atom_site_symmetry_multiplicity
 _atom_site_fract_x
 _atom_site_fract_y
 _atom_site_fract_z
 _atom_site_occupancy
  Ca  Ca0  1  0.501133  0.999203  0.645829  1
  Ca  Ca1  1  0.355307  0.353371  0.354171  1
  Yb  Yb2  1  0.502106  0.000621  0.146864  1
  Yb  Yb3  1  0.001516  0.646612  0.500934  1
  Yb  Yb4  1  0.855244  0.853757  0.853137  1
  Yb  Yb5  1  0.000583  0.145679  0.499068  1
  Ho  Ho6  1  0.140915  0.500171  0.999734  1
  Ho  Ho7  1  0.641180  0.500439  0.000261  1
  Bi  Bi8  1  0.376573  0.622678  0.756967  1
  Bi  Bi9  1  0.876676  0.256544  0.123042  1
  Bi  Bi10  1  0.620794  0.743885  0.366063  1
  Bi  Bi11  1  0.119607  0.865711  0.243033  1
  Bi  Bi12  1  0.253634  0.133503  0.876960  1
  Bi  Bi13  1  0.754730  0.377824  0.633937  1
