# generated using pymatgen
data_Er4Zn4IrPt3
_symmetry_space_group_name_H-M   'P 1'
_cell_length_a   4.11038800
_cell_length_b   6.89412602
_cell_length_c   8.16665156
_cell_angle_alpha   89.89282869
_cell_angle_beta   90.00000000
_cell_angle_gamma   90.00000000
_symmetry_Int_Tables_number   1
_chemical_formula_structural   Er4Zn4IrPt3
_chemical_formula_sum   'Er4 Zn4 Ir1 Pt3'
_cell_volume   231.42235228
_cell_formula_units_Z   1
loop_
 _symmetry_equiv_pos_site_id
 _symmetry_equiv_pos_as_xyz
  1  'x, y, z'
loop_
 _atom_site_type_symbol
 _atom_site_label
 _atom_site_symmetry_multiplicity
 _atom_site_fract_x
 _atom_site_fract_y
 _atom_site_fract_z
 _atom_site_occupancy
  Er  Er0  1  0.250000  0.044722  0.319537  1
  Er  Er1  1  0.250000  0.542678  0.183958  1
  Er  Er2  1  0.750000  0.962582  0.682771  1
  Er  Er3  1  0.750000  0.453513  0.812719  1
  Zn  Zn4  1  0.250000  0.635396  0.563475  1
  Zn  Zn5  1  0.250000  0.138612  0.934718  1
  Zn  Zn6  1  0.750000  0.360324  0.439448  1
  Zn  Zn7  1  0.750000  0.862120  0.062958  1
  Ir  Ir8  1  0.250000  0.250679  0.622187  1
  Pt  Pt9  1  0.250000  0.751661  0.878432  1
  Pt  Pt10  1  0.750000  0.748620  0.377228  1
  Pt  Pt11  1  0.750000  0.249094  0.122569  1
