# generated using pymatgen
data_LuScSb5
_symmetry_space_group_name_H-M   'P 1'
_cell_length_a   4.18828100
_cell_length_b   12.95450280
_cell_length_c   14.15367558
_cell_angle_alpha   78.88536352
_cell_angle_beta   90.00000000
_cell_angle_gamma   90.00000000
_symmetry_Int_Tables_number   1
_chemical_formula_structural   LuScSb5
_chemical_formula_sum   'Lu4 Sc4 Sb20'
_cell_volume   753.53350811
_cell_formula_units_Z   4
loop_
 _symmetry_equiv_pos_site_id
 _symmetry_equiv_pos_as_xyz
  1  'x, y, z'
loop_
 _atom_site_type_symbol
 _atom_site_label
 _atom_site_symmetry_multiplicity
 _atom_site_fract_x
 _atom_site_fract_y
 _atom_site_fract_z
 _atom_site_occupancy
  Lu  Lu0  1  0.250000  0.669775  0.576348  1
  Lu  Lu1  1  0.750000  0.330225  0.423652  1
  Lu  Lu2  1  0.250000  0.953869  0.355622  1
  Lu  Lu3  1  0.750000  0.046131  0.644378  1
  Sc  Sc4  1  0.250000  0.396452  0.772263  1
  Sc  Sc5  1  0.750000  0.603548  0.227737  1
  Sc  Sc6  1  0.250000  0.657256  0.858461  1
  Sc  Sc7  1  0.750000  0.342744  0.141539  1
  Sb  Sb8  1  0.250000  0.146149  0.778653  1
  Sb  Sb9  1  0.750000  0.853851  0.221347  1
  Sb  Sb10  1  0.250000  0.142587  0.484510  1
  Sb  Sb11  1  0.750000  0.857413  0.515490  1
  Sb  Sb12  1  0.250000  0.162940  0.161162  1
  Sb  Sb13  1  0.750000  0.837060  0.838838  1
  Sb  Sb14  1  0.250000  0.422092  0.975198  1
  Sb  Sb15  1  0.750000  0.577908  0.024802  1
  Sb  Sb16  1  0.750000  0.028926  0.914683  1
  Sb  Sb17  1  0.250000  0.971074  0.085317  1
  Sb  Sb18  1  0.750000  0.141805  0.316727  1
  Sb  Sb19  1  0.250000  0.858195  0.683273  1
  Sb  Sb20  1  0.750000  0.279144  0.936224  1
  Sb  Sb21  1  0.250000  0.720856  0.063776  1
  Sb  Sb22  1  0.750000  0.288382  0.658148  1
  Sb  Sb23  1  0.250000  0.711618  0.341852  1
  Sb  Sb24  1  0.750000  0.574606  0.738992  1
  Sb  Sb25  1  0.250000  0.425394  0.261008  1
  Sb  Sb26  1  0.750000  0.570284  0.444740  1
  Sb  Sb27  1  0.250000  0.429716  0.555260  1
