# generated using pymatgen
data_LaPr9Os4
_symmetry_space_group_name_H-M   'P 1'
_cell_length_a   8.96255998
_cell_length_b   8.96620169
_cell_length_c   7.51077590
_cell_angle_alpha   83.77492879
_cell_angle_beta   83.49180254
_cell_angle_gamma   44.07934564
_symmetry_Int_Tables_number   1
_chemical_formula_structural   LaPr9Os4
_chemical_formula_sum   'La1 Pr9 Os4'
_cell_volume   416.84916064
_cell_formula_units_Z   1
loop_
 _symmetry_equiv_pos_site_id
 _symmetry_equiv_pos_as_xyz
  1  'x, y, z'
loop_
 _atom_site_type_symbol
 _atom_site_label
 _atom_site_symmetry_multiplicity
 _atom_site_fract_x
 _atom_site_fract_y
 _atom_site_fract_z
 _atom_site_occupancy
  La  La0  1  0.016414  0.799090  0.909668  1
  Pr  Pr1  1  0.202998  0.981404  0.584905  1
  Pr  Pr2  1  0.980995  0.202585  0.086110  1
  Pr  Pr3  1  0.796952  0.019759  0.414234  1
  Pr  Pr4  1  0.359930  0.206134  0.815412  1
  Pr  Pr5  1  0.791784  0.640527  0.684271  1
  Pr  Pr6  1  0.640526  0.791837  0.185435  1
  Pr  Pr7  1  0.208511  0.358313  0.316190  1
  Pr  Pr8  1  0.571948  0.428962  0.749756  1
  Pr  Pr9  1  0.427875  0.571807  0.250435  1
  Os  Os10  1  0.172594  0.606723  0.579348  1
  Os  Os11  1  0.397589  0.824179  0.925342  1
  Os  Os12  1  0.824134  0.396799  0.425414  1
  Os  Os13  1  0.607750  0.171880  0.073481  1
