# generated using pymatgen
data_Nd6Al24Os6PdRh
_symmetry_space_group_name_H-M   'P 1'
_cell_length_a   8.91280966
_cell_length_b   8.91280892
_cell_length_c   9.67688673
_cell_angle_alpha   89.94756769
_cell_angle_beta   90.05244231
_cell_angle_gamma   119.16194055
_symmetry_Int_Tables_number   1
_chemical_formula_structural   Nd6Al24Os6PdRh
_chemical_formula_sum   'Nd6 Al24 Os6 Pd1 Rh1'
_cell_volume   671.27615684
_cell_formula_units_Z   1
loop_
 _symmetry_equiv_pos_site_id
 _symmetry_equiv_pos_as_xyz
  1  'x, y, z'
loop_
 _atom_site_type_symbol
 _atom_site_label
 _atom_site_symmetry_multiplicity
 _atom_site_fract_x
 _atom_site_fract_y
 _atom_site_fract_z
 _atom_site_occupancy
  Nd  Nd0  1  0.183288  0.382221  0.249927  1
  Nd  Nd1  1  0.816712  0.617779  0.750073  1
  Nd  Nd2  1  0.617779  0.816712  0.249927  1
  Nd  Nd3  1  0.382221  0.183288  0.750073  1
  Nd  Nd4  1  0.191517  0.808483  0.251103  1
  Nd  Nd5  1  0.808483  0.191517  0.748897  1
  Al  Al6  1  0.330297  0.669703  0.014964  1
  Al  Al7  1  0.669703  0.330297  0.985036  1
  Al  Al8  1  0.667665  0.332335  0.514373  1
  Al  Al9  1  0.332335  0.667665  0.485627  1
  Al  Al10  1  0.161308  0.324097  0.575290  1
  Al  Al11  1  0.838692  0.675903  0.424710  1
  Al  Al12  1  0.675903  0.838692  0.575290  1
  Al  Al13  1  0.842716  0.677174  0.076596  1
  Al  Al14  1  0.324097  0.161308  0.424710  1
  Al  Al15  1  0.157284  0.322826  0.923404  1
  Al  Al16  1  0.164210  0.835790  0.572770  1
  Al  Al17  1  0.322826  0.157284  0.076596  1
  Al  Al18  1  0.835790  0.164210  0.427230  1
  Al  Al19  1  0.677174  0.842716  0.923404  1
  Al  Al20  1  0.835834  0.164166  0.073225  1
  Al  Al21  1  0.164166  0.835834  0.926775  1
  Al  Al22  1  0.560459  0.126450  0.249822  1
  Al  Al23  1  0.439541  0.873550  0.750178  1
  Al  Al24  1  0.873550  0.439541  0.249822  1
  Al  Al25  1  0.126450  0.560459  0.750178  1
  Al  Al26  1  0.560732  0.439268  0.252991  1
  Al  Al27  1  0.439268  0.560732  0.747009  1
  Al  Al28  1  0.998083  0.001917  0.250171  1
  Al  Al29  1  0.001917  0.998083  0.749829  1
  Os  Os30  1  0.500000  0.000000  0.000000  1
  Os  Os31  1  0.000000  0.500000  0.000000  1
  Os  Os32  1  0.500000  0.000000  0.500000  1
  Os  Os33  1  0.000000  0.500000  0.500000  1
  Os  Os34  1  0.000000  0.000000  0.000000  1
  Os  Os35  1  0.000000  0.000000  0.500000  1
  Pd  Pd36  1  0.500000  0.500000  0.000000  1
  Rh  Rh37  1  0.500000  0.500000  0.500000  1
