# generated using pymatgen
data_Dy8HfSc11Sn16
_symmetry_space_group_name_H-M   'P 1'
_cell_length_a   7.70813468
_cell_length_b   7.93338415
_cell_length_c   14.82012800
_cell_angle_alpha   90.00000000
_cell_angle_beta   90.00000000
_cell_angle_gamma   90.20824627
_symmetry_Int_Tables_number   1
_chemical_formula_structural   Dy8HfSc11Sn16
_chemical_formula_sum   'Dy8 Hf1 Sc11 Sn16'
_cell_volume   906.26845699
_cell_formula_units_Z   1
loop_
 _symmetry_equiv_pos_site_id
 _symmetry_equiv_pos_as_xyz
  1  'x, y, z'
loop_
 _atom_site_type_symbol
 _atom_site_label
 _atom_site_symmetry_multiplicity
 _atom_site_fract_x
 _atom_site_fract_y
 _atom_site_fract_z
 _atom_site_occupancy
  Dy  Dy0  1  0.992592  0.177440  0.093905  1
  Dy  Dy1  1  0.007986  0.821746  0.905903  1
  Dy  Dy2  1  0.508550  0.675638  0.905592  1
  Dy  Dy3  1  0.007986  0.821746  0.594097  1
  Dy  Dy4  1  0.491755  0.323756  0.093950  1
  Dy  Dy5  1  0.992592  0.177440  0.406095  1
  Dy  Dy6  1  0.491755  0.323756  0.406050  1
  Dy  Dy7  1  0.508550  0.675638  0.594408  1
  Hf  Hf8  1  0.166739  0.493812  0.750000  1
  Sc  Sc9  1  0.831293  0.504074  0.250000  1
  Sc  Sc10  1  0.331742  0.995741  0.250000  1
  Sc  Sc11  1  0.667668  0.005199  0.750000  1
  Sc  Sc12  1  0.340372  0.161651  0.628631  1
  Sc  Sc13  1  0.659773  0.838404  0.372095  1
  Sc  Sc14  1  0.160626  0.659854  0.373377  1
  Sc  Sc15  1  0.659773  0.838404  0.127905  1
  Sc  Sc16  1  0.840404  0.341276  0.627492  1
  Sc  Sc17  1  0.340372  0.161651  0.871369  1
  Sc  Sc18  1  0.840404  0.341276  0.872508  1
  Sc  Sc19  1  0.160626  0.659854  0.126623  1
  Sn  Sn20  1  0.029553  0.125004  0.750000  1
  Sn  Sn21  1  0.970041  0.875474  0.250000  1
  Sn  Sn22  1  0.467753  0.624523  0.250000  1
  Sn  Sn23  1  0.532087  0.377358  0.750000  1
  Sn  Sn24  1  0.309162  0.846556  0.750000  1
  Sn  Sn25  1  0.688693  0.150777  0.250000  1
  Sn  Sn26  1  0.188509  0.349041  0.250000  1
  Sn  Sn27  1  0.812710  0.650810  0.750000  1
  Sn  Sn28  1  0.182636  0.457971  0.545179  1
  Sn  Sn29  1  0.816507  0.543317  0.457310  1
  Sn  Sn30  1  0.318448  0.956942  0.458180  1
  Sn  Sn31  1  0.816507  0.543317  0.042690  1
  Sn  Sn32  1  0.682376  0.042822  0.542335  1
  Sn  Sn33  1  0.182636  0.457971  0.954821  1
  Sn  Sn34  1  0.682376  0.042822  0.957665  1
  Sn  Sn35  1  0.318448  0.956942  0.041820  1
