# generated using pymatgen
data_Tb11Pr8Si16Ag
_symmetry_space_group_name_H-M   'P 1'
_cell_length_a   7.49724946
_cell_length_b   7.82803578
_cell_length_c   14.91346400
_cell_angle_alpha   90.00000000
_cell_angle_beta   90.00000000
_cell_angle_gamma   89.99448949
_symmetry_Int_Tables_number   1
_chemical_formula_structural   Tb11Pr8Si16Ag
_chemical_formula_sum   'Tb11 Pr8 Si16 Ag1'
_cell_volume   875.25236333
_cell_formula_units_Z   1
loop_
 _symmetry_equiv_pos_site_id
 _symmetry_equiv_pos_as_xyz
  1  'x, y, z'
loop_
 _atom_site_type_symbol
 _atom_site_label
 _atom_site_symmetry_multiplicity
 _atom_site_fract_x
 _atom_site_fract_y
 _atom_site_fract_z
 _atom_site_occupancy
  Tb  Tb0  1  0.315742  0.187480  0.625775  1
  Tb  Tb1  1  0.679666  0.821571  0.378217  1
  Tb  Tb2  1  0.648767  0.991779  0.750000  1
  Tb  Tb3  1  0.179799  0.681881  0.376528  1
  Tb  Tb4  1  0.831438  0.326090  0.873570  1
  Tb  Tb5  1  0.831438  0.326090  0.626430  1
  Tb  Tb6  1  0.846170  0.486456  0.250000  1
  Tb  Tb7  1  0.348901  0.012120  0.250000  1
  Tb  Tb8  1  0.315742  0.187480  0.874225  1
  Tb  Tb9  1  0.179799  0.681881  0.123472  1
  Tb  Tb10  1  0.679666  0.821571  0.121783  1
  Pr  Pr11  1  0.022562  0.178825  0.403317  1
  Pr  Pr12  1  0.522958  0.319598  0.402968  1
  Pr  Pr13  1  0.467108  0.677172  0.897162  1
  Pr  Pr14  1  0.467108  0.677172  0.602838  1
  Pr  Pr15  1  0.979490  0.809416  0.603091  1
  Pr  Pr16  1  0.979490  0.809416  0.896909  1
  Pr  Pr17  1  0.522958  0.319598  0.097032  1
  Pr  Pr18  1  0.022562  0.178825  0.096683  1
  Si  Si19  1  0.271026  0.886959  0.750000  1
  Si  Si20  1  0.472400  0.611834  0.250000  1
  Si  Si21  1  0.022601  0.091178  0.750000  1
  Si  Si22  1  0.532186  0.392934  0.750000  1
  Si  Si23  1  0.147474  0.465139  0.532722  1
  Si  Si24  1  0.972422  0.891465  0.250000  1
  Si  Si25  1  0.731302  0.118707  0.250000  1
  Si  Si26  1  0.856692  0.530915  0.038915  1
  Si  Si27  1  0.356238  0.970369  0.036410  1
  Si  Si28  1  0.147474  0.465139  0.967278  1
  Si  Si29  1  0.645377  0.029923  0.542018  1
  Si  Si30  1  0.356238  0.970369  0.463590  1
  Si  Si31  1  0.856692  0.530915  0.461085  1
  Si  Si32  1  0.761249  0.621915  0.750000  1
  Si  Si33  1  0.230875  0.381624  0.250000  1
  Si  Si34  1  0.645377  0.029923  0.957982  1
  Ag  Ag35  1  0.153009  0.516266  0.750000  1
