# generated using pymatgen
data_Sn(S4F)4
_symmetry_space_group_name_H-M   'P 1'
_cell_length_a   11.17238960
_cell_length_b   12.17568474
_cell_length_c   12.50948530
_cell_angle_alpha   101.82247515
_cell_angle_beta   63.47701256
_cell_angle_gamma   117.30965599
_symmetry_Int_Tables_number   1
_chemical_formula_structural   Sn(S4F)4
_chemical_formula_sum   'Sn2 S32 F8'
_cell_volume   1352.88262793
_cell_formula_units_Z   2
loop_
 _symmetry_equiv_pos_site_id
 _symmetry_equiv_pos_as_xyz
  1  'x, y, z'
loop_
 _atom_site_type_symbol
 _atom_site_label
 _atom_site_symmetry_multiplicity
 _atom_site_fract_x
 _atom_site_fract_y
 _atom_site_fract_z
 _atom_site_occupancy
  Sn  Sn0  1  0.997015  0.000000  0.000000  1
  Sn  Sn1  1  0.247014  0.500000  0.500001  1
  S  S2  1  0.471672  0.204770  0.001733  1
  S  S3  1  0.370215  0.311791  0.005791  1
  S  S4  1  0.668232  0.317303  0.016807  1
  S  S5  1  0.344399  0.658518  0.150681  1
  S  S6  1  0.905856  0.648622  0.166663  1
  S  S7  1  0.549996  0.011409  0.180898  1
  S  S8  1  0.172691  0.488635  0.216284  1
  S  S9  1  0.868260  0.480083  0.214943  1
  S  S10  1  0.333204  0.980083  0.285057  1
  S  S11  1  0.638975  0.988635  0.283716  1
  S  S12  1  0.980896  0.511410  0.319102  1
  S  S13  1  0.322518  0.148621  0.333337  1
  S  S14  1  0.745082  0.158519  0.349319  1
  S  S15  1  0.935040  0.817304  0.483193  1
  S  S16  1  0.626005  0.811790  0.494210  1
  S  S17  1  0.723405  0.704770  0.498267  1
  S  S18  1  0.516902  0.295230  0.501733  1
  S  S19  1  0.308424  0.188209  0.505790  1
  S  S20  1  0.600929  0.182696  0.516807  1
  S  S21  1  0.935882  0.841482  0.650681  1
  S  S22  1  0.507234  0.851378  0.666662  1
  S  S23  1  0.788588  0.488591  0.680898  1
  S  S24  1  0.934057  0.011365  0.716283  1
  S  S25  1  0.638176  0.019916  0.714944  1
  S  S26  1  0.603122  0.519917  0.785057  1
  S  S27  1  0.900340  0.511365  0.783716  1
  S  S28  1  0.719484  0.988591  0.819102  1
  S  S29  1  0.423897  0.351379  0.833337  1
  S  S30  1  0.836563  0.341481  0.849319  1
  S  S31  1  0.367736  0.682696  0.983193  1
  S  S32  1  0.064215  0.688209  0.994210  1
  S  S33  1  0.268634  0.795230  0.998267  1
  F  F34  1  0.829573  0.854052  0.993850  1
  F  F35  1  0.026170  0.993109  0.138097  1
  F  F36  1  0.414266  0.493109  0.361904  1
  F  F37  1  0.073422  0.354052  0.506151  1
  F  F38  1  0.225519  0.645948  0.493850  1
  F  F39  1  0.283061  0.506891  0.638096  1
  F  F40  1  0.171158  0.006891  0.861904  1
  F  F41  1  0.969370  0.145948  0.006150  1
