# generated using pymatgen
data_Yb2SmCd(Os2O7)2
_symmetry_space_group_name_H-M   'P 1'
_cell_length_a   7.23367285
_cell_length_b   7.23367245
_cell_length_c   7.21939341
_cell_angle_alpha   61.01131087
_cell_angle_beta   61.01131461
_cell_angle_gamma   60.96931601
_symmetry_Int_Tables_number   1
_chemical_formula_structural   Yb2SmCd(Os2O7)2
_chemical_formula_sum   'Yb2 Sm1 Cd1 Os4 O14'
_cell_volume   273.11881451
_cell_formula_units_Z   1
loop_
 _symmetry_equiv_pos_site_id
 _symmetry_equiv_pos_as_xyz
  1  'x, y, z'
loop_
 _atom_site_type_symbol
 _atom_site_label
 _atom_site_symmetry_multiplicity
 _atom_site_fract_x
 _atom_site_fract_y
 _atom_site_fract_z
 _atom_site_occupancy
  Yb  Yb0  1  0.625000  0.125000  0.125000  1
  Yb  Yb1  1  0.125000  0.625000  0.125000  1
  Sm  Sm2  1  0.125000  0.125000  0.625000  1
  Cd  Cd3  1  0.125000  0.125000  0.125000  1
  Os  Os4  1  0.625000  0.625000  0.625000  1
  Os  Os5  1  0.125000  0.625000  0.625000  1
  Os  Os6  1  0.625000  0.125000  0.625000  1
  Os  Os7  1  0.625000  0.625000  0.125000  1
  O  O8  1  0.246594  0.246594  0.246333  1
  O  O9  1  0.003406  0.003406  0.003667  1
  O  O10  1  0.546415  0.951085  0.548261  1
  O  O11  1  0.308153  0.688557  0.309429  1
  O  O12  1  0.551039  0.551039  0.947009  1
  O  O13  1  0.951085  0.546415  0.548261  1
  O  O14  1  0.561443  0.941847  0.940571  1
  O  O15  1  0.944009  0.944009  0.559213  1
  O  O16  1  0.941847  0.561443  0.940571  1
  O  O17  1  0.688557  0.308153  0.309429  1
  O  O18  1  0.298915  0.703585  0.701739  1
  O  O19  1  0.703585  0.298915  0.701739  1
  O  O20  1  0.305991  0.305991  0.690787  1
  O  O21  1  0.698961  0.698961  0.302991  1
