# generated using pymatgen
data_PrYV2F14
_symmetry_space_group_name_H-M   'P 1'
_cell_length_a   5.62219413
_cell_length_b   9.04366328
_cell_length_c   12.05520200
_cell_angle_alpha   63.18564475
_cell_angle_beta   89.90871918
_cell_angle_gamma   89.98026231
_symmetry_Int_Tables_number   1
_chemical_formula_structural   PrYV2F14
_chemical_formula_sum   'Pr2 Y2 V4 F28'
_cell_volume   547.04005251
_cell_formula_units_Z   2
loop_
 _symmetry_equiv_pos_site_id
 _symmetry_equiv_pos_as_xyz
  1  'x, y, z'
loop_
 _atom_site_type_symbol
 _atom_site_label
 _atom_site_symmetry_multiplicity
 _atom_site_fract_x
 _atom_site_fract_y
 _atom_site_fract_z
 _atom_site_occupancy
  Pr  Pr0  1  0.256890  0.808338  0.270740  1
  Pr  Pr1  1  0.743110  0.191662  0.729260  1
  Y  Y2  1  0.758859  0.199230  0.227301  1
  Y  Y3  1  0.241141  0.800770  0.772699  1
  V  V4  1  0.752647  0.723216  0.042216  1
  V  V5  1  0.247353  0.276784  0.957784  1
  V  V6  1  0.254188  0.271226  0.450289  1
  V  V7  1  0.745812  0.728774  0.549711  1
  F  F8  1  0.950730  0.707048  0.432425  1
  F  F9  1  0.049270  0.292952  0.567575  1
  F  F10  1  0.453771  0.294647  0.075661  1
  F  F11  1  0.546229  0.705353  0.924339  1
  F  F12  1  0.486612  0.733486  0.135094  1
  F  F13  1  0.513388  0.266514  0.864906  1
  F  F14  1  0.985856  0.268170  0.354169  1
  F  F15  1  0.014144  0.731830  0.645831  1
  F  F16  1  0.954136  0.743240  0.162303  1
  F  F17  1  0.045864  0.256760  0.837697  1
  F  F18  1  0.462477  0.251333  0.330874  1
  F  F19  1  0.537523  0.748667  0.669126  1
  F  F20  1  0.760498  0.495499  0.134817  1
  F  F21  1  0.239502  0.504501  0.865183  1
  F  F22  1  0.264450  0.499504  0.359653  1
  F  F23  1  0.735550  0.500496  0.640347  1
  F  F24  1  0.972015  0.289873  0.047736  1
  F  F25  1  0.027985  0.710127  0.952264  1
  F  F26  1  0.474421  0.713642  0.459688  1
  F  F27  1  0.525579  0.286358  0.540312  1
  F  F28  1  0.744181  0.952401  0.460508  1
  F  F29  1  0.255819  0.047599  0.539492  1
  F  F30  1  0.241321  0.050972  0.047216  1
  F  F31  1  0.758679  0.949028  0.952784  1
  F  F32  1  0.583337  0.981866  0.233383  1
  F  F33  1  0.416663  0.018134  0.766617  1
  F  F34  1  0.065577  0.032554  0.268573  1
  F  F35  1  0.934423  0.967446  0.731427  1
