# generated using pymatgen
data_Ho2Er2Al15(SiRh2)3
_symmetry_space_group_name_H-M   'P 1'
_cell_length_a   7.52995071
_cell_length_b   7.47146153
_cell_length_c   9.36259968
_cell_angle_alpha   89.95279666
_cell_angle_beta   89.96236832
_cell_angle_gamma   119.82096280
_symmetry_Int_Tables_number   1
_chemical_formula_structural   Ho2Er2Al15(SiRh2)3
_chemical_formula_sum   'Ho2 Er2 Al15 Si3 Rh6'
_cell_volume   456.98820889
_cell_formula_units_Z   1
loop_
 _symmetry_equiv_pos_site_id
 _symmetry_equiv_pos_as_xyz
  1  'x, y, z'
loop_
 _atom_site_type_symbol
 _atom_site_label
 _atom_site_symmetry_multiplicity
 _atom_site_fract_x
 _atom_site_fract_y
 _atom_site_fract_z
 _atom_site_occupancy
  Ho  Ho0  1  0.993943  0.664354  0.247190  1
  Ho  Ho1  1  0.006804  0.342616  0.754513  1
  Er  Er2  1  0.676422  0.002584  0.247471  1
  Er  Er3  1  0.317937  0.990442  0.749823  1
  Al  Al4  1  0.128046  0.125996  0.249775  1
  Al  Al5  1  0.871719  0.871561  0.749103  1
  Al  Al6  1  0.338974  0.002578  0.422445  1
  Al  Al7  1  0.001111  0.330188  0.429149  1
  Al  Al8  1  0.666080  0.002423  0.576572  1
  Al  Al9  1  0.661841  0.998455  0.921249  1
  Al  Al10  1  0.339079  0.002714  0.077661  1
  Al  Al11  1  0.333178  0.330545  0.557068  1
  Al  Al12  1  0.663668  0.668404  0.445200  1
  Al  Al13  1  0.663247  0.668143  0.056241  1
  Al  Al14  1  0.335725  0.331239  0.943636  1
  Al  Al15  1  0.338444  0.552286  0.250200  1
  Al  Al16  1  0.661213  0.448443  0.750451  1
  Al  Al17  1  0.548594  0.343501  0.249929  1
  Al  Al18  1  0.455448  0.658025  0.749729  1
  Si  Si19  1  0.002138  0.328795  0.076789  1
  Si  Si20  1  0.997177  0.671907  0.929553  1
  Si  Si21  1  0.998721  0.665651  0.566153  1
  Rh  Rh22  1  0.689265  0.337290  0.001410  1
  Rh  Rh23  1  0.310602  0.662913  0.997207  1
  Rh  Rh24  1  0.318724  0.669982  0.502987  1
  Rh  Rh25  1  0.680381  0.336272  0.499329  1
  Rh  Rh26  1  0.000342  0.999953  0.999099  1
  Rh  Rh27  1  0.001171  0.992740  0.500068  1
