# generated using pymatgen
data_Th2Zn4AgSn
_symmetry_space_group_name_H-M   'P 1'
_cell_length_a   8.78821500
_cell_length_b   8.78821526
_cell_length_c   9.15729200
_cell_angle_alpha   90.00000000
_cell_angle_beta   90.00000000
_cell_angle_gamma   150.44043287
_symmetry_Int_Tables_number   1
_chemical_formula_structural   Th2Zn4AgSn
_chemical_formula_sum   'Th4 Zn8 Ag2 Sn2'
_cell_volume   348.90269345
_cell_formula_units_Z   2
loop_
 _symmetry_equiv_pos_site_id
 _symmetry_equiv_pos_as_xyz
  1  'x, y, z'
loop_
 _atom_site_type_symbol
 _atom_site_label
 _atom_site_symmetry_multiplicity
 _atom_site_fract_x
 _atom_site_fract_y
 _atom_site_fract_z
 _atom_site_occupancy
  Th  Th0  1  0.205724  0.794276  0.250000  1
  Th  Th1  1  0.794276  0.205724  0.750000  1
  Th  Th2  1  0.000000  0.000000  0.500000  1
  Th  Th3  1  0.000000  0.000000  0.000000  1
  Zn  Zn4  1  0.816405  0.183595  0.391792  1
  Zn  Zn5  1  0.183595  0.816405  0.608208  1
  Zn  Zn6  1  0.816405  0.183595  0.108208  1
  Zn  Zn7  1  0.183595  0.816405  0.891792  1
  Zn  Zn8  1  0.660104  0.339896  0.479635  1
  Zn  Zn9  1  0.339896  0.660104  0.520365  1
  Zn  Zn10  1  0.660104  0.339896  0.020365  1
  Zn  Zn11  1  0.339896  0.660104  0.979635  1
  Ag  Ag12  1  0.397584  0.602416  0.250000  1
  Ag  Ag13  1  0.602416  0.397584  0.750000  1
  Sn  Sn14  1  0.558981  0.441019  0.250000  1
  Sn  Sn15  1  0.441019  0.558981  0.750000  1
