# generated using pymatgen
data_LaTb6Dy9(NiHg)4
_symmetry_space_group_name_H-M   'P 1'
_cell_length_a   9.56536535
_cell_length_b   9.56536488
_cell_length_c   9.56536500
_cell_angle_alpha   60.05723497
_cell_angle_beta   60.05723659
_cell_angle_gamma   60.05723244
_symmetry_Int_Tables_number   1
_chemical_formula_structural   LaTb6Dy9(NiHg)4
_chemical_formula_sum   'La1 Tb6 Dy9 Ni4 Hg4'
_cell_volume   619.65883728
_cell_formula_units_Z   1
loop_
 _symmetry_equiv_pos_site_id
 _symmetry_equiv_pos_as_xyz
  1  'x, y, z'
loop_
 _atom_site_type_symbol
 _atom_site_label
 _atom_site_symmetry_multiplicity
 _atom_site_fract_x
 _atom_site_fract_y
 _atom_site_fract_z
 _atom_site_occupancy
  La  La0  1  0.347181  0.347181  0.347181  1
  Tb  Tb1  1  0.936770  0.564000  0.564000  1
  Tb  Tb2  1  0.563077  0.936914  0.936914  1
  Tb  Tb3  1  0.564000  0.936770  0.564000  1
  Tb  Tb4  1  0.936914  0.563077  0.936914  1
  Tb  Tb5  1  0.564000  0.564000  0.936770  1
  Tb  Tb6  1  0.936914  0.936914  0.563077  1
  Dy  Dy7  1  0.350272  0.350272  0.946566  1
  Dy  Dy8  1  0.350272  0.946566  0.350272  1
  Dy  Dy9  1  0.946566  0.350272  0.350272  1
  Dy  Dy10  1  0.814504  0.187936  0.187936  1
  Dy  Dy11  1  0.189465  0.811987  0.811987  1
  Dy  Dy12  1  0.187936  0.814504  0.187936  1
  Dy  Dy13  1  0.811987  0.189465  0.811987  1
  Dy  Dy14  1  0.187936  0.187936  0.814504  1
  Dy  Dy15  1  0.811987  0.811987  0.189465  1
  Ni  Ni16  1  0.143091  0.143091  0.143091  1
  Ni  Ni17  1  0.139529  0.139529  0.574738  1
  Ni  Ni18  1  0.139529  0.574738  0.139529  1
  Ni  Ni19  1  0.574738  0.139529  0.139529  1
  Hg  Hg20  1  0.584581  0.584581  0.584581  1
  Hg  Hg21  1  0.586584  0.586584  0.245579  1
  Hg  Hg22  1  0.586584  0.245579  0.586584  1
  Hg  Hg23  1  0.245579  0.586584  0.586584  1
