# generated using pymatgen
data_PSe2Cl13
_symmetry_space_group_name_H-M   'P 1'
_cell_length_a   11.24230000
_cell_length_b   9.45323277
_cell_length_c   10.10815838
_cell_angle_alpha   77.16167804
_cell_angle_beta   90.00000000
_cell_angle_gamma   90.00000000
_symmetry_Int_Tables_number   1
_chemical_formula_structural   PSe2Cl13
_chemical_formula_sum   'P2 Se4 Cl26'
_cell_volume   1047.40007508
_cell_formula_units_Z   2
loop_
 _symmetry_equiv_pos_site_id
 _symmetry_equiv_pos_as_xyz
  1  'x, y, z'
loop_
 _atom_site_type_symbol
 _atom_site_label
 _atom_site_symmetry_multiplicity
 _atom_site_fract_x
 _atom_site_fract_y
 _atom_site_fract_z
 _atom_site_occupancy
  P  P0  1  0.250000  0.262762  0.508928  1
  P  P1  1  0.750000  0.737238  0.491072  1
  Se  Se2  1  0.250000  0.844609  0.110141  1
  Se  Se3  1  0.750000  0.155391  0.889859  1
  Se  Se4  1  0.250000  0.663960  0.846912  1
  Se  Se5  1  0.750000  0.336040  0.153088  1
  Cl  Cl6  1  0.607777  0.800625  0.574106  1
  Cl  Cl7  1  0.107777  0.199375  0.425894  1
  Cl  Cl8  1  0.750000  0.440426  0.896392  1
  Cl  Cl9  1  0.250000  0.559574  0.103608  1
  Cl  Cl10  1  0.902351  0.149272  0.083655  1
  Cl  Cl11  1  0.402351  0.850728  0.916345  1
  Cl  Cl12  1  0.097649  0.850728  0.916345  1
  Cl  Cl13  1  0.597649  0.149272  0.083655  1
  Cl  Cl14  1  0.750000  0.205218  0.378059  1
  Cl  Cl15  1  0.250000  0.794782  0.621941  1
  Cl  Cl16  1  0.900092  0.485100  0.186396  1
  Cl  Cl17  1  0.400092  0.514900  0.813604  1
  Cl  Cl18  1  0.099908  0.514900  0.813604  1
  Cl  Cl19  1  0.599908  0.485100  0.186396  1
  Cl  Cl20  1  0.750000  0.911324  0.923271  1
  Cl  Cl21  1  0.250000  0.088676  0.076729  1
  Cl  Cl22  1  0.899496  0.189298  0.729196  1
  Cl  Cl23  1  0.399496  0.810702  0.270804  1
  Cl  Cl24  1  0.100504  0.810702  0.270804  1
  Cl  Cl25  1  0.600504  0.189298  0.729196  1
  Cl  Cl26  1  0.750000  0.819921  0.296459  1
  Cl  Cl27  1  0.250000  0.180079  0.703541  1
  Cl  Cl28  1  0.750000  0.525465  0.525145  1
  Cl  Cl29  1  0.250000  0.474535  0.474855  1
  Cl  Cl30  1  0.892223  0.800625  0.574106  1
  Cl  Cl31  1  0.392223  0.199375  0.425894  1
