# generated using pymatgen
data_Tm2Hf2Al7Tc
_symmetry_space_group_name_H-M   'P 1'
_cell_length_a   5.39476400
_cell_length_b   5.39476552
_cell_length_c   8.76081100
_cell_angle_alpha   90.00000000
_cell_angle_beta   90.00000000
_cell_angle_gamma   119.99997844
_symmetry_Int_Tables_number   1
_chemical_formula_structural   Tm2Hf2Al7Tc
_chemical_formula_sum   'Tm2 Hf2 Al7 Tc1'
_cell_volume   220.81067272
_cell_formula_units_Z   1
loop_
 _symmetry_equiv_pos_site_id
 _symmetry_equiv_pos_as_xyz
  1  'x, y, z'
loop_
 _atom_site_type_symbol
 _atom_site_label
 _atom_site_symmetry_multiplicity
 _atom_site_fract_x
 _atom_site_fract_y
 _atom_site_fract_z
 _atom_site_occupancy
  Tm  Tm0  1  0.333333  0.666667  0.443265  1
  Tm  Tm1  1  0.666667  0.333333  0.556735  1
  Hf  Hf2  1  0.666667  0.333333  0.940552  1
  Hf  Hf3  1  0.333333  0.666667  0.059448  1
  Al  Al4  1  0.000000  0.000000  0.500000  1
  Al  Al5  1  0.830336  0.169664  0.234992  1
  Al  Al6  1  0.830336  0.660672  0.234992  1
  Al  Al7  1  0.339328  0.169664  0.234992  1
  Al  Al8  1  0.169664  0.830336  0.765008  1
  Al  Al9  1  0.169664  0.339328  0.765008  1
  Al  Al10  1  0.660672  0.830336  0.765008  1
  Tc  Tc11  1  0.000000  0.000000  0.000000  1
