# generated using pymatgen
data_La10TcIr3
_symmetry_space_group_name_H-M   'P 1'
_cell_length_a   9.25171437
_cell_length_b   9.16310586
_cell_length_c   7.45066056
_cell_angle_alpha   84.57654855
_cell_angle_beta   84.38856304
_cell_angle_gamma   42.97886212
_symmetry_Int_Tables_number   1
_chemical_formula_structural   La10TcIr3
_chemical_formula_sum   'La10 Tc1 Ir3'
_cell_volume   428.28783549
_cell_formula_units_Z   1
loop_
 _symmetry_equiv_pos_site_id
 _symmetry_equiv_pos_as_xyz
  1  'x, y, z'
loop_
 _atom_site_type_symbol
 _atom_site_label
 _atom_site_symmetry_multiplicity
 _atom_site_fract_x
 _atom_site_fract_y
 _atom_site_fract_z
 _atom_site_occupancy
  La  La0  1  0.014559  0.798894  0.904913  1
  La  La1  1  0.195048  0.985408  0.588793  1
  La  La2  1  0.989862  0.192971  0.089564  1
  La  La3  1  0.810184  0.002498  0.412639  1
  La  La4  1  0.352245  0.216843  0.819673  1
  La  La5  1  0.790947  0.640908  0.680485  1
  La  La6  1  0.642799  0.787482  0.179390  1
  La  La7  1  0.214622  0.359610  0.321391  1
  La  La8  1  0.571711  0.427652  0.750891  1
  La  La9  1  0.430330  0.568169  0.252016  1
  Tc  Tc10  1  0.166808  0.617456  0.579513  1
  Ir  Ir11  1  0.406010  0.819963  0.922969  1
  Ir  Ir12  1  0.820318  0.403997  0.419397  1
  Ir  Ir13  1  0.594557  0.178148  0.078366  1
