# generated using pymatgen
data_CdHg3(BrO3)8
_symmetry_space_group_name_H-M   'P 1'
_cell_length_a   5.80958972
_cell_length_b   11.20527189
_cell_length_c   11.39176010
_cell_angle_alpha   119.73918708
_cell_angle_beta   89.99201719
_cell_angle_gamma   90.19708932
_symmetry_Int_Tables_number   1
_chemical_formula_structural   CdHg3(BrO3)8
_chemical_formula_sum   'Cd1 Hg3 Br8 O24'
_cell_volume   643.90446764
_cell_formula_units_Z   1
loop_
 _symmetry_equiv_pos_site_id
 _symmetry_equiv_pos_as_xyz
  1  'x, y, z'
loop_
 _atom_site_type_symbol
 _atom_site_label
 _atom_site_symmetry_multiplicity
 _atom_site_fract_x
 _atom_site_fract_y
 _atom_site_fract_z
 _atom_site_occupancy
  Cd  Cd0  1  0.147662  0.766204  0.509306  1
  Hg  Hg1  1  0.651702  0.232689  0.491448  1
  Hg  Hg2  1  0.145743  0.268487  0.008715  1
  Hg  Hg3  1  0.646039  0.731055  0.992152  1
  Br  Br4  1  0.269769  0.420164  0.351975  1
  Br  Br5  1  0.771224  0.584143  0.649208  1
  Br  Br6  1  0.263810  0.918919  0.849172  1
  Br  Br7  1  0.762867  0.081650  0.147881  1
  Br  Br8  1  0.782072  0.081039  0.684820  1
  Br  Br9  1  0.279622  0.911272  0.312660  1
  Br  Br10  1  0.279927  0.413245  0.808470  1
  Br  Br11  1  0.783703  0.587834  0.195045  1
  O  O12  1  0.412447  0.893172  0.961486  1
  O  O13  1  0.907830  0.103262  0.031463  1
  O  O14  1  0.372869  0.805359  0.695269  1
  O  O15  1  0.878015  0.198229  0.299393  1
  O  O16  1  0.383381  0.307562  0.199004  1
  O  O17  1  0.881769  0.698288  0.802951  1
  O  O18  1  0.906201  0.221014  0.814070  1
  O  O19  1  0.409643  0.772903  0.184840  1
  O  O20  1  0.923063  0.942536  0.670598  1
  O  O21  1  0.416655  0.051668  0.327050  1
  O  O22  1  0.370518  0.071992  0.873866  1
  O  O23  1  0.866911  0.929786  0.126933  1
  O  O24  1  0.404593  0.273294  0.680296  1
  O  O25  1  0.914149  0.724904  0.324437  1
  O  O26  1  0.361591  0.410494  0.950809  1
  O  O27  1  0.867227  0.594086  0.054943  1
  O  O28  1  0.420340  0.552420  0.820824  1
  O  O29  1  0.918358  0.446370  0.179337  1
  O  O30  1  0.367407  0.574402  0.376842  1
  O  O31  1  0.876376  0.431376  0.624745  1
  O  O32  1  0.422106  0.397765  0.465648  1
  O  O33  1  0.920276  0.609820  0.536864  1
  O  O34  1  0.864742  0.087355  0.544216  1
  O  O35  1  0.358992  0.905248  0.453263  1
