# generated using pymatgen
data_Tb4Tc5B12W
_symmetry_space_group_name_H-M   'P 1'
_cell_length_a   6.22207906
_cell_length_b   6.22263821
_cell_length_c   7.54484584
_cell_angle_alpha   89.15821483
_cell_angle_beta   89.57893210
_cell_angle_gamma   113.54989164
_symmetry_Int_Tables_number   1
_chemical_formula_structural   Tb4Tc5B12W
_chemical_formula_sum   'Tb4 Tc5 B12 W1'
_cell_volume   267.73278977
_cell_formula_units_Z   1
loop_
 _symmetry_equiv_pos_site_id
 _symmetry_equiv_pos_as_xyz
  1  'x, y, z'
loop_
 _atom_site_type_symbol
 _atom_site_label
 _atom_site_symmetry_multiplicity
 _atom_site_fract_x
 _atom_site_fract_y
 _atom_site_fract_z
 _atom_site_occupancy
  Tb  Tb0  1  0.900594  0.555553  0.320993  1
  Tb  Tb1  1  0.441350  0.100188  0.176632  1
  Tb  Tb2  1  0.099181  0.447615  0.678301  1
  Tb  Tb3  1  0.563157  0.899866  0.822370  1
  Tc  Tc4  1  0.414058  0.590027  0.247194  1
  Tc  Tc5  1  0.584810  0.411077  0.751030  1
  Tc  Tc6  1  0.010205  0.192985  0.090267  1
  Tc  Tc7  1  0.808971  0.989274  0.409716  1
  Tc  Tc8  1  0.988456  0.805306  0.912113  1
  B  B9  1  0.752028  0.848294  0.129716  1
  B  B10  1  0.156150  0.250052  0.370014  1
  B  B11  1  0.244710  0.154437  0.870825  1
  B  B12  1  0.841083  0.745053  0.630287  1
  B  B13  1  0.417566  0.842207  0.483513  1
  B  B14  1  0.158541  0.583957  0.018238  1
  B  B15  1  0.586911  0.157619  0.517622  1
  B  B16  1  0.841180  0.414536  0.981623  1
  B  B17  1  0.557007  0.650101  0.533144  1
  B  B18  1  0.350362  0.443907  0.965990  1
  B  B19  1  0.442979  0.351401  0.465106  1
  B  B20  1  0.649202  0.556711  0.034104  1
  W  W21  1  0.191500  0.009834  0.591201  1
