# generated using pymatgen
data_YbGa4SnCl16
_symmetry_space_group_name_H-M   'P 1'
_cell_length_a   7.29134092
_cell_length_b   7.44527345
_cell_length_c   13.75025343
_cell_angle_alpha   87.23601931
_cell_angle_beta   89.46607555
_cell_angle_gamma   90.04572034
_symmetry_Int_Tables_number   1
_chemical_formula_structural   YbGa4SnCl16
_chemical_formula_sum   'Yb1 Ga4 Sn1 Cl16'
_cell_volume   745.54529632
_cell_formula_units_Z   1
loop_
 _symmetry_equiv_pos_site_id
 _symmetry_equiv_pos_as_xyz
  1  'x, y, z'
loop_
 _atom_site_type_symbol
 _atom_site_label
 _atom_site_symmetry_multiplicity
 _atom_site_fract_x
 _atom_site_fract_y
 _atom_site_fract_z
 _atom_site_occupancy
  Yb  Yb0  1  0.247273  0.077641  0.315245  1
  Ga  Ga1  1  0.942143  0.225019  0.573876  1
  Ga  Ga2  1  0.066852  0.218330  0.082526  1
  Ga  Ga3  1  0.557951  0.638791  0.777023  1
  Ga  Ga4  1  0.429393  0.640748  0.277165  1
  Sn  Sn5  1  0.758146  0.076848  0.817829  1
  Cl  Cl6  1  0.427186  0.612755  0.639879  1
  Cl  Cl7  1  0.574018  0.612547  0.142832  1
  Cl  Cl8  1  0.853109  0.728819  0.761633  1
  Cl  Cl9  1  0.140146  0.737630  0.263053  1
  Cl  Cl10  1  0.941040  0.476785  0.492686  1
  Cl  Cl11  1  0.057525  0.466734  0.997712  1
  Cl  Cl12  1  0.933975  0.993733  0.008532  1
  Cl  Cl13  1  0.079430  0.006865  0.494137  1
  Cl  Cl14  1  0.658985  0.128909  0.616701  1
  Cl  Cl15  1  0.352588  0.132888  0.122952  1
  Cl  Cl16  1  0.550314  0.394651  0.875613  1
  Cl  Cl17  1  0.428329  0.383960  0.369517  1
  Cl  Cl18  1  0.438818  0.862234  0.861443  1
  Cl  Cl19  1  0.546263  0.862490  0.363054  1
  Cl  Cl20  1  0.939316  0.227647  0.231561  1
  Cl  Cl21  1  0.077200  0.228775  0.719431  1
