# generated using pymatgen
data_Tm4MnMoRu6
_symmetry_space_group_name_H-M   'P 1'
_cell_length_a   5.47553805
_cell_length_b   5.15781361
_cell_length_c   8.90363500
_cell_angle_alpha   90.00000000
_cell_angle_beta   90.00000000
_cell_angle_gamma   122.04883815
_symmetry_Int_Tables_number   1
_chemical_formula_structural   Tm4MnMoRu6
_chemical_formula_sum   'Tm4 Mn1 Mo1 Ru6'
_cell_volume   213.13203865
_cell_formula_units_Z   1
loop_
 _symmetry_equiv_pos_site_id
 _symmetry_equiv_pos_as_xyz
  1  'x, y, z'
loop_
 _atom_site_type_symbol
 _atom_site_label
 _atom_site_symmetry_multiplicity
 _atom_site_fract_x
 _atom_site_fract_y
 _atom_site_fract_z
 _atom_site_occupancy
  Tm  Tm0  1  0.673056  0.346718  0.563962  1
  Tm  Tm1  1  0.330623  0.662311  0.432621  1
  Tm  Tm2  1  0.330623  0.662311  0.067379  1
  Tm  Tm3  1  0.673056  0.346718  0.936038  1
  Mn  Mn4  1  0.835299  0.669569  0.250000  1
  Mo  Mo5  1  0.156103  0.312607  0.750000  1
  Ru  Ru6  1  0.004144  0.009236  0.495334  1
  Ru  Ru7  1  0.004144  0.009236  0.004666  1
  Ru  Ru8  1  0.173666  0.818753  0.750000  1
  Ru  Ru9  1  0.646359  0.819449  0.750000  1
  Ru  Ru10  1  0.822688  0.171533  0.250000  1
  Ru  Ru11  1  0.350239  0.171558  0.250000  1
