# generated using pymatgen
data_Ba6TmMg(BO3)6
_symmetry_space_group_name_H-M   'P 1'
_cell_length_a   8.15341400
_cell_length_b   8.15341377
_cell_length_c   8.15341300
_cell_angle_alpha   105.82786694
_cell_angle_beta   105.82786648
_cell_angle_gamma   105.82785456
_symmetry_Int_Tables_number   1
_chemical_formula_structural   Ba6TmMg(BO3)6
_chemical_formula_sum   'Ba6 Tm1 Mg1 B6 O18'
_cell_volume   465.08208696
_cell_formula_units_Z   1
loop_
 _symmetry_equiv_pos_site_id
 _symmetry_equiv_pos_as_xyz
  1  'x, y, z'
loop_
 _atom_site_type_symbol
 _atom_site_label
 _atom_site_symmetry_multiplicity
 _atom_site_fract_x
 _atom_site_fract_y
 _atom_site_fract_z
 _atom_site_occupancy
  Ba  Ba0  1  0.651209  0.269736  0.170244  1
  Ba  Ba1  1  0.170244  0.651209  0.269736  1
  Ba  Ba2  1  0.730263  0.829757  0.348791  1
  Ba  Ba3  1  0.269737  0.170243  0.651209  1
  Ba  Ba4  1  0.829757  0.348791  0.730264  1
  Ba  Ba5  1  0.348791  0.730264  0.829756  1
  Tm  Tm6  1  0.000000  0.000000  0.000000  1
  Mg  Mg7  1  0.500000  0.500000  0.500000  1
  B  B8  1  0.294664  0.373172  0.051889  1
  B  B9  1  0.373171  0.051889  0.294664  1
  B  B10  1  0.051889  0.294664  0.373171  1
  B  B11  1  0.948111  0.705337  0.626829  1
  B  B12  1  0.626829  0.948112  0.705336  1
  B  B13  1  0.705337  0.626829  0.948112  1
  O  O14  1  0.741036  0.815795  0.011296  1
  O  O15  1  0.797708  0.555310  0.062204  1
  O  O16  1  0.988704  0.258964  0.184203  1
  O  O17  1  0.444689  0.937796  0.202291  1
  O  O18  1  0.428385  0.489080  0.223511  1
  O  O19  1  0.184204  0.988704  0.258963  1
  O  O20  1  0.489079  0.223511  0.428385  1
  O  O21  1  0.937796  0.202291  0.444690  1
  O  O22  1  0.223511  0.428385  0.489080  1
  O  O23  1  0.776489  0.571615  0.510921  1
  O  O24  1  0.062204  0.797708  0.555310  1
  O  O25  1  0.510921  0.776489  0.571615  1
  O  O26  1  0.815795  0.011295  0.741036  1
  O  O27  1  0.571615  0.510921  0.776490  1
  O  O28  1  0.555310  0.062204  0.797709  1
  O  O29  1  0.011295  0.741035  0.815796  1
  O  O30  1  0.202291  0.444689  0.937796  1
  O  O31  1  0.258964  0.184204  0.988704  1
