# generated using pymatgen
data_Ce3Cd3Pt2Au
_symmetry_space_group_name_H-M   'P 1'
_cell_length_a   7.85076300
_cell_length_b   7.85076358
_cell_length_c   3.93340300
_cell_angle_alpha   90.00000000
_cell_angle_beta   90.00000000
_cell_angle_gamma   120.00001020
_symmetry_Int_Tables_number   1
_chemical_formula_structural   Ce3Cd3Pt2Au
_chemical_formula_sum   'Ce3 Cd3 Pt2 Au1'
_cell_volume   209.95334478
_cell_formula_units_Z   1
loop_
 _symmetry_equiv_pos_site_id
 _symmetry_equiv_pos_as_xyz
  1  'x, y, z'
loop_
 _atom_site_type_symbol
 _atom_site_label
 _atom_site_symmetry_multiplicity
 _atom_site_fract_x
 _atom_site_fract_y
 _atom_site_fract_z
 _atom_site_occupancy
  Ce  Ce0  1  0.587899  0.587899  0.000000  1
  Ce  Ce1  1  0.412101  0.000000  0.000000  1
  Ce  Ce2  1  0.000000  0.412101  0.000000  1
  Cd  Cd3  1  0.000000  0.739642  0.500000  1
  Cd  Cd4  1  0.260358  0.260358  0.500000  1
  Cd  Cd5  1  0.739642  0.000000  0.500000  1
  Pt  Pt6  1  0.333333  0.666667  0.500000  1
  Pt  Pt7  1  0.666667  0.333333  0.500000  1
  Au  Au8  1  0.000000  0.000000  0.000000  1
