# generated using pymatgen
data_Ca2Nd8Ga5Sb
_symmetry_space_group_name_H-M   'P 1'
_cell_length_a   9.08996335
_cell_length_b   9.08996276
_cell_length_c   9.08996239
_cell_angle_alpha   127.60187416
_cell_angle_beta   127.60186571
_cell_angle_gamma   77.27087420
_symmetry_Int_Tables_number   1
_chemical_formula_structural   Ca2Nd8Ga5Sb
_chemical_formula_sum   'Ca2 Nd8 Ga5 Sb1'
_cell_volume   457.42114229
_cell_formula_units_Z   1
loop_
 _symmetry_equiv_pos_site_id
 _symmetry_equiv_pos_as_xyz
  1  'x, y, z'
loop_
 _atom_site_type_symbol
 _atom_site_label
 _atom_site_symmetry_multiplicity
 _atom_site_fract_x
 _atom_site_fract_y
 _atom_site_fract_z
 _atom_site_occupancy
  Ca  Ca0  1  0.500751  0.500751  0.000000  1
  Ca  Ca1  1  0.999249  0.999249  0.000000  1
  Nd  Nd2  1  0.527910  0.019066  0.840506  1
  Nd  Nd3  1  0.178559  0.687403  0.159494  1
  Nd  Nd4  1  0.019066  0.178559  0.491156  1
  Nd  Nd5  1  0.687403  0.527910  0.508844  1
  Nd  Nd6  1  0.480934  0.972090  0.159494  1
  Nd  Nd7  1  0.812597  0.321441  0.840506  1
  Nd  Nd8  1  0.972090  0.812597  0.491156  1
  Nd  Nd9  1  0.321441  0.480934  0.508844  1
  Ga  Ga10  1  0.750000  0.750000  0.000000  1
  Ga  Ga11  1  0.881666  0.381666  0.263331  1
  Ga  Ga12  1  0.118334  0.618334  0.736669  1
  Ga  Ga13  1  0.381666  0.118334  0.500000  1
  Ga  Ga14  1  0.618334  0.881666  0.500000  1
  Sb  Sb15  1  0.250000  0.250000  0.000000  1
