# generated using pymatgen
data_Tb3DyCdRu
_symmetry_space_group_name_H-M   'P 1'
_cell_length_a   9.63896737
_cell_length_b   9.63896734
_cell_length_c   9.63896700
_cell_angle_alpha   60.00000459
_cell_angle_beta   60.00000469
_cell_angle_gamma   59.99999907
_symmetry_Int_Tables_number   1
_chemical_formula_structural   Tb3DyCdRu
_chemical_formula_sum   'Tb12 Dy4 Cd4 Ru4'
_cell_volume   633.25195842
_cell_formula_units_Z   4
loop_
 _symmetry_equiv_pos_site_id
 _symmetry_equiv_pos_as_xyz
  1  'x, y, z'
loop_
 _atom_site_type_symbol
 _atom_site_label
 _atom_site_symmetry_multiplicity
 _atom_site_fract_x
 _atom_site_fract_y
 _atom_site_fract_z
 _atom_site_occupancy
  Tb  Tb0  1  0.561464  0.561464  0.938536  1
  Tb  Tb1  1  0.938536  0.561464  0.938536  1
  Tb  Tb2  1  0.561464  0.938536  0.938536  1
  Tb  Tb3  1  0.938536  0.938536  0.561464  1
  Tb  Tb4  1  0.561464  0.938536  0.561464  1
  Tb  Tb5  1  0.938536  0.561464  0.561464  1
  Tb  Tb6  1  0.189366  0.189366  0.810634  1
  Tb  Tb7  1  0.810634  0.189366  0.810634  1
  Tb  Tb8  1  0.189365  0.810635  0.810634  1
  Tb  Tb9  1  0.810634  0.810635  0.189366  1
  Tb  Tb10  1  0.189365  0.810634  0.189365  1
  Tb  Tb11  1  0.810634  0.189366  0.189366  1
  Dy  Dy12  1  0.346204  0.346204  0.961389  1
  Dy  Dy13  1  0.346204  0.961389  0.346204  1
  Dy  Dy14  1  0.961389  0.346204  0.346204  1
  Dy  Dy15  1  0.346204  0.346204  0.346204  1
  Cd  Cd16  1  0.580210  0.580210  0.259369  1
  Cd  Cd17  1  0.580210  0.259369  0.580210  1
  Cd  Cd18  1  0.259369  0.580210  0.580210  1
  Cd  Cd19  1  0.580210  0.580210  0.580210  1
  Ru  Ru20  1  0.139478  0.139478  0.581565  1
  Ru  Ru21  1  0.139478  0.581565  0.139478  1
  Ru  Ru22  1  0.581565  0.139478  0.139478  1
  Ru  Ru23  1  0.139478  0.139478  0.139478  1
