# generated using pymatgen
data_YEr2Cu4Si3Ge
_symmetry_space_group_name_H-M   'P 1'
_cell_length_a   7.83767401
_cell_length_b   7.83767406
_cell_length_c   7.83767430
_cell_angle_alpha   149.34114312
_cell_angle_beta   130.57049917
_cell_angle_gamma   59.29607619
_symmetry_Int_Tables_number   1
_chemical_formula_structural   YEr2Cu4Si3Ge
_chemical_formula_sum   'Y1 Er2 Cu4 Si3 Ge1'
_cell_volume   185.00026558
_cell_formula_units_Z   1
loop_
 _symmetry_equiv_pos_site_id
 _symmetry_equiv_pos_as_xyz
  1  'x, y, z'
loop_
 _atom_site_type_symbol
 _atom_site_label
 _atom_site_symmetry_multiplicity
 _atom_site_fract_x
 _atom_site_fract_y
 _atom_site_fract_z
 _atom_site_occupancy
  Y  Y0  1  0.999039  0.999039  0.000000  1
  Er  Er1  1  0.371275  0.871275  0.500000  1
  Er  Er2  1  0.628999  0.128999  0.500000  1
  Cu  Cu3  1  0.646002  0.333593  0.312409  1
  Cu  Cu4  1  0.362113  0.667130  0.694983  1
  Cu  Cu5  1  0.021185  0.333593  0.687591  1
  Cu  Cu6  1  0.972147  0.667130  0.305017  1
  Si  Si7  1  0.783194  0.783194  0.000000  1
  Si  Si8  1  0.683101  0.499806  0.183296  1
  Si  Si9  1  0.316510  0.499806  0.816704  1
  Ge  Ge10  1  0.216436  0.216436  0.000000  1
