# generated using pymatgen
data_Lu3Al3SiNi2
_symmetry_space_group_name_H-M   'P 1'
_cell_length_a   6.84994700
_cell_length_b   6.84994752
_cell_length_c   3.90427100
_cell_angle_alpha   90.00000000
_cell_angle_beta   90.00000000
_cell_angle_gamma   119.99999268
_symmetry_Int_Tables_number   1
_chemical_formula_structural   Lu3Al3SiNi2
_chemical_formula_sum   'Lu3 Al3 Si1 Ni2'
_cell_volume   158.65182557
_cell_formula_units_Z   1
loop_
 _symmetry_equiv_pos_site_id
 _symmetry_equiv_pos_as_xyz
  1  'x, y, z'
loop_
 _atom_site_type_symbol
 _atom_site_label
 _atom_site_symmetry_multiplicity
 _atom_site_fract_x
 _atom_site_fract_y
 _atom_site_fract_z
 _atom_site_occupancy
  Lu  Lu0  1  0.989450  0.409221  0.500000  1
  Lu  Lu1  1  0.590779  0.580229  0.500000  1
  Lu  Lu2  1  0.419771  0.010550  0.500000  1
  Al  Al3  1  0.992125  0.756344  0.000000  1
  Al  Al4  1  0.243656  0.235782  0.000000  1
  Al  Al5  1  0.764218  0.007875  0.000000  1
  Si  Si6  1  0.333333  0.666667  0.000000  1
  Ni  Ni7  1  0.666667  0.333333  0.000000  1
  Ni  Ni8  1  0.000000  0.000000  0.500000  1
