# generated using pymatgen
data_Er2Zn(Co3B2)3
_symmetry_space_group_name_H-M   'P 1'
_cell_length_a   5.75139103
_cell_length_b   5.75139125
_cell_length_c   5.75139069
_cell_angle_alpha   96.12339522
_cell_angle_beta   96.12339867
_cell_angle_gamma   96.12341696
_symmetry_Int_Tables_number   1
_chemical_formula_structural   Er2Zn(Co3B2)3
_chemical_formula_sum   'Er2 Zn1 Co9 B6'
_cell_volume   186.73697279
_cell_formula_units_Z   1
loop_
 _symmetry_equiv_pos_site_id
 _symmetry_equiv_pos_as_xyz
  1  'x, y, z'
loop_
 _atom_site_type_symbol
 _atom_site_label
 _atom_site_symmetry_multiplicity
 _atom_site_fract_x
 _atom_site_fract_y
 _atom_site_fract_z
 _atom_site_occupancy
  Er  Er0  1  0.678129  0.678129  0.678129  1
  Er  Er1  1  0.321871  0.321871  0.321871  1
  Zn  Zn2  1  0.000000  0.000000  0.000000  1
  Co  Co3  1  0.000000  0.000000  0.500000  1
  Co  Co4  1  0.500000  0.000000  0.000000  1
  Co  Co5  1  0.000000  0.500000  0.000000  1
  Co  Co6  1  0.706141  0.196930  0.706141  1
  Co  Co7  1  0.706141  0.706141  0.196930  1
  Co  Co8  1  0.196930  0.706141  0.706141  1
  Co  Co9  1  0.293859  0.803070  0.293859  1
  Co  Co10  1  0.293859  0.293859  0.803070  1
  Co  Co11  1  0.803070  0.293859  0.293859  1
  B  B12  1  0.615541  0.384459  0.000000  1
  B  B13  1  0.000000  0.615541  0.384459  1
  B  B14  1  0.384459  0.000000  0.615541  1
  B  B15  1  0.000000  0.384459  0.615541  1
  B  B16  1  0.615541  0.000000  0.384459  1
  B  B17  1  0.384459  0.615541  0.000000  1
