# generated using pymatgen
data_Pa4Ga20CuPt10
_symmetry_space_group_name_H-M   'P 1'
_cell_length_a   4.30685063
_cell_length_b   10.86508220
_cell_length_c   13.50447167
_cell_angle_alpha   81.73147266
_cell_angle_beta   80.76767980
_cell_angle_gamma   78.47756763
_symmetry_Int_Tables_number   1
_chemical_formula_structural   Pa4Ga20CuPt10
_chemical_formula_sum   'Pa4 Ga20 Cu1 Pt10'
_cell_volume   607.08077790
_cell_formula_units_Z   1
loop_
 _symmetry_equiv_pos_site_id
 _symmetry_equiv_pos_as_xyz
  1  'x, y, z'
loop_
 _atom_site_type_symbol
 _atom_site_label
 _atom_site_symmetry_multiplicity
 _atom_site_fract_x
 _atom_site_fract_y
 _atom_site_fract_z
 _atom_site_occupancy
  Pa  Pa0  1  0.120201  0.090032  0.668227  1
  Pa  Pa1  1  0.879799  0.909968  0.331773  1
  Pa  Pa2  1  0.774372  0.626471  0.821658  1
  Pa  Pa3  1  0.225628  0.373529  0.178342  1
  Ga  Ga4  1  0.011605  0.068780  0.911406  1
  Ga  Ga5  1  0.988395  0.931220  0.088594  1
  Ga  Ga6  1  0.062063  0.675938  0.197526  1
  Ga  Ga7  1  0.937937  0.324062  0.802474  1
  Ga  Ga8  1  0.106474  0.336225  0.451478  1
  Ga  Ga9  1  0.893526  0.663775  0.548522  1
  Ga  Ga10  1  0.197385  0.608107  0.996621  1
  Ga  Ga11  1  0.802615  0.391893  0.003379  1
  Ga  Ga12  1  0.262151  0.777990  0.695921  1
  Ga  Ga13  1  0.737849  0.222010  0.304079  1
  Ga  Ga14  1  0.303105  0.898624  0.496015  1
  Ga  Ga15  1  0.696895  0.101376  0.503985  1
  Ga  Ga16  1  0.388650  0.523609  0.695562  1
  Ga  Ga17  1  0.611350  0.476391  0.304438  1
  Ga  Ga18  1  0.396610  0.202247  0.000593  1
  Ga  Ga19  1  0.603390  0.797753  0.999407  1
  Ga  Ga20  1  0.542565  0.286753  0.626461  1
  Ga  Ga21  1  0.457435  0.713247  0.373539  1
  Ga  Ga22  1  0.638021  0.929894  0.797845  1
  Ga  Ga23  1  0.361979  0.070106  0.202155  1
  Cu  Cu24  1  0.500000  0.500000  0.500000  1
  Pt  Pt25  1  0.025791  0.571609  0.379169  1
  Pt  Pt26  1  0.974209  0.428391  0.620831  1
  Pt  Pt27  1  0.146695  0.827866  0.885005  1
  Pt  Pt28  1  0.853305  0.172134  0.114995  1
  Pt  Pt29  1  0.243382  0.123212  0.390458  1
  Pt  Pt30  1  0.756618  0.876788  0.609542  1
  Pt  Pt31  1  0.344472  0.424462  0.888022  1
  Pt  Pt32  1  0.655528  0.575538  0.111978  1
  Pt  Pt33  1  0.510242  0.168254  0.813645  1
  Pt  Pt34  1  0.489758  0.831746  0.186355  1
