# generated using pymatgen
data_CoBi3Os2O11
_symmetry_space_group_name_H-M   'P 1'
_cell_length_a   6.68730350
_cell_length_b   7.39525430
_cell_length_c   9.55929000
_cell_angle_alpha   100.75164282
_cell_angle_beta   92.40543503
_cell_angle_gamma   89.93722576
_symmetry_Int_Tables_number   1
_chemical_formula_structural   CoBi3Os2O11
_chemical_formula_sum   'Co2 Bi6 Os4 O22'
_cell_volume   464.02885311
_cell_formula_units_Z   2
loop_
 _symmetry_equiv_pos_site_id
 _symmetry_equiv_pos_as_xyz
  1  'x, y, z'
loop_
 _atom_site_type_symbol
 _atom_site_label
 _atom_site_symmetry_multiplicity
 _atom_site_fract_x
 _atom_site_fract_y
 _atom_site_fract_z
 _atom_site_occupancy
  Co  Co0  1  0.709771  0.373422  0.493996  1
  Co  Co1  1  0.290229  0.626578  0.506004  1
  Bi  Bi2  1  0.747532  0.860490  0.495705  1
  Bi  Bi3  1  0.252468  0.139510  0.504295  1
  Bi  Bi4  1  0.412889  0.947022  0.823661  1
  Bi  Bi5  1  0.587111  0.052978  0.176339  1
  Bi  Bi6  1  0.408314  0.457571  0.823249  1
  Bi  Bi7  1  0.591686  0.542429  0.176751  1
  Os  Os8  1  0.921003  0.699094  0.805824  1
  Os  Os9  1  0.078997  0.300906  0.194176  1
  Os  Os10  1  0.915122  0.203782  0.806508  1
  Os  Os11  1  0.084878  0.796218  0.193492  1
  O  O12  1  0.208672  0.694808  0.737513  1
  O  O13  1  0.791328  0.305192  0.262487  1
  O  O14  1  0.630162  0.701849  0.853395  1
  O  O15  1  0.369838  0.298151  0.146605  1
  O  O16  1  0.624187  0.220137  0.843951  1
  O  O17  1  0.375813  0.779863  0.156049  1
  O  O18  1  0.867613  0.198753  0.606467  1
  O  O19  1  0.132387  0.801247  0.393533  1
  O  O20  1  0.209247  0.176912  0.755501  1
  O  O21  1  0.790753  0.823088  0.244499  1
  O  O22  1  0.846499  0.608164  0.611077  1
  O  O23  1  0.153501  0.391836  0.388923  1
  O  O24  1  0.054608  0.540774  0.160790  1
  O  O25  1  0.945392  0.459226  0.839210  1
  O  O26  1  0.010506  0.786958  0.997734  1
  O  O27  1  0.989494  0.213042  0.002266  1
  O  O28  1  0.562157  0.601795  0.401323  1
  O  O29  1  0.437843  0.398205  0.598677  1
  O  O30  1  0.111181  0.057099  0.228779  1
  O  O31  1  0.888819  0.942901  0.771221  1
  O  O32  1  0.552264  0.100190  0.399995  1
  O  O33  1  0.447736  0.899810  0.600005  1
