# generated using pymatgen
data_Hf18MnRe5NiMo3
_symmetry_space_group_name_H-M   'P 1'
_cell_length_a   8.62619483
_cell_length_b   8.62619439
_cell_length_c   8.46361000
_cell_angle_alpha   90.00000000
_cell_angle_beta   90.00000000
_cell_angle_gamma   119.94985592
_symmetry_Int_Tables_number   1
_chemical_formula_structural   Hf18MnRe5NiMo3
_chemical_formula_sum   'Hf18 Mn1 Re5 Ni1 Mo3'
_cell_volume   545.68749170
_cell_formula_units_Z   1
loop_
 _symmetry_equiv_pos_site_id
 _symmetry_equiv_pos_as_xyz
  1  'x, y, z'
loop_
 _atom_site_type_symbol
 _atom_site_label
 _atom_site_symmetry_multiplicity
 _atom_site_fract_x
 _atom_site_fract_y
 _atom_site_fract_z
 _atom_site_occupancy
  Hf  Hf0  1  0.201260  0.798740  0.441200  1
  Hf  Hf1  1  0.200944  0.402164  0.441722  1
  Hf  Hf2  1  0.597836  0.799056  0.441722  1
  Hf  Hf3  1  0.801532  0.198468  0.557396  1
  Hf  Hf4  1  0.800638  0.602064  0.556278  1
  Hf  Hf5  1  0.397936  0.199362  0.556278  1
  Hf  Hf6  1  0.801532  0.198468  0.942604  1
  Hf  Hf7  1  0.800638  0.602064  0.943722  1
  Hf  Hf8  1  0.397936  0.199362  0.943722  1
  Hf  Hf9  1  0.201260  0.798740  0.058800  1
  Hf  Hf10  1  0.200944  0.402164  0.058278  1
  Hf  Hf11  1  0.597836  0.799056  0.058278  1
  Hf  Hf12  1  0.540215  0.459785  0.250000  1
  Hf  Hf13  1  0.540733  0.080820  0.250000  1
  Hf  Hf14  1  0.919180  0.459267  0.250000  1
  Hf  Hf15  1  0.458866  0.541134  0.750000  1
  Hf  Hf16  1  0.460711  0.917913  0.750000  1
  Hf  Hf17  1  0.082087  0.539289  0.750000  1
  Mn  Mn18  1  0.333513  0.666487  0.250000  1
  Re  Re19  1  0.888396  0.111604  0.250000  1
  Re  Re20  1  0.887905  0.775860  0.250000  1
  Re  Re21  1  0.224140  0.112095  0.250000  1
  Re  Re22  1  0.111772  0.225150  0.750000  1
  Re  Re23  1  0.774850  0.888228  0.750000  1
  Ni  Ni24  1  0.666702  0.333298  0.750000  1
  Mo  Mo25  1  0.111119  0.888881  0.750000  1
  Mo  Mo26  1  0.999758  0.000242  0.499227  1
  Mo  Mo27  1  0.999758  0.000242  0.000773  1
