# generated using pymatgen
data_Th8NiIr5Pd2
_symmetry_space_group_name_H-M   'P 1'
_cell_length_a   4.34440700
_cell_length_b   5.95516387
_cell_length_c   14.76211455
_cell_angle_alpha   90.01879828
_cell_angle_beta   90.00000000
_cell_angle_gamma   90.00000000
_symmetry_Int_Tables_number   1
_chemical_formula_structural   Th8NiIr5Pd2
_chemical_formula_sum   'Th8 Ni1 Ir5 Pd2'
_cell_volume   381.92032283
_cell_formula_units_Z   1
loop_
 _symmetry_equiv_pos_site_id
 _symmetry_equiv_pos_as_xyz
  1  'x, y, z'
loop_
 _atom_site_type_symbol
 _atom_site_label
 _atom_site_symmetry_multiplicity
 _atom_site_fract_x
 _atom_site_fract_y
 _atom_site_fract_z
 _atom_site_occupancy
  Th  Th0  1  0.250000  0.547481  0.285061  1
  Th  Th1  1  0.750000  0.460895  0.719323  1
  Th  Th2  1  0.250000  0.952719  0.786608  1
  Th  Th3  1  0.250000  0.761268  0.534499  1
  Th  Th4  1  0.250000  0.739033  0.032309  1
  Th  Th5  1  0.750000  0.260274  0.961099  1
  Th  Th6  1  0.750000  0.037482  0.216714  1
  Th  Th7  1  0.750000  0.244007  0.460111  1
  Ni  Ni8  1  0.750000  0.769903  0.901002  1
  Ir  Ir9  1  0.250000  0.070862  0.348017  1
  Ir  Ir10  1  0.750000  0.569762  0.144039  1
  Ir  Ir11  1  0.750000  0.719245  0.402924  1
  Ir  Ir12  1  0.250000  0.440654  0.852713  1
  Ir  Ir13  1  0.750000  0.930348  0.655086  1
  Pd  Pd14  1  0.250000  0.228341  0.098919  1
  Pd  Pd15  1  0.250000  0.267727  0.601575  1
