# generated using pymatgen
data_BaAu2(SeO4)4
_symmetry_space_group_name_H-M   'P 1'
_cell_length_a   7.12144837
_cell_length_b   7.12144811
_cell_length_c   9.52841929
_cell_angle_alpha   73.13996081
_cell_angle_beta   73.13995926
_cell_angle_gamma   86.45590387
_symmetry_Int_Tables_number   1
_chemical_formula_structural   BaAu2(SeO4)4
_chemical_formula_sum   'Ba1 Au2 Se4 O16'
_cell_volume   442.45303511
_cell_formula_units_Z   1
loop_
 _symmetry_equiv_pos_site_id
 _symmetry_equiv_pos_as_xyz
  1  'x, y, z'
loop_
 _atom_site_type_symbol
 _atom_site_label
 _atom_site_symmetry_multiplicity
 _atom_site_fract_x
 _atom_site_fract_y
 _atom_site_fract_z
 _atom_site_occupancy
  Ba  Ba0  1  0.000000  0.000000  0.000000  1
  Au  Au1  1  0.000000  0.000000  0.500000  1
  Au  Au2  1  0.500000  0.500000  0.500000  1
  Se  Se3  1  0.088835  0.591446  0.729824  1
  Se  Se4  1  0.591446  0.088835  0.729824  1
  Se  Se5  1  0.911165  0.408554  0.270176  1
  Se  Se6  1  0.408554  0.911165  0.270176  1
  O  O7  1  0.342830  0.627468  0.660845  1
  O  O8  1  0.627468  0.342830  0.660845  1
  O  O9  1  0.657170  0.372532  0.339155  1
  O  O10  1  0.372532  0.657170  0.339155  1
  O  O11  1  0.022541  0.703881  0.863083  1
  O  O12  1  0.703881  0.022541  0.863083  1
  O  O13  1  0.977459  0.296119  0.136917  1
  O  O14  1  0.296119  0.977459  0.136917  1
  O  O15  1  0.988887  0.702663  0.579682  1
  O  O16  1  0.702663  0.988887  0.579682  1
  O  O17  1  0.011113  0.297337  0.420318  1
  O  O18  1  0.297337  0.011113  0.420318  1
  O  O19  1  0.027963  0.359195  0.774521  1
  O  O20  1  0.359195  0.027963  0.774521  1
  O  O21  1  0.972037  0.640805  0.225479  1
  O  O22  1  0.640805  0.972037  0.225479  1
