# generated using pymatgen
data_Tm4Lu8InFe3Bi
_symmetry_space_group_name_H-M   'P 1'
_cell_length_a   8.24155768
_cell_length_b   8.24155840
_cell_length_c   8.24155774
_cell_angle_alpha   108.64140692
_cell_angle_beta   108.16666324
_cell_angle_gamma   111.62767707
_symmetry_Int_Tables_number   1
_chemical_formula_structural   Tm4Lu8InFe3Bi
_chemical_formula_sum   'Tm4 Lu8 In1 Fe3 Bi1'
_cell_volume   430.46250165
_cell_formula_units_Z   1
loop_
 _symmetry_equiv_pos_site_id
 _symmetry_equiv_pos_as_xyz
  1  'x, y, z'
loop_
 _atom_site_type_symbol
 _atom_site_label
 _atom_site_symmetry_multiplicity
 _atom_site_fract_x
 _atom_site_fract_y
 _atom_site_fract_z
 _atom_site_occupancy
  Tm  Tm0  1  0.312624  0.302986  0.615610  1
  Tm  Tm1  1  0.687376  0.697014  0.384390  1
  Tm  Tm2  1  0.687376  0.302986  0.990362  1
  Tm  Tm3  1  0.312624  0.697014  0.009638  1
  Lu  Lu4  1  0.193825  0.424817  0.230992  1
  Lu  Lu5  1  0.806175  0.575183  0.769008  1
  Lu  Lu6  1  0.193825  0.962831  0.769008  1
  Lu  Lu7  1  0.954966  0.190626  0.764343  1
  Lu  Lu8  1  0.806175  0.037169  0.230992  1
  Lu  Lu9  1  0.045034  0.809374  0.235657  1
  Lu  Lu10  1  0.426283  0.190626  0.235657  1
  Lu  Lu11  1  0.573717  0.809374  0.764343  1
  In  In12  1  0.500000  0.000000  0.500000  1
  Fe  Fe13  1  0.383089  0.383089  0.000000  1
  Fe  Fe14  1  0.616911  0.616911  0.000000  1
  Fe  Fe15  1  0.000000  0.000000  0.000000  1
  Bi  Bi16  1  0.000000  0.500000  0.500000  1
