# generated using pymatgen
data_LaSm(ScIr)2
_symmetry_space_group_name_H-M   'P 1'
_cell_length_a   7.23815900
_cell_length_b   4.29609000
_cell_length_c   8.92783000
_cell_angle_alpha   90.00000000
_cell_angle_beta   90.00000000
_cell_angle_gamma   90.00000000
_symmetry_Int_Tables_number   1
_chemical_formula_structural   LaSm(ScIr)2
_chemical_formula_sum   'La2 Sm2 Sc4 Ir4'
_cell_volume   277.61785986
_cell_formula_units_Z   2
loop_
 _symmetry_equiv_pos_site_id
 _symmetry_equiv_pos_as_xyz
  1  'x, y, z'
loop_
 _atom_site_type_symbol
 _atom_site_label
 _atom_site_symmetry_multiplicity
 _atom_site_fract_x
 _atom_site_fract_y
 _atom_site_fract_z
 _atom_site_occupancy
  La  La0  1  0.012385  0.750000  0.821303  1
  La  La1  1  0.512385  0.750000  0.678697  1
  Sm  Sm2  1  0.982289  0.250000  0.179593  1
  Sm  Sm3  1  0.482289  0.250000  0.320407  1
  Sc  Sc4  1  0.865098  0.250000  0.556028  1
  Sc  Sc5  1  0.365098  0.250000  0.943972  1
  Sc  Sc6  1  0.138974  0.750000  0.430327  1
  Sc  Sc7  1  0.638974  0.750000  0.069673  1
  Ir  Ir8  1  0.736331  0.250000  0.904296  1
  Ir  Ir9  1  0.236331  0.250000  0.595704  1
  Ir  Ir10  1  0.264923  0.750000  0.105404  1
  Ir  Ir11  1  0.764923  0.750000  0.394596  1
