# generated using pymatgen
data_Pr5BiPtO12
_symmetry_space_group_name_H-M   'P 1'
_cell_length_a   7.26172203
_cell_length_b   7.26172270
_cell_length_c   7.69056906
_cell_angle_alpha   74.53096413
_cell_angle_beta   74.53096493
_cell_angle_gamma   50.99551876
_symmetry_Int_Tables_number   1
_chemical_formula_structural   Pr5BiPtO12
_chemical_formula_sum   'Pr5 Bi1 Pt1 O12'
_cell_volume   301.07331461
_cell_formula_units_Z   1
loop_
 _symmetry_equiv_pos_site_id
 _symmetry_equiv_pos_as_xyz
  1  'x, y, z'
loop_
 _atom_site_type_symbol
 _atom_site_label
 _atom_site_symmetry_multiplicity
 _atom_site_fract_x
 _atom_site_fract_y
 _atom_site_fract_z
 _atom_site_occupancy
  Pr  Pr0  1  0.286502  0.313035  0.361183  1
  Pr  Pr1  1  0.686965  0.713498  0.638817  1
  Pr  Pr2  1  0.689789  0.701609  0.166996  1
  Pr  Pr3  1  0.298391  0.310211  0.833004  1
  Pr  Pr4  1  0.002112  0.997888  0.500000  1
  Bi  Bi5  1  0.767989  0.232011  0.000000  1
  Pt  Pt6  1  0.259131  0.740869  0.000000  1
  O  O7  1  0.087619  0.602172  0.575772  1
  O  O8  1  0.024777  0.974436  0.182822  1
  O  O9  1  0.397828  0.912381  0.424228  1
  O  O10  1  0.496640  0.503713  0.182846  1
  O  O11  1  0.098373  0.572888  0.082758  1
  O  O12  1  0.896805  0.404720  0.426374  1
  O  O13  1  0.025564  0.975223  0.817178  1
  O  O14  1  0.595280  0.103194  0.573626  1
  O  O15  1  0.496287  0.503360  0.817154  1
  O  O16  1  0.564022  0.101186  0.084171  1
  O  O17  1  0.427112  0.901627  0.917242  1
  O  O18  1  0.898814  0.435978  0.915829  1
