# generated using pymatgen
data_La20Si15Ge
_symmetry_space_group_name_H-M   'P 1'
_cell_length_a   8.03048908
_cell_length_b   8.02501538
_cell_length_c   15.66070787
_cell_angle_alpha   90.03502492
_cell_angle_beta   89.98415492
_cell_angle_gamma   90.00418488
_symmetry_Int_Tables_number   1
_chemical_formula_structural   La20Si15Ge
_chemical_formula_sum   'La20 Si15 Ge1'
_cell_volume   1009.25093228
_cell_formula_units_Z   1
loop_
 _symmetry_equiv_pos_site_id
 _symmetry_equiv_pos_as_xyz
  1  'x, y, z'
loop_
 _atom_site_type_symbol
 _atom_site_label
 _atom_site_symmetry_multiplicity
 _atom_site_fract_x
 _atom_site_fract_y
 _atom_site_fract_z
 _atom_site_occupancy
  La  La0  1  0.375812  0.478723  0.373270  1
  La  La1  1  0.872959  0.022795  0.375935  1
  La  La2  1  0.979168  0.125942  0.123204  1
  La  La3  1  0.020538  0.874379  0.623738  1
  La  La4  1  0.625489  0.520419  0.873106  1
  La  La5  1  0.479853  0.373390  0.627290  1
  La  La6  1  0.520659  0.625311  0.126682  1
  La  La7  1  0.125333  0.979606  0.877001  1
  La  La8  1  0.988095  0.618762  0.053504  1
  La  La9  1  0.011559  0.379746  0.554548  1
  La  La10  1  0.618618  0.988526  0.946038  1
  La  La11  1  0.118632  0.511847  0.803795  1
  La  La12  1  0.879336  0.486903  0.302307  1
  La  La13  1  0.511928  0.118777  0.196083  1
  La  La14  1  0.488654  0.881634  0.696614  1
  La  La15  1  0.382552  0.011890  0.446254  1
  La  La16  1  0.688816  0.692332  0.500978  1
  La  La17  1  0.808495  0.192217  0.750198  1
  La  La18  1  0.193402  0.808496  0.247964  1
  La  La19  1  0.307722  0.308109  0.000119  1
  Si  Si20  1  0.919044  0.288751  0.940623  1
  Si  Si21  1  0.712617  0.080786  0.559403  1
  Si  Si22  1  0.211409  0.419658  0.190857  1
  Si  Si23  1  0.789071  0.580644  0.690591  1
  Si  Si24  1  0.418907  0.211541  0.809749  1
  Si  Si25  1  0.581272  0.788325  0.309619  1
  Si  Si26  1  0.288458  0.919251  0.059025  1
  Si  Si27  1  0.829490  0.805802  0.794791  1
  Si  Si28  1  0.170853  0.194418  0.294729  1
  Si  Si29  1  0.806117  0.829259  0.205324  1
  Si  Si30  1  0.308592  0.669935  0.546617  1
  Si  Si31  1  0.694379  0.329732  0.044672  1
  Si  Si32  1  0.671025  0.306126  0.455665  1
  Si  Si33  1  0.329432  0.694197  0.955162  1
  Si  Si34  1  0.194155  0.170197  0.705601  1
  Ge  Ge35  1  0.077558  0.711576  0.438944  1
