# generated using pymatgen
data_Sc5Ta(SiRu)6
_symmetry_space_group_name_H-M   'P 1'
_cell_length_a   7.63801113
_cell_length_b   7.63609494
_cell_length_c   7.63801088
_cell_angle_alpha   126.91833826
_cell_angle_beta   125.97245952
_cell_angle_gamma   79.16573065
_symmetry_Int_Tables_number   1
_chemical_formula_structural   Sc5Ta(SiRu)6
_chemical_formula_sum   'Sc5 Ta1 Si6 Ru6'
_cell_volume   278.72669673
_cell_formula_units_Z   1
loop_
 _symmetry_equiv_pos_site_id
 _symmetry_equiv_pos_as_xyz
  1  'x, y, z'
loop_
 _atom_site_type_symbol
 _atom_site_label
 _atom_site_symmetry_multiplicity
 _atom_site_fract_x
 _atom_site_fract_y
 _atom_site_fract_z
 _atom_site_occupancy
  Sc  Sc0  1  0.950630  0.909719  0.459090  1
  Sc  Sc1  1  0.047519  0.500511  0.952993  1
  Sc  Sc2  1  0.546920  0.508117  0.461197  1
  Sc  Sc3  1  0.454961  0.911107  0.956146  1
  Sc  Sc4  1  0.749090  0.095931  0.846841  1
  Ta  Ta5  1  0.250721  0.096341  0.345620  1
  Si  Si6  1  0.747786  0.502073  0.254286  1
  Si  Si7  1  0.252492  0.501693  0.749201  1
  Si  Si8  1  0.661875  0.170274  0.500907  1
  Si  Si9  1  0.327978  0.838588  0.498142  1
  Si  Si10  1  0.169367  0.170274  0.008400  1
  Si  Si11  1  0.840446  0.838588  0.010610  1
  Ru  Ru12  1  0.494763  0.755537  0.250157  1
  Ru  Ru13  1  0.005380  0.755537  0.760774  1
  Ru  Ru14  1  0.878834  0.251962  0.378738  1
  Ru  Ru15  1  0.120990  0.499793  0.372769  1
  Ru  Ru16  1  0.373224  0.251962  0.873128  1
  Ru  Ru17  1  0.627024  0.499793  0.878803  1
