# generated using pymatgen
data_LaTh5Ir18
_symmetry_space_group_name_H-M   'P 1'
_cell_length_a   5.38434400
_cell_length_b   5.38434254
_cell_length_c   17.79948500
_cell_angle_alpha   90.00000000
_cell_angle_beta   90.00000000
_cell_angle_gamma   120.00000897
_symmetry_Int_Tables_number   1
_chemical_formula_structural   LaTh5Ir18
_chemical_formula_sum   'La1 Th5 Ir18'
_cell_volume   446.89295559
_cell_formula_units_Z   1
loop_
 _symmetry_equiv_pos_site_id
 _symmetry_equiv_pos_as_xyz
  1  'x, y, z'
loop_
 _atom_site_type_symbol
 _atom_site_label
 _atom_site_symmetry_multiplicity
 _atom_site_fract_x
 _atom_site_fract_y
 _atom_site_fract_z
 _atom_site_occupancy
  La  La0  1  0.333333  0.666667  0.540961  1
  Th  Th1  1  0.333333  0.666667  0.957184  1
  Th  Th2  1  0.666667  0.333333  0.042501  1
  Th  Th3  1  0.666667  0.333333  0.459580  1
  Th  Th4  1  0.333333  0.666667  0.747560  1
  Th  Th5  1  0.666667  0.333333  0.250507  1
  Ir  Ir6  1  0.166832  0.833168  0.372414  1
  Ir  Ir7  1  0.166832  0.333665  0.372414  1
  Ir  Ir8  1  0.666335  0.833168  0.372414  1
  Ir  Ir9  1  0.833277  0.166723  0.628046  1
  Ir  Ir10  1  0.833277  0.666553  0.628046  1
  Ir  Ir11  1  0.333447  0.166723  0.628046  1
  Ir  Ir12  1  0.832856  0.167144  0.872891  1
  Ir  Ir13  1  0.832856  0.665710  0.872891  1
  Ir  Ir14  1  0.334290  0.167144  0.872891  1
  Ir  Ir15  1  0.167159  0.832841  0.127044  1
  Ir  Ir16  1  0.167159  0.334318  0.127044  1
  Ir  Ir17  1  0.665682  0.832841  0.127044  1
  Ir  Ir18  1  0.333333  0.666667  0.249829  1
  Ir  Ir19  1  0.666667  0.333333  0.750186  1
  Ir  Ir20  1  0.000000  0.000000  0.249738  1
  Ir  Ir21  1  0.000000  0.000000  0.750519  1
  Ir  Ir22  1  0.000000  0.000000  0.500207  1
  Ir  Ir23  1  0.000000  0.000000  0.000042  1
