# generated using pymatgen
data_Cs2KPrBr6
_symmetry_space_group_name_H-M   'P 1'
_cell_length_a   8.48705672
_cell_length_b   8.48705742
_cell_length_c   8.68712474
_cell_angle_alpha   119.44563268
_cell_angle_beta   119.44563380
_cell_angle_gamma   60.15165541
_symmetry_Int_Tables_number   1
_chemical_formula_structural   Cs2KPrBr6
_chemical_formula_sum   'Cs2 K1 Pr1 Br6'
_cell_volume   446.65013256
_cell_formula_units_Z   1
loop_
 _symmetry_equiv_pos_site_id
 _symmetry_equiv_pos_as_xyz
  1  'x, y, z'
loop_
 _atom_site_type_symbol
 _atom_site_label
 _atom_site_symmetry_multiplicity
 _atom_site_fract_x
 _atom_site_fract_y
 _atom_site_fract_z
 _atom_site_occupancy
  Cs  Cs0  1  0.749324  0.749324  0.233327  1
  Cs  Cs1  1  0.250676  0.250676  0.766675  1
  K  K2  1  0.500000  0.500000  0.500001  1
  Pr  Pr3  1  0.000000  0.000000  0.000000  1
  Br  Br4  1  0.700476  0.185937  0.172130  1
  Br  Br5  1  0.185937  0.700476  0.172130  1
  Br  Br6  1  0.230048  0.230048  0.329035  1
  Br  Br7  1  0.769952  0.769952  0.670965  1
  Br  Br8  1  0.814063  0.299525  0.827869  1
  Br  Br9  1  0.299525  0.814063  0.827869  1
