# generated using pymatgen
data_RbZr6CBr15
_symmetry_space_group_name_H-M   'P 1'
_cell_length_a   10.46842600
_cell_length_b   14.92758500
_cell_length_c   19.87681200
_cell_angle_alpha   90.00000000
_cell_angle_beta   90.00000000
_cell_angle_gamma   90.00000000
_symmetry_Int_Tables_number   1
_chemical_formula_structural   RbZr6CBr15
_chemical_formula_sum   'Rb4 Zr24 C4 Br60'
_cell_volume   3106.11599695
_cell_formula_units_Z   4
loop_
 _symmetry_equiv_pos_site_id
 _symmetry_equiv_pos_as_xyz
  1  'x, y, z'
loop_
 _atom_site_type_symbol
 _atom_site_label
 _atom_site_symmetry_multiplicity
 _atom_site_fract_x
 _atom_site_fract_y
 _atom_site_fract_z
 _atom_site_occupancy
  Rb  Rb0  1  0.326078  0.747781  0.250000  1
  Rb  Rb1  1  0.673922  0.747781  0.750000  1
  Rb  Rb2  1  0.326078  0.252219  0.250000  1
  Rb  Rb3  1  0.673922  0.252219  0.750000  1
  Zr  Zr4  1  0.351930  0.610797  0.529041  1
  Zr  Zr5  1  0.617967  0.000000  0.250000  1
  Zr  Zr6  1  0.422380  0.500000  0.108557  1
  Zr  Zr7  1  0.351930  0.389203  0.529041  1
  Zr  Zr8  1  0.164192  0.111044  0.833245  1
  Zr  Zr9  1  0.835808  0.111044  0.166755  1
  Zr  Zr10  1  0.164192  0.888956  0.833245  1
  Zr  Zr11  1  0.164192  0.888956  0.666755  1
  Zr  Zr12  1  0.164192  0.111044  0.666755  1
  Zr  Zr13  1  0.648070  0.389203  0.029041  1
  Zr  Zr14  1  0.648070  0.389203  0.470959  1
  Zr  Zr15  1  0.835808  0.111044  0.333245  1
  Zr  Zr16  1  0.056809  0.000000  0.250000  1
  Zr  Zr17  1  0.422380  0.500000  0.391443  1
  Zr  Zr18  1  0.577620  0.500000  0.608557  1
  Zr  Zr19  1  0.382033  0.000000  0.750000  1
  Zr  Zr20  1  0.351930  0.610797  0.970959  1
  Zr  Zr21  1  0.943191  0.000000  0.750000  1
  Zr  Zr22  1  0.648070  0.610797  0.470959  1
  Zr  Zr23  1  0.577620  0.500000  0.891443  1
  Zr  Zr24  1  0.835808  0.888956  0.333245  1
  Zr  Zr25  1  0.835808  0.888956  0.166755  1
  Zr  Zr26  1  0.648070  0.610797  0.029041  1
  Zr  Zr27  1  0.351930  0.389203  0.970959  1
  C  C28  1  0.500000  0.500000  0.000000  1
  C  C29  1  0.837699  0.000000  0.250000  1
  C  C30  1  0.162301  0.000000  0.750000  1
  C  C31  1  0.500000  0.500000  0.500000  1
  Br  Br32  1  0.500000  0.752410  0.000000  1
  Br  Br33  1  0.419630  0.875167  0.844820  1
  Br  Br34  1  0.500000  0.752410  0.500000  1
  Br  Br35  1  0.092543  0.874408  0.153527  1
  Br  Br36  1  0.500000  0.247590  0.000000  1
  Br  Br37  1  0.663785  0.000000  0.750000  1
  Br  Br38  1  0.419630  0.124833  0.655180  1
  Br  Br39  1  0.336215  0.000000  0.250000  1
  Br  Br40  1  0.832116  0.250458  0.435411  1
  Br  Br41  1  0.580105  0.375534  0.158822  1
  Br  Br42  1  0.907457  0.874408  0.846473  1
  Br  Br43  1  0.419895  0.624466  0.658822  1
  Br  Br44  1  0.419895  0.624466  0.841178  1
  Br  Br45  1  0.838160  0.500000  0.433951  1
  Br  Br46  1  0.092543  0.125592  0.346473  1
  Br  Br47  1  0.419895  0.375534  0.841178  1
  Br  Br48  1  0.832116  0.749542  0.064589  1
  Br  Br49  1  0.419895  0.375534  0.658822  1
  Br  Br50  1  0.760202  0.626430  0.593399  1
  Br  Br51  1  0.155950  0.747235  0.750000  1
  Br  Br52  1  0.419630  0.875167  0.655180  1
  Br  Br53  1  0.907457  0.125592  0.846473  1
  Br  Br54  1  0.239798  0.626430  0.406601  1
  Br  Br55  1  0.500000  0.247590  0.500000  1
  Br  Br56  1  0.832116  0.749542  0.435411  1
  Br  Br57  1  0.580370  0.124833  0.155180  1
  Br  Br58  1  0.092543  0.125592  0.153527  1
  Br  Br59  1  0.838160  0.500000  0.066049  1
  Br  Br60  1  0.844050  0.252765  0.250000  1
  Br  Br61  1  0.580105  0.375534  0.341178  1
  Br  Br62  1  0.320287  0.500000  0.250000  1
  Br  Br63  1  0.832116  0.250458  0.064589  1
  Br  Br64  1  0.161840  0.500000  0.566049  1
  Br  Br65  1  0.092543  0.874408  0.346473  1
  Br  Br66  1  0.844050  0.747235  0.250000  1
  Br  Br67  1  0.161840  0.500000  0.933951  1
  Br  Br68  1  0.760202  0.373570  0.593399  1
  Br  Br69  1  0.836892  0.000000  0.060163  1
  Br  Br70  1  0.167884  0.749542  0.935411  1
  Br  Br71  1  0.167884  0.250458  0.564589  1
  Br  Br72  1  0.163108  0.000000  0.939837  1
  Br  Br73  1  0.580105  0.624466  0.158822  1
  Br  Br74  1  0.155950  0.252765  0.750000  1
  Br  Br75  1  0.580370  0.875167  0.155180  1
  Br  Br76  1  0.760202  0.626430  0.906601  1
  Br  Br77  1  0.239798  0.626430  0.093399  1
  Br  Br78  1  0.907457  0.874408  0.653527  1
  Br  Br79  1  0.239798  0.373570  0.406601  1
  Br  Br80  1  0.419630  0.124833  0.844820  1
  Br  Br81  1  0.163108  0.000000  0.560163  1
  Br  Br82  1  0.679713  0.500000  0.750000  1
  Br  Br83  1  0.907457  0.125592  0.653527  1
  Br  Br84  1  0.239798  0.373570  0.093399  1
  Br  Br85  1  0.580370  0.875167  0.344820  1
  Br  Br86  1  0.580105  0.624466  0.341178  1
  Br  Br87  1  0.167884  0.749542  0.564589  1
  Br  Br88  1  0.167884  0.250458  0.935411  1
  Br  Br89  1  0.836892  0.000000  0.439837  1
  Br  Br90  1  0.760202  0.373570  0.906601  1
  Br  Br91  1  0.580370  0.124833  0.344820  1
