# generated using pymatgen
data_Tb6Gd2In3Ir
_symmetry_space_group_name_H-M   'P 1'
_cell_length_a   10.47262300
_cell_length_b   10.47260910
_cell_length_c   7.13373100
_cell_angle_alpha   90.00000000
_cell_angle_beta   90.00000000
_cell_angle_gamma   119.99998388
_symmetry_Int_Tables_number   1
_chemical_formula_structural   Tb6Gd2In3Ir
_chemical_formula_sum   'Tb12 Gd4 In6 Ir2'
_cell_volume   677.57565627
_cell_formula_units_Z   2
loop_
 _symmetry_equiv_pos_site_id
 _symmetry_equiv_pos_as_xyz
  1  'x, y, z'
loop_
 _atom_site_type_symbol
 _atom_site_label
 _atom_site_symmetry_multiplicity
 _atom_site_fract_x
 _atom_site_fract_y
 _atom_site_fract_z
 _atom_site_occupancy
  Tb  Tb0  1  0.465741  0.534207  0.481574  1
  Tb  Tb1  1  0.068444  0.534230  0.481645  1
  Tb  Tb2  1  0.465760  0.931456  0.481562  1
  Tb  Tb3  1  0.534259  0.465793  0.981574  1
  Tb  Tb4  1  0.931556  0.465770  0.981645  1
  Tb  Tb5  1  0.534240  0.068544  0.981562  1
  Tb  Tb6  1  0.823848  0.176179  0.274963  1
  Tb  Tb7  1  0.352323  0.176125  0.275013  1
  Tb  Tb8  1  0.823883  0.647618  0.275067  1
  Tb  Tb9  1  0.176152  0.823821  0.774963  1
  Tb  Tb10  1  0.647677  0.823875  0.775013  1
  Tb  Tb11  1  0.176117  0.352382  0.775067  1
  Gd  Gd12  1  0.333467  0.666760  0.100996  1
  Gd  Gd13  1  0.666533  0.333240  0.600996  1
  Gd  Gd14  1  0.000012  0.000158  0.495276  1
  Gd  Gd15  1  0.999988  0.999842  0.995276  1
  In  In16  1  0.163272  0.836748  0.233535  1
  In  In17  1  0.673795  0.836894  0.233655  1
  In  In18  1  0.163196  0.326400  0.233515  1
  In  In19  1  0.836728  0.163252  0.733535  1
  In  In20  1  0.326205  0.163106  0.733655  1
  In  In21  1  0.836804  0.673600  0.733515  1
  Ir  Ir22  1  0.333320  0.666687  0.705478  1
  Ir  Ir23  1  0.666680  0.333313  0.205478  1
