# generated using pymatgen
data_U4(Pd3Pt)3
_symmetry_space_group_name_H-M   'P 1'
_cell_length_a   5.84780383
_cell_length_b   5.84780400
_cell_length_c   9.72723400
_cell_angle_alpha   90.00000000
_cell_angle_beta   90.00000000
_cell_angle_gamma   120.23054450
_symmetry_Int_Tables_number   1
_chemical_formula_structural   U4(Pd3Pt)3
_chemical_formula_sum   'U4 Pd9 Pt3'
_cell_volume   287.40345608
_cell_formula_units_Z   1
loop_
 _symmetry_equiv_pos_site_id
 _symmetry_equiv_pos_as_xyz
  1  'x, y, z'
loop_
 _atom_site_type_symbol
 _atom_site_label
 _atom_site_symmetry_multiplicity
 _atom_site_fract_x
 _atom_site_fract_y
 _atom_site_fract_z
 _atom_site_occupancy
  U  U0  1  0.001013  0.998987  0.498538  1
  U  U1  1  0.001013  0.998987  0.001462  1
  U  U2  1  0.335499  0.664501  0.750000  1
  U  U3  1  0.663305  0.336695  0.250000  1
  Pd  Pd4  1  0.501351  0.999088  0.500920  1
  Pd  Pd5  1  0.000912  0.498649  0.500920  1
  Pd  Pd6  1  0.501351  0.999088  0.999080  1
  Pd  Pd7  1  0.000912  0.498649  0.999080  1
  Pd  Pd8  1  0.168706  0.347752  0.250000  1
  Pd  Pd9  1  0.652248  0.831294  0.250000  1
  Pd  Pd10  1  0.829934  0.170066  0.750000  1
  Pd  Pd11  1  0.831561  0.655865  0.750000  1
  Pd  Pd12  1  0.344135  0.168439  0.750000  1
  Pt  Pt13  1  0.500302  0.499698  0.501600  1
  Pt  Pt14  1  0.500302  0.499698  0.998400  1
  Pt  Pt15  1  0.167458  0.832542  0.250000  1
