# generated using pymatgen
data_Tb2DyCdIn4
_symmetry_space_group_name_H-M   'P 1'
_cell_length_a   6.38721323
_cell_length_b   6.38721394
_cell_length_c   10.52938600
_cell_angle_alpha   90.00000000
_cell_angle_beta   90.00000000
_cell_angle_gamma   102.99301878
_symmetry_Int_Tables_number   1
_chemical_formula_structural   Tb2DyCdIn4
_chemical_formula_sum   'Tb4 Dy2 Cd2 In8'
_cell_volume   418.56419143
_cell_formula_units_Z   2
loop_
 _symmetry_equiv_pos_site_id
 _symmetry_equiv_pos_as_xyz
  1  'x, y, z'
loop_
 _atom_site_type_symbol
 _atom_site_label
 _atom_site_symmetry_multiplicity
 _atom_site_fract_x
 _atom_site_fract_y
 _atom_site_fract_z
 _atom_site_occupancy
  Tb  Tb0  1  0.203298  0.796702  0.500000  1
  Tb  Tb1  1  0.203298  0.796702  0.000000  1
  Tb  Tb2  1  0.796702  0.203298  0.500000  1
  Tb  Tb3  1  0.796702  0.203298  0.000000  1
  Dy  Dy4  1  0.620555  0.620555  0.250000  1
  Dy  Dy5  1  0.379445  0.379445  0.750000  1
  Cd  Cd6  1  0.011321  0.011321  0.250000  1
  Cd  Cd7  1  0.988679  0.988679  0.750000  1
  In  In8  1  0.309664  0.309664  0.044603  1
  In  In9  1  0.690336  0.690336  0.955397  1
  In  In10  1  0.309664  0.309664  0.455397  1
  In  In11  1  0.690336  0.690336  0.544603  1
  In  In12  1  0.512413  0.074338  0.250000  1
  In  In13  1  0.925662  0.487587  0.750000  1
  In  In14  1  0.487587  0.925662  0.750000  1
  In  In15  1  0.074338  0.512413  0.250000  1
