# generated using pymatgen
data_Ho4HfNb3F28
_symmetry_space_group_name_H-M   'P 1'
_cell_length_a   5.71120715
_cell_length_b   9.14343850
_cell_length_c   12.24738700
_cell_angle_alpha   62.47799208
_cell_angle_beta   90.04968933
_cell_angle_gamma   89.93664853
_symmetry_Int_Tables_number   1
_chemical_formula_structural   Ho4HfNb3F28
_chemical_formula_sum   'Ho4 Hf1 Nb3 F28'
_cell_volume   567.18162886
_cell_formula_units_Z   1
loop_
 _symmetry_equiv_pos_site_id
 _symmetry_equiv_pos_as_xyz
  1  'x, y, z'
loop_
 _atom_site_type_symbol
 _atom_site_label
 _atom_site_symmetry_multiplicity
 _atom_site_fract_x
 _atom_site_fract_y
 _atom_site_fract_z
 _atom_site_occupancy
  Ho  Ho0  1  0.755256  0.809875  0.770109  1
  Ho  Ho1  1  0.254840  0.183361  0.730876  1
  Ho  Ho2  1  0.243741  0.186026  0.232387  1
  Ho  Ho3  1  0.745118  0.818089  0.265978  1
  Hf  Hf4  1  0.754013  0.274307  0.954146  1
  Nb  Nb5  1  0.253735  0.725514  0.545105  1
  Nb  Nb6  1  0.246587  0.725157  0.047022  1
  Nb  Nb7  1  0.746447  0.274797  0.454020  1
  F  F8  1  0.467651  0.708767  0.922177  1
  F  F9  1  0.968332  0.289862  0.579898  1
  F  F10  1  0.526881  0.290999  0.073149  1
  F  F11  1  0.030504  0.711334  0.419977  1
  F  F12  1  0.461147  0.283396  0.554506  1
  F  F13  1  0.961195  0.717691  0.947164  1
  F  F14  1  0.536938  0.717738  0.443752  1
  F  F15  1  0.034936  0.284408  0.052174  1
  F  F16  1  0.764062  0.520690  0.857193  1
  F  F17  1  0.260995  0.484250  0.641980  1
  F  F18  1  0.239872  0.483086  0.141447  1
  F  F19  1  0.738802  0.515265  0.359068  1
  F  F20  1  0.759411  0.029202  0.058608  1
  F  F21  1  0.260238  0.965878  0.445527  1
  F  F22  1  0.240405  0.965116  0.946525  1
  F  F23  1  0.741006  0.035538  0.553256  1
  F  F24  1  0.982282  0.739423  0.648412  1
  F  F25  1  0.489672  0.259918  0.849923  1
  F  F26  1  0.019838  0.263241  0.350297  1
  F  F27  1  0.518121  0.734516  0.151989  1
  F  F28  1  0.030395  0.748653  0.171775  1
  F  F29  1  0.530038  0.249277  0.328914  1
  F  F30  1  0.974790  0.249327  0.833721  1
  F  F31  1  0.471445  0.752040  0.668615  1
  F  F32  1  0.435936  0.980857  0.234715  1
  F  F33  1  0.936601  0.025154  0.265260  1
  F  F34  1  0.559279  0.019490  0.764244  1
  F  F35  1  0.059491  0.977758  0.736094  1
