# generated using pymatgen
data_Ca3(DySi2)2
_symmetry_space_group_name_H-M   'P 1'
_cell_length_a   7.43881400
_cell_length_b   7.82485000
_cell_length_c   15.18756400
_cell_angle_alpha   90.00000000
_cell_angle_beta   90.00000000
_cell_angle_gamma   90.00000000
_symmetry_Int_Tables_number   1
_chemical_formula_structural   Ca3(DySi2)2
_chemical_formula_sum   'Ca12 Dy8 Si16'
_cell_volume   884.03170690
_cell_formula_units_Z   4
loop_
 _symmetry_equiv_pos_site_id
 _symmetry_equiv_pos_as_xyz
  1  'x, y, z'
loop_
 _atom_site_type_symbol
 _atom_site_label
 _atom_site_symmetry_multiplicity
 _atom_site_fract_x
 _atom_site_fract_y
 _atom_site_fract_z
 _atom_site_occupancy
  Ca  Ca0  1  0.649576  0.980814  0.250000  1
  Ca  Ca1  1  0.149576  0.519186  0.250000  1
  Ca  Ca2  1  0.850424  0.480814  0.750000  1
  Ca  Ca3  1  0.350424  0.019186  0.750000  1
  Ca  Ca4  1  0.974670  0.816828  0.095568  1
  Ca  Ca5  1  0.474670  0.683172  0.404432  1
  Ca  Ca6  1  0.525330  0.316828  0.904432  1
  Ca  Ca7  1  0.025330  0.183172  0.595568  1
  Ca  Ca8  1  0.025330  0.183172  0.904432  1
  Ca  Ca9  1  0.525330  0.316828  0.595568  1
  Ca  Ca10  1  0.474670  0.683172  0.095568  1
  Ca  Ca11  1  0.974670  0.816828  0.404432  1
  Dy  Dy12  1  0.683745  0.822682  0.878638  1
  Dy  Dy13  1  0.183745  0.677318  0.621362  1
  Dy  Dy14  1  0.816255  0.322682  0.121362  1
  Dy  Dy15  1  0.316255  0.177318  0.378638  1
  Dy  Dy16  1  0.316255  0.177318  0.121362  1
  Dy  Dy17  1  0.816255  0.322682  0.378638  1
  Dy  Dy18  1  0.183745  0.677318  0.878638  1
  Dy  Dy19  1  0.683745  0.822682  0.621362  1
  Si  Si20  1  0.754861  0.604586  0.250000  1
  Si  Si21  1  0.254861  0.895414  0.250000  1
  Si  Si22  1  0.745139  0.104586  0.750000  1
  Si  Si23  1  0.245139  0.395414  0.750000  1
  Si  Si24  1  0.025681  0.116449  0.250000  1
  Si  Si25  1  0.525681  0.383551  0.250000  1
  Si  Si26  1  0.474319  0.616449  0.750000  1
  Si  Si27  1  0.974319  0.883551  0.750000  1
  Si  Si28  1  0.858279  0.535311  0.962389  1
  Si  Si29  1  0.358279  0.964689  0.537611  1
  Si  Si30  1  0.641721  0.035311  0.037611  1
  Si  Si31  1  0.141721  0.464689  0.462389  1
  Si  Si32  1  0.141721  0.464689  0.037611  1
  Si  Si33  1  0.641721  0.035311  0.462389  1
  Si  Si34  1  0.358279  0.964689  0.962389  1
  Si  Si35  1  0.858279  0.535311  0.537611  1
