# generated using pymatgen
data_Y4Tm2Al24NiOs7
_symmetry_space_group_name_H-M   'P 1'
_cell_length_a   8.77965639
_cell_length_b   8.77965701
_cell_length_c   9.57438577
_cell_angle_alpha   89.67575718
_cell_angle_beta   90.32424153
_cell_angle_gamma   119.76599256
_symmetry_Int_Tables_number   1
_chemical_formula_structural   Y4Tm2Al24NiOs7
_chemical_formula_sum   'Y4 Tm2 Al24 Ni1 Os7'
_cell_volume   640.62897730
_cell_formula_units_Z   1
loop_
 _symmetry_equiv_pos_site_id
 _symmetry_equiv_pos_as_xyz
  1  'x, y, z'
loop_
 _atom_site_type_symbol
 _atom_site_label
 _atom_site_symmetry_multiplicity
 _atom_site_fract_x
 _atom_site_fract_y
 _atom_site_fract_z
 _atom_site_occupancy
  Y  Y0  1  0.187958  0.384366  0.250470  1
  Y  Y1  1  0.812042  0.615634  0.749530  1
  Y  Y2  1  0.615634  0.812042  0.250470  1
  Y  Y3  1  0.384366  0.187958  0.749530  1
  Tm  Tm4  1  0.195814  0.804186  0.249633  1
  Tm  Tm5  1  0.804186  0.195814  0.750367  1
  Al  Al6  1  0.335162  0.664838  0.020497  1
  Al  Al7  1  0.664838  0.335162  0.979503  1
  Al  Al8  1  0.666315  0.333685  0.520108  1
  Al  Al9  1  0.333685  0.666315  0.479892  1
  Al  Al10  1  0.164756  0.327044  0.576451  1
  Al  Al11  1  0.835244  0.672956  0.423549  1
  Al  Al12  1  0.672956  0.835244  0.576451  1
  Al  Al13  1  0.837365  0.673353  0.076919  1
  Al  Al14  1  0.327044  0.164756  0.423549  1
  Al  Al15  1  0.162635  0.326647  0.923081  1
  Al  Al16  1  0.164193  0.835807  0.574345  1
  Al  Al17  1  0.326647  0.162635  0.076919  1
  Al  Al18  1  0.835807  0.164193  0.425655  1
  Al  Al19  1  0.673353  0.837365  0.923081  1
  Al  Al20  1  0.835653  0.164347  0.074735  1
  Al  Al21  1  0.164347  0.835653  0.925265  1
  Al  Al22  1  0.561161  0.125335  0.249253  1
  Al  Al23  1  0.438839  0.874665  0.750747  1
  Al  Al24  1  0.874665  0.438839  0.249253  1
  Al  Al25  1  0.125335  0.561161  0.750747  1
  Al  Al26  1  0.559555  0.440445  0.246645  1
  Al  Al27  1  0.440445  0.559555  0.753355  1
  Al  Al28  1  0.001417  0.998583  0.250093  1
  Al  Al29  1  0.998583  0.001417  0.749907  1
  Ni  Ni30  1  0.500000  0.500000  0.000000  1
  Os  Os31  1  0.500000  0.000000  0.000000  1
  Os  Os32  1  0.000000  0.500000  0.000000  1
  Os  Os33  1  0.500000  0.000000  0.500000  1
  Os  Os34  1  0.000000  0.500000  0.500000  1
  Os  Os35  1  0.500000  0.500000  0.500000  1
  Os  Os36  1  0.000000  0.000000  0.000000  1
  Os  Os37  1  0.000000  0.000000  0.500000  1
