# generated using pymatgen
data_Hf5Zr3(Si4Rh3)4
_symmetry_space_group_name_H-M   'P 1'
_cell_length_a   5.47768931
_cell_length_b   6.97809932
_cell_length_c   14.25265935
_cell_angle_alpha   90.06951251
_cell_angle_beta   89.96302111
_cell_angle_gamma   90.01160878
_symmetry_Int_Tables_number   1
_chemical_formula_structural   Hf5Zr3(Si4Rh3)4
_chemical_formula_sum   'Hf5 Zr3 Si16 Rh12'
_cell_volume   544.79113165
_cell_formula_units_Z   1
loop_
 _symmetry_equiv_pos_site_id
 _symmetry_equiv_pos_as_xyz
  1  'x, y, z'
loop_
 _atom_site_type_symbol
 _atom_site_label
 _atom_site_symmetry_multiplicity
 _atom_site_fract_x
 _atom_site_fract_y
 _atom_site_fract_z
 _atom_site_occupancy
  Hf  Hf0  1  0.765710  0.400593  0.652103  1
  Hf  Hf1  1  0.233814  0.600164  0.348711  1
  Hf  Hf2  1  0.734008  0.899940  0.348640  1
  Hf  Hf3  1  0.265942  0.899869  0.848398  1
  Hf  Hf4  1  0.766043  0.599749  0.848091  1
  Zr  Zr5  1  0.234818  0.400914  0.152248  1
  Zr  Zr6  1  0.734771  0.099009  0.152155  1
  Zr  Zr7  1  0.265144  0.099003  0.652384  1
  Si  Si8  1  0.209902  0.023263  0.068637  1
  Si  Si9  1  0.709536  0.522601  0.430885  1
  Si  Si10  1  0.790153  0.023575  0.568939  1
  Si  Si11  1  0.483654  0.754831  0.187820  1
  Si  Si12  1  0.015641  0.255213  0.811882  1
  Si  Si13  1  0.516834  0.245350  0.811978  1
  Si  Si14  1  0.209385  0.977612  0.431141  1
  Si  Si15  1  0.290579  0.522699  0.930911  1
  Si  Si16  1  0.983453  0.745110  0.187803  1
  Si  Si17  1  0.709942  0.476864  0.068659  1
  Si  Si18  1  0.290995  0.477140  0.568895  1
  Si  Si19  1  0.483799  0.245227  0.312403  1
  Si  Si20  1  0.014993  0.743843  0.687940  1
  Si  Si21  1  0.790516  0.977146  0.930938  1
  Si  Si22  1  0.517838  0.754020  0.687635  1
  Si  Si23  1  0.983720  0.255076  0.312542  1
  Rh  Rh24  1  0.991347  0.280773  0.980035  1
  Rh  Rh25  1  0.508611  0.220032  0.480907  1
  Rh  Rh26  1  0.773447  0.998645  0.750964  1
  Rh  Rh27  1  0.491242  0.219221  0.980113  1
  Rh  Rh28  1  0.726438  0.501915  0.251465  1
  Rh  Rh29  1  0.492876  0.779820  0.517629  1
  Rh  Rh30  1  0.008066  0.281462  0.481396  1
  Rh  Rh31  1  0.006594  0.720855  0.017721  1
  Rh  Rh32  1  0.226295  0.998119  0.251553  1
  Rh  Rh33  1  0.274525  0.501092  0.750715  1
  Rh  Rh34  1  0.506657  0.779277  0.017699  1
  Rh  Rh35  1  0.992713  0.719978  0.518067  1
