# generated using pymatgen
data_Sm3Pa(CoB10)2
_symmetry_space_group_name_H-M   'P 1'
_cell_length_a   4.15183200
_cell_length_b   5.57129531
_cell_length_c   11.13996457
_cell_angle_alpha   90.10404110
_cell_angle_beta   90.00000000
_cell_angle_gamma   90.00000000
_symmetry_Int_Tables_number   1
_chemical_formula_structural   Sm3Pa(CoB10)2
_chemical_formula_sum   'Sm3 Pa1 Co2 B20'
_cell_volume   257.67901065
_cell_formula_units_Z   1
loop_
 _symmetry_equiv_pos_site_id
 _symmetry_equiv_pos_as_xyz
  1  'x, y, z'
loop_
 _atom_site_type_symbol
 _atom_site_label
 _atom_site_symmetry_multiplicity
 _atom_site_fract_x
 _atom_site_fract_y
 _atom_site_fract_z
 _atom_site_occupancy
  Sm  Sm0  1  0.500000  0.805916  0.634920  1
  Sm  Sm1  1  0.500000  0.303668  0.865794  1
  Sm  Sm2  1  0.500000  0.697998  0.135328  1
  Pa  Pa3  1  0.500000  0.198874  0.365932  1
  Co  Co4  1  0.000000  0.000347  0.000672  1
  Co  Co5  1  0.000000  0.495026  0.498060  1
  B  B6  1  0.000000  0.372434  0.040772  1
  B  B7  1  0.000000  0.626937  0.959798  1
  B  B8  1  0.000000  0.126642  0.538836  1
  B  B9  1  0.000000  0.873284  0.459342  1
  B  B10  1  0.000000  0.343597  0.198572  1
  B  B11  1  0.000000  0.656016  0.802151  1
  B  B12  1  0.000000  0.156237  0.697252  1
  B  B13  1  0.000000  0.847728  0.303417  1
  B  B14  1  0.000000  0.032742  0.187723  1
  B  B15  1  0.000000  0.968360  0.813614  1
  B  B16  1  0.000000  0.468234  0.685595  1
  B  B17  1  0.000000  0.531254  0.313491  1
  B  B18  1  0.300390  0.201059  0.114244  1
  B  B19  1  0.700251  0.799405  0.887151  1
  B  B20  1  0.299749  0.799405  0.887151  1
  B  B21  1  0.699492  0.297813  0.611807  1
  B  B22  1  0.699610  0.201059  0.114244  1
  B  B23  1  0.300911  0.699077  0.386165  1
  B  B24  1  0.699089  0.699077  0.386165  1
  B  B25  1  0.300508  0.297813  0.611807  1
