# generated using pymatgen
data_DyHo3Lu4(FeB6)4
_symmetry_space_group_name_H-M   'P 1'
_cell_length_a   3.50608700
_cell_length_b   9.00293900
_cell_length_c   11.37107001
_cell_angle_alpha   89.99659132
_cell_angle_beta   90.00000000
_cell_angle_gamma   90.00000000
_symmetry_Int_Tables_number   1
_chemical_formula_structural   DyHo3Lu4(FeB6)4
_chemical_formula_sum   'Dy1 Ho3 Lu4 Fe4 B24'
_cell_volume   358.92881795
_cell_formula_units_Z   1
loop_
 _symmetry_equiv_pos_site_id
 _symmetry_equiv_pos_as_xyz
  1  'x, y, z'
loop_
 _atom_site_type_symbol
 _atom_site_label
 _atom_site_symmetry_multiplicity
 _atom_site_fract_x
 _atom_site_fract_y
 _atom_site_fract_z
 _atom_site_occupancy
  Dy  Dy0  1  0.000000  0.823413  0.085597  1
  Ho  Ho1  1  0.000000  0.176748  0.914439  1
  Ho  Ho2  1  0.000000  0.323284  0.414471  1
  Ho  Ho3  1  0.000000  0.676695  0.585534  1
  Lu  Lu4  1  0.000000  0.443309  0.129220  1
  Lu  Lu5  1  0.000000  0.556475  0.870749  1
  Lu  Lu6  1  0.000000  0.943494  0.370849  1
  Lu  Lu7  1  0.000000  0.056575  0.629189  1
  Fe  Fe8  1  0.000000  0.139380  0.180287  1
  Fe  Fe9  1  0.000000  0.860788  0.819664  1
  Fe  Fe10  1  0.000000  0.639130  0.319884  1
  Fe  Fe11  1  0.000000  0.360782  0.680183  1
  B  B12  1  0.500000  0.054952  0.068279  1
  B  B13  1  0.500000  0.945398  0.931545  1
  B  B14  1  0.500000  0.554665  0.431769  1
  B  B15  1  0.500000  0.445298  0.568251  1
  B  B16  1  0.500000  0.248136  0.081739  1
  B  B17  1  0.500000  0.751875  0.917994  1
  B  B18  1  0.500000  0.748064  0.418318  1
  B  B19  1  0.500000  0.251954  0.581755  1
  B  B20  1  0.500000  0.290373  0.233834  1
  B  B21  1  0.500000  0.709606  0.766096  1
  B  B22  1  0.500000  0.790225  0.266390  1
  B  B23  1  0.500000  0.209643  0.733808  1
  B  B24  1  0.500000  0.131446  0.314825  1
  B  B25  1  0.500000  0.868649  0.685204  1
  B  B26  1  0.500000  0.631182  0.185368  1
  B  B27  1  0.500000  0.368598  0.814756  1
  B  B28  1  0.500000  0.485207  0.287709  1
  B  B29  1  0.500000  0.514676  0.712318  1
  B  B30  1  0.500000  0.985583  0.212466  1
  B  B31  1  0.500000  0.014767  0.787587  1
  B  B32  1  0.500000  0.106028  0.471060  1
  B  B33  1  0.500000  0.894005  0.528968  1
  B  B34  1  0.500000  0.605580  0.028846  1
  B  B35  1  0.500000  0.394017  0.971052  1
