# generated using pymatgen
data_DyYCo9Mo3P7
_symmetry_space_group_name_H-M   'P 1'
_cell_length_a   3.72685800
_cell_length_b   9.09519618
_cell_length_c   9.09519600
_cell_angle_alpha   119.99999933
_cell_angle_beta   90.00000000
_cell_angle_gamma   90.00000000
_symmetry_Int_Tables_number   1
_chemical_formula_structural   DyYCo9Mo3P7
_chemical_formula_sum   'Dy1 Y1 Co9 Mo3 P7'
_cell_volume   266.99160985
_cell_formula_units_Z   1
loop_
 _symmetry_equiv_pos_site_id
 _symmetry_equiv_pos_as_xyz
  1  'x, y, z'
loop_
 _atom_site_type_symbol
 _atom_site_label
 _atom_site_symmetry_multiplicity
 _atom_site_fract_x
 _atom_site_fract_y
 _atom_site_fract_z
 _atom_site_occupancy
  Dy  Dy0  1  0.500000  0.333333  0.666667  1
  Y  Y1  1  0.000000  0.666667  0.333333  1
  Co  Co2  1  0.000000  0.567516  0.938167  1
  Co  Co3  1  0.000000  0.370651  0.432484  1
  Co  Co4  1  0.000000  0.061833  0.629349  1
  Co  Co5  1  0.000000  0.878513  0.159623  1
  Co  Co6  1  0.000000  0.281110  0.121487  1
  Co  Co7  1  0.000000  0.840377  0.718890  1
  Co  Co8  1  0.500000  0.948445  0.385942  1
  Co  Co9  1  0.500000  0.437496  0.051555  1
  Co  Co10  1  0.500000  0.614058  0.562504  1
  Mo  Mo11  1  0.500000  0.779385  0.902257  1
  Mo  Mo12  1  0.500000  0.122872  0.220615  1
  Mo  Mo13  1  0.500000  0.097743  0.877128  1
  P  P14  1  0.000000  0.000000  0.000000  1
  P  P15  1  0.500000  0.709186  0.118776  1
  P  P16  1  0.500000  0.409591  0.290814  1
  P  P17  1  0.500000  0.881224  0.590409  1
  P  P18  1  0.000000  0.586786  0.697584  1
  P  P19  1  0.000000  0.110799  0.413214  1
  P  P20  1  0.000000  0.302416  0.889201  1
