# generated using pymatgen
data_LaPrNpO6
_symmetry_space_group_name_H-M   'P 1'
_cell_length_a   10.28310404
_cell_length_b   10.28310399
_cell_length_c   5.72043602
_cell_angle_alpha   79.01403720
_cell_angle_beta   79.01403249
_cell_angle_gamma   67.97099866
_symmetry_Int_Tables_number   1
_chemical_formula_structural   LaPrNpO6
_chemical_formula_sum   'La4 Pr4 Np4 O24'
_cell_volume   545.72094886
_cell_formula_units_Z   4
loop_
 _symmetry_equiv_pos_site_id
 _symmetry_equiv_pos_as_xyz
  1  'x, y, z'
loop_
 _atom_site_type_symbol
 _atom_site_label
 _atom_site_symmetry_multiplicity
 _atom_site_fract_x
 _atom_site_fract_y
 _atom_site_fract_z
 _atom_site_occupancy
  La  La0  1  0.619754  0.380246  0.750000  1
  La  La1  1  0.380246  0.619754  0.250000  1
  La  La2  1  0.112743  0.887257  0.750000  1
  La  La3  1  0.887257  0.112743  0.250000  1
  Pr  Pr4  1  0.714864  0.949573  0.901969  1
  Pr  Pr5  1  0.285136  0.050427  0.098031  1
  Pr  Pr6  1  0.050427  0.285136  0.598031  1
  Pr  Pr7  1  0.949573  0.714864  0.401969  1
  Np  Np8  1  0.504748  0.818756  0.600625  1
  Np  Np9  1  0.495252  0.181244  0.399375  1
  Np  Np10  1  0.181244  0.495252  0.899375  1
  Np  Np11  1  0.818756  0.504748  0.100625  1
  O  O12  1  0.666952  0.140894  0.558055  1
  O  O13  1  0.333048  0.859106  0.441945  1
  O  O14  1  0.859106  0.333048  0.941945  1
  O  O15  1  0.140894  0.666952  0.058055  1
  O  O16  1  0.360971  0.813693  0.928245  1
  O  O17  1  0.639029  0.186307  0.071755  1
  O  O18  1  0.186307  0.639029  0.571755  1
  O  O19  1  0.813693  0.360971  0.428245  1
  O  O20  1  0.694665  0.770905  0.692942  1
  O  O21  1  0.305335  0.229095  0.307058  1
  O  O22  1  0.229095  0.305335  0.807058  1
  O  O23  1  0.770905  0.694665  0.192942  1
  O  O24  1  0.463536  0.019872  0.725752  1
  O  O25  1  0.536464  0.980128  0.274248  1
  O  O26  1  0.980128  0.536464  0.774248  1
  O  O27  1  0.019872  0.463536  0.225752  1
  O  O28  1  0.541975  0.622357  0.525096  1
  O  O29  1  0.458025  0.377643  0.474904  1
  O  O30  1  0.377643  0.458025  0.974904  1
  O  O31  1  0.622357  0.541975  0.025096  1
  O  O32  1  0.907134  0.914449  0.086421  1
  O  O33  1  0.092866  0.085551  0.913579  1
  O  O34  1  0.085551  0.092866  0.413579  1
  O  O35  1  0.914449  0.907134  0.586421  1
