# generated using pymatgen
data_Y6Sn7Pd16Se
_symmetry_space_group_name_H-M   'P 1'
_cell_length_a   9.34555025
_cell_length_b   9.34554952
_cell_length_c   9.34555000
_cell_angle_alpha   59.99999830
_cell_angle_beta   60.00000088
_cell_angle_gamma   59.99999801
_symmetry_Int_Tables_number   1
_chemical_formula_structural   Y6Sn7Pd16Se
_chemical_formula_sum   'Y6 Sn7 Pd16 Se1'
_cell_volume   577.16445677
_cell_formula_units_Z   1
loop_
 _symmetry_equiv_pos_site_id
 _symmetry_equiv_pos_as_xyz
  1  'x, y, z'
loop_
 _atom_site_type_symbol
 _atom_site_label
 _atom_site_symmetry_multiplicity
 _atom_site_fract_x
 _atom_site_fract_y
 _atom_site_fract_z
 _atom_site_occupancy
  Y  Y0  1  0.717824  0.282176  0.282176  1
  Y  Y1  1  0.282176  0.717824  0.717824  1
  Y  Y2  1  0.282176  0.717824  0.282176  1
  Y  Y3  1  0.717824  0.282176  0.717824  1
  Y  Y4  1  0.282176  0.282176  0.717824  1
  Y  Y5  1  0.717824  0.717824  0.282176  1
  Sn  Sn6  1  0.000000  0.000000  0.000000  1
  Sn  Sn7  1  0.500000  0.000000  0.000000  1
  Sn  Sn8  1  0.000000  0.500000  0.500000  1
  Sn  Sn9  1  0.000000  0.500000  0.000000  1
  Sn  Sn10  1  0.500000  0.000000  0.500000  1
  Sn  Sn11  1  0.000000  0.000000  0.500000  1
  Sn  Sn12  1  0.500000  0.500000  0.000000  1
  Pd  Pd13  1  0.119098  0.119098  0.119098  1
  Pd  Pd14  1  0.880902  0.880902  0.880902  1
  Pd  Pd15  1  0.119098  0.119098  0.642705  1
  Pd  Pd16  1  0.119098  0.642705  0.119098  1
  Pd  Pd17  1  0.880902  0.880902  0.357295  1
  Pd  Pd18  1  0.880902  0.357295  0.880902  1
  Pd  Pd19  1  0.642705  0.119098  0.119098  1
  Pd  Pd20  1  0.357295  0.880902  0.880902  1
  Pd  Pd21  1  0.333269  0.333269  0.333269  1
  Pd  Pd22  1  0.666731  0.666731  0.666731  1
  Pd  Pd23  1  0.333269  0.333269  0.000192  1
  Pd  Pd24  1  0.333269  0.000192  0.333269  1
  Pd  Pd25  1  0.666731  0.666731  0.999808  1
  Pd  Pd26  1  0.666731  0.999808  0.666731  1
  Pd  Pd27  1  0.000192  0.333269  0.333269  1
  Pd  Pd28  1  0.999808  0.666731  0.666731  1
  Se  Se29  1  0.500000  0.500000  0.500000  1
