# generated using pymatgen
data_HfI16
_symmetry_space_group_name_H-M   'P 1'
_cell_length_a   8.77172294
_cell_length_b   10.91336715
_cell_length_c   12.57226839
_cell_angle_alpha   107.86427815
_cell_angle_beta   96.37252818
_cell_angle_gamma   118.16886742
_symmetry_Int_Tables_number   1
_chemical_formula_structural   HfI16
_chemical_formula_sum   'Hf1 I16'
_cell_volume   961.75508273
_cell_formula_units_Z   1
loop_
 _symmetry_equiv_pos_site_id
 _symmetry_equiv_pos_as_xyz
  1  'x, y, z'
loop_
 _atom_site_type_symbol
 _atom_site_label
 _atom_site_symmetry_multiplicity
 _atom_site_fract_x
 _atom_site_fract_y
 _atom_site_fract_z
 _atom_site_occupancy
  Hf  Hf0  1  0.500000  0.500000  0.500000  1
  I  I1  1  0.534751  0.245895  0.496516  1
  I  I2  1  0.465249  0.754105  0.503484  1
  I  I3  1  0.187684  0.296853  0.313035  1
  I  I4  1  0.812316  0.703147  0.686965  1
  I  I5  1  0.692200  0.537373  0.326737  1
  I  I6  1  0.307800  0.462627  0.673263  1
  I  I7  1  0.068722  0.925797  0.169034  1
  I  I8  1  0.931278  0.074203  0.830966  1
  I  I9  1  0.049507  0.375923  0.963309  1
  I  I10  1  0.950493  0.624077  0.036691  1
  I  I11  1  0.587577  0.973836  0.099658  1
  I  I12  1  0.412423  0.026164  0.900342  1
  I  I13  1  0.075285  0.649902  0.416789  1
  I  I14  1  0.924715  0.350098  0.583211  1
  I  I15  1  0.461667  0.142416  0.730985  1
  I  I16  1  0.538333  0.857584  0.269015  1
