# generated using pymatgen
data_Tb7Th(Sc3Pt4)4
_symmetry_space_group_name_H-M   'P 1'
_cell_length_a   7.42851771
_cell_length_b   7.40328250
_cell_length_c   13.83710713
_cell_angle_alpha   89.88376572
_cell_angle_beta   89.99542554
_cell_angle_gamma   90.12894583
_symmetry_Int_Tables_number   1
_chemical_formula_structural   Tb7Th(Sc3Pt4)4
_chemical_formula_sum   'Tb7 Th1 Sc12 Pt16'
_cell_volume   760.97395505
_cell_formula_units_Z   1
loop_
 _symmetry_equiv_pos_site_id
 _symmetry_equiv_pos_as_xyz
  1  'x, y, z'
loop_
 _atom_site_type_symbol
 _atom_site_label
 _atom_site_symmetry_multiplicity
 _atom_site_fract_x
 _atom_site_fract_y
 _atom_site_fract_z
 _atom_site_occupancy
  Tb  Tb0  1  0.991329  0.823424  0.902690  1
  Tb  Tb1  1  0.491420  0.674811  0.903518  1
  Tb  Tb2  1  0.990534  0.824900  0.595671  1
  Tb  Tb3  1  0.509039  0.326009  0.096346  1
  Tb  Tb4  1  0.009527  0.175273  0.404298  1
  Tb  Tb5  1  0.509242  0.324582  0.404908  1
  Tb  Tb6  1  0.490648  0.675222  0.595889  1
  Th  Th7  1  0.009619  0.176049  0.095869  1
  Sc  Sc8  1  0.164970  0.498109  0.749567  1
  Sc  Sc9  1  0.833156  0.503175  0.251399  1
  Sc  Sc10  1  0.337849  0.997672  0.251272  1
  Sc  Sc11  1  0.664938  0.001102  0.749718  1
  Sc  Sc12  1  0.332348  0.164829  0.624124  1
  Sc  Sc13  1  0.666872  0.835002  0.376607  1
  Sc  Sc14  1  0.168039  0.664677  0.376515  1
  Sc  Sc15  1  0.664764  0.832853  0.124283  1
  Sc  Sc16  1  0.832872  0.335052  0.623680  1
  Sc  Sc17  1  0.334155  0.164357  0.875667  1
  Sc  Sc18  1  0.830880  0.336565  0.874071  1
  Sc  Sc19  1  0.167739  0.664988  0.123988  1
  Pt  Pt20  1  0.031364  0.127265  0.749959  1
  Pt  Pt21  1  0.968425  0.872427  0.250021  1
  Pt  Pt22  1  0.468228  0.627451  0.250429  1
  Pt  Pt23  1  0.531032  0.372646  0.749590  1
  Pt  Pt24  1  0.294385  0.857159  0.749976  1
  Pt  Pt25  1  0.705821  0.144004  0.250263  1
  Pt  Pt26  1  0.205780  0.357111  0.249857  1
  Pt  Pt27  1  0.794100  0.643083  0.749684  1
  Pt  Pt28  1  0.171510  0.457801  0.543556  1
  Pt  Pt29  1  0.828042  0.542716  0.456379  1
  Pt  Pt30  1  0.328128  0.957941  0.456346  1
  Pt  Pt31  1  0.828499  0.542413  0.043572  1
  Pt  Pt32  1  0.671286  0.042077  0.543748  1
  Pt  Pt33  1  0.171784  0.456642  0.956404  1
  Pt  Pt34  1  0.673956  0.042148  0.956882  1
  Pt  Pt35  1  0.327716  0.958468  0.043252  1
