# generated using pymatgen
data_Tm6Co13Ni3(P6Ru)2
_symmetry_space_group_name_H-M   'P 1'
_cell_length_a   3.71052400
_cell_length_b   10.46758823
_cell_length_c   12.20355158
_cell_angle_alpha   89.92532182
_cell_angle_beta   90.00000000
_cell_angle_gamma   90.00000000
_symmetry_Int_Tables_number   1
_chemical_formula_structural   Tm6Co13Ni3(P6Ru)2
_chemical_formula_sum   'Tm6 Co13 Ni3 P12 Ru2'
_cell_volume   473.98843739
_cell_formula_units_Z   1
loop_
 _symmetry_equiv_pos_site_id
 _symmetry_equiv_pos_as_xyz
  1  'x, y, z'
loop_
 _atom_site_type_symbol
 _atom_site_label
 _atom_site_symmetry_multiplicity
 _atom_site_fract_x
 _atom_site_fract_y
 _atom_site_fract_z
 _atom_site_occupancy
  Tm  Tm0  1  0.000000  0.500044  0.524240  1
  Tm  Tm1  1  0.500000  0.999942  0.475629  1
  Tm  Tm2  1  0.500000  0.816190  0.206632  1
  Tm  Tm3  1  0.500000  0.183435  0.207053  1
  Tm  Tm4  1  0.000000  0.683823  0.793304  1
  Tm  Tm5  1  0.000000  0.316107  0.792335  1
  Co  Co6  1  0.000000  0.499440  0.986842  1
  Co  Co7  1  0.500000  0.999683  0.014199  1
  Co  Co8  1  0.500000  0.668394  0.990586  1
  Co  Co9  1  0.000000  0.168471  0.010319  1
  Co  Co10  1  0.000000  0.832587  0.010111  1
  Co  Co11  1  0.500000  0.299228  0.431694  1
  Co  Co12  1  0.500000  0.700840  0.431576  1
  Co  Co13  1  0.000000  0.200714  0.568639  1
  Co  Co14  1  0.000000  0.799203  0.568556  1
  Co  Co15  1  0.500000  0.878154  0.708237  1
  Co  Co16  1  0.500000  0.121294  0.707224  1
  Co  Co17  1  0.000000  0.622045  0.291562  1
  Co  Co18  1  0.000000  0.378688  0.292994  1
  Ni  Ni19  1  0.500000  0.499904  0.702619  1
  Ni  Ni20  1  0.000000  0.999946  0.296853  1
  Ni  Ni21  1  0.500000  0.330773  0.989022  1
  P  P22  1  0.500000  0.502044  0.880581  1
  P  P23  1  0.000000  0.000313  0.118541  1
  P  P24  1  0.500000  0.500588  0.351369  1
  P  P25  1  0.000000  0.999741  0.648410  1
  P  P26  1  0.500000  0.311917  0.615634  1
  P  P27  1  0.500000  0.688417  0.615861  1
  P  P28  1  0.000000  0.188262  0.384162  1
  P  P29  1  0.000000  0.811336  0.383990  1
  P  P30  1  0.500000  0.846112  0.893013  1
  P  P31  1  0.500000  0.151432  0.891123  1
  P  P32  1  0.000000  0.653578  0.106923  1
  P  P33  1  0.000000  0.347455  0.110083  1
  Ru  Ru34  1  0.500000  0.499202  0.159561  1
  Ru  Ru35  1  0.000000  0.000698  0.840523  1
