# generated using pymatgen
data_TbEr2Mg3Si2Au
_symmetry_space_group_name_H-M   'P 1'
_cell_length_a   7.22804800
_cell_length_b   7.24310420
_cell_length_c   4.29299300
_cell_angle_alpha   90.00000000
_cell_angle_beta   90.00000000
_cell_angle_gamma   119.93127024
_symmetry_Int_Tables_number   1
_chemical_formula_structural   TbEr2Mg3Si2Au
_chemical_formula_sum   'Tb1 Er2 Mg3 Si2 Au1'
_cell_volume   194.77666914
_cell_formula_units_Z   1
loop_
 _symmetry_equiv_pos_site_id
 _symmetry_equiv_pos_as_xyz
  1  'x, y, z'
loop_
 _atom_site_type_symbol
 _atom_site_label
 _atom_site_symmetry_multiplicity
 _atom_site_fract_x
 _atom_site_fract_y
 _atom_site_fract_z
 _atom_site_occupancy
  Tb  Tb0  1  0.582454  0.000000  0.000000  1
  Er  Er1  1  0.999360  0.582665  0.000000  1
  Er  Er2  1  0.416695  0.417335  0.000000  1
  Mg  Mg3  1  0.247181  0.000000  0.500000  1
  Mg  Mg4  1  0.000404  0.247874  0.500000  1
  Mg  Mg5  1  0.752530  0.752126  0.500000  1
  Si  Si6  1  0.332137  0.664496  0.500000  1
  Si  Si7  1  0.667642  0.335504  0.500000  1
  Au  Au8  1  0.001598  0.000000  0.000000  1
