# generated using pymatgen
data_La3U2B4Rh15
_symmetry_space_group_name_H-M   'P 1'
_cell_length_a   4.24744900
_cell_length_b   4.24744900
_cell_length_c   20.89170800
_cell_angle_alpha   90.00000000
_cell_angle_beta   90.00000000
_cell_angle_gamma   90.00000000
_symmetry_Int_Tables_number   1
_chemical_formula_structural   La3U2B4Rh15
_chemical_formula_sum   'La3 U2 B4 Rh15'
_cell_volume   376.90360635
_cell_formula_units_Z   1
loop_
 _symmetry_equiv_pos_site_id
 _symmetry_equiv_pos_as_xyz
  1  'x, y, z'
loop_
 _atom_site_type_symbol
 _atom_site_label
 _atom_site_symmetry_multiplicity
 _atom_site_fract_x
 _atom_site_fract_y
 _atom_site_fract_z
 _atom_site_occupancy
  La  La0  1  0.000000  0.000000  0.293742  1
  La  La1  1  0.000000  0.000000  0.500000  1
  La  La2  1  0.000000  0.000000  0.706258  1
  U  U3  1  0.000000  0.000000  0.909580  1
  U  U4  1  0.000000  0.000000  0.090420  1
  B  B5  1  0.500000  0.500000  0.193552  1
  B  B6  1  0.500000  0.500000  0.398067  1
  B  B7  1  0.500000  0.500000  0.601933  1
  B  B8  1  0.500000  0.500000  0.806448  1
  Rh  Rh9  1  0.500000  0.500000  0.908945  1
  Rh  Rh10  1  0.500000  0.500000  0.091055  1
  Rh  Rh11  1  0.500000  0.500000  0.293572  1
  Rh  Rh12  1  0.500000  0.500000  0.500000  1
  Rh  Rh13  1  0.500000  0.500000  0.706428  1
  Rh  Rh14  1  0.500000  0.000000  0.000000  1
  Rh  Rh15  1  0.500000  0.000000  0.182397  1
  Rh  Rh16  1  0.500000  0.000000  0.395438  1
  Rh  Rh17  1  0.500000  0.000000  0.604562  1
  Rh  Rh18  1  0.500000  0.000000  0.817603  1
  Rh  Rh19  1  0.000000  0.500000  0.000000  1
  Rh  Rh20  1  0.000000  0.500000  0.182397  1
  Rh  Rh21  1  0.000000  0.500000  0.395438  1
  Rh  Rh22  1  0.000000  0.500000  0.604562  1
  Rh  Rh23  1  0.000000  0.500000  0.817603  1
