# generated using pymatgen
data_ZrCo2B2Ir
_symmetry_space_group_name_H-M   'P 1'
_cell_length_a   5.86952230
_cell_length_b   5.86952202
_cell_length_c   5.86952249
_cell_angle_alpha   95.60178642
_cell_angle_beta   95.60178669
_cell_angle_gamma   95.60179620
_symmetry_Int_Tables_number   1
_chemical_formula_structural   ZrCo2B2Ir
_chemical_formula_sum   'Zr3 Co6 B6 Ir3'
_cell_volume   199.11057753
_cell_formula_units_Z   3
loop_
 _symmetry_equiv_pos_site_id
 _symmetry_equiv_pos_as_xyz
  1  'x, y, z'
loop_
 _atom_site_type_symbol
 _atom_site_label
 _atom_site_symmetry_multiplicity
 _atom_site_fract_x
 _atom_site_fract_y
 _atom_site_fract_z
 _atom_site_occupancy
  Zr  Zr0  1  0.000000  0.000000  0.000000  1
  Zr  Zr1  1  0.667251  0.667251  0.667251  1
  Zr  Zr2  1  0.332749  0.332749  0.332749  1
  Co  Co3  1  0.691367  0.207558  0.691367  1
  Co  Co4  1  0.691367  0.691367  0.207558  1
  Co  Co5  1  0.207558  0.691367  0.691367  1
  Co  Co6  1  0.308633  0.792442  0.308633  1
  Co  Co7  1  0.308633  0.308633  0.792442  1
  Co  Co8  1  0.792442  0.308633  0.308633  1
  B  B9  1  0.616578  0.383422  0.000000  1
  B  B10  1  0.000000  0.616578  0.383422  1
  B  B11  1  0.383422  0.000000  0.616578  1
  B  B12  1  0.000000  0.383422  0.616578  1
  B  B13  1  0.616578  0.000000  0.383422  1
  B  B14  1  0.383422  0.616578  0.000000  1
  Ir  Ir15  1  0.000000  0.000000  0.500000  1
  Ir  Ir16  1  0.500000  0.000000  0.000000  1
  Ir  Ir17  1  0.000000  0.500000  0.000000  1
