# generated using pymatgen
data_Zr10AlZnBi5Pb
_symmetry_space_group_name_H-M   'P 1'
_cell_length_a   8.88737001
_cell_length_b   8.89236467
_cell_length_c   5.94612000
_cell_angle_alpha   90.00219322
_cell_angle_beta   89.99561109
_cell_angle_gamma   119.98142151
_symmetry_Int_Tables_number   1
_chemical_formula_structural   Zr10AlZnBi5Pb
_chemical_formula_sum   'Zr10 Al1 Zn1 Bi5 Pb1'
_cell_volume   407.03907227
_cell_formula_units_Z   1
loop_
 _symmetry_equiv_pos_site_id
 _symmetry_equiv_pos_as_xyz
  1  'x, y, z'
loop_
 _atom_site_type_symbol
 _atom_site_label
 _atom_site_symmetry_multiplicity
 _atom_site_fract_x
 _atom_site_fract_y
 _atom_site_fract_z
 _atom_site_occupancy
  Zr  Zr0  1  0.333540  0.666985  0.999201  1
  Zr  Zr1  1  0.666617  0.333175  0.500828  1
  Zr  Zr2  1  0.666556  0.333015  0.999201  1
  Zr  Zr3  1  0.333440  0.666825  0.500828  1
  Zr  Zr4  1  0.266401  0.000000  0.250382  1
  Zr  Zr5  1  0.267126  0.266969  0.749782  1
  Zr  Zr6  1  0.000157  0.733031  0.749782  1
  Zr  Zr7  1  0.000435  0.266995  0.250032  1
  Zr  Zr8  1  0.733440  0.733005  0.250032  1
  Zr  Zr9  1  0.732731  0.000000  0.750065  1
  Al  Al10  1  0.000361  0.000000  0.999620  1
  Zn  Zn11  1  0.000392  0.000000  0.500406  1
  Bi  Bi12  1  0.613327  0.000000  0.249949  1
  Bi  Bi13  1  0.613889  0.613817  0.750073  1
  Bi  Bi14  1  0.000072  0.386183  0.750073  1
  Bi  Bi15  1  0.000643  0.614219  0.249900  1
  Bi  Bi16  1  0.386424  0.385781  0.249900  1
  Pb  Pb17  1  0.384448  0.000000  0.749943  1
