# generated using pymatgen
data_Sm(Y3Au5)2
_symmetry_space_group_name_H-M   'P 1'
_cell_length_a   8.81268562
_cell_length_b   8.81268564
_cell_length_c   10.43261500
_cell_angle_alpha   89.76264863
_cell_angle_beta   89.76264863
_cell_angle_gamma   107.42138563
_symmetry_Int_Tables_number   1
_chemical_formula_structural   Sm(Y3Au5)2
_chemical_formula_sum   'Sm2 Y12 Au20'
_cell_volume   773.04723910
_cell_formula_units_Z   2
loop_
 _symmetry_equiv_pos_site_id
 _symmetry_equiv_pos_as_xyz
  1  'x, y, z'
loop_
 _atom_site_type_symbol
 _atom_site_label
 _atom_site_symmetry_multiplicity
 _atom_site_fract_x
 _atom_site_fract_y
 _atom_site_fract_z
 _atom_site_occupancy
  Sm  Sm0  1  0.189453  0.189453  0.690062  1
  Sm  Sm1  1  0.810547  0.810547  0.309938  1
  Y  Y2  1  0.694621  0.305379  0.000000  1
  Y  Y3  1  0.305379  0.694621  0.000000  1
  Y  Y4  1  0.805092  0.194908  0.500000  1
  Y  Y5  1  0.194908  0.805092  0.500000  1
  Y  Y6  1  0.000000  0.000000  0.000000  1
  Y  Y7  1  0.500000  0.500000  0.500000  1
  Y  Y8  1  0.003653  0.504384  0.249898  1
  Y  Y9  1  0.996347  0.495616  0.750102  1
  Y  Y10  1  0.495616  0.996347  0.750102  1
  Y  Y11  1  0.504384  0.003653  0.249898  1
  Y  Y12  1  0.312060  0.312060  0.188754  1
  Y  Y13  1  0.687940  0.687940  0.811246  1
  Au  Au14  1  0.862457  0.152123  0.209980  1
  Au  Au15  1  0.137543  0.847877  0.790020  1
  Au  Au16  1  0.638622  0.350933  0.710480  1
  Au  Au17  1  0.649067  0.361378  0.289520  1
  Au  Au18  1  0.361378  0.649067  0.289520  1
  Au  Au19  1  0.350933  0.638622  0.710480  1
  Au  Au20  1  0.847877  0.137543  0.790020  1
  Au  Au21  1  0.152123  0.862457  0.209980  1
  Au  Au22  1  0.937640  0.644972  0.002500  1
  Au  Au23  1  0.062360  0.355028  0.997500  1
  Au  Au24  1  0.560808  0.855084  0.503579  1
  Au  Au25  1  0.144916  0.439192  0.496421  1
  Au  Au26  1  0.439192  0.144916  0.496421  1
  Au  Au27  1  0.855084  0.560808  0.503579  1
  Au  Au28  1  0.355028  0.062360  0.997500  1
  Au  Au29  1  0.644972  0.937640  0.002500  1
  Au  Au30  1  0.106262  0.106262  0.397641  1
  Au  Au31  1  0.893738  0.893738  0.602359  1
  Au  Au32  1  0.396020  0.396020  0.901212  1
  Au  Au33  1  0.603980  0.603980  0.098788  1
