# generated using pymatgen
data_Hf8Zr2Zn2(SnSb)3
_symmetry_space_group_name_H-M   'P 1'
_cell_length_a   8.63971812
_cell_length_b   8.63064221
_cell_length_c   5.81263400
_cell_angle_alpha   90.00000000
_cell_angle_beta   90.00000000
_cell_angle_gamma   120.01537456
_symmetry_Int_Tables_number   1
_chemical_formula_structural   Hf8Zr2Zn2(SnSb)3
_chemical_formula_sum   'Hf8 Zr2 Zn2 Sn3 Sb3'
_cell_volume   375.30037006
_cell_formula_units_Z   1
loop_
 _symmetry_equiv_pos_site_id
 _symmetry_equiv_pos_as_xyz
  1  'x, y, z'
loop_
 _atom_site_type_symbol
 _atom_site_label
 _atom_site_symmetry_multiplicity
 _atom_site_fract_x
 _atom_site_fract_y
 _atom_site_fract_z
 _atom_site_occupancy
  Hf  Hf0  1  0.999987  0.269170  0.250000  1
  Hf  Hf1  1  0.999814  0.731052  0.750000  1
  Hf  Hf2  1  0.268381  0.268934  0.750000  1
  Hf  Hf3  1  0.268963  0.999846  0.250000  1
  Hf  Hf4  1  0.332911  0.666217  0.499662  1
  Hf  Hf5  1  0.666731  0.333204  0.000364  1
  Hf  Hf6  1  0.666731  0.333204  0.499636  1
  Hf  Hf7  1  0.332911  0.666217  0.000338  1
  Zr  Zr8  1  0.730893  0.730939  0.250000  1
  Zr  Zr9  1  0.731563  0.000481  0.750000  1
  Zn  Zn10  1  0.002669  0.000693  0.000664  1
  Zn  Zn11  1  0.002669  0.000693  0.499336  1
  Sn  Sn12  1  0.383174  0.999935  0.750000  1
  Sn  Sn13  1  0.383732  0.383401  0.250000  1
  Sn  Sn14  1  0.000846  0.615562  0.250000  1
  Sb  Sb15  1  0.001073  0.387431  0.750000  1
  Sb  Sb16  1  0.613613  0.612429  0.750000  1
  Sb  Sb17  1  0.613340  0.000592  0.250000  1
