# generated using pymatgen
data_Pu2SeS2
_symmetry_space_group_name_H-M   'P 1'
_cell_length_a   10.91848000
_cell_length_b   3.91538500
_cell_length_c   10.54970100
_cell_angle_alpha   90.00000000
_cell_angle_beta   90.00000000
_cell_angle_gamma   90.00000000
_symmetry_Int_Tables_number   1
_chemical_formula_structural   Pu2SeS2
_chemical_formula_sum   'Pu8 Se4 S8'
_cell_volume   451.00027493
_cell_formula_units_Z   4
loop_
 _symmetry_equiv_pos_site_id
 _symmetry_equiv_pos_as_xyz
  1  'x, y, z'
loop_
 _atom_site_type_symbol
 _atom_site_label
 _atom_site_symmetry_multiplicity
 _atom_site_fract_x
 _atom_site_fract_y
 _atom_site_fract_z
 _atom_site_occupancy
  Pu  Pu0  1  0.496779  0.250000  0.179667  1
  Pu  Pu1  1  0.996779  0.250000  0.320333  1
  Pu  Pu2  1  0.503221  0.750000  0.820333  1
  Pu  Pu3  1  0.003221  0.750000  0.679667  1
  Pu  Pu4  1  0.683497  0.750000  0.500497  1
  Pu  Pu5  1  0.183497  0.750000  0.999503  1
  Pu  Pu6  1  0.316503  0.250000  0.499503  1
  Pu  Pu7  1  0.816503  0.250000  0.000497  1
  Se  Se8  1  0.733228  0.250000  0.295146  1
  Se  Se9  1  0.233228  0.250000  0.204854  1
  Se  Se10  1  0.266772  0.750000  0.704854  1
  Se  Se11  1  0.766772  0.750000  0.795146  1
  S  S12  1  0.546626  0.250000  0.632245  1
  S  S13  1  0.046626  0.250000  0.867755  1
  S  S14  1  0.453374  0.750000  0.367755  1
  S  S15  1  0.953374  0.750000  0.132245  1
  S  S16  1  0.624727  0.750000  0.052944  1
  S  S17  1  0.124727  0.750000  0.447056  1
  S  S18  1  0.375273  0.250000  0.947056  1
  S  S19  1  0.875273  0.250000  0.552944  1
