# generated using pymatgen
data_Sr2BC11
_symmetry_space_group_name_H-M   'P 1'
_cell_length_a   4.38986300
_cell_length_b   4.39022757
_cell_length_c   9.94012882
_cell_angle_alpha   91.47991052
_cell_angle_beta   90.00000000
_cell_angle_gamma   119.99726056
_symmetry_Int_Tables_number   1
_chemical_formula_structural   Sr2BC11
_chemical_formula_sum   'Sr2 B1 C11'
_cell_volume   165.83623883
_cell_formula_units_Z   1
loop_
 _symmetry_equiv_pos_site_id
 _symmetry_equiv_pos_as_xyz
  1  'x, y, z'
loop_
 _atom_site_type_symbol
 _atom_site_label
 _atom_site_symmetry_multiplicity
 _atom_site_fract_x
 _atom_site_fract_y
 _atom_site_fract_z
 _atom_site_occupancy
  Sr  Sr0  1  0.333813  0.651769  0.249547  1
  Sr  Sr1  1  0.682046  0.348231  0.750453  1
  B  B2  1  0.330039  0.000000  0.000000  1
  C  C3  1  0.675820  0.000000  0.000000  1
  C  C4  1  0.997127  0.333069  0.999735  1
  C  C5  1  0.666977  0.000000  0.500000  1
  C  C6  1  0.985502  0.654543  0.002220  1
  C  C7  1  0.333226  0.000000  0.500000  1
  C  C8  1  0.664058  0.666931  0.000265  1
  C  C9  1  0.000114  0.666830  0.499779  1
  C  C10  1  0.330959  0.345457  0.997780  1
  C  C11  1  0.000091  0.333144  0.499483  1
  C  C12  1  0.333283  0.333170  0.500221  1
  C  C13  1  0.666946  0.666856  0.500517  1
