# generated using pymatgen
data_Na2Ta3Nb3(Co4P3)4
_symmetry_space_group_name_H-M   'P 1'
_cell_length_a   12.01903300
_cell_length_b   12.01903283
_cell_length_c   3.59649200
_cell_angle_alpha   90.00000000
_cell_angle_beta   90.00000000
_cell_angle_gamma   119.99999771
_symmetry_Int_Tables_number   1
_chemical_formula_structural   Na2Ta3Nb3(Co4P3)4
_chemical_formula_sum   'Na2 Ta3 Nb3 Co16 P12'
_cell_volume   449.93397595
_cell_formula_units_Z   1
loop_
 _symmetry_equiv_pos_site_id
 _symmetry_equiv_pos_as_xyz
  1  'x, y, z'
loop_
 _atom_site_type_symbol
 _atom_site_label
 _atom_site_symmetry_multiplicity
 _atom_site_fract_x
 _atom_site_fract_y
 _atom_site_fract_z
 _atom_site_occupancy
  Na  Na0  1  0.333333  0.666667  0.000000  1
  Na  Na1  1  0.666667  0.333333  0.000000  1
  Ta  Ta2  1  0.444055  0.000000  0.000000  1
  Ta  Ta3  1  0.000000  0.444055  0.000000  1
  Ta  Ta4  1  0.555945  0.555945  0.000000  1
  Nb  Nb5  1  0.820509  0.000000  0.500000  1
  Nb  Nb6  1  0.000000  0.820509  0.500000  1
  Nb  Nb7  1  0.179491  0.179491  0.500000  1
  Co  Co8  1  0.275443  0.000000  0.500000  1
  Co  Co9  1  0.000000  0.275443  0.500000  1
  Co  Co10  1  0.724557  0.724557  0.500000  1
  Co  Co11  1  0.636111  0.808593  0.000000  1
  Co  Co12  1  0.191407  0.827518  0.000000  1
  Co  Co13  1  0.172482  0.363889  0.000000  1
  Co  Co14  1  0.363889  0.172482  0.000000  1
  Co  Co15  1  0.808593  0.636111  0.000000  1
  Co  Co16  1  0.827518  0.191407  0.000000  1
  Co  Co17  1  0.525089  0.876074  0.500000  1
  Co  Co18  1  0.123926  0.649015  0.500000  1
  Co  Co19  1  0.350985  0.474911  0.500000  1
  Co  Co20  1  0.474911  0.350985  0.500000  1
  Co  Co21  1  0.876074  0.525089  0.500000  1
  Co  Co22  1  0.649015  0.123926  0.500000  1
  Co  Co23  1  0.000000  0.000000  0.000000  1
  P  P24  1  0.171957  0.000000  0.000000  1
  P  P25  1  0.000000  0.171957  0.000000  1
  P  P26  1  0.828043  0.828043  0.000000  1
  P  P27  1  0.516842  0.687588  0.500000  1
  P  P28  1  0.312412  0.829254  0.500000  1
  P  P29  1  0.170746  0.483158  0.500000  1
  P  P30  1  0.483158  0.170746  0.500000  1
  P  P31  1  0.687588  0.516842  0.500000  1
  P  P32  1  0.829254  0.312412  0.500000  1
  P  P33  1  0.649267  0.000000  0.000000  1
  P  P34  1  0.000000  0.649267  0.000000  1
  P  P35  1  0.350733  0.350733  0.000000  1
