# generated using pymatgen
data_HoMgGa3Os
_symmetry_space_group_name_H-M   'P 1'
_cell_length_a   5.32101200
_cell_length_b   5.32101151
_cell_length_c   8.71701400
_cell_angle_alpha   90.00000000
_cell_angle_beta   90.00000000
_cell_angle_gamma   120.00000305
_symmetry_Int_Tables_number   1
_chemical_formula_structural   HoMgGa3Os
_chemical_formula_sum   'Ho2 Mg2 Ga6 Os2'
_cell_volume   213.74048896
_cell_formula_units_Z   2
loop_
 _symmetry_equiv_pos_site_id
 _symmetry_equiv_pos_as_xyz
  1  'x, y, z'
loop_
 _atom_site_type_symbol
 _atom_site_label
 _atom_site_symmetry_multiplicity
 _atom_site_fract_x
 _atom_site_fract_y
 _atom_site_fract_z
 _atom_site_occupancy
  Ho  Ho0  1  0.333333  0.666666  0.550724  1
  Ho  Ho1  1  0.333333  0.666666  0.949276  1
  Mg  Mg2  1  0.666667  0.333334  0.048579  1
  Mg  Mg3  1  0.666667  0.333334  0.451421  1
  Ga  Ga4  1  0.165118  0.330238  0.250000  1
  Ga  Ga5  1  0.165119  0.834883  0.250000  1
  Ga  Ga6  1  0.669762  0.834883  0.250000  1
  Ga  Ga7  1  0.332100  0.166049  0.750000  1
  Ga  Ga8  1  0.833949  0.166049  0.750000  1
  Ga  Ga9  1  0.833950  0.667900  0.750000  1
  Os  Os10  1  0.000000  0.000000  0.007346  1
  Os  Os11  1  0.000000  0.000000  0.492654  1
