# generated using pymatgen
data_Ba2Ca3AlGaSb6
_symmetry_space_group_name_H-M   'P 1'
_cell_length_a   4.71298900
_cell_length_b   12.59410985
_cell_length_c   14.25650897
_cell_angle_alpha   89.95781362
_cell_angle_beta   90.00000000
_cell_angle_gamma   90.00000000
_symmetry_Int_Tables_number   1
_chemical_formula_structural   Ba2Ca3AlGaSb6
_chemical_formula_sum   'Ba4 Ca6 Al2 Ga2 Sb12'
_cell_volume   846.20770833
_cell_formula_units_Z   2
loop_
 _symmetry_equiv_pos_site_id
 _symmetry_equiv_pos_as_xyz
  1  'x, y, z'
loop_
 _atom_site_type_symbol
 _atom_site_label
 _atom_site_symmetry_multiplicity
 _atom_site_fract_x
 _atom_site_fract_y
 _atom_site_fract_z
 _atom_site_occupancy
  Ba  Ba0  1  0.500000  0.675564  0.474817  1
  Ba  Ba1  1  0.500000  0.324436  0.525183  1
  Ba  Ba2  1  0.500000  0.824147  0.973247  1
  Ba  Ba3  1  0.500000  0.175853  0.026753  1
  Ca  Ca4  1  0.500000  0.000000  0.500000  1
  Ca  Ca5  1  0.500000  0.500000  0.000000  1
  Ca  Ca6  1  0.500000  0.911202  0.246538  1
  Ca  Ca7  1  0.500000  0.088798  0.753462  1
  Ca  Ca8  1  0.500000  0.411595  0.253289  1
  Ca  Ca9  1  0.500000  0.588405  0.746711  1
  Al  Al10  1  0.000000  0.318704  0.712987  1
  Al  Al11  1  0.000000  0.681296  0.287013  1
  Ga  Ga12  1  0.000000  0.818281  0.787754  1
  Ga  Ga13  1  0.000000  0.181719  0.212246  1
  Sb  Sb14  1  0.000000  0.984010  0.102089  1
  Sb  Sb15  1  0.000000  0.015990  0.897911  1
  Sb  Sb16  1  0.000000  0.485528  0.396704  1
  Sb  Sb17  1  0.000000  0.514472  0.603296  1
  Sb  Sb18  1  0.500000  0.160160  0.314696  1
  Sb  Sb19  1  0.500000  0.839840  0.685304  1
  Sb  Sb20  1  0.500000  0.660840  0.186386  1
  Sb  Sb21  1  0.500000  0.339160  0.813614  1
  Sb  Sb22  1  0.000000  0.365964  0.106307  1
  Sb  Sb23  1  0.000000  0.634036  0.893693  1
  Sb  Sb24  1  0.000000  0.863497  0.393260  1
  Sb  Sb25  1  0.000000  0.136503  0.606740  1
