# generated using pymatgen
data_Tb3BiSbRh3O14
_symmetry_space_group_name_H-M   'P 1'
_cell_length_a   7.25781907
_cell_length_b   7.35517834
_cell_length_c   7.25781900
_cell_angle_alpha   60.43691817
_cell_angle_beta   60.00000488
_cell_angle_gamma   60.43691658
_symmetry_Int_Tables_number   1
_chemical_formula_structural   Tb3BiSbRh3O14
_chemical_formula_sum   'Tb3 Bi1 Sb1 Rh3 O14'
_cell_volume   275.75743515
_cell_formula_units_Z   1
loop_
 _symmetry_equiv_pos_site_id
 _symmetry_equiv_pos_as_xyz
  1  'x, y, z'
loop_
 _atom_site_type_symbol
 _atom_site_label
 _atom_site_symmetry_multiplicity
 _atom_site_fract_x
 _atom_site_fract_y
 _atom_site_fract_z
 _atom_site_occupancy
  Tb  Tb0  1  0.125000  0.125000  0.125000  1
  Tb  Tb1  1  0.625000  0.125000  0.125000  1
  Tb  Tb2  1  0.125000  0.125000  0.625000  1
  Bi  Bi3  1  0.125000  0.625000  0.125000  1
  Sb  Sb4  1  0.625000  0.125000  0.625000  1
  Rh  Rh5  1  0.625000  0.625000  0.625000  1
  Rh  Rh6  1  0.625000  0.625000  0.125000  1
  Rh  Rh7  1  0.125000  0.625000  0.625000  1
  O  O8  1  0.251581  0.245256  0.251581  1
  O  O9  1  0.287258  0.719634  0.287258  1
  O  O10  1  0.959293  0.963111  0.538798  1
  O  O11  1  0.538798  0.963111  0.538798  1
  O  O12  1  0.705849  0.719634  0.287258  1
  O  O13  1  0.962742  0.530366  0.544151  1
  O  O14  1  0.711202  0.286889  0.711202  1
  O  O15  1  0.290707  0.286889  0.711202  1
  O  O16  1  0.711202  0.286889  0.290707  1
  O  O17  1  0.287258  0.719634  0.705849  1
  O  O18  1  0.962742  0.530366  0.962742  1
  O  O19  1  0.544151  0.530366  0.962742  1
  O  O20  1  0.998419  0.004744  0.998419  1
  O  O21  1  0.538798  0.963111  0.959293  1
