# generated using pymatgen
data_Sc2GaCo2P
_symmetry_space_group_name_H-M   'P 1'
_cell_length_a   3.95057500
_cell_length_b   6.36990400
_cell_length_c   7.03372000
_cell_angle_alpha   90.00000000
_cell_angle_beta   90.00000000
_cell_angle_gamma   90.00000000
_symmetry_Int_Tables_number   1
_chemical_formula_structural   Sc2GaCo2P
_chemical_formula_sum   'Sc4 Ga2 Co4 P2'
_cell_volume   177.00204096
_cell_formula_units_Z   2
loop_
 _symmetry_equiv_pos_site_id
 _symmetry_equiv_pos_as_xyz
  1  'x, y, z'
loop_
 _atom_site_type_symbol
 _atom_site_label
 _atom_site_symmetry_multiplicity
 _atom_site_fract_x
 _atom_site_fract_y
 _atom_site_fract_z
 _atom_site_occupancy
  Sc  Sc0  1  0.250000  0.997647  0.801316  1
  Sc  Sc1  1  0.250000  0.497647  0.698684  1
  Sc  Sc2  1  0.750000  0.984349  0.191569  1
  Sc  Sc3  1  0.750000  0.484349  0.308431  1
  Ga  Ga4  1  0.250000  0.284111  0.107526  1
  Ga  Ga5  1  0.250000  0.784111  0.392474  1
  Co  Co6  1  0.250000  0.164651  0.451277  1
  Co  Co7  1  0.250000  0.664651  0.048723  1
  Co  Co8  1  0.750000  0.857545  0.575269  1
  Co  Co9  1  0.750000  0.357545  0.924731  1
  P  P10  1  0.750000  0.711698  0.887565  1
  P  P11  1  0.750000  0.211698  0.612435  1
