# generated using pymatgen
data_Tb2HoEr3(SbO7)2
_symmetry_space_group_name_H-M   'P 1'
_cell_length_a   6.44224220
_cell_length_b   6.44340288
_cell_length_c   7.51073100
_cell_angle_alpha   90.00000000
_cell_angle_beta   90.00000000
_cell_angle_gamma   109.36360377
_symmetry_Int_Tables_number   1
_chemical_formula_structural   Tb2HoEr3(SbO7)2
_chemical_formula_sum   'Tb2 Ho1 Er3 Sb2 O14'
_cell_volume   294.13440127
_cell_formula_units_Z   1
loop_
 _symmetry_equiv_pos_site_id
 _symmetry_equiv_pos_as_xyz
  1  'x, y, z'
loop_
 _atom_site_type_symbol
 _atom_site_label
 _atom_site_symmetry_multiplicity
 _atom_site_fract_x
 _atom_site_fract_y
 _atom_site_fract_z
 _atom_site_occupancy
  Tb  Tb0  1  0.500146  0.500059  0.499885  1
  Tb  Tb1  1  0.500146  0.500059  0.000115  1
  Ho  Ho2  1  0.999365  0.468261  0.750000  1
  Er  Er3  1  0.531487  0.000815  0.750000  1
  Er  Er4  1  0.000827  0.531617  0.250000  1
  Er  Er5  1  0.468471  0.999139  0.250000  1
  Sb  Sb6  1  0.999981  0.000037  0.499767  1
  Sb  Sb7  1  0.999981  0.000037  0.000233  1
  O  O8  1  0.676252  0.927952  0.469811  1
  O  O9  1  0.927486  0.676428  0.529591  1
  O  O10  1  0.676252  0.927952  0.030189  1
  O  O11  1  0.927486  0.676428  0.970409  1
  O  O12  1  0.323649  0.072093  0.530170  1
  O  O13  1  0.072355  0.323570  0.469329  1
  O  O14  1  0.323649  0.072093  0.969830  1
  O  O15  1  0.072355  0.323570  0.030671  1
  O  O16  1  0.928563  0.070794  0.750000  1
  O  O17  1  0.071479  0.928717  0.250000  1
  O  O18  1  0.368665  0.633063  0.750000  1
  O  O19  1  0.632549  0.367451  0.250000  1
  O  O20  1  0.637997  0.360705  0.750000  1
  O  O21  1  0.360858  0.639159  0.250000  1
