# generated using pymatgen
data_TbDy5(HfPt2)2
_symmetry_space_group_name_H-M   'P 1'
_cell_length_a   4.73470700
_cell_length_b   7.16051004
_cell_length_c   8.44557277
_cell_angle_alpha   90.06301441
_cell_angle_beta   90.00000000
_cell_angle_gamma   90.00000000
_symmetry_Int_Tables_number   1
_chemical_formula_structural   TbDy5(HfPt2)2
_chemical_formula_sum   'Tb1 Dy5 Hf2 Pt4'
_cell_volume   286.32937968
_cell_formula_units_Z   1
loop_
 _symmetry_equiv_pos_site_id
 _symmetry_equiv_pos_as_xyz
  1  'x, y, z'
loop_
 _atom_site_type_symbol
 _atom_site_label
 _atom_site_symmetry_multiplicity
 _atom_site_fract_x
 _atom_site_fract_y
 _atom_site_fract_z
 _atom_site_occupancy
  Tb  Tb0  1  0.250000  0.981988  0.331827  1
  Dy  Dy1  1  0.750000  0.145193  0.082730  1
  Dy  Dy2  1  0.250000  0.854917  0.916809  1
  Dy  Dy3  1  0.750000  0.509367  0.821933  1
  Dy  Dy4  1  0.250000  0.490548  0.177976  1
  Dy  Dy5  1  0.750000  0.018442  0.668026  1
  Hf  Hf6  1  0.750000  0.642961  0.424632  1
  Hf  Hf7  1  0.250000  0.356938  0.575530  1
  Pt  Pt8  1  0.750000  0.274565  0.419388  1
  Pt  Pt9  1  0.250000  0.725350  0.581279  1
  Pt  Pt10  1  0.750000  0.744150  0.106436  1
  Pt  Pt11  1  0.250000  0.255581  0.893435  1
