# generated using pymatgen
data_Ac2Y2P7Ir8
_symmetry_space_group_name_H-M   'P 1'
_cell_length_a   3.99182700
_cell_length_b   12.96595939
_cell_length_c   13.30344502
_cell_angle_alpha   81.12582663
_cell_angle_beta   90.00000000
_cell_angle_gamma   90.00000000
_symmetry_Int_Tables_number   1
_chemical_formula_structural   Ac2Y2P7Ir8
_chemical_formula_sum   'Ac4 Y4 P14 Ir16'
_cell_volume   680.31555397
_cell_formula_units_Z   2
loop_
 _symmetry_equiv_pos_site_id
 _symmetry_equiv_pos_as_xyz
  1  'x, y, z'
loop_
 _atom_site_type_symbol
 _atom_site_label
 _atom_site_symmetry_multiplicity
 _atom_site_fract_x
 _atom_site_fract_y
 _atom_site_fract_z
 _atom_site_occupancy
  Ac  Ac0  1  0.250000  0.107607  0.786192  1
  Ac  Ac1  1  0.750000  0.892393  0.213808  1
  Ac  Ac2  1  0.250000  0.281516  0.104330  1
  Ac  Ac3  1  0.750000  0.718484  0.895670  1
  Y  Y4  1  0.250000  0.520137  0.295148  1
  Y  Y5  1  0.750000  0.479863  0.704852  1
  Y  Y6  1  0.250000  0.208848  0.440780  1
  Y  Y7  1  0.750000  0.791152  0.559220  1
  P  P8  1  0.250000  0.053096  0.098274  1
  P  P9  1  0.750000  0.946904  0.901726  1
  P  P10  1  0.250000  0.320839  0.682710  1
  P  P11  1  0.750000  0.679161  0.317290  1
  P  P12  1  0.250000  0.607650  0.564699  1
  P  P13  1  0.750000  0.392350  0.435301  1
  P  P14  1  0.250000  0.841978  0.713483  1
  P  P15  1  0.750000  0.158022  0.286517  1
  P  P16  1  0.750000  0.258666  0.914794  1
  P  P17  1  0.250000  0.741334  0.085206  1
  P  P18  1  0.750000  0.092890  0.585725  1
  P  P19  1  0.250000  0.907110  0.414275  1
  P  P20  1  0.750000  0.473779  0.130778  1
  P  P21  1  0.250000  0.526221  0.869222  1
  Ir  Ir22  1  0.250000  0.988070  0.574846  1
  Ir  Ir23  1  0.750000  0.011930  0.425154  1
  Ir  Ir24  1  0.250000  0.660440  0.724881  1
  Ir  Ir25  1  0.750000  0.339560  0.275119  1
  Ir  Ir26  1  0.250000  0.548107  0.051726  1
  Ir  Ir27  1  0.750000  0.451893  0.948274  1
  Ir  Ir28  1  0.250000  0.065071  0.275253  1
  Ir  Ir29  1  0.750000  0.934929  0.724747  1
  Ir  Ir30  1  0.250000  0.423931  0.521616  1
  Ir  Ir31  1  0.750000  0.576069  0.478384  1
  Ir  Ir32  1  0.250000  0.915786  0.998878  1
  Ir  Ir33  1  0.750000  0.084214  0.001122  1
  Ir  Ir34  1  0.250000  0.726729  0.401308  1
  Ir  Ir35  1  0.750000  0.273271  0.598692  1
  Ir  Ir36  1  0.250000  0.346017  0.853443  1
  Ir  Ir37  1  0.750000  0.653983  0.146557  1
