# generated using pymatgen
data_Dy8BeSi11Pt4
_symmetry_space_group_name_H-M   'P 1'
_cell_length_a   8.17725500
_cell_length_b   8.18002830
_cell_length_c   8.13093900
_cell_angle_alpha   89.99816486
_cell_angle_beta   89.99998599
_cell_angle_gamma   119.98878146
_symmetry_Int_Tables_number   1
_chemical_formula_structural   Dy8BeSi11Pt4
_chemical_formula_sum   'Dy8 Be1 Si11 Pt4'
_cell_volume   471.06709136
_cell_formula_units_Z   1
loop_
 _symmetry_equiv_pos_site_id
 _symmetry_equiv_pos_as_xyz
  1  'x, y, z'
loop_
 _atom_site_type_symbol
 _atom_site_label
 _atom_site_symmetry_multiplicity
 _atom_site_fract_x
 _atom_site_fract_y
 _atom_site_fract_z
 _atom_site_occupancy
  Dy  Dy0  1  0.998769  0.997538  0.248883  1
  Dy  Dy1  1  0.998912  0.997823  0.750969  1
  Dy  Dy2  1  0.004836  0.500695  0.244394  1
  Dy  Dy3  1  0.495859  0.500695  0.244394  1
  Dy  Dy4  1  0.502392  0.004784  0.753823  1
  Dy  Dy5  1  0.500318  0.000635  0.246271  1
  Dy  Dy6  1  0.497891  0.498497  0.755501  1
  Dy  Dy7  1  0.000607  0.498498  0.755501  1
  Be  Be8  1  0.164338  0.328677  0.999753  1
  Si  Si9  1  0.667291  0.837040  0.999804  1
  Si  Si10  1  0.164911  0.329821  0.500296  1
  Si  Si11  1  0.323135  0.172506  0.000239  1
  Si  Si12  1  0.169749  0.837040  0.999804  1
  Si  Si13  1  0.668915  0.834596  0.500264  1
  Si  Si14  1  0.834336  0.668671  0.000042  1
  Si  Si15  1  0.331206  0.165195  0.499600  1
  Si  Si16  1  0.165681  0.834597  0.500264  1
  Si  Si17  1  0.834622  0.669242  0.499797  1
  Si  Si18  1  0.849371  0.172506  0.000239  1
  Si  Si19  1  0.833989  0.165194  0.499600  1
  Pt  Pt20  1  0.327833  0.655666  0.997018  1
  Pt  Pt21  1  0.333067  0.666133  0.502900  1
  Pt  Pt22  1  0.665020  0.330038  0.003157  1
  Pt  Pt23  1  0.666953  0.333907  0.497488  1
