# generated using pymatgen
data_LuZn2Cu2Ag
_symmetry_space_group_name_H-M   'P 1'
_cell_length_a   5.12022437
_cell_length_b   5.10077385
_cell_length_c   5.10077221
_cell_angle_alpha   60.24829398
_cell_angle_beta   59.87377202
_cell_angle_gamma   59.87377539
_symmetry_Int_Tables_number   1
_chemical_formula_structural   LuZn2Cu2Ag
_chemical_formula_sum   'Lu1 Zn2 Cu2 Ag1'
_cell_volume   94.19328432
_cell_formula_units_Z   1
loop_
 _symmetry_equiv_pos_site_id
 _symmetry_equiv_pos_as_xyz
  1  'x, y, z'
loop_
 _atom_site_type_symbol
 _atom_site_label
 _atom_site_symmetry_multiplicity
 _atom_site_fract_x
 _atom_site_fract_y
 _atom_site_fract_z
 _atom_site_occupancy
  Lu  Lu0  1  0.002815  0.997185  0.997185  1
  Zn  Zn1  1  0.623201  0.624051  0.129546  1
  Zn  Zn2  1  0.623201  0.129546  0.624051  1
  Cu  Cu3  1  0.125575  0.624983  0.624983  1
  Cu  Cu4  1  0.624459  0.624983  0.624983  1
  Ag  Ag5  1  0.250750  0.249250  0.249250  1
