# generated using pymatgen
data_Er3TaGa2Ir3
_symmetry_space_group_name_H-M   'P 1'
_cell_length_a   7.03827023
_cell_length_b   7.03827010
_cell_length_c   4.19453500
_cell_angle_alpha   90.00000000
_cell_angle_beta   90.00000000
_cell_angle_gamma   121.79329139
_symmetry_Int_Tables_number   1
_chemical_formula_structural   Er3TaGa2Ir3
_chemical_formula_sum   'Er3 Ta1 Ga2 Ir3'
_cell_volume   176.60838073
_cell_formula_units_Z   1
loop_
 _symmetry_equiv_pos_site_id
 _symmetry_equiv_pos_as_xyz
  1  'x, y, z'
loop_
 _atom_site_type_symbol
 _atom_site_label
 _atom_site_symmetry_multiplicity
 _atom_site_fract_x
 _atom_site_fract_y
 _atom_site_fract_z
 _atom_site_occupancy
  Er  Er0  1  0.395353  0.395353  0.500000  1
  Er  Er1  1  0.582718  0.006125  0.500000  1
  Er  Er2  1  0.006125  0.582718  0.500000  1
  Ta  Ta3  1  0.760814  0.760814  0.000000  1
  Ga  Ga4  1  0.250477  0.002910  0.000000  1
  Ga  Ga5  1  0.002910  0.250477  0.000000  1
  Ir  Ir6  1  0.673022  0.351203  0.000000  1
  Ir  Ir7  1  0.351203  0.673022  0.000000  1
  Ir  Ir8  1  0.977377  0.977377  0.500000  1
