# generated using pymatgen
data_Dy8Tl3Os
_symmetry_space_group_name_H-M   'P 1'
_cell_length_a   10.35794601
_cell_length_b   10.35833944
_cell_length_c   7.23176800
_cell_angle_alpha   90.00000000
_cell_angle_beta   90.00000000
_cell_angle_gamma   120.00555898
_symmetry_Int_Tables_number   1
_chemical_formula_structural   Dy8Tl3Os
_chemical_formula_sum   'Dy16 Tl6 Os2'
_cell_volume   671.91535867
_cell_formula_units_Z   2
loop_
 _symmetry_equiv_pos_site_id
 _symmetry_equiv_pos_as_xyz
  1  'x, y, z'
loop_
 _atom_site_type_symbol
 _atom_site_label
 _atom_site_symmetry_multiplicity
 _atom_site_fract_x
 _atom_site_fract_y
 _atom_site_fract_z
 _atom_site_occupancy
  Dy  Dy0  1  0.176402  0.823607  0.510476  1
  Dy  Dy1  1  0.647299  0.823639  0.510443  1
  Dy  Dy2  1  0.176371  0.352712  0.510444  1
  Dy  Dy3  1  0.823598  0.176393  0.010476  1
  Dy  Dy4  1  0.352701  0.176361  0.010443  1
  Dy  Dy5  1  0.823629  0.647288  0.010444  1
  Dy  Dy6  1  0.333343  0.666655  0.830162  1
  Dy  Dy7  1  0.666657  0.333345  0.330162  1
  Dy  Dy8  1  0.463485  0.536525  0.210487  1
  Dy  Dy9  1  0.072990  0.536501  0.210464  1
  Dy  Dy10  1  0.463498  0.926999  0.210467  1
  Dy  Dy11  1  0.536515  0.463475  0.710487  1
  Dy  Dy12  1  0.927010  0.463499  0.710464  1
  Dy  Dy13  1  0.536502  0.073001  0.710467  1
  Dy  Dy14  1  0.000031  0.999970  0.230042  1
  Dy  Dy15  1  0.999969  0.000030  0.730042  1
  Tl  Tl16  1  0.163743  0.836258  0.957108  1
  Tl  Tl17  1  0.672488  0.836262  0.957156  1
  Tl  Tl18  1  0.163736  0.327508  0.957157  1
  Tl  Tl19  1  0.836257  0.163742  0.457108  1
  Tl  Tl20  1  0.327512  0.163738  0.457156  1
  Tl  Tl21  1  0.836264  0.672492  0.457157  1
  Os  Os22  1  0.333321  0.666659  0.443015  1
  Os  Os23  1  0.666679  0.333341  0.943015  1
