# generated using pymatgen
data_Pr4Ga24NiPd
_symmetry_space_group_name_H-M   'P 1'
_cell_length_a   6.15113600
_cell_length_b   6.15113600
_cell_length_c   15.44068200
_cell_angle_alpha   90.00000000
_cell_angle_beta   90.00000000
_cell_angle_gamma   90.00000000
_symmetry_Int_Tables_number   1
_chemical_formula_structural   Pr4Ga24NiPd
_chemical_formula_sum   'Pr4 Ga24 Ni1 Pd1'
_cell_volume   584.22096443
_cell_formula_units_Z   1
loop_
 _symmetry_equiv_pos_site_id
 _symmetry_equiv_pos_as_xyz
  1  'x, y, z'
loop_
 _atom_site_type_symbol
 _atom_site_label
 _atom_site_symmetry_multiplicity
 _atom_site_fract_x
 _atom_site_fract_y
 _atom_site_fract_z
 _atom_site_occupancy
  Pr  Pr0  1  0.500000  0.000000  0.242328  1
  Pr  Pr1  1  0.500000  0.000000  0.757672  1
  Pr  Pr2  1  0.000000  0.500000  0.753914  1
  Pr  Pr3  1  0.000000  0.500000  0.246086  1
  Ga  Ga4  1  0.332592  0.832592  0.430511  1
  Ga  Ga5  1  0.667408  0.167408  0.430511  1
  Ga  Ga6  1  0.332592  0.167408  0.569489  1
  Ga  Ga7  1  0.667408  0.832592  0.569489  1
  Ga  Ga8  1  0.169011  0.669011  0.568383  1
  Ga  Ga9  1  0.830989  0.330989  0.568383  1
  Ga  Ga10  1  0.830989  0.669011  0.431617  1
  Ga  Ga11  1  0.169011  0.330989  0.431617  1
  Ga  Ga12  1  0.242291  0.742291  0.914727  1
  Ga  Ga13  1  0.757709  0.257709  0.914727  1
  Ga  Ga14  1  0.242291  0.257709  0.085273  1
  Ga  Ga15  1  0.757709  0.742291  0.085273  1
  Ga  Ga16  1  0.242231  0.742231  0.085400  1
  Ga  Ga17  1  0.757769  0.257769  0.085400  1
  Ga  Ga18  1  0.757769  0.742231  0.914600  1
  Ga  Ga19  1  0.242231  0.257769  0.914600  1
  Ga  Ga20  1  0.500000  0.500000  0.344336  1
  Ga  Ga21  1  0.500000  0.500000  0.655664  1
  Ga  Ga22  1  0.000000  0.000000  0.655664  1
  Ga  Ga23  1  0.000000  0.000000  0.344336  1
  Ga  Ga24  1  0.500000  0.500000  0.184090  1
  Ga  Ga25  1  0.500000  0.500000  0.815910  1
  Ga  Ga26  1  0.000000  0.000000  0.815910  1
  Ga  Ga27  1  0.000000  0.000000  0.184090  1
  Ni  Ni28  1  0.000000  0.500000  0.000000  1
  Pd  Pd29  1  0.500000  0.000000  0.000000  1
