# generated using pymatgen
data_ErTm3(NiPt)2
_symmetry_space_group_name_H-M   'P 1'
_cell_length_a   4.33719600
_cell_length_b   5.44672938
_cell_length_c   6.97138500
_cell_angle_alpha   90.26300446
_cell_angle_beta   90.00000000
_cell_angle_gamma   90.00000000
_symmetry_Int_Tables_number   1
_chemical_formula_structural   ErTm3(NiPt)2
_chemical_formula_sum   'Er1 Tm3 Ni2 Pt2'
_cell_volume   164.68700781
_cell_formula_units_Z   1
loop_
 _symmetry_equiv_pos_site_id
 _symmetry_equiv_pos_as_xyz
  1  'x, y, z'
loop_
 _atom_site_type_symbol
 _atom_site_label
 _atom_site_symmetry_multiplicity
 _atom_site_fract_x
 _atom_site_fract_y
 _atom_site_fract_z
 _atom_site_occupancy
  Er  Er0  1  0.500000  0.613376  0.817888  1
  Tm  Tm1  1  0.000000  0.115518  0.679632  1
  Tm  Tm2  1  0.000000  0.884432  0.180357  1
  Tm  Tm3  1  0.500000  0.387121  0.319409  1
  Ni  Ni4  1  0.000000  0.603554  0.537866  1
  Ni  Ni5  1  0.000000  0.393919  0.044647  1
  Pt  Pt6  1  0.500000  0.887953  0.459060  1
  Pt  Pt7  1  0.500000  0.114127  0.961142  1
