# generated using pymatgen
data_Sc8Ti11Si16Rh
_symmetry_space_group_name_H-M   'P 1'
_cell_length_a   6.63659819
_cell_length_b   6.83328085
_cell_length_c   13.00761900
_cell_angle_alpha   90.00000000
_cell_angle_beta   90.00000000
_cell_angle_gamma   90.16862116
_symmetry_Int_Tables_number   1
_chemical_formula_structural   Sc8Ti11Si16Rh
_chemical_formula_sum   'Sc8 Ti11 Si16 Rh1'
_cell_volume   589.88957664
_cell_formula_units_Z   1
loop_
 _symmetry_equiv_pos_site_id
 _symmetry_equiv_pos_as_xyz
  1  'x, y, z'
loop_
 _atom_site_type_symbol
 _atom_site_label
 _atom_site_symmetry_multiplicity
 _atom_site_fract_x
 _atom_site_fract_y
 _atom_site_fract_z
 _atom_site_occupancy
  Sc  Sc0  1  0.499579  0.673161  0.594531  1
  Sc  Sc1  1  0.003582  0.826805  0.905865  1
  Sc  Sc2  1  0.496561  0.325546  0.094268  1
  Sc  Sc3  1  0.996691  0.175265  0.405076  1
  Sc  Sc4  1  0.496561  0.325546  0.405732  1
  Sc  Sc5  1  0.996691  0.175265  0.094924  1
  Sc  Sc6  1  0.499579  0.673161  0.905469  1
  Sc  Sc7  1  0.003582  0.826805  0.594135  1
  Ti  Ti8  1  0.669960  0.170536  0.626881  1
  Ti  Ti9  1  0.164225  0.325812  0.873200  1
  Ti  Ti10  1  0.335316  0.825665  0.126449  1
  Ti  Ti11  1  0.835481  0.673802  0.374112  1
  Ti  Ti12  1  0.335316  0.825665  0.373551  1
  Ti  Ti13  1  0.835481  0.673802  0.125888  1
  Ti  Ti14  1  0.669960  0.170536  0.873119  1
  Ti  Ti15  1  0.164225  0.325812  0.626800  1
  Ti  Ti16  1  0.339827  0.006210  0.750000  1
  Ti  Ti17  1  0.160791  0.508421  0.250000  1
  Ti  Ti18  1  0.661839  0.993483  0.250000  1
  Si  Si19  1  0.664504  0.965021  0.459607  1
  Si  Si20  1  0.164446  0.536040  0.038932  1
  Si  Si21  1  0.336538  0.035943  0.959005  1
  Si  Si22  1  0.833668  0.463321  0.541746  1
  Si  Si23  1  0.336538  0.035943  0.540995  1
  Si  Si24  1  0.833668  0.463321  0.958254  1
  Si  Si25  1  0.664504  0.965021  0.040393  1
  Si  Si26  1  0.164446  0.536040  0.461068  1
  Si  Si27  1  0.468927  0.383816  0.750000  1
  Si  Si28  1  0.966443  0.107920  0.750000  1
  Si  Si29  1  0.536615  0.616148  0.250000  1
  Si  Si30  1  0.036293  0.883498  0.250000  1
  Si  Si31  1  0.705376  0.861437  0.750000  1
  Si  Si32  1  0.200682  0.635213  0.750000  1
  Si  Si33  1  0.294040  0.136727  0.250000  1
  Si  Si34  1  0.794048  0.363990  0.250000  1
  Rh  Rh35  1  0.834015  0.509300  0.750000  1
