# generated using pymatgen
data_Dy3Ga5Rh
_symmetry_space_group_name_H-M   'P 1'
_cell_length_a   6.93593600
_cell_length_b   6.93593619
_cell_length_c   4.31567700
_cell_angle_alpha   90.00000000
_cell_angle_beta   90.00000000
_cell_angle_gamma   119.99999907
_symmetry_Int_Tables_number   1
_chemical_formula_structural   Dy3Ga5Rh
_chemical_formula_sum   'Dy3 Ga5 Rh1'
_cell_volume   179.80001985
_cell_formula_units_Z   1
loop_
 _symmetry_equiv_pos_site_id
 _symmetry_equiv_pos_as_xyz
  1  'x, y, z'
loop_
 _atom_site_type_symbol
 _atom_site_label
 _atom_site_symmetry_multiplicity
 _atom_site_fract_x
 _atom_site_fract_y
 _atom_site_fract_z
 _atom_site_occupancy
  Dy  Dy0  1  0.591875  0.000000  0.500001  1
  Dy  Dy1  1  0.408125  0.408125  0.500001  1
  Dy  Dy2  1  0.000000  0.591875  0.500001  1
  Ga  Ga3  1  0.236808  0.000000  0.000000  1
  Ga  Ga4  1  0.000000  0.236810  0.000000  1
  Ga  Ga5  1  0.666667  0.333333  0.000000  1
  Ga  Ga6  1  0.333333  0.666667  0.000000  1
  Ga  Ga7  1  0.763191  0.763190  0.000000  1
  Rh  Rh8  1  0.000000  0.000000  0.500001  1
