# generated using pymatgen
data_Ho5Sc2P12Ir17
_symmetry_space_group_name_H-M   'P 1'
_cell_length_a   12.66869600
_cell_length_b   12.89194104
_cell_length_c   3.95544600
_cell_angle_alpha   90.00000000
_cell_angle_beta   90.00000000
_cell_angle_gamma   119.42880467
_symmetry_Int_Tables_number   1
_chemical_formula_structural   Ho5Sc2P12Ir17
_chemical_formula_sum   'Ho5 Sc2 P12 Ir17'
_cell_volume   562.66168038
_cell_formula_units_Z   1
loop_
 _symmetry_equiv_pos_site_id
 _symmetry_equiv_pos_as_xyz
  1  'x, y, z'
loop_
 _atom_site_type_symbol
 _atom_site_label
 _atom_site_symmetry_multiplicity
 _atom_site_fract_x
 _atom_site_fract_y
 _atom_site_fract_z
 _atom_site_occupancy
  Ho  Ho0  1  0.330176  0.660657  0.500000  1
  Ho  Ho1  1  0.669519  0.339343  0.500000  1
  Ho  Ho2  1  0.000777  0.813404  0.000000  1
  Ho  Ho3  1  0.187372  0.186596  0.000000  1
  Ho  Ho4  1  0.810921  0.000000  0.000000  1
  Sc  Sc5  1  0.997485  0.443553  0.500000  1
  Sc  Sc6  1  0.553932  0.556447  0.500000  1
  P  P7  1  0.005160  0.649328  0.500000  1
  P  P8  1  0.355832  0.350672  0.500000  1
  P  P9  1  0.643986  0.000000  0.500000  1
  P  P10  1  0.515061  0.685923  0.000000  1
  P  P11  1  0.308684  0.823623  0.000000  1
  P  P12  1  0.165402  0.480282  0.000000  1
  P  P13  1  0.485061  0.176377  0.000000  1
  P  P14  1  0.685119  0.519718  0.000000  1
  P  P15  1  0.829138  0.314077  0.000000  1
  P  P16  1  0.999309  0.175097  0.500000  1
  P  P17  1  0.824212  0.824903  0.500000  1
  P  P18  1  0.180676  0.000000  0.500000  1
  Ir  Ir19  1  0.503883  0.864231  0.000000  1
  Ir  Ir20  1  0.124969  0.641442  0.000000  1
  Ir  Ir21  1  0.356920  0.495676  0.000000  1
  Ir  Ir22  1  0.483528  0.358558  0.000000  1
  Ir  Ir23  1  0.861246  0.504324  0.000000  1
  Ir  Ir24  1  0.639652  0.135769  0.000000  1
  Ir  Ir25  1  0.464134  0.000000  0.500000  1
  Ir  Ir26  1  0.996250  0.276012  0.000000  1
  Ir  Ir27  1  0.720238  0.723988  0.000000  1
  Ir  Ir28  1  0.286419  0.000000  0.000000  1
  Ir  Ir29  1  0.623242  0.808525  0.500000  1
  Ir  Ir30  1  0.204838  0.825686  0.500000  1
  Ir  Ir31  1  0.178555  0.366703  0.500000  1
  Ir  Ir32  1  0.379152  0.174314  0.500000  1
  Ir  Ir33  1  0.811852  0.633297  0.500000  1
  Ir  Ir34  1  0.814716  0.191475  0.500000  1
  Ir  Ir35  1  0.002580  0.000000  0.500000  1
