# generated using pymatgen
data_Ti6V4GaSi5
_symmetry_space_group_name_H-M   'P 1'
_cell_length_a   7.38005822
_cell_length_b   7.38005728
_cell_length_c   4.96884300
_cell_angle_alpha   90.00000000
_cell_angle_beta   90.00000000
_cell_angle_gamma   120.02785417
_symmetry_Int_Tables_number   1
_chemical_formula_structural   Ti6V4GaSi5
_chemical_formula_sum   'Ti6 V4 Ga1 Si5'
_cell_volume   234.30602791
_cell_formula_units_Z   1
loop_
 _symmetry_equiv_pos_site_id
 _symmetry_equiv_pos_as_xyz
  1  'x, y, z'
loop_
 _atom_site_type_symbol
 _atom_site_label
 _atom_site_symmetry_multiplicity
 _atom_site_fract_x
 _atom_site_fract_y
 _atom_site_fract_z
 _atom_site_occupancy
  Ti  Ti0  1  0.756400  0.756400  0.750000  1
  Ti  Ti1  1  0.245218  0.995716  0.750000  1
  Ti  Ti2  1  0.995716  0.245218  0.750000  1
  Ti  Ti3  1  0.243354  0.243354  0.250000  1
  Ti  Ti4  1  0.753342  0.000161  0.250000  1
  Ti  Ti5  1  0.000161  0.753342  0.250000  1
  V  V6  1  0.670380  0.332232  0.001996  1
  V  V7  1  0.332232  0.670380  0.001996  1
  V  V8  1  0.332232  0.670380  0.498004  1
  V  V9  1  0.670380  0.332232  0.498004  1
  Ga  Ga10  1  0.399251  0.399251  0.750000  1
  Si  Si11  1  0.600205  0.998989  0.750000  1
  Si  Si12  1  0.998989  0.600205  0.750000  1
  Si  Si13  1  0.600650  0.600650  0.250000  1
  Si  Si14  1  0.399156  0.002336  0.250000  1
  Si  Si15  1  0.002336  0.399156  0.250000  1
