# generated using pymatgen
data_Sc5Fe19P12
_symmetry_space_group_name_H-M   'P 1'
_cell_length_a   11.78530500
_cell_length_b   11.78530566
_cell_length_c   3.62330600
_cell_angle_alpha   90.00000000
_cell_angle_beta   90.00000000
_cell_angle_gamma   120.00000094
_symmetry_Int_Tables_number   1
_chemical_formula_structural   Sc5Fe19P12
_chemical_formula_sum   'Sc5 Fe19 P12'
_cell_volume   435.83019751
_cell_formula_units_Z   1
loop_
 _symmetry_equiv_pos_site_id
 _symmetry_equiv_pos_as_xyz
  1  'x, y, z'
loop_
 _atom_site_type_symbol
 _atom_site_label
 _atom_site_symmetry_multiplicity
 _atom_site_fract_x
 _atom_site_fract_y
 _atom_site_fract_z
 _atom_site_occupancy
  Sc  Sc0  1  0.333333  0.666667  0.500000  1
  Sc  Sc1  1  0.666667  0.333333  0.500000  1
  Sc  Sc2  1  0.816110  0.000000  0.000000  1
  Sc  Sc3  1  0.000000  0.816110  0.000000  1
  Sc  Sc4  1  0.183890  0.183890  0.000000  1
  Fe  Fe5  1  0.620926  0.801838  0.500000  1
  Fe  Fe6  1  0.198162  0.819089  0.500000  1
  Fe  Fe7  1  0.180911  0.379074  0.500000  1
  Fe  Fe8  1  0.379074  0.180911  0.500000  1
  Fe  Fe9  1  0.801838  0.620926  0.500000  1
  Fe  Fe10  1  0.819089  0.198162  0.500000  1
  Fe  Fe11  1  0.284824  0.000000  0.000000  1
  Fe  Fe12  1  0.000000  0.284824  0.000000  1
  Fe  Fe13  1  0.715176  0.715176  0.000000  1
  Fe  Fe14  1  0.445358  0.000000  0.500000  1
  Fe  Fe15  1  0.000000  0.445358  0.500000  1
  Fe  Fe16  1  0.554642  0.554642  0.500000  1
  Fe  Fe17  1  0.518008  0.876580  0.000000  1
  Fe  Fe18  1  0.123420  0.641427  0.000000  1
  Fe  Fe19  1  0.358573  0.481992  0.000000  1
  Fe  Fe20  1  0.481992  0.358573  0.000000  1
  Fe  Fe21  1  0.876580  0.518008  0.000000  1
  Fe  Fe22  1  0.641427  0.123420  0.000000  1
  Fe  Fe23  1  0.000000  0.000000  0.500000  1
  P  P24  1  0.182231  0.000000  0.500000  1
  P  P25  1  0.000000  0.182231  0.500000  1
  P  P26  1  0.817769  0.817769  0.500000  1
  P  P27  1  0.517321  0.684984  0.000000  1
  P  P28  1  0.315016  0.832337  0.000000  1
  P  P29  1  0.167663  0.482679  0.000000  1
  P  P30  1  0.482679  0.167663  0.000000  1
  P  P31  1  0.684984  0.517321  0.000000  1
  P  P32  1  0.832337  0.315016  0.000000  1
  P  P33  1  0.634165  0.000000  0.500000  1
  P  P34  1  0.000000  0.634165  0.500000  1
  P  P35  1  0.365835  0.365835  0.500000  1
