# generated using pymatgen
data_HoCoP3Rh3W
_symmetry_space_group_name_H-M   'P 1'
_cell_length_a   3.86290700
_cell_length_b   10.72788500
_cell_length_c   12.42205400
_cell_angle_alpha   90.00000000
_cell_angle_beta   90.00000000
_cell_angle_gamma   90.00000000
_symmetry_Int_Tables_number   1
_chemical_formula_structural   HoCoP3Rh3W
_chemical_formula_sum   'Ho4 Co4 P12 Rh12 W4'
_cell_volume   514.78012945
_cell_formula_units_Z   4
loop_
 _symmetry_equiv_pos_site_id
 _symmetry_equiv_pos_as_xyz
  1  'x, y, z'
loop_
 _atom_site_type_symbol
 _atom_site_label
 _atom_site_symmetry_multiplicity
 _atom_site_fract_x
 _atom_site_fract_y
 _atom_site_fract_z
 _atom_site_occupancy
  Ho  Ho0  1  0.250000  0.583589  0.708148  1
  Ho  Ho1  1  0.250000  0.916411  0.208148  1
  Ho  Ho2  1  0.750000  0.416411  0.291852  1
  Ho  Ho3  1  0.750000  0.083589  0.791852  1
  Co  Co4  1  0.250000  0.464271  0.936176  1
  Co  Co5  1  0.250000  0.035729  0.436176  1
  Co  Co6  1  0.750000  0.535729  0.063824  1
  Co  Co7  1  0.750000  0.964271  0.563824  1
  P  P8  1  0.250000  0.422738  0.108277  1
  P  P9  1  0.250000  0.077262  0.608277  1
  P  P10  1  0.750000  0.577262  0.891723  1
  P  P11  1  0.750000  0.922738  0.391723  1
  P  P12  1  0.250000  0.269977  0.871802  1
  P  P13  1  0.250000  0.230023  0.371802  1
  P  P14  1  0.750000  0.730023  0.128198  1
  P  P15  1  0.750000  0.769977  0.628198  1
  P  P16  1  0.250000  0.598269  0.390761  1
  P  P17  1  0.250000  0.901731  0.890761  1
  P  P18  1  0.750000  0.401731  0.609239  1
  P  P19  1  0.750000  0.098269  0.109239  1
  Rh  Rh20  1  0.250000  0.404346  0.485327  1
  Rh  Rh21  1  0.250000  0.095654  0.985327  1
  Rh  Rh22  1  0.750000  0.595654  0.514673  1
  Rh  Rh23  1  0.750000  0.904346  0.014673  1
  Rh  Rh24  1  0.250000  0.229078  0.180456  1
  Rh  Rh25  1  0.250000  0.270922  0.680456  1
  Rh  Rh26  1  0.750000  0.770922  0.819544  1
  Rh  Rh27  1  0.750000  0.729078  0.319544  1
  Rh  Rh28  1  0.250000  0.890166  0.699398  1
  Rh  Rh29  1  0.250000  0.609834  0.199398  1
  Rh  Rh30  1  0.750000  0.109834  0.300602  1
  Rh  Rh31  1  0.750000  0.390166  0.800602  1
  W  W32  1  0.250000  0.706960  0.985330  1
  W  W33  1  0.250000  0.793040  0.485330  1
  W  W34  1  0.750000  0.293040  0.014670  1
  W  W35  1  0.750000  0.206960  0.514670  1
