# generated using pymatgen
data_Sm2YCr(Co4P3)2
_symmetry_space_group_name_H-M   'P 1'
_cell_length_a   3.72131600
_cell_length_b   10.60004300
_cell_length_c   12.27107500
_cell_angle_alpha   90.00000000
_cell_angle_beta   90.00000000
_cell_angle_gamma   90.00000000
_symmetry_Int_Tables_number   1
_chemical_formula_structural   Sm2YCr(Co4P3)2
_chemical_formula_sum   'Sm4 Y2 Cr2 Co16 P12'
_cell_volume   484.04616956
_cell_formula_units_Z   2
loop_
 _symmetry_equiv_pos_site_id
 _symmetry_equiv_pos_as_xyz
  1  'x, y, z'
loop_
 _atom_site_type_symbol
 _atom_site_label
 _atom_site_symmetry_multiplicity
 _atom_site_fract_x
 _atom_site_fract_y
 _atom_site_fract_z
 _atom_site_occupancy
  Sm  Sm0  1  0.000000  0.500000  0.522281  1
  Sm  Sm1  1  0.500000  0.000000  0.476873  1
  Sm  Sm2  1  0.000000  0.682388  0.795424  1
  Sm  Sm3  1  0.000000  0.317612  0.795424  1
  Y  Y4  1  0.500000  0.817971  0.204352  1
  Y  Y5  1  0.500000  0.182029  0.204352  1
  Cr  Cr6  1  0.500000  0.500000  0.155252  1
  Cr  Cr7  1  0.000000  0.000000  0.845263  1
  Co  Co8  1  0.500000  0.500000  0.703217  1
  Co  Co9  1  0.000000  0.000000  0.295907  1
  Co  Co10  1  0.000000  0.500000  0.988973  1
  Co  Co11  1  0.500000  0.000000  0.014023  1
  Co  Co12  1  0.500000  0.332146  0.994760  1
  Co  Co13  1  0.500000  0.667854  0.994760  1
  Co  Co14  1  0.000000  0.166744  0.007990  1
  Co  Co15  1  0.000000  0.833256  0.007990  1
  Co  Co16  1  0.500000  0.295601  0.428976  1
  Co  Co17  1  0.500000  0.704399  0.428976  1
  Co  Co18  1  0.000000  0.203775  0.568459  1
  Co  Co19  1  0.000000  0.796225  0.568459  1
  Co  Co20  1  0.500000  0.880693  0.709519  1
  Co  Co21  1  0.500000  0.119307  0.709519  1
  Co  Co22  1  0.000000  0.620220  0.289561  1
  Co  Co23  1  0.000000  0.379780  0.289561  1
  P  P24  1  0.500000  0.500000  0.885501  1
  P  P25  1  0.000000  0.000000  0.117536  1
  P  P26  1  0.500000  0.500000  0.342228  1
  P  P27  1  0.000000  0.000000  0.657463  1
  P  P28  1  0.500000  0.308515  0.614410  1
  P  P29  1  0.500000  0.691485  0.614410  1
  P  P30  1  0.000000  0.190376  0.382645  1
  P  P31  1  0.000000  0.809624  0.382645  1
  P  P32  1  0.500000  0.848897  0.894163  1
  P  P33  1  0.500000  0.151103  0.894163  1
  P  P34  1  0.000000  0.653025  0.107481  1
  P  P35  1  0.000000  0.346975  0.107481  1
