# generated using pymatgen
data_Er2V3Co9P7
_symmetry_space_group_name_H-M   'P 1'
_cell_length_a   3.62562300
_cell_length_b   9.02482277
_cell_length_c   9.02482400
_cell_angle_alpha   119.99999720
_cell_angle_beta   90.00000000
_cell_angle_gamma   90.00000000
_symmetry_Int_Tables_number   1
_chemical_formula_structural   Er2V3Co9P7
_chemical_formula_sum   'Er2 V3 Co9 P7'
_cell_volume   255.73531813
_cell_formula_units_Z   1
loop_
 _symmetry_equiv_pos_site_id
 _symmetry_equiv_pos_as_xyz
  1  'x, y, z'
loop_
 _atom_site_type_symbol
 _atom_site_label
 _atom_site_symmetry_multiplicity
 _atom_site_fract_x
 _atom_site_fract_y
 _atom_site_fract_z
 _atom_site_occupancy
  Er  Er0  1  0.000000  0.666667  0.333333  1
  Er  Er1  1  0.500000  0.333333  0.666667  1
  V  V2  1  0.500000  0.781222  0.900962  1
  V  V3  1  0.500000  0.119739  0.218778  1
  V  V4  1  0.500000  0.099038  0.880261  1
  Co  Co5  1  0.000000  0.567681  0.938656  1
  Co  Co6  1  0.000000  0.370974  0.432319  1
  Co  Co7  1  0.000000  0.061344  0.629026  1
  Co  Co8  1  0.000000  0.879621  0.158283  1
  Co  Co9  1  0.000000  0.278662  0.120379  1
  Co  Co10  1  0.000000  0.841717  0.721338  1
  Co  Co11  1  0.500000  0.949859  0.385771  1
  Co  Co12  1  0.500000  0.435911  0.050141  1
  Co  Co13  1  0.500000  0.614229  0.564089  1
  P  P14  1  0.000000  0.000000  0.000000  1
  P  P15  1  0.500000  0.709567  0.117194  1
  P  P16  1  0.500000  0.407627  0.290433  1
  P  P17  1  0.500000  0.882806  0.592373  1
  P  P18  1  0.000000  0.588065  0.700938  1
  P  P19  1  0.000000  0.112873  0.411935  1
  P  P20  1  0.000000  0.299062  0.887127  1
