# generated using pymatgen
data_Dy3MgCoP6Rh7
_symmetry_space_group_name_H-M   'P 1'
_cell_length_a   3.90052000
_cell_length_b   11.19103300
_cell_length_c   12.86136500
_cell_angle_alpha   90.00000000
_cell_angle_beta   90.00000000
_cell_angle_gamma   90.00000000
_symmetry_Int_Tables_number   1
_chemical_formula_structural   Dy3MgCoP6Rh7
_chemical_formula_sum   'Dy6 Mg2 Co2 P12 Rh14'
_cell_volume   561.40948917
_cell_formula_units_Z   2
loop_
 _symmetry_equiv_pos_site_id
 _symmetry_equiv_pos_as_xyz
  1  'x, y, z'
loop_
 _atom_site_type_symbol
 _atom_site_label
 _atom_site_symmetry_multiplicity
 _atom_site_fract_x
 _atom_site_fract_y
 _atom_site_fract_z
 _atom_site_occupancy
  Dy  Dy0  1  0.000000  0.500000  0.521025  1
  Dy  Dy1  1  0.500000  0.000000  0.478975  1
  Dy  Dy2  1  0.500000  0.821402  0.202167  1
  Dy  Dy3  1  0.500000  0.178598  0.202167  1
  Dy  Dy4  1  0.000000  0.678598  0.797833  1
  Dy  Dy5  1  0.000000  0.321402  0.797833  1
  Mg  Mg6  1  0.500000  0.500000  0.159145  1
  Mg  Mg7  1  0.000000  0.000000  0.840855  1
  Co  Co8  1  0.000000  0.500000  0.987530  1
  Co  Co9  1  0.500000  0.000000  0.012470  1
  P  P10  1  0.500000  0.500000  0.884341  1
  P  P11  1  0.000000  0.000000  0.115659  1
  P  P12  1  0.500000  0.500000  0.355622  1
  P  P13  1  0.000000  0.000000  0.644378  1
  P  P14  1  0.500000  0.313590  0.618484  1
  P  P15  1  0.500000  0.686410  0.618484  1
  P  P16  1  0.000000  0.186410  0.381516  1
  P  P17  1  0.000000  0.813590  0.381516  1
  P  P18  1  0.500000  0.844710  0.894090  1
  P  P19  1  0.500000  0.155290  0.894090  1
  P  P20  1  0.000000  0.655290  0.105910  1
  P  P21  1  0.000000  0.344710  0.105910  1
  Rh  Rh22  1  0.500000  0.500000  0.704310  1
  Rh  Rh23  1  0.000000  0.000000  0.295690  1
  Rh  Rh24  1  0.500000  0.335584  0.996787  1
  Rh  Rh25  1  0.500000  0.664416  0.996787  1
  Rh  Rh26  1  0.000000  0.164416  0.003213  1
  Rh  Rh27  1  0.000000  0.835584  0.003213  1
  Rh  Rh28  1  0.500000  0.293084  0.431356  1
  Rh  Rh29  1  0.500000  0.706916  0.431356  1
  Rh  Rh30  1  0.000000  0.206916  0.568644  1
  Rh  Rh31  1  0.000000  0.793084  0.568644  1
  Rh  Rh32  1  0.500000  0.873715  0.712160  1
  Rh  Rh33  1  0.500000  0.126285  0.712160  1
  Rh  Rh34  1  0.000000  0.626285  0.287840  1
  Rh  Rh35  1  0.000000  0.373715  0.287840  1
