# generated using pymatgen
data_Sr2Si2P4Pd21
_symmetry_space_group_name_H-M   'P 1'
_cell_length_a   8.70754289
_cell_length_b   8.70754188
_cell_length_c   8.69937200
_cell_angle_alpha   60.03102471
_cell_angle_beta   60.03102856
_cell_angle_gamma   59.97176720
_symmetry_Int_Tables_number   1
_chemical_formula_structural   Sr2Si2P4Pd21
_chemical_formula_sum   'Sr2 Si2 P4 Pd21'
_cell_volume   466.52483934
_cell_formula_units_Z   1
loop_
 _symmetry_equiv_pos_site_id
 _symmetry_equiv_pos_as_xyz
  1  'x, y, z'
loop_
 _atom_site_type_symbol
 _atom_site_label
 _atom_site_symmetry_multiplicity
 _atom_site_fract_x
 _atom_site_fract_y
 _atom_site_fract_z
 _atom_site_occupancy
  Sr  Sr0  1  0.749995  0.749995  0.750349  1
  Sr  Sr1  1  0.250005  0.250005  0.250338  1
  Si  Si2  1  0.737860  0.262140  0.739629  1
  Si  Si3  1  0.262140  0.737860  0.739629  1
  P  P4  1  0.736072  0.736072  0.265801  1
  P  P5  1  0.262699  0.737301  0.264760  1
  P  P6  1  0.737301  0.262699  0.264760  1
  P  P7  1  0.263928  0.263928  0.737945  1
  Pd  Pd8  1  0.000000  0.000000  0.993554  1
  Pd  Pd9  1  0.611961  0.611961  0.163696  1
  Pd  Pd10  1  0.612549  0.162191  0.612139  1
  Pd  Pd11  1  0.162191  0.612549  0.612139  1
  Pd  Pd12  1  0.613461  0.613461  0.612278  1
  Pd  Pd13  1  0.386539  0.386539  0.839200  1
  Pd  Pd14  1  0.387451  0.837809  0.386879  1
  Pd  Pd15  1  0.837809  0.387451  0.386879  1
  Pd  Pd16  1  0.388039  0.388039  0.387619  1
  Pd  Pd17  1  0.000000  0.000000  0.340673  1
  Pd  Pd18  1  0.658308  0.000780  0.339976  1
  Pd  Pd19  1  0.000780  0.658308  0.339976  1
  Pd  Pd20  1  0.656288  0.343712  0.003051  1
  Pd  Pd21  1  0.999220  0.341692  0.999064  1
  Pd  Pd22  1  0.003697  0.343717  0.654779  1
  Pd  Pd23  1  0.343712  0.656288  0.003051  1
  Pd  Pd24  1  0.343717  0.003697  0.654779  1
  Pd  Pd25  1  0.341692  0.999220  0.999064  1
  Pd  Pd26  1  0.000000  0.000000  0.653611  1
  Pd  Pd27  1  0.996303  0.656283  0.002192  1
  Pd  Pd28  1  0.656283  0.996303  0.002192  1
