# generated using pymatgen
data_YHo3(Tm4Bi3)4
_symmetry_space_group_name_H-M   'P 1'
_cell_length_a   8.18328373
_cell_length_b   9.43319200
_cell_length_c   11.92750506
_cell_angle_alpha   90.00000000
_cell_angle_beta   89.95166636
_cell_angle_gamma   90.00000000
_symmetry_Int_Tables_number   1
_chemical_formula_structural   YHo3(Tm4Bi3)4
_chemical_formula_sum   'Y1 Ho3 Tm16 Bi12'
_cell_volume   920.73730194
_cell_formula_units_Z   1
loop_
 _symmetry_equiv_pos_site_id
 _symmetry_equiv_pos_as_xyz
  1  'x, y, z'
loop_
 _atom_site_type_symbol
 _atom_site_label
 _atom_site_symmetry_multiplicity
 _atom_site_fract_x
 _atom_site_fract_y
 _atom_site_fract_z
 _atom_site_occupancy
  Y  Y0  1  0.313874  0.250000  0.218184  1
  Ho  Ho1  1  0.813767  0.250000  0.282106  1
  Ho  Ho2  1  0.686402  0.750000  0.782198  1
  Ho  Ho3  1  0.186346  0.750000  0.717845  1
  Tm  Tm4  1  0.353560  0.750000  0.217608  1
  Tm  Tm5  1  0.853580  0.750000  0.282383  1
  Tm  Tm6  1  0.646494  0.250000  0.782359  1
  Tm  Tm7  1  0.146335  0.250000  0.717631  1
  Tm  Tm8  1  0.691960  0.565777  0.059596  1
  Tm  Tm9  1  0.191982  0.934148  0.440465  1
  Tm  Tm10  1  0.308043  0.065685  0.940161  1
  Tm  Tm11  1  0.807967  0.434183  0.559615  1
  Tm  Tm12  1  0.308043  0.434315  0.940161  1
  Tm  Tm13  1  0.807967  0.065817  0.559615  1
  Tm  Tm14  1  0.691960  0.934223  0.059596  1
  Tm  Tm15  1  0.191982  0.565852  0.440465  1
  Tm  Tm16  1  0.477074  0.250000  0.489636  1
  Tm  Tm17  1  0.976353  0.250000  0.010558  1
  Tm  Tm18  1  0.523250  0.750000  0.510815  1
  Tm  Tm19  1  0.023215  0.750000  0.989160  1
  Bi  Bi20  1  0.404064  0.750000  0.958294  1
  Bi  Bi21  1  0.904131  0.750000  0.541721  1
  Bi  Bi22  1  0.596398  0.250000  0.041180  1
  Bi  Bi23  1  0.095658  0.250000  0.458502  1
  Bi  Bi24  1  0.566482  0.995342  0.326157  1
  Bi  Bi25  1  0.065687  0.504886  0.173936  1
  Bi  Bi26  1  0.433788  0.495590  0.674035  1
  Bi  Bi27  1  0.933840  0.004426  0.825945  1
  Bi  Bi28  1  0.433788  0.004410  0.674035  1
  Bi  Bi29  1  0.933840  0.495574  0.825945  1
  Bi  Bi30  1  0.566482  0.504658  0.326157  1
  Bi  Bi31  1  0.065687  0.995114  0.173936  1
