# generated using pymatgen
data_SmHoTa2(Bi2O7)2
_symmetry_space_group_name_H-M   'P 1'
_cell_length_a   6.49998691
_cell_length_b   6.85633278
_cell_length_c   7.67544822
_cell_angle_alpha   106.31698905
_cell_angle_beta   89.50482708
_cell_angle_gamma   98.61634254
_symmetry_Int_Tables_number   1
_chemical_formula_structural   SmHoTa2(Bi2O7)2
_chemical_formula_sum   'Sm1 Ho1 Ta2 Bi4 O14'
_cell_volume   324.38004413
_cell_formula_units_Z   1
loop_
 _symmetry_equiv_pos_site_id
 _symmetry_equiv_pos_as_xyz
  1  'x, y, z'
loop_
 _atom_site_type_symbol
 _atom_site_label
 _atom_site_symmetry_multiplicity
 _atom_site_fract_x
 _atom_site_fract_y
 _atom_site_fract_z
 _atom_site_occupancy
  Sm  Sm0  1  0.549691  0.995608  0.755613  1
  Ho  Ho1  1  0.451173  0.003317  0.246005  1
  Ta  Ta2  1  0.001565  0.001002  0.499205  1
  Ta  Ta3  1  0.001161  0.001988  0.002170  1
  Bi  Bi4  1  0.250450  0.511550  0.877271  1
  Bi  Bi5  1  0.746984  0.495058  0.121978  1
  Bi  Bi6  1  0.723619  0.448751  0.600113  1
  Bi  Bi7  1  0.272069  0.544926  0.391661  1
  O  O8  1  0.460818  0.660591  0.182499  1
  O  O9  1  0.540555  0.346977  0.819083  1
  O  O10  1  0.291965  0.945179  0.957056  1
  O  O11  1  0.711790  0.048364  0.055393  1
  O  O12  1  0.285347  0.918945  0.508327  1
  O  O13  1  0.715450  0.080409  0.483565  1
  O  O14  1  0.519891  0.344611  0.347165  1
  O  O15  1  0.471064  0.645536  0.646016  1
  O  O16  1  0.916727  0.694207  0.964162  1
  O  O17  1  0.086523  0.306040  0.037219  1
  O  O18  1  0.101341  0.299235  0.617383  1
  O  O19  1  0.893560  0.702710  0.384961  1
  O  O20  1  0.918700  0.958804  0.740574  1
  O  O21  1  0.089558  0.046192  0.262580  1
