# generated using pymatgen
data_Ho4Al17SiIr5Pd
_symmetry_space_group_name_H-M   'P 1'
_cell_length_a   7.55623552
_cell_length_b   7.55602004
_cell_length_c   9.39213614
_cell_angle_alpha   89.96858703
_cell_angle_beta   89.97445145
_cell_angle_gamma   119.64994322
_symmetry_Int_Tables_number   1
_chemical_formula_structural   Ho4Al17SiIr5Pd
_chemical_formula_sum   'Ho4 Al17 Si1 Ir5 Pd1'
_cell_volume   466.03070780
_cell_formula_units_Z   1
loop_
 _symmetry_equiv_pos_site_id
 _symmetry_equiv_pos_as_xyz
  1  'x, y, z'
loop_
 _atom_site_type_symbol
 _atom_site_label
 _atom_site_symmetry_multiplicity
 _atom_site_fract_x
 _atom_site_fract_y
 _atom_site_fract_z
 _atom_site_occupancy
  Ho  Ho0  1  0.993682  0.675456  0.250726  1
  Ho  Ho1  1  0.003834  0.329399  0.749269  1
  Ho  Ho2  1  0.675670  0.994806  0.250699  1
  Ho  Ho3  1  0.329666  0.004770  0.749263  1
  Al  Al4  1  0.874598  0.873710  0.749570  1
  Al  Al5  1  0.003948  0.336764  0.078839  1
  Al  Al6  1  0.002231  0.669265  0.923253  1
  Al  Al7  1  0.999484  0.664984  0.575065  1
  Al  Al8  1  0.337442  0.000002  0.423379  1
  Al  Al9  1  0.000174  0.337004  0.422584  1
  Al  Al10  1  0.665355  0.999225  0.575684  1
  Al  Al11  1  0.665370  0.995483  0.923102  1
  Al  Al12  1  0.333291  0.997308  0.078422  1
  Al  Al13  1  0.332038  0.331922  0.555696  1
  Al  Al14  1  0.664589  0.664416  0.447910  1
  Al  Al15  1  0.663308  0.666497  0.056285  1
  Al  Al16  1  0.329709  0.333014  0.939930  1
  Al  Al17  1  0.337389  0.550306  0.250482  1
  Al  Al18  1  0.661187  0.452884  0.747832  1
  Al  Al19  1  0.547702  0.336299  0.252153  1
  Al  Al20  1  0.451109  0.660413  0.749530  1
  Si  Si21  1  0.131209  0.130487  0.250232  1
  Ir  Ir22  1  0.326713  0.670467  0.000544  1
  Ir  Ir23  1  0.326890  0.670412  0.499463  1
  Ir  Ir24  1  0.670739  0.326662  0.499479  1
  Ir  Ir25  1  0.000694  0.001060  0.006657  1
  Ir  Ir26  1  0.000983  0.000728  0.493198  1
  Pd  Pd27  1  0.670996  0.326259  0.000754  1
