# generated using pymatgen
data_Tb16Hf4(Ir3Rh)3
_symmetry_space_group_name_H-M   'P 1'
_cell_length_a   10.87196800
_cell_length_b   10.87196800
_cell_length_c   6.26999400
_cell_angle_alpha   90.00000000
_cell_angle_beta   90.00000000
_cell_angle_gamma   90.00000000
_symmetry_Int_Tables_number   1
_chemical_formula_structural   Tb16Hf4(Ir3Rh)3
_chemical_formula_sum   'Tb16 Hf4 Ir9 Rh3'
_cell_volume   741.11133577
_cell_formula_units_Z   1
loop_
 _symmetry_equiv_pos_site_id
 _symmetry_equiv_pos_as_xyz
  1  'x, y, z'
loop_
 _atom_site_type_symbol
 _atom_site_label
 _atom_site_symmetry_multiplicity
 _atom_site_fract_x
 _atom_site_fract_y
 _atom_site_fract_z
 _atom_site_occupancy
  Tb  Tb0  1  0.287864  0.086272  0.376052  1
  Tb  Tb1  1  0.287923  0.913646  0.876092  1
  Tb  Tb2  1  0.712077  0.086354  0.876092  1
  Tb  Tb3  1  0.712136  0.913728  0.376052  1
  Tb  Tb4  1  0.586354  0.787923  0.876092  1
  Tb  Tb5  1  0.586272  0.212136  0.376052  1
  Tb  Tb6  1  0.413728  0.787864  0.376052  1
  Tb  Tb7  1  0.413646  0.212077  0.876092  1
  Tb  Tb8  1  0.211657  0.413788  0.623288  1
  Tb  Tb9  1  0.211826  0.586332  0.124850  1
  Tb  Tb10  1  0.788174  0.413668  0.124850  1
  Tb  Tb11  1  0.788343  0.586212  0.623288  1
  Tb  Tb12  1  0.913668  0.711826  0.124850  1
  Tb  Tb13  1  0.913788  0.288343  0.623288  1
  Tb  Tb14  1  0.086212  0.711657  0.623288  1
  Tb  Tb15  1  0.086332  0.288174  0.124850  1
  Hf  Hf16  1  0.000000  0.000000  0.500012  1
  Hf  Hf17  1  0.000000  0.000000  0.999936  1
  Hf  Hf18  1  0.500000  0.500000  0.999936  1
  Hf  Hf19  1  0.500000  0.500000  0.500012  1
  Ir  Ir20  1  0.857333  0.142161  0.249739  1
  Ir  Ir21  1  0.857399  0.857756  0.749933  1
  Ir  Ir22  1  0.142601  0.142244  0.749933  1
  Ir  Ir23  1  0.142667  0.857839  0.249739  1
  Ir  Ir24  1  0.642244  0.357399  0.749933  1
  Ir  Ir25  1  0.642161  0.642667  0.249739  1
  Ir  Ir26  1  0.357839  0.357333  0.249739  1
  Ir  Ir27  1  0.357756  0.642601  0.749933  1
  Ir  Ir28  1  0.000000  0.500000  0.377842  1
  Rh  Rh29  1  0.500000  0.000000  0.121905  1
  Rh  Rh30  1  0.500000  0.000000  0.621924  1
  Rh  Rh31  1  0.000000  0.500000  0.878619  1
