# generated using pymatgen
data_HoLuHf4Pb5
_symmetry_space_group_name_H-M   'P 1'
_cell_length_a   6.03433200
_cell_length_b   9.13930940
_cell_length_c   11.30290148
_cell_angle_alpha   113.91857676
_cell_angle_beta   105.48210004
_cell_angle_gamma   90.00000212
_symmetry_Int_Tables_number   1
_chemical_formula_structural   HoLuHf4Pb5
_chemical_formula_sum   'Ho2 Lu2 Hf8 Pb10'
_cell_volume   544.98277698
_cell_formula_units_Z   2
loop_
 _symmetry_equiv_pos_site_id
 _symmetry_equiv_pos_as_xyz
  1  'x, y, z'
loop_
 _atom_site_type_symbol
 _atom_site_label
 _atom_site_symmetry_multiplicity
 _atom_site_fract_x
 _atom_site_fract_y
 _atom_site_fract_z
 _atom_site_occupancy
  Ho  Ho0  1  0.143852  0.253664  0.287704  1
  Ho  Ho1  1  0.856148  0.746336  0.712296  1
  Lu  Lu2  1  0.643945  0.033943  0.287890  1
  Lu  Lu3  1  0.356055  0.966057  0.712110  1
  Hf  Hf4  1  0.562091  0.312317  0.624273  1
  Hf  Hf5  1  0.437909  0.687683  0.375727  1
  Hf  Hf6  1  0.937817  0.687683  0.375727  1
  Hf  Hf7  1  0.062183  0.312317  0.624273  1
  Hf  Hf8  1  0.434102  0.671356  0.868204  1
  Hf  Hf9  1  0.565898  0.328644  0.131796  1
  Hf  Hf10  1  0.934147  0.196178  0.868293  1
  Hf  Hf11  1  0.065853  0.803822  0.131707  1
  Pb  Pb12  1  0.288913  0.591026  0.577825  1
  Pb  Pb13  1  0.711087  0.408974  0.422175  1
  Pb  Pb14  1  0.788435  0.987762  0.576870  1
  Pb  Pb15  1  0.211565  0.012238  0.423130  1
  Pb  Pb16  1  0.250372  0.000000  0.000000  1
  Pb  Pb17  1  0.749628  0.000000  0.000000  1
  Pb  Pb18  1  0.066862  0.462087  0.133724  1
  Pb  Pb19  1  0.933138  0.537913  0.866276  1
  Pb  Pb20  1  0.567168  0.673464  0.134336  1
  Pb  Pb21  1  0.432832  0.326536  0.865664  1
