# generated using pymatgen
data_HoLu9(InSb2)2
_symmetry_space_group_name_H-M   'P 1'
_cell_length_a   6.30427201
_cell_length_b   8.83143787
_cell_length_c   8.79628459
_cell_angle_alpha   120.13229662
_cell_angle_beta   90.00013007
_cell_angle_gamma   89.99974033
_symmetry_Int_Tables_number   1
_chemical_formula_structural   HoLu9(InSb2)2
_chemical_formula_sum   'Ho1 Lu9 In2 Sb4'
_cell_volume   423.56079876
_cell_formula_units_Z   1
loop_
 _symmetry_equiv_pos_site_id
 _symmetry_equiv_pos_as_xyz
  1  'x, y, z'
loop_
 _atom_site_type_symbol
 _atom_site_label
 _atom_site_symmetry_multiplicity
 _atom_site_fract_x
 _atom_site_fract_y
 _atom_site_fract_z
 _atom_site_occupancy
  Ho  Ho0  1  0.750022  0.240512  0.000000  1
  Lu  Lu1  1  0.498212  0.331901  0.663578  1
  Lu  Lu2  1  0.498212  0.668323  0.336422  1
  Lu  Lu3  1  0.001773  0.668307  0.336418  1
  Lu  Lu4  1  0.001773  0.331889  0.663582  1
  Lu  Lu5  1  0.750016  0.761577  0.759663  1
  Lu  Lu6  1  0.750016  0.001914  0.240337  1
  Lu  Lu7  1  0.249986  0.762836  0.000000  1
  Lu  Lu8  1  0.249998  0.236933  0.241854  1
  Lu  Lu9  1  0.249998  0.995079  0.758146  1
  In  In10  1  0.250002  0.604798  0.605728  1
  In  In11  1  0.250002  0.999070  0.394272  1
  Sb  Sb12  1  0.749987  0.608564  0.000000  1
  Sb  Sb13  1  0.750000  0.396234  0.395433  1
  Sb  Sb14  1  0.750000  0.000801  0.604567  1
  Sb  Sb15  1  0.250008  0.391267  0.000000  1
