# generated using pymatgen
data_MgVRuPt5
_symmetry_space_group_name_H-M   'P 1'
_cell_length_a   3.94486400
_cell_length_b   3.94486400
_cell_length_c   7.82531600
_cell_angle_alpha   90.00000000
_cell_angle_beta   90.00000000
_cell_angle_gamma   90.00000000
_symmetry_Int_Tables_number   1
_chemical_formula_structural   MgVRuPt5
_chemical_formula_sum   'Mg1 V1 Ru1 Pt5'
_cell_volume   121.77719181
_cell_formula_units_Z   1
loop_
 _symmetry_equiv_pos_site_id
 _symmetry_equiv_pos_as_xyz
  1  'x, y, z'
loop_
 _atom_site_type_symbol
 _atom_site_label
 _atom_site_symmetry_multiplicity
 _atom_site_fract_x
 _atom_site_fract_y
 _atom_site_fract_z
 _atom_site_occupancy
  Mg  Mg0  1  0.000000  0.000000  0.500000  1
  V  V1  1  0.000000  0.000000  0.000000  1
  Ru  Ru2  1  0.500000  0.500000  0.000000  1
  Pt  Pt3  1  0.500000  0.500000  0.500000  1
  Pt  Pt4  1  0.500000  0.000000  0.236266  1
  Pt  Pt5  1  0.500000  0.000000  0.763734  1
  Pt  Pt6  1  0.000000  0.500000  0.236266  1
  Pt  Pt7  1  0.000000  0.500000  0.763734  1
