# generated using pymatgen
data_K4Al3Co5O16
_symmetry_space_group_name_H-M   'P 1'
_cell_length_a   5.72003500
_cell_length_b   4.93599444
_cell_length_c   12.62186200
_cell_angle_alpha   90.02358694
_cell_angle_beta   89.99835726
_cell_angle_gamma   89.99506738
_symmetry_Int_Tables_number   1
_chemical_formula_structural   K4Al3Co5O16
_chemical_formula_sum   'K4 Al3 Co5 O16'
_cell_volume   356.36638933
_cell_formula_units_Z   1
loop_
 _symmetry_equiv_pos_site_id
 _symmetry_equiv_pos_as_xyz
  1  'x, y, z'
loop_
 _atom_site_type_symbol
 _atom_site_label
 _atom_site_symmetry_multiplicity
 _atom_site_fract_x
 _atom_site_fract_y
 _atom_site_fract_z
 _atom_site_occupancy
  K  K0  1  0.000111  0.039498  0.249485  1
  K  K1  1  0.998900  0.364944  0.749895  1
  K  K2  1  0.501188  0.637185  0.250599  1
  K  K3  1  0.500011  0.963553  0.748896  1
  Al  Al4  1  0.001470  0.998720  0.996725  1
  Al  Al5  1  0.000036  0.998814  0.502842  1
  Al  Al6  1  0.248112  0.499582  0.000177  1
  Co  Co7  1  0.249408  0.499825  0.499770  1
  Co  Co8  1  0.498847  0.000199  0.002175  1
  Co  Co9  1  0.500005  0.999964  0.498722  1
  Co  Co10  1  0.750643  0.499829  0.499769  1
  Co  Co11  1  0.751263  0.499644  0.000241  1
  O  O12  1  0.000024  0.335962  0.423619  1
  O  O13  1  0.997078  0.334141  0.075717  1
  O  O14  1  0.000027  0.665146  0.577992  1
  O  O15  1  0.997069  0.665549  0.922461  1
  O  O16  1  0.247422  0.830017  0.422396  1
  O  O17  1  0.251603  0.835488  0.078405  1
  O  O18  1  0.249467  0.170107  0.577755  1
  O  O19  1  0.254179  0.164275  0.921626  1
  O  O20  1  0.500007  0.335126  0.423228  1
  O  O21  1  0.501621  0.331161  0.077263  1
  O  O22  1  0.500012  0.662576  0.575087  1
  O  O23  1  0.501194  0.668395  0.925045  1
  O  O24  1  0.752700  0.830067  0.422393  1
  O  O25  1  0.750021  0.832509  0.077704  1
  O  O26  1  0.750515  0.170092  0.577758  1
  O  O27  1  0.747166  0.167431  0.922255  1
