# generated using pymatgen
data_Lu4HfIn(B2Ir5)2
_symmetry_space_group_name_H-M   'P 1'
_cell_length_a   9.65542700
_cell_length_b   9.65542700
_cell_length_c   3.21493700
_cell_angle_alpha   90.00000000
_cell_angle_beta   90.00000000
_cell_angle_gamma   90.00000000
_symmetry_Int_Tables_number   1
_chemical_formula_structural   Lu4HfIn(B2Ir5)2
_chemical_formula_sum   'Lu4 Hf1 In1 B4 Ir10'
_cell_volume   299.71980151
_cell_formula_units_Z   1
loop_
 _symmetry_equiv_pos_site_id
 _symmetry_equiv_pos_as_xyz
  1  'x, y, z'
loop_
 _atom_site_type_symbol
 _atom_site_label
 _atom_site_symmetry_multiplicity
 _atom_site_fract_x
 _atom_site_fract_y
 _atom_site_fract_z
 _atom_site_occupancy
  Lu  Lu0  1  0.178031  0.675398  0.000000  1
  Lu  Lu1  1  0.324602  0.178031  0.000000  1
  Lu  Lu2  1  0.821969  0.324602  0.000000  1
  Lu  Lu3  1  0.675398  0.821969  0.000000  1
  Hf  Hf4  1  0.000000  0.000000  0.000000  1
  In  In5  1  0.500000  0.500000  0.000000  1
  B  B6  1  0.383397  0.877430  0.000000  1
  B  B7  1  0.122570  0.383397  0.000000  1
  B  B8  1  0.877430  0.616603  0.000000  1
  B  B9  1  0.616603  0.122570  0.000000  1
  Ir  Ir10  1  0.223370  0.931148  0.500000  1
  Ir  Ir11  1  0.931148  0.776630  0.500000  1
  Ir  Ir12  1  0.427968  0.726507  0.500000  1
  Ir  Ir13  1  0.572032  0.273493  0.500000  1
  Ir  Ir14  1  0.726507  0.572032  0.500000  1
  Ir  Ir15  1  0.273493  0.427968  0.500000  1
  Ir  Ir16  1  0.068852  0.223370  0.500000  1
  Ir  Ir17  1  0.000000  0.500000  0.500000  1
  Ir  Ir18  1  0.500000  0.000000  0.500000  1
  Ir  Ir19  1  0.776630  0.068852  0.500000  1
