# generated using pymatgen
data_Pr5Pa(Co3P2)6
_symmetry_space_group_name_H-M   'P 1'
_cell_length_a   10.63831937
_cell_length_b   3.78082900
_cell_length_c   12.43931402
_cell_angle_alpha   90.00000000
_cell_angle_beta   90.15965719
_cell_angle_gamma   90.00000000
_symmetry_Int_Tables_number   1
_chemical_formula_structural   Pr5Pa(Co3P2)6
_chemical_formula_sum   'Pr5 Pa1 Co18 P12'
_cell_volume   500.32799616
_cell_formula_units_Z   1
loop_
 _symmetry_equiv_pos_site_id
 _symmetry_equiv_pos_as_xyz
  1  'x, y, z'
loop_
 _atom_site_type_symbol
 _atom_site_label
 _atom_site_symmetry_multiplicity
 _atom_site_fract_x
 _atom_site_fract_y
 _atom_site_fract_z
 _atom_site_occupancy
  Pr  Pr0  1  0.434301  0.749999  0.205810  1
  Pr  Pr1  1  0.249853  0.749999  0.479813  1
  Pr  Pr2  1  0.750412  0.250000  0.520037  1
  Pr  Pr3  1  0.566462  0.250000  0.794184  1
  Pr  Pr4  1  0.933557  0.250000  0.794134  1
  Pa  Pa5  1  0.069335  0.749999  0.209085  1
  Co  Co6  1  0.084199  0.250000  0.006536  1
  Co  Co7  1  0.416299  0.250000  0.004382  1
  Co  Co8  1  0.248600  0.749999  0.014591  1
  Co  Co9  1  0.751616  0.749999  0.158466  1
  Co  Co10  1  0.633461  0.250000  0.288108  1
  Co  Co11  1  0.874082  0.250000  0.283949  1
  Co  Co12  1  0.235776  0.250000  0.288791  1
  Co  Co13  1  0.546459  0.749999  0.429347  1
  Co  Co14  1  0.951543  0.749999  0.425315  1
  Co  Co15  1  0.047446  0.250000  0.570047  1
  Co  Co16  1  0.452052  0.250000  0.569958  1
  Co  Co17  1  0.749678  0.749999  0.705667  1
  Co  Co18  1  0.132072  0.749999  0.711754  1
  Co  Co19  1  0.367527  0.749999  0.711896  1
  Co  Co20  1  0.247782  0.250000  0.843428  1
  Co  Co21  1  0.751949  0.250000  0.988125  1
  Co  Co22  1  0.584670  0.749999  0.996728  1
  Co  Co23  1  0.918623  0.749999  0.999399  1
  P  P24  1  0.600079  0.250000  0.103562  1
  P  P25  1  0.904825  0.250000  0.103893  1
  P  P26  1  0.249680  0.250000  0.111959  1
  P  P27  1  0.748843  0.749999  0.338488  1
  P  P28  1  0.054402  0.250000  0.387469  1
  P  P29  1  0.443376  0.250000  0.386261  1
  P  P30  1  0.555193  0.749999  0.613595  1
  P  P31  1  0.944372  0.749999  0.613249  1
  P  P32  1  0.249684  0.250000  0.662013  1
  P  P33  1  0.751056  0.749999  0.887573  1
  P  P34  1  0.099913  0.749999  0.895535  1
  P  P35  1  0.400821  0.749999  0.896851  1
