# generated using pymatgen
data_Hf10Sn6Te
_symmetry_space_group_name_H-M   'P 1'
_cell_length_a   5.88620600
_cell_length_b   8.58828764
_cell_length_c   8.58825700
_cell_angle_alpha   120.00274549
_cell_angle_beta   90.00156876
_cell_angle_gamma   90.00085778
_symmetry_Int_Tables_number   1
_chemical_formula_structural   Hf10Sn6Te
_chemical_formula_sum   'Hf10 Sn6 Te1'
_cell_volume   375.98081627
_cell_formula_units_Z   1
loop_
 _symmetry_equiv_pos_site_id
 _symmetry_equiv_pos_as_xyz
  1  'x, y, z'
loop_
 _atom_site_type_symbol
 _atom_site_label
 _atom_site_symmetry_multiplicity
 _atom_site_fract_x
 _atom_site_fract_y
 _atom_site_fract_z
 _atom_site_occupancy
  Hf  Hf0  1  0.500002  0.333327  0.666675  1
  Hf  Hf1  1  0.499998  0.666673  0.333325  1
  Hf  Hf2  1  0.000000  0.666662  0.333358  1
  Hf  Hf3  1  0.000000  0.333339  0.666642  1
  Hf  Hf4  1  0.778854  0.266903  0.999989  1
  Hf  Hf5  1  0.778874  0.733109  0.733109  1
  Hf  Hf6  1  0.778833  0.999989  0.266917  1
  Hf  Hf7  1  0.221142  0.733097  0.000011  1
  Hf  Hf8  1  0.221129  0.266893  0.266893  1
  Hf  Hf9  1  0.221170  0.000010  0.733081  1
  Sn  Sn10  1  0.741592  0.610827  0.999998  1
  Sn  Sn11  1  0.741607  0.389163  0.389158  1
  Sn  Sn12  1  0.741601  0.000003  0.610838  1
  Sn  Sn13  1  0.258404  0.389173  0.000002  1
  Sn  Sn14  1  0.258394  0.610838  0.610843  1
  Sn  Sn15  1  0.258400  0.999997  0.389161  1
  Te  Te16  1  0.499999  0.000000  0.000000  1
