# generated using pymatgen
data_K3(CuSe)4
_symmetry_space_group_name_H-M   'P 1'
_cell_length_a   3.98986600
_cell_length_b   8.15543800
_cell_length_c   16.29511400
_cell_angle_alpha   90.00000000
_cell_angle_beta   90.00000000
_cell_angle_gamma   90.00000000
_symmetry_Int_Tables_number   1
_chemical_formula_structural   K3(CuSe)4
_chemical_formula_sum   'K6 Cu8 Se8'
_cell_volume   530.22842203
_cell_formula_units_Z   2
loop_
 _symmetry_equiv_pos_site_id
 _symmetry_equiv_pos_as_xyz
  1  'x, y, z'
loop_
 _atom_site_type_symbol
 _atom_site_label
 _atom_site_symmetry_multiplicity
 _atom_site_fract_x
 _atom_site_fract_y
 _atom_site_fract_z
 _atom_site_occupancy
  K  K0  1  0.500000  0.018648  0.234677  1
  K  K1  1  0.500000  0.981352  0.765323  1
  K  K2  1  0.500000  0.481352  0.734677  1
  K  K3  1  0.500000  0.518648  0.265323  1
  K  K4  1  0.000000  0.000000  0.000000  1
  K  K5  1  0.000000  0.500000  0.500000  1
  Cu  Cu6  1  0.000000  0.063915  0.420185  1
  Cu  Cu7  1  0.000000  0.936085  0.579815  1
  Cu  Cu8  1  0.000000  0.436085  0.920185  1
  Cu  Cu9  1  0.000000  0.563915  0.079815  1
  Cu  Cu10  1  0.500000  0.361352  0.058882  1
  Cu  Cu11  1  0.500000  0.638648  0.941118  1
  Cu  Cu12  1  0.500000  0.138648  0.558882  1
  Cu  Cu13  1  0.500000  0.861352  0.441118  1
  Se  Se14  1  0.000000  0.292360  0.141496  1
  Se  Se15  1  0.000000  0.707640  0.858504  1
  Se  Se16  1  0.000000  0.207640  0.641496  1
  Se  Se17  1  0.000000  0.792360  0.358504  1
  Se  Se18  1  0.500000  0.226731  0.414332  1
  Se  Se19  1  0.500000  0.773269  0.585668  1
  Se  Se20  1  0.500000  0.273269  0.914332  1
  Se  Se21  1  0.500000  0.726731  0.085668  1
