# generated using pymatgen
data_Tb17Y3(Cd3Os)2
_symmetry_space_group_name_H-M   'P 1'
_cell_length_a   9.64798900
_cell_length_b   9.64798826
_cell_length_c   9.92660400
_cell_angle_alpha   90.00000000
_cell_angle_beta   90.00000000
_cell_angle_gamma   119.99999912
_symmetry_Int_Tables_number   1
_chemical_formula_structural   Tb17Y3(Cd3Os)2
_chemical_formula_sum   'Tb17 Y3 Cd6 Os2'
_cell_volume   800.21170262
_cell_formula_units_Z   1
loop_
 _symmetry_equiv_pos_site_id
 _symmetry_equiv_pos_as_xyz
  1  'x, y, z'
loop_
 _atom_site_type_symbol
 _atom_site_label
 _atom_site_symmetry_multiplicity
 _atom_site_fract_x
 _atom_site_fract_y
 _atom_site_fract_z
 _atom_site_occupancy
  Tb  Tb0  1  0.000000  0.000000  0.500058  1
  Tb  Tb1  1  0.000000  0.000000  0.999942  1
  Tb  Tb2  1  0.209689  0.790311  0.440256  1
  Tb  Tb3  1  0.209689  0.419377  0.440256  1
  Tb  Tb4  1  0.580623  0.790311  0.440256  1
  Tb  Tb5  1  0.790304  0.209696  0.559762  1
  Tb  Tb6  1  0.790304  0.580609  0.559762  1
  Tb  Tb7  1  0.419391  0.209696  0.559762  1
  Tb  Tb8  1  0.790304  0.209696  0.940238  1
  Tb  Tb9  1  0.790304  0.580609  0.940238  1
  Tb  Tb10  1  0.419391  0.209696  0.940238  1
  Tb  Tb11  1  0.209689  0.790311  0.059744  1
  Tb  Tb12  1  0.209689  0.419377  0.059744  1
  Tb  Tb13  1  0.580623  0.790311  0.059744  1
  Tb  Tb14  1  0.540315  0.459685  0.250000  1
  Tb  Tb15  1  0.540315  0.080630  0.250000  1
  Tb  Tb16  1  0.919370  0.459685  0.250000  1
  Y  Y17  1  0.459668  0.540332  0.750000  1
  Y  Y18  1  0.459668  0.919335  0.750000  1
  Y  Y19  1  0.080665  0.540332  0.750000  1
  Cd  Cd20  1  0.885480  0.114520  0.250000  1
  Cd  Cd21  1  0.885480  0.770962  0.250000  1
  Cd  Cd22  1  0.229038  0.114520  0.250000  1
  Cd  Cd23  1  0.114557  0.885443  0.750000  1
  Cd  Cd24  1  0.114557  0.229113  0.750000  1
  Cd  Cd25  1  0.770887  0.885443  0.750000  1
  Os  Os26  1  0.333333  0.666667  0.250000  1
  Os  Os27  1  0.666667  0.333333  0.750000  1
