# generated using pymatgen
data_K3Eu(AsO4)2
_symmetry_space_group_name_H-M   'P 1'
_cell_length_a   10.12368452
_cell_length_b   5.88323900
_cell_length_c   7.76969800
_cell_angle_alpha   90.00000000
_cell_angle_beta   90.19810825
_cell_angle_gamma   90.00000000
_symmetry_Int_Tables_number   1
_chemical_formula_structural   K3Eu(AsO4)2
_chemical_formula_sum   'K6 Eu2 As4 O16'
_cell_volume   462.76087838
_cell_formula_units_Z   2
loop_
 _symmetry_equiv_pos_site_id
 _symmetry_equiv_pos_as_xyz
  1  'x, y, z'
loop_
 _atom_site_type_symbol
 _atom_site_label
 _atom_site_symmetry_multiplicity
 _atom_site_fract_x
 _atom_site_fract_y
 _atom_site_fract_z
 _atom_site_occupancy
  K  K0  1  0.914653  0.250001  0.644364  1
  K  K1  1  0.085346  0.750001  0.355637  1
  K  K2  1  0.586160  0.250001  0.198837  1
  K  K3  1  0.413840  0.750001  0.801165  1
  K  K4  1  0.305101  0.250001  0.494654  1
  K  K5  1  0.694899  0.750001  0.505346  1
  Eu  Eu6  1  0.218106  0.250001  0.989340  1
  Eu  Eu7  1  0.781895  0.750001  0.010660  1
  As  As8  1  0.588489  0.250001  0.760639  1
  As  As9  1  0.411512  0.750001  0.239360  1
  As  As10  1  0.929588  0.250001  0.183846  1
  As  As11  1  0.070411  0.750001  0.816153  1
  O  O12  1  0.337451  0.511580  0.152027  1
  O  O13  1  0.662549  0.011580  0.847975  1
  O  O14  1  0.662549  0.488420  0.847975  1
  O  O15  1  0.337451  0.988420  0.152027  1
  O  O16  1  0.423273  0.250001  0.815663  1
  O  O17  1  0.576727  0.750001  0.184338  1
  O  O18  1  0.609127  0.250001  0.543231  1
  O  O19  1  0.390873  0.750001  0.456770  1
  O  O20  1  0.165950  0.515894  0.765182  1
  O  O21  1  0.834050  0.015894  0.234818  1
  O  O22  1  0.834050  0.484108  0.234818  1
  O  O23  1  0.165950  0.984106  0.765182  1
  O  O24  1  0.077068  0.250001  0.295842  1
  O  O25  1  0.922931  0.750001  0.704157  1
  O  O26  1  0.973377  0.250001  0.970897  1
  O  O27  1  0.026622  0.750001  0.029105  1
