# generated using pymatgen
data_Tb5GaBiSb
_symmetry_space_group_name_H-M   'P 1'
_cell_length_a   8.97409559
_cell_length_b   8.93611337
_cell_length_c   6.51174800
_cell_angle_alpha   90.00000000
_cell_angle_beta   90.00000000
_cell_angle_gamma   119.86008391
_symmetry_Int_Tables_number   1
_chemical_formula_structural   Tb5GaBiSb
_chemical_formula_sum   'Tb10 Ga2 Bi2 Sb2'
_cell_volume   452.87480471
_cell_formula_units_Z   2
loop_
 _symmetry_equiv_pos_site_id
 _symmetry_equiv_pos_as_xyz
  1  'x, y, z'
loop_
 _atom_site_type_symbol
 _atom_site_label
 _atom_site_symmetry_multiplicity
 _atom_site_fract_x
 _atom_site_fract_y
 _atom_site_fract_z
 _atom_site_occupancy
  Tb  Tb0  1  0.011381  0.770874  0.750000  1
  Tb  Tb1  1  0.011381  0.240506  0.250000  1
  Tb  Tb2  1  0.750266  0.753737  0.250000  1
  Tb  Tb3  1  0.750266  0.996529  0.750000  1
  Tb  Tb4  1  0.246931  0.232818  0.750000  1
  Tb  Tb5  1  0.246931  0.014113  0.250000  1
  Tb  Tb6  1  0.341346  0.670673  0.500000  1
  Tb  Tb7  1  0.646611  0.323305  0.000000  1
  Tb  Tb8  1  0.646611  0.323305  0.500000  1
  Tb  Tb9  1  0.341346  0.670673  0.000000  1
  Ga  Ga10  1  0.393323  0.995927  0.750000  1
  Ga  Ga11  1  0.393323  0.397396  0.250000  1
  Bi  Bi12  1  0.998783  0.607539  0.250000  1
  Bi  Bi13  1  0.998783  0.391243  0.750000  1
  Sb  Sb14  1  0.611360  0.608129  0.750000  1
  Sb  Sb15  1  0.611360  0.003230  0.250000  1
