# generated using pymatgen
data_SrTh2Cd11
_symmetry_space_group_name_H-M   'P 1'
_cell_length_a   5.01948447
_cell_length_b   9.09788701
_cell_length_c   9.09788728
_cell_angle_alpha   65.41414318
_cell_angle_beta   73.98673526
_cell_angle_gamma   73.98673403
_symmetry_Int_Tables_number   1
_chemical_formula_structural   SrTh2Cd11
_chemical_formula_sum   'Sr1 Th2 Cd11'
_cell_volume   356.92337136
_cell_formula_units_Z   1
loop_
 _symmetry_equiv_pos_site_id
 _symmetry_equiv_pos_as_xyz
  1  'x, y, z'
loop_
 _atom_site_type_symbol
 _atom_site_label
 _atom_site_symmetry_multiplicity
 _atom_site_fract_x
 _atom_site_fract_y
 _atom_site_fract_z
 _atom_site_occupancy
  Sr  Sr0  1  0.000000  0.000000  0.000000  1
  Th  Th1  1  0.706787  0.293213  0.293213  1
  Th  Th2  1  0.293213  0.706787  0.706787  1
  Cd  Cd3  1  0.659034  0.698615  0.983317  1
  Cd  Cd4  1  0.340966  0.301385  0.016683  1
  Cd  Cd5  1  0.659034  0.983317  0.698615  1
  Cd  Cd6  1  0.340966  0.016683  0.301385  1
  Cd  Cd7  1  0.500000  0.669840  0.330160  1
  Cd  Cd8  1  0.500000  0.330160  0.669840  1
  Cd  Cd9  1  0.857403  0.426978  0.858215  1
  Cd  Cd10  1  0.142597  0.573022  0.141785  1
  Cd  Cd11  1  0.857403  0.858215  0.426978  1
  Cd  Cd12  1  0.142597  0.141785  0.573022  1
  Cd  Cd13  1  0.000000  0.500000  0.500000  1
