# generated using pymatgen
data_Nd12Si3PBr12
_symmetry_space_group_name_H-M   'P 1'
_cell_length_a   10.42562116
_cell_length_b   10.39589178
_cell_length_c   10.39589223
_cell_angle_alpha   109.41321951
_cell_angle_beta   109.52916702
_cell_angle_gamma   109.52915623
_symmetry_Int_Tables_number   1
_chemical_formula_structural   Nd12Si3PBr12
_chemical_formula_sum   'Nd12 Si3 P1 Br12'
_cell_volume   866.74731769
_cell_formula_units_Z   1
loop_
 _symmetry_equiv_pos_site_id
 _symmetry_equiv_pos_as_xyz
  1  'x, y, z'
loop_
 _atom_site_type_symbol
 _atom_site_label
 _atom_site_symmetry_multiplicity
 _atom_site_fract_x
 _atom_site_fract_y
 _atom_site_fract_z
 _atom_site_occupancy
  Nd  Nd0  1  0.472325  0.487084  0.234617  1
  Nd  Nd1  1  0.750000  0.238644  0.261356  1
  Nd  Nd2  1  0.750000  0.011589  0.488411  1
  Nd  Nd3  1  0.238411  0.476820  0.488411  1
  Nd  Nd4  1  0.262290  0.747532  0.234617  1
  Nd  Nd5  1  0.027675  0.265383  0.012916  1
  Nd  Nd6  1  0.011356  0.022714  0.261356  1
  Nd  Nd7  1  0.485242  0.747532  0.012916  1
  Nd  Nd8  1  0.488644  0.238644  0.477286  1
  Nd  Nd9  1  0.014758  0.487084  0.752468  1
  Nd  Nd10  1  0.261589  0.011589  0.023180  1
  Nd  Nd11  1  0.237710  0.265383  0.752468  1
  Si  Si12  1  0.250000  0.249820  0.250180  1
  Si  Si13  1  0.500180  0.000360  0.250180  1
  Si  Si14  1  0.999820  0.249820  0.499640  1
  P  P15  1  0.250000  0.500000  0.000000  1
  Br  Br16  1  0.250000  0.754277  0.745723  1
  Br  Br17  1  0.509782  0.505132  0.755942  1
  Br  Br18  1  0.990218  0.744058  0.994868  1
  Br  Br19  1  0.746159  0.250810  0.755942  1
  Br  Br20  1  0.995723  0.991447  0.745723  1
  Br  Br21  1  0.250000  0.994661  0.505339  1
  Br  Br22  1  0.755339  0.510677  0.505339  1
  Br  Br23  1  0.504651  0.250810  0.994868  1
  Br  Br24  1  0.753841  0.744058  0.249190  1
  Br  Br25  1  0.744661  0.994661  0.989323  1
  Br  Br26  1  0.995349  0.505132  0.249190  1
  Br  Br27  1  0.504277  0.754277  0.508553  1
