# generated using pymatgen
data_PaTl4RuBr12
_symmetry_space_group_name_H-M   'P 1'
_cell_length_a   7.55900500
_cell_length_b   7.55900500
_cell_length_c   10.90307500
_cell_angle_alpha   90.00000000
_cell_angle_beta   90.00000000
_cell_angle_gamma   90.00000000
_symmetry_Int_Tables_number   1
_chemical_formula_structural   PaTl4RuBr12
_chemical_formula_sum   'Pa1 Tl4 Ru1 Br12'
_cell_volume   622.98596789
_cell_formula_units_Z   1
loop_
 _symmetry_equiv_pos_site_id
 _symmetry_equiv_pos_as_xyz
  1  'x, y, z'
loop_
 _atom_site_type_symbol
 _atom_site_label
 _atom_site_symmetry_multiplicity
 _atom_site_fract_x
 _atom_site_fract_y
 _atom_site_fract_z
 _atom_site_occupancy
  Pa  Pa0  1  0.500000  0.500000  0.500000  1
  Tl  Tl1  1  0.500000  0.000000  0.794590  1
  Tl  Tl2  1  0.500000  0.000000  0.205410  1
  Tl  Tl3  1  0.000000  0.500000  0.205410  1
  Tl  Tl4  1  0.000000  0.500000  0.794590  1
  Ru  Ru5  1  0.000000  0.000000  0.000000  1
  Br  Br6  1  0.783638  0.256577  0.000000  1
  Br  Br7  1  0.216362  0.743423  0.000000  1
  Br  Br8  1  0.500000  0.500000  0.248906  1
  Br  Br9  1  0.305144  0.199374  0.500000  1
  Br  Br10  1  0.256577  0.216362  0.000000  1
  Br  Br11  1  0.800626  0.305144  0.500000  1
  Br  Br12  1  0.000000  0.000000  0.229884  1
  Br  Br13  1  0.694856  0.800626  0.500000  1
  Br  Br14  1  0.199374  0.694856  0.500000  1
  Br  Br15  1  0.500000  0.500000  0.751094  1
  Br  Br16  1  0.743423  0.783638  0.000000  1
  Br  Br17  1  0.000000  0.000000  0.770116  1
