# generated using pymatgen
data_Cs3MnO4F
_symmetry_space_group_name_H-M   'P 1'
_cell_length_a   8.51882284
_cell_length_b   8.51882223
_cell_length_c   8.51981061
_cell_angle_alpha   122.95469030
_cell_angle_beta   122.95468834
_cell_angle_gamma   84.95546906
_symmetry_Int_Tables_number   1
_chemical_formula_structural   Cs3MnO4F
_chemical_formula_sum   'Cs6 Mn2 O8 F2'
_cell_volume   415.90352920
_cell_formula_units_Z   2
loop_
 _symmetry_equiv_pos_site_id
 _symmetry_equiv_pos_as_xyz
  1  'x, y, z'
loop_
 _atom_site_type_symbol
 _atom_site_label
 _atom_site_symmetry_multiplicity
 _atom_site_fract_x
 _atom_site_fract_y
 _atom_site_fract_z
 _atom_site_occupancy
  Cs  Cs0  1  0.749989  0.750011  0.000000  1
  Cs  Cs1  1  0.250011  0.249989  0.000000  1
  Cs  Cs2  1  0.814154  0.314154  0.128325  1
  Cs  Cs3  1  0.314159  0.185841  0.500000  1
  Cs  Cs4  1  0.685841  0.814159  0.500000  1
  Cs  Cs5  1  0.185846  0.685846  0.871675  1
  Mn  Mn6  1  0.250055  0.750055  0.500112  1
  Mn  Mn7  1  0.749945  0.249945  0.499888  1
  O  O8  1  0.554601  0.054601  0.266009  1
  O  O9  1  0.211415  0.711415  0.266035  1
  O  O10  1  0.445399  0.945399  0.733991  1
  O  O11  1  0.945349  0.211404  0.499998  1
  O  O12  1  0.711404  0.445349  0.499998  1
  O  O13  1  0.054651  0.788596  0.500002  1
  O  O14  1  0.288596  0.554651  0.500002  1
  O  O15  1  0.788585  0.288585  0.733965  1
  F  F16  1  0.500000  0.500000  0.000000  1
  F  F17  1  0.000000  0.000000  0.000000  1
