# generated using pymatgen
data_Cs6Na4VGaP6
_symmetry_space_group_name_H-M   'P 1'
_cell_length_a   10.50742915
_cell_length_b   10.50743010
_cell_length_c   16.57365800
_cell_angle_alpha   90.00000000
_cell_angle_beta   90.00000000
_cell_angle_gamma   142.32418571
_symmetry_Int_Tables_number   1
_chemical_formula_structural   Cs6Na4VGaP6
_chemical_formula_sum   'Cs12 Na8 V2 Ga2 P12'
_cell_volume   1118.38084517
_cell_formula_units_Z   2
loop_
 _symmetry_equiv_pos_site_id
 _symmetry_equiv_pos_as_xyz
  1  'x, y, z'
loop_
 _atom_site_type_symbol
 _atom_site_label
 _atom_site_symmetry_multiplicity
 _atom_site_fract_x
 _atom_site_fract_y
 _atom_site_fract_z
 _atom_site_occupancy
  Cs  Cs0  1  0.946904  0.609181  0.828179  1
  Cs  Cs1  1  0.553096  0.890819  0.328179  1
  Cs  Cs2  1  0.390819  0.053096  0.171821  1
  Cs  Cs3  1  0.063542  0.393927  0.169646  1
  Cs  Cs4  1  0.893927  0.563542  0.330354  1
  Cs  Cs5  1  0.436458  0.106073  0.669646  1
  Cs  Cs6  1  0.606073  0.936458  0.830354  1
  Cs  Cs7  1  0.276272  0.272192  0.317993  1
  Cs  Cs8  1  0.772192  0.776272  0.182007  1
  Cs  Cs9  1  0.223728  0.227808  0.817993  1
  Cs  Cs10  1  0.727808  0.723728  0.682007  1
  Cs  Cs11  1  0.109181  0.446904  0.671821  1
  Na  Na12  1  0.920381  0.079619  0.000000  1
  Na  Na13  1  0.579619  0.420381  0.500000  1
  Na  Na14  1  0.078660  0.921340  0.000000  1
  Na  Na15  1  0.421340  0.578660  0.500000  1
  Na  Na16  1  0.756004  0.243996  0.000000  1
  Na  Na17  1  0.743996  0.256004  0.500000  1
  Na  Na18  1  0.247717  0.752283  0.000000  1
  Na  Na19  1  0.252283  0.747717  0.500000  1
  V  V20  1  0.579129  0.420871  0.000000  1
  V  V21  1  0.920871  0.079129  0.500000  1
  Ga  Ga22  1  0.415497  0.584503  0.000000  1
  Ga  Ga23  1  0.084503  0.915497  0.500000  1
  P  P24  1  0.841793  0.546204  0.080948  1
  P  P25  1  0.453796  0.158207  0.919052  1
  P  P26  1  0.658207  0.953796  0.580948  1
  P  P27  1  0.943297  0.635907  0.589363  1
  P  P28  1  0.135907  0.443297  0.910637  1
  P  P29  1  0.556703  0.864093  0.089363  1
  P  P30  1  0.364093  0.056703  0.410637  1
  P  P31  1  0.182163  0.192221  0.579029  1
  P  P32  1  0.692221  0.682163  0.920971  1
  P  P33  1  0.317837  0.307779  0.079029  1
  P  P34  1  0.046204  0.341793  0.419052  1
  P  P35  1  0.807779  0.817837  0.420971  1
