# generated using pymatgen
data_LiY4Al17Pd6
_symmetry_space_group_name_H-M   'P 1'
_cell_length_a   7.62483790
_cell_length_b   7.62483689
_cell_length_c   9.50143200
_cell_angle_alpha   90.00000000
_cell_angle_beta   90.00000000
_cell_angle_gamma   119.37077768
_symmetry_Int_Tables_number   1
_chemical_formula_structural   LiY4Al17Pd6
_chemical_formula_sum   'Li1 Y4 Al17 Pd6'
_cell_volume   481.39294810
_cell_formula_units_Z   1
loop_
 _symmetry_equiv_pos_site_id
 _symmetry_equiv_pos_as_xyz
  1  'x, y, z'
loop_
 _atom_site_type_symbol
 _atom_site_label
 _atom_site_symmetry_multiplicity
 _atom_site_fract_x
 _atom_site_fract_y
 _atom_site_fract_z
 _atom_site_occupancy
  Li  Li0  1  0.129432  0.129432  0.250000  1
  Y  Y1  1  0.994520  0.664690  0.250000  1
  Y  Y2  1  0.007216  0.330895  0.750000  1
  Y  Y3  1  0.664690  0.994520  0.250000  1
  Y  Y4  1  0.330895  0.007217  0.750000  1
  Al  Al5  1  0.867201  0.867201  0.750000  1
  Al  Al6  1  0.001741  0.328510  0.079510  1
  Al  Al7  1  0.000389  0.665296  0.924947  1
  Al  Al8  1  0.000389  0.665296  0.575053  1
  Al  Al9  1  0.328510  0.001741  0.420490  1
  Al  Al10  1  0.001741  0.328510  0.420490  1
  Al  Al11  1  0.665296  0.000389  0.575053  1
  Al  Al12  1  0.665296  0.000389  0.924947  1
  Al  Al13  1  0.328510  0.001741  0.079510  1
  Al  Al14  1  0.334630  0.334630  0.548589  1
  Al  Al15  1  0.670632  0.670631  0.440600  1
  Al  Al16  1  0.670632  0.670631  0.059400  1
  Al  Al17  1  0.334630  0.334630  0.951411  1
  Al  Al18  1  0.339841  0.541830  0.250000  1
  Al  Al19  1  0.660082  0.452749  0.750000  1
  Al  Al20  1  0.541830  0.339840  0.250000  1
  Al  Al21  1  0.452749  0.660082  0.750000  1
  Pd  Pd22  1  0.674883  0.329642  0.000006  1
  Pd  Pd23  1  0.329642  0.674883  0.000005  1
  Pd  Pd24  1  0.329642  0.674883  0.499995  1
  Pd  Pd25  1  0.674883  0.329642  0.499994  1
  Pd  Pd26  1  0.000050  0.000050  0.993323  1
  Pd  Pd27  1  0.000050  0.000050  0.506677  1
