# generated using pymatgen
data_Tm2Th2B3C4
_symmetry_space_group_name_H-M   'P 1'
_cell_length_a   3.58888414
_cell_length_b   3.73817818
_cell_length_c   11.84457878
_cell_angle_alpha   93.94964584
_cell_angle_beta   96.09699264
_cell_angle_gamma   90.21874370
_symmetry_Int_Tables_number   1
_chemical_formula_structural   Tm2Th2B3C4
_chemical_formula_sum   'Tm2 Th2 B3 C4'
_cell_volume   157.62150164
_cell_formula_units_Z   1
loop_
 _symmetry_equiv_pos_site_id
 _symmetry_equiv_pos_as_xyz
  1  'x, y, z'
loop_
 _atom_site_type_symbol
 _atom_site_label
 _atom_site_symmetry_multiplicity
 _atom_site_fract_x
 _atom_site_fract_y
 _atom_site_fract_z
 _atom_site_occupancy
  Tm  Tm0  1  0.384854  0.574018  0.863513  1
  Tm  Tm1  1  0.615146  0.425982  0.136487  1
  Th  Th2  1  0.802976  0.029435  0.647916  1
  Th  Th3  1  0.197024  0.970565  0.352084  1
  B  B4  1  0.000000  0.000000  0.000000  1
  B  B5  1  0.262786  0.507044  0.538746  1
  B  B6  1  0.737214  0.492956  0.461254  1
  C  C7  1  0.881142  0.088104  0.882722  1
  C  C8  1  0.118858  0.911896  0.117278  1
  C  C9  1  0.313447  0.533589  0.672658  1
  C  C10  1  0.686553  0.466411  0.327342  1
