# generated using pymatgen
data_Cs(SnS2)8
_symmetry_space_group_name_H-M   'P 1'
_cell_length_a   7.44455929
_cell_length_b   7.47434070
_cell_length_c   16.60273881
_cell_angle_alpha   90.00000053
_cell_angle_beta   90.04212335
_cell_angle_gamma   120.13241004
_symmetry_Int_Tables_number   1
_chemical_formula_structural   Cs(SnS2)8
_chemical_formula_sum   'Cs1 Sn8 S16'
_cell_volume   798.98952967
_cell_formula_units_Z   1
loop_
 _symmetry_equiv_pos_site_id
 _symmetry_equiv_pos_as_xyz
  1  'x, y, z'
loop_
 _atom_site_type_symbol
 _atom_site_label
 _atom_site_symmetry_multiplicity
 _atom_site_fract_x
 _atom_site_fract_y
 _atom_site_fract_z
 _atom_site_occupancy
  Cs  Cs0  1  0.000000  0.000000  0.000000  1
  Sn  Sn1  1  0.500763  0.499068  0.733438  1
  Sn  Sn2  1  0.499237  0.500932  0.266562  1
  Sn  Sn3  1  0.500763  0.001693  0.733438  1
  Sn  Sn4  1  0.499237  0.998307  0.266562  1
  Sn  Sn5  1  0.998423  0.499211  0.733482  1
  Sn  Sn6  1  0.001577  0.500789  0.266518  1
  Sn  Sn7  1  0.999924  0.999961  0.730761  1
  Sn  Sn8  1  0.000076  0.000039  0.269239  1
  S  S9  1  0.833879  0.670936  0.177303  1
  S  S10  1  0.831994  0.667148  0.644344  1
  S  S11  1  0.833879  0.162945  0.177303  1
  S  S12  1  0.831994  0.164847  0.644344  1
  S  S13  1  0.336531  0.668266  0.176214  1
  S  S14  1  0.336233  0.668117  0.646540  1
  S  S15  1  0.330989  0.165496  0.177517  1
  S  S16  1  0.334172  0.167087  0.644459  1
  S  S17  1  0.669011  0.834504  0.822483  1
  S  S18  1  0.665828  0.832913  0.355541  1
  S  S19  1  0.663469  0.331734  0.823786  1
  S  S20  1  0.663767  0.331883  0.353460  1
  S  S21  1  0.166121  0.837055  0.822697  1
  S  S22  1  0.168006  0.835153  0.355656  1
  S  S23  1  0.166121  0.329064  0.822697  1
  S  S24  1  0.168006  0.332852  0.355656  1
