# generated using pymatgen
data_Er3U(CoB4)4
_symmetry_space_group_name_H-M   'P 1'
_cell_length_a   3.35192300
_cell_length_b   5.86466010
_cell_length_c   11.37471119
_cell_angle_alpha   89.97875770
_cell_angle_beta   90.00000000
_cell_angle_gamma   90.00000000
_symmetry_Int_Tables_number   1
_chemical_formula_structural   Er3U(CoB4)4
_chemical_formula_sum   'Er3 U1 Co4 B16'
_cell_volume   223.60279562
_cell_formula_units_Z   1
loop_
 _symmetry_equiv_pos_site_id
 _symmetry_equiv_pos_as_xyz
  1  'x, y, z'
loop_
 _atom_site_type_symbol
 _atom_site_label
 _atom_site_symmetry_multiplicity
 _atom_site_fract_x
 _atom_site_fract_y
 _atom_site_fract_z
 _atom_site_occupancy
  Er  Er0  1  0.500000  0.627287  0.849301  1
  Er  Er1  1  0.500000  0.128365  0.649697  1
  Er  Er2  1  0.500000  0.872039  0.351033  1
  U  U3  1  0.500000  0.372791  0.150497  1
  Co  Co4  1  0.500000  0.364906  0.409521  1
  Co  Co5  1  0.500000  0.634979  0.589257  1
  Co  Co6  1  0.500000  0.134436  0.911141  1
  Co  Co7  1  0.500000  0.864678  0.089657  1
  B  B8  1  0.000000  0.112574  0.046637  1
  B  B9  1  0.000000  0.888040  0.953545  1
  B  B10  1  0.000000  0.388330  0.546234  1
  B  B11  1  0.000000  0.612433  0.454226  1
  B  B12  1  0.000000  0.138288  0.467541  1
  B  B13  1  0.000000  0.862147  0.532556  1
  B  B14  1  0.000000  0.362094  0.965864  1
  B  B15  1  0.000000  0.636056  0.033392  1
  B  B16  1  0.000000  0.022544  0.191683  1
  B  B17  1  0.000000  0.976071  0.809033  1
  B  B18  1  0.000000  0.476220  0.690746  1
  B  B19  1  0.000000  0.523169  0.308889  1
  B  B20  1  0.000000  0.217124  0.314263  1
  B  B21  1  0.000000  0.783951  0.684981  1
  B  B22  1  0.000000  0.285133  0.814891  1
  B  B23  1  0.000000  0.716346  0.185414  1
