# generated using pymatgen
data_LiMg3P6Ir7
_symmetry_space_group_name_H-M   'P 1'
_cell_length_a   6.86175766
_cell_length_b   6.83823497
_cell_length_c   6.83823506
_cell_angle_alpha   109.40142487
_cell_angle_beta   109.54092734
_cell_angle_gamma   109.54092248
_symmetry_Int_Tables_number   1
_chemical_formula_structural   LiMg3P6Ir7
_chemical_formula_sum   'Li1 Mg3 P6 Ir7'
_cell_volume   246.78980571
_cell_formula_units_Z   1
loop_
 _symmetry_equiv_pos_site_id
 _symmetry_equiv_pos_as_xyz
  1  'x, y, z'
loop_
 _atom_site_type_symbol
 _atom_site_label
 _atom_site_symmetry_multiplicity
 _atom_site_fract_x
 _atom_site_fract_y
 _atom_site_fract_z
 _atom_site_occupancy
  Li  Li0  1  0.500000  0.000000  0.000000  1
  Mg  Mg1  1  0.000000  0.000000  0.500000  1
  Mg  Mg2  1  0.000000  0.500000  0.000000  1
  Mg  Mg3  1  0.500000  0.500000  0.500000  1
  P  P4  1  0.679223  0.686835  0.000000  1
  P  P5  1  0.320777  0.313165  0.000000  1
  P  P6  1  0.007612  0.686835  0.686835  1
  P  P7  1  0.992388  0.313165  0.313165  1
  P  P8  1  0.679223  0.000000  0.686835  1
  P  P9  1  0.320777  0.000000  0.313165  1
  Ir  Ir10  1  0.000000  0.000000  0.000000  1
  Ir  Ir11  1  0.249629  0.499258  0.749629  1
  Ir  Ir12  1  0.750371  0.250371  0.500742  1
  Ir  Ir13  1  0.500000  0.250371  0.749629  1
  Ir  Ir14  1  0.500000  0.749629  0.250371  1
  Ir  Ir15  1  0.750371  0.500742  0.250371  1
  Ir  Ir16  1  0.249629  0.749629  0.499258  1
