# generated using pymatgen
data_Sc8Ti6VSi16W5
_symmetry_space_group_name_H-M   'P 1'
_cell_length_a   6.77331717
_cell_length_b   6.77589586
_cell_length_c   12.47759618
_cell_angle_alpha   90.06601744
_cell_angle_beta   90.01414975
_cell_angle_gamma   89.98599918
_symmetry_Int_Tables_number   1
_chemical_formula_structural   Sc8Ti6VSi16W5
_chemical_formula_sum   'Sc8 Ti6 V1 Si16 W5'
_cell_volume   572.66250286
_cell_formula_units_Z   1
loop_
 _symmetry_equiv_pos_site_id
 _symmetry_equiv_pos_as_xyz
  1  'x, y, z'
loop_
 _atom_site_type_symbol
 _atom_site_label
 _atom_site_symmetry_multiplicity
 _atom_site_fract_x
 _atom_site_fract_y
 _atom_site_fract_z
 _atom_site_occupancy
  Sc  Sc0  1  0.002293  0.661464  0.032046  1
  Sc  Sc1  1  0.838376  0.502221  0.279808  1
  Sc  Sc2  1  0.161424  0.497542  0.781600  1
  Sc  Sc3  1  0.503189  0.839035  0.717794  1
  Sc  Sc4  1  0.496326  0.161647  0.220323  1
  Sc  Sc5  1  0.996485  0.338967  0.529514  1
  Sc  Sc6  1  0.662637  0.003314  0.970974  1
  Sc  Sc7  1  0.338139  0.997300  0.468355  1
  Ti  Ti8  1  0.348317  0.505378  0.375727  1
  Ti  Ti9  1  0.653012  0.492754  0.877577  1
  Ti  Ti10  1  0.507619  0.346336  0.621563  1
  Ti  Ti11  1  0.493404  0.652884  0.125003  1
  Ti  Ti12  1  0.994324  0.848226  0.626913  1
  Ti  Ti13  1  0.150813  0.005793  0.873602  1
  V  V14  1  0.847422  0.992342  0.373092  1
  Si  Si15  1  0.299261  0.957813  0.064835  1
  Si  Si16  1  0.546322  0.799499  0.316124  1
  Si  Si17  1  0.457458  0.200687  0.814337  1
  Si  Si18  1  0.799067  0.542384  0.685297  1
  Si  Si19  1  0.203167  0.455733  0.186003  1
  Si  Si20  1  0.702157  0.040954  0.562162  1
  Si  Si21  1  0.957927  0.300878  0.935190  1
  Si  Si22  1  0.040307  0.705957  0.434482  1
  Si  Si23  1  0.705889  0.367038  0.072726  1
  Si  Si24  1  0.128877  0.203585  0.322898  1
  Si  Si25  1  0.863741  0.794279  0.821114  1
  Si  Si26  1  0.205899  0.136155  0.678785  1
  Si  Si27  1  0.794687  0.866554  0.180225  1
  Si  Si28  1  0.294301  0.634816  0.570561  1
  Si  Si29  1  0.364953  0.705615  0.928746  1
  Si  Si30  1  0.636337  0.290475  0.426436  1
  W  W31  1  0.329764  0.329045  0.000053  1
  W  W32  1  0.168936  0.831051  0.250381  1
  W  W33  1  0.830116  0.169486  0.749627  1
  W  W34  1  0.671740  0.670214  0.499672  1
  W  W35  1  0.005315  0.152579  0.126454  1
