# generated using pymatgen
data_Hf8GaRh11
_symmetry_space_group_name_H-M   'P 1'
_cell_length_a   7.14830042
_cell_length_b   7.73909865
_cell_length_c   7.73909871
_cell_angle_alpha   77.68493566
_cell_angle_beta   62.49473552
_cell_angle_gamma   62.49471997
_symmetry_Int_Tables_number   1
_chemical_formula_structural   Hf8GaRh11
_chemical_formula_sum   'Hf8 Ga1 Rh11'
_cell_volume   336.82149691
_cell_formula_units_Z   1
loop_
 _symmetry_equiv_pos_site_id
 _symmetry_equiv_pos_as_xyz
  1  'x, y, z'
loop_
 _atom_site_type_symbol
 _atom_site_label
 _atom_site_symmetry_multiplicity
 _atom_site_fract_x
 _atom_site_fract_y
 _atom_site_fract_z
 _atom_site_occupancy
  Hf  Hf0  1  0.696262  0.395664  0.211813  1
  Hf  Hf1  1  0.303738  0.604336  0.788187  1
  Hf  Hf2  1  0.091924  0.211813  0.604336  1
  Hf  Hf3  1  0.908076  0.788187  0.395664  1
  Hf  Hf4  1  0.762246  0.647776  0.827732  1
  Hf  Hf5  1  0.237754  0.352224  0.172268  1
  Hf  Hf6  1  0.410022  0.827732  0.352224  1
  Hf  Hf7  1  0.589978  0.172268  0.647776  1
  Ga  Ga8  1  0.000000  0.000000  0.000000  1
  Rh  Rh9  1  0.500000  0.000000  0.000000  1
  Rh  Rh10  1  0.250000  0.500000  0.500000  1
  Rh  Rh11  1  0.750000  0.500000  0.500000  1
  Rh  Rh12  1  0.673391  0.302869  0.901222  1
  Rh  Rh13  1  0.877483  0.697131  0.098778  1
  Rh  Rh14  1  0.976261  0.901222  0.697131  1
  Rh  Rh15  1  0.574614  0.098778  0.302869  1
  Rh  Rh16  1  0.326609  0.697131  0.098778  1
  Rh  Rh17  1  0.122517  0.302869  0.901222  1
  Rh  Rh18  1  0.023739  0.098778  0.302869  1
  Rh  Rh19  1  0.425386  0.901222  0.697131  1
