# generated using pymatgen
data_Tm6ZrCo17(Si2P)4
_symmetry_space_group_name_H-M   'P 1'
_cell_length_a   3.74131200
_cell_length_b   10.69161300
_cell_length_c   12.35796200
_cell_angle_alpha   90.00000000
_cell_angle_beta   90.00000000
_cell_angle_gamma   90.00000000
_symmetry_Int_Tables_number   1
_chemical_formula_structural   Tm6ZrCo17(Si2P)4
_chemical_formula_sum   'Tm6 Zr1 Co17 Si8 P4'
_cell_volume   494.32663646
_cell_formula_units_Z   1
loop_
 _symmetry_equiv_pos_site_id
 _symmetry_equiv_pos_as_xyz
  1  'x, y, z'
loop_
 _atom_site_type_symbol
 _atom_site_label
 _atom_site_symmetry_multiplicity
 _atom_site_fract_x
 _atom_site_fract_y
 _atom_site_fract_z
 _atom_site_occupancy
  Tm  Tm0  1  0.000000  0.500000  0.532007  1
  Tm  Tm1  1  0.500000  0.000000  0.472527  1
  Tm  Tm2  1  0.500000  0.820561  0.208563  1
  Tm  Tm3  1  0.500000  0.179439  0.208563  1
  Tm  Tm4  1  0.000000  0.682651  0.795891  1
  Tm  Tm5  1  0.000000  0.317349  0.795891  1
  Zr  Zr6  1  0.500000  0.500000  0.150322  1
  Co  Co7  1  0.000000  0.000000  0.844529  1
  Co  Co8  1  0.500000  0.500000  0.699177  1
  Co  Co9  1  0.000000  0.000000  0.304197  1
  Co  Co10  1  0.000000  0.500000  0.986514  1
  Co  Co11  1  0.500000  0.000000  0.017391  1
  Co  Co12  1  0.500000  0.323922  0.992105  1
  Co  Co13  1  0.500000  0.676078  0.992105  1
  Co  Co14  1  0.000000  0.163587  0.003274  1
  Co  Co15  1  0.000000  0.836413  0.003274  1
  Co  Co16  1  0.500000  0.291230  0.431513  1
  Co  Co17  1  0.500000  0.708770  0.431513  1
  Co  Co18  1  0.000000  0.197674  0.566540  1
  Co  Co19  1  0.000000  0.802326  0.566540  1
  Co  Co20  1  0.500000  0.882924  0.704517  1
  Co  Co21  1  0.500000  0.117076  0.704517  1
  Co  Co22  1  0.000000  0.623442  0.295765  1
  Co  Co23  1  0.000000  0.376558  0.295765  1
  Si  Si24  1  0.500000  0.500000  0.883369  1
  Si  Si25  1  0.000000  0.000000  0.119436  1
  Si  Si26  1  0.500000  0.500000  0.359631  1
  Si  Si27  1  0.000000  0.000000  0.657001  1
  Si  Si28  1  0.500000  0.305882  0.616391  1
  Si  Si29  1  0.500000  0.694118  0.616391  1
  Si  Si30  1  0.500000  0.856701  0.888346  1
  Si  Si31  1  0.500000  0.143299  0.888346  1
  P  P32  1  0.000000  0.191451  0.385023  1
  P  P33  1  0.000000  0.808549  0.385023  1
  P  P34  1  0.000000  0.665526  0.099019  1
  P  P35  1  0.000000  0.334474  0.099019  1
