# generated using pymatgen
data_Tb3Hf(Al8Pt3)3
_symmetry_space_group_name_H-M   'P 1'
_cell_length_a   7.51984011
_cell_length_b   7.53451928
_cell_length_c   13.13184691
_cell_angle_alpha   84.53814096
_cell_angle_beta   79.06160494
_cell_angle_gamma   59.90165679
_symmetry_Int_Tables_number   1
_chemical_formula_structural   Tb3Hf(Al8Pt3)3
_chemical_formula_sum   'Tb3 Hf1 Al24 Pt9'
_cell_volume   632.01364405
_cell_formula_units_Z   1
loop_
 _symmetry_equiv_pos_site_id
 _symmetry_equiv_pos_as_xyz
  1  'x, y, z'
loop_
 _atom_site_type_symbol
 _atom_site_label
 _atom_site_symmetry_multiplicity
 _atom_site_fract_x
 _atom_site_fract_y
 _atom_site_fract_z
 _atom_site_occupancy
  Tb  Tb0  1  0.606498  0.832134  0.191430  1
  Tb  Tb1  1  0.733756  0.498629  0.807951  1
  Tb  Tb2  1  0.266909  0.501116  0.191594  1
  Hf  Hf3  1  0.393833  0.168244  0.807180  1
  Al  Al4  1  0.681386  0.837063  0.941388  1
  Al  Al5  1  0.316382  0.166392  0.053159  1
  Al  Al6  1  0.146389  0.832867  0.562565  1
  Al  Al7  1  0.853162  0.167129  0.438403  1
  Al  Al8  1  0.480162  0.166845  0.560466  1
  Al  Al9  1  0.519184  0.833803  0.441474  1
  Al  Al10  1  0.216876  0.165434  0.330657  1
  Al  Al11  1  0.779856  0.836740  0.673001  1
  Al  Al12  1  0.436062  0.504695  0.673308  1
  Al  Al13  1  0.562325  0.493552  0.330043  1
  Al  Al14  1  0.111034  0.159703  0.672229  1
  Al  Al15  1  0.890039  0.839738  0.331287  1
  Al  Al16  1  0.354046  0.495784  0.941359  1
  Al  Al17  1  0.648161  0.499772  0.055162  1
  Al  Al18  1  0.019394  0.168016  0.949909  1
  Al  Al19  1  0.984898  0.832967  0.045920  1
  Al  Al20  1  0.186695  0.499213  0.441458  1
  Al  Al21  1  0.813787  0.500337  0.559087  1
  Al  Al22  1  0.734284  0.163917  0.183796  1
  Al  Al23  1  0.265149  0.842386  0.816390  1
  Al  Al24  1  0.066867  0.626056  0.815032  1
  Al  Al25  1  0.939342  0.368200  0.184593  1
  Al  Al26  1  0.850021  0.041086  0.815638  1
  Al  Al27  1  0.144576  0.958811  0.183898  1
  Pt  Pt28  1  0.120708  0.490231  0.639793  1
  Pt  Pt29  1  0.878996  0.508124  0.361955  1
  Pt  Pt30  1  0.657749  0.171707  0.998657  1
  Pt  Pt31  1  0.343565  0.827681  0.998991  1
  Pt  Pt32  1  0.537629  0.166661  0.362098  1
  Pt  Pt33  1  0.462854  0.833633  0.639686  1
  Pt  Pt34  1  0.777562  0.175981  0.638301  1
  Pt  Pt35  1  0.220311  0.824980  0.363488  1
  Pt  Pt36  1  0.999550  0.500375  0.998657  1
