# generated using pymatgen
data_AcTcF7
_symmetry_space_group_name_H-M   'P 1'
_cell_length_a   5.95663100
_cell_length_b   9.59371562
_cell_length_c   12.80264760
_cell_angle_alpha   61.74589087
_cell_angle_beta   90.00000000
_cell_angle_gamma   90.00000000
_symmetry_Int_Tables_number   1
_chemical_formula_structural   AcTcF7
_chemical_formula_sum   'Ac4 Tc4 F28'
_cell_volume   644.45505786
_cell_formula_units_Z   4
loop_
 _symmetry_equiv_pos_site_id
 _symmetry_equiv_pos_as_xyz
  1  'x, y, z'
loop_
 _atom_site_type_symbol
 _atom_site_label
 _atom_site_symmetry_multiplicity
 _atom_site_fract_x
 _atom_site_fract_y
 _atom_site_fract_z
 _atom_site_occupancy
  Ac  Ac0  1  0.758431  0.808334  0.265148  1
  Ac  Ac1  1  0.258431  0.191666  0.234852  1
  Ac  Ac2  1  0.241569  0.191666  0.734852  1
  Ac  Ac3  1  0.741569  0.808334  0.765148  1
  Tc  Tc4  1  0.243898  0.726056  0.543271  1
  Tc  Tc5  1  0.743898  0.273944  0.956729  1
  Tc  Tc6  1  0.756102  0.273944  0.456729  1
  Tc  Tc7  1  0.256102  0.726056  0.043271  1
  F  F8  1  0.972039  0.715710  0.459451  1
  F  F9  1  0.472039  0.284290  0.040549  1
  F  F10  1  0.027961  0.284290  0.540549  1
  F  F11  1  0.527961  0.715710  0.959451  1
  F  F12  1  0.062404  0.710597  0.925158  1
  F  F13  1  0.562404  0.289403  0.574842  1
  F  F14  1  0.937596  0.289403  0.074842  1
  F  F15  1  0.437596  0.710597  0.425158  1
  F  F16  1  0.736598  0.506327  0.863478  1
  F  F17  1  0.236598  0.493673  0.636522  1
  F  F18  1  0.263402  0.493673  0.136522  1
  F  F19  1  0.763402  0.506327  0.363478  1
  F  F20  1  0.740756  0.042387  0.048634  1
  F  F21  1  0.240756  0.957613  0.451366  1
  F  F22  1  0.259244  0.957613  0.951366  1
  F  F23  1  0.759244  0.042387  0.548634  1
  F  F24  1  0.054223  0.741565  0.663647  1
  F  F25  1  0.554223  0.258435  0.836353  1
  F  F26  1  0.945777  0.258435  0.336353  1
  F  F27  1  0.445777  0.741565  0.163647  1
  F  F28  1  0.010177  0.268625  0.867977  1
  F  F29  1  0.510177  0.731375  0.632023  1
  F  F30  1  0.989823  0.731375  0.132023  1
  F  F31  1  0.489823  0.268625  0.367977  1
  F  F32  1  0.091906  0.966853  0.231213  1
  F  F33  1  0.591906  0.033147  0.268787  1
  F  F34  1  0.908094  0.033147  0.768787  1
  F  F35  1  0.408094  0.966853  0.731213  1
