# generated using pymatgen
data_Lu16MgIn(AgRh2)2
_symmetry_space_group_name_H-M   'P 1'
_cell_length_a   9.39688259
_cell_length_b   9.42582027
_cell_length_c   9.40162900
_cell_angle_alpha   60.08486604
_cell_angle_beta   59.98329337
_cell_angle_gamma   60.13295676
_symmetry_Int_Tables_number   1
_chemical_formula_structural   Lu16MgIn(AgRh2)2
_chemical_formula_sum   'Lu16 Mg1 In1 Ag2 Rh4'
_cell_volume   589.72405733
_cell_formula_units_Z   1
loop_
 _symmetry_equiv_pos_site_id
 _symmetry_equiv_pos_as_xyz
  1  'x, y, z'
loop_
 _atom_site_type_symbol
 _atom_site_label
 _atom_site_symmetry_multiplicity
 _atom_site_fract_x
 _atom_site_fract_y
 _atom_site_fract_z
 _atom_site_occupancy
  Lu  Lu0  1  0.598069  0.601539  0.599670  1
  Lu  Lu1  1  0.598069  0.601539  0.200724  1
  Lu  Lu2  1  0.601656  0.191974  0.603185  1
  Lu  Lu3  1  0.205582  0.598198  0.598110  1
  Lu  Lu4  1  0.063391  0.436127  0.437767  1
  Lu  Lu5  1  0.439495  0.059450  0.059930  1
  Lu  Lu6  1  0.439495  0.059450  0.441125  1
  Lu  Lu7  1  0.063391  0.436127  0.062715  1
  Lu  Lu8  1  0.438883  0.439331  0.060893  1
  Lu  Lu9  1  0.060730  0.058884  0.440193  1
  Lu  Lu10  1  0.178844  0.813475  0.816600  1
  Lu  Lu11  1  0.812505  0.183996  0.189044  1
  Lu  Lu12  1  0.812505  0.183996  0.814455  1
  Lu  Lu13  1  0.178844  0.813475  0.191081  1
  Lu  Lu14  1  0.811285  0.814086  0.187315  1
  Lu  Lu15  1  0.184924  0.184483  0.815297  1
  Mg  Mg16  1  0.829460  0.529631  0.820454  1
  In  In17  1  0.504663  0.833292  0.831023  1
  Ag  Ag18  1  0.835366  0.833865  0.833308  1
  Ag  Ag19  1  0.835366  0.833865  0.497461  1
  Rh  Rh20  1  0.395814  0.390124  0.392150  1
  Rh  Rh21  1  0.395814  0.390124  0.821913  1
  Rh  Rh22  1  0.394348  0.822875  0.391388  1
  Rh  Rh23  1  0.821506  0.390094  0.394200  1
