# generated using pymatgen
data_Tb2Er3OsPb2
_symmetry_space_group_name_H-M   'P 1'
_cell_length_a   7.95467300
_cell_length_b   9.03046800
_cell_length_c   12.45859200
_cell_angle_alpha   90.00000000
_cell_angle_beta   90.00000000
_cell_angle_gamma   90.00000000
_symmetry_Int_Tables_number   1
_chemical_formula_structural   Tb2Er3OsPb2
_chemical_formula_sum   'Tb8 Er12 Os4 Pb8'
_cell_volume   894.95573005
_cell_formula_units_Z   4
loop_
 _symmetry_equiv_pos_site_id
 _symmetry_equiv_pos_as_xyz
  1  'x, y, z'
loop_
 _atom_site_type_symbol
 _atom_site_label
 _atom_site_symmetry_multiplicity
 _atom_site_fract_x
 _atom_site_fract_y
 _atom_site_fract_z
 _atom_site_occupancy
  Tb  Tb0  1  0.656151  0.750000  0.711442  1
  Tb  Tb1  1  0.343849  0.250000  0.288558  1
  Tb  Tb2  1  0.156151  0.250000  0.788558  1
  Tb  Tb3  1  0.843849  0.750000  0.211442  1
  Tb  Tb4  1  0.123835  0.750000  0.807729  1
  Tb  Tb5  1  0.876165  0.250000  0.192271  1
  Tb  Tb6  1  0.623835  0.250000  0.692271  1
  Tb  Tb7  1  0.376165  0.750000  0.307729  1
  Er  Er8  1  0.553437  0.750000  0.995470  1
  Er  Er9  1  0.446563  0.250000  0.004530  1
  Er  Er10  1  0.053437  0.250000  0.504530  1
  Er  Er11  1  0.946563  0.750000  0.495470  1
  Er  Er12  1  0.827093  0.461917  0.931489  1
  Er  Er13  1  0.172907  0.538083  0.068511  1
  Er  Er14  1  0.327093  0.538083  0.568511  1
  Er  Er15  1  0.172907  0.961917  0.068511  1
  Er  Er16  1  0.672907  0.461917  0.431489  1
  Er  Er17  1  0.827093  0.038083  0.931489  1
  Er  Er18  1  0.672907  0.038083  0.431489  1
  Er  Er19  1  0.327093  0.961917  0.568511  1
  Os  Os20  1  0.925619  0.750000  0.992764  1
  Os  Os21  1  0.074381  0.250000  0.007236  1
  Os  Os22  1  0.425619  0.250000  0.507236  1
  Os  Os23  1  0.574381  0.750000  0.492764  1
  Pb  Pb24  1  0.931112  0.004571  0.669007  1
  Pb  Pb25  1  0.068888  0.995429  0.330993  1
  Pb  Pb26  1  0.431112  0.995429  0.830993  1
  Pb  Pb27  1  0.068888  0.504571  0.330993  1
  Pb  Pb28  1  0.568888  0.004571  0.169007  1
  Pb  Pb29  1  0.931112  0.495429  0.669007  1
  Pb  Pb30  1  0.568888  0.495429  0.169007  1
  Pb  Pb31  1  0.431112  0.504571  0.830993  1
