# generated using pymatgen
data_DyZrMn2Co10P7
_symmetry_space_group_name_H-M   'P 1'
_cell_length_a   9.01501121
_cell_length_b   8.98105872
_cell_length_c   3.59500700
_cell_angle_alpha   90.00000000
_cell_angle_beta   90.00000000
_cell_angle_gamma   119.96128285
_symmetry_Int_Tables_number   1
_chemical_formula_structural   DyZrMn2Co10P7
_chemical_formula_sum   'Dy1 Zr1 Mn2 Co10 P7'
_cell_volume   252.17003720
_cell_formula_units_Z   1
loop_
 _symmetry_equiv_pos_site_id
 _symmetry_equiv_pos_as_xyz
  1  'x, y, z'
loop_
 _atom_site_type_symbol
 _atom_site_label
 _atom_site_symmetry_multiplicity
 _atom_site_fract_x
 _atom_site_fract_y
 _atom_site_fract_z
 _atom_site_occupancy
  Dy  Dy0  1  0.332626  0.666786  0.500000  1
  Zr  Zr1  1  0.665965  0.331584  0.000000  1
  Mn  Mn2  1  0.098141  0.220552  0.500000  1
  Mn  Mn3  1  0.779383  0.876680  0.500000  1
  Co  Co4  1  0.373084  0.943152  0.000000  1
  Co  Co5  1  0.058719  0.432770  0.000000  1
  Co  Co6  1  0.568682  0.626179  0.000000  1
  Co  Co7  1  0.882344  0.723313  0.000000  1
  Co  Co8  1  0.275924  0.157128  0.000000  1
  Co  Co9  1  0.839415  0.117808  0.000000  1
  Co  Co10  1  0.945769  0.562153  0.500000  1
  Co  Co11  1  0.438712  0.382929  0.500000  1
  Co  Co12  1  0.614938  0.055249  0.500000  1
  Co  Co13  1  0.129066  0.905556  0.500000  1
  P  P14  1  0.113499  0.705151  0.000000  1
  P  P15  1  0.297116  0.410430  0.000000  1
  P  P16  1  0.588397  0.886264  0.000000  1
  P  P17  1  0.709139  0.588456  0.500000  1
  P  P18  1  0.406082  0.117053  0.500000  1
  P  P19  1  0.882608  0.290592  0.500000  1
  P  P20  1  0.000391  0.000216  0.000000  1
