# generated using pymatgen
data_HfZn6Fe5Rh12
_symmetry_space_group_name_H-M   'P 1'
_cell_length_a   4.29462601
_cell_length_b   6.09935800
_cell_length_c   12.83918803
_cell_angle_alpha   90.00000000
_cell_angle_beta   90.00812989
_cell_angle_gamma   90.00000000
_symmetry_Int_Tables_number   1
_chemical_formula_structural   HfZn6Fe5Rh12
_chemical_formula_sum   'Hf1 Zn6 Fe5 Rh12'
_cell_volume   336.31561342
_cell_formula_units_Z   1
loop_
 _symmetry_equiv_pos_site_id
 _symmetry_equiv_pos_as_xyz
  1  'x, y, z'
loop_
 _atom_site_type_symbol
 _atom_site_label
 _atom_site_symmetry_multiplicity
 _atom_site_fract_x
 _atom_site_fract_y
 _atom_site_fract_z
 _atom_site_occupancy
  Hf  Hf0  1  0.000000  0.500000  0.000000  1
  Zn  Zn1  1  0.000000  0.000000  0.000000  1
  Zn  Zn2  1  0.500598  0.500000  0.168193  1
  Zn  Zn3  1  0.000188  0.000000  0.338291  1
  Zn  Zn4  1  0.500001  0.500000  0.500000  1
  Zn  Zn5  1  0.999811  0.000000  0.661709  1
  Zn  Zn6  1  0.499401  0.500000  0.831807  1
  Fe  Fe7  1  0.500467  0.000000  0.170759  1
  Fe  Fe8  1  0.000278  0.500000  0.334521  1
  Fe  Fe9  1  0.500001  0.000000  0.500000  1
  Fe  Fe10  1  0.999721  0.500000  0.665478  1
  Fe  Fe11  1  0.499534  0.000000  0.829242  1
  Rh  Rh12  1  0.499999  0.237769  0.000000  1
  Rh  Rh13  1  0.499999  0.762233  0.000000  1
  Rh  Rh14  1  0.000538  0.243614  0.171173  1
  Rh  Rh15  1  0.000538  0.756386  0.171173  1
  Rh  Rh16  1  0.500300  0.250380  0.334252  1
  Rh  Rh17  1  0.500300  0.749618  0.334252  1
  Rh  Rh18  1  0.000000  0.252823  0.500000  1
  Rh  Rh19  1  0.000000  0.747177  0.500000  1
  Rh  Rh20  1  0.499701  0.250380  0.665748  1
  Rh  Rh21  1  0.499701  0.749618  0.665748  1
  Rh  Rh22  1  0.999461  0.243614  0.828827  1
  Rh  Rh23  1  0.999461  0.756386  0.828827  1
