# generated using pymatgen
data_Ta2Nb7(NiP2)2
_symmetry_space_group_name_H-M   'P 1'
_cell_length_a   11.52306600
_cell_length_b   11.52306600
_cell_length_c   3.48787400
_cell_angle_alpha   90.00000000
_cell_angle_beta   90.00000000
_cell_angle_gamma   90.00000000
_symmetry_Int_Tables_number   1
_chemical_formula_structural   Ta2Nb7(NiP2)2
_chemical_formula_sum   'Ta4 Nb14 Ni4 P8'
_cell_volume   463.12357213
_cell_formula_units_Z   2
loop_
 _symmetry_equiv_pos_site_id
 _symmetry_equiv_pos_as_xyz
  1  'x, y, z'
loop_
 _atom_site_type_symbol
 _atom_site_label
 _atom_site_symmetry_multiplicity
 _atom_site_fract_x
 _atom_site_fract_y
 _atom_site_fract_z
 _atom_site_occupancy
  Ta  Ta0  1  0.102042  0.397958  0.000000  1
  Ta  Ta1  1  0.397958  0.897958  0.000000  1
  Ta  Ta2  1  0.602042  0.102042  0.000000  1
  Ta  Ta3  1  0.897958  0.602042  0.000000  1
  Nb  Nb4  1  0.000000  0.000000  0.000000  1
  Nb  Nb5  1  0.500000  0.500000  0.000000  1
  Nb  Nb6  1  0.102122  0.183175  0.500000  1
  Nb  Nb7  1  0.183175  0.897878  0.500000  1
  Nb  Nb8  1  0.816825  0.102122  0.500000  1
  Nb  Nb9  1  0.897878  0.816825  0.500000  1
  Nb  Nb10  1  0.397878  0.683175  0.500000  1
  Nb  Nb11  1  0.602122  0.316825  0.500000  1
  Nb  Nb12  1  0.683175  0.602122  0.500000  1
  Nb  Nb13  1  0.316825  0.397878  0.500000  1
  Nb  Nb14  1  0.393632  0.106368  0.500000  1
  Nb  Nb15  1  0.106368  0.606368  0.500000  1
  Nb  Nb16  1  0.893632  0.393632  0.500000  1
  Nb  Nb17  1  0.606368  0.893632  0.500000  1
  Ni  Ni18  1  0.264574  0.235426  0.000000  1
  Ni  Ni19  1  0.235426  0.735426  0.000000  1
  Ni  Ni20  1  0.764574  0.264574  0.000000  1
  Ni  Ni21  1  0.735426  0.764574  0.000000  1
  P  P22  1  0.227000  0.052269  0.000000  1
  P  P23  1  0.052269  0.773000  0.000000  1
  P  P24  1  0.947731  0.227000  0.000000  1
  P  P25  1  0.773000  0.947731  0.000000  1
  P  P26  1  0.273000  0.552269  0.000000  1
  P  P27  1  0.727000  0.447731  0.000000  1
  P  P28  1  0.552269  0.727000  0.000000  1
  P  P29  1  0.447731  0.273000  0.000000  1
