# generated using pymatgen
data_Er16Cd4Ru3Au
_symmetry_space_group_name_H-M   'P 1'
_cell_length_a   9.52069127
_cell_length_b   9.62658160
_cell_length_c   9.62658200
_cell_angle_alpha   59.99999861
_cell_angle_beta   59.63139453
_cell_angle_gamma   59.63138962
_symmetry_Int_Tables_number   1
_chemical_formula_structural   Er16Cd4Ru3Au
_chemical_formula_sum   'Er16 Cd4 Ru3 Au1'
_cell_volume   620.37660627
_cell_formula_units_Z   1
loop_
 _symmetry_equiv_pos_site_id
 _symmetry_equiv_pos_as_xyz
  1  'x, y, z'
loop_
 _atom_site_type_symbol
 _atom_site_label
 _atom_site_symmetry_multiplicity
 _atom_site_fract_x
 _atom_site_fract_y
 _atom_site_fract_z
 _atom_site_occupancy
  Er  Er0  1  0.343779  0.355831  0.355831  1
  Er  Er1  1  0.343779  0.355831  0.944558  1
  Er  Er2  1  0.343779  0.944558  0.355831  1
  Er  Er3  1  0.971275  0.342908  0.342908  1
  Er  Er4  1  0.820571  0.189699  0.189699  1
  Er  Er5  1  0.184999  0.812751  0.812751  1
  Er  Er6  1  0.184999  0.812751  0.189499  1
  Er  Er7  1  0.820571  0.189699  0.800031  1
  Er  Er8  1  0.184999  0.189499  0.812751  1
  Er  Er9  1  0.820571  0.800031  0.189699  1
  Er  Er10  1  0.932269  0.565075  0.565075  1
  Er  Er11  1  0.553583  0.938847  0.938847  1
  Er  Er12  1  0.553583  0.938847  0.568723  1
  Er  Er13  1  0.932269  0.565075  0.937581  1
  Er  Er14  1  0.553583  0.568723  0.938847  1
  Er  Er15  1  0.932269  0.937581  0.565075  1
  Cd  Cd16  1  0.583116  0.578431  0.578431  1
  Cd  Cd17  1  0.583116  0.578431  0.260020  1
  Cd  Cd18  1  0.583116  0.260020  0.578431  1
  Cd  Cd19  1  0.251493  0.582835  0.582835  1
  Ru  Ru20  1  0.151560  0.137019  0.137019  1
  Ru  Ru21  1  0.151560  0.137019  0.574401  1
  Ru  Ru22  1  0.151560  0.574401  0.137019  1
  Au  Au23  1  0.567595  0.144135  0.144135  1
