# generated using pymatgen
data_ErZn7Ag4Au
_symmetry_space_group_name_H-M   'P 1'
_cell_length_a   7.03902985
_cell_length_b   7.03902910
_cell_length_c   7.03902831
_cell_angle_alpha   97.66810121
_cell_angle_beta   97.68118519
_cell_angle_gamma   137.13046849
_symmetry_Int_Tables_number   1
_chemical_formula_structural   ErZn7Ag4Au
_chemical_formula_sum   'Er1 Zn7 Ag4 Au1'
_cell_volume   220.86710261
_cell_formula_units_Z   1
loop_
 _symmetry_equiv_pos_site_id
 _symmetry_equiv_pos_as_xyz
  1  'x, y, z'
loop_
 _atom_site_type_symbol
 _atom_site_label
 _atom_site_symmetry_multiplicity
 _atom_site_fract_x
 _atom_site_fract_y
 _atom_site_fract_z
 _atom_site_occupancy
  Er  Er0  1  0.004906  0.000000  0.004906  1
  Zn  Zn1  1  0.002476  0.498190  0.999542  1
  Zn  Zn2  1  0.501353  0.501810  0.504287  1
  Zn  Zn3  1  0.002476  0.002934  0.504287  1
  Zn  Zn4  1  0.501353  0.997066  0.999542  1
  Zn  Zn5  1  0.288045  0.500000  0.788045  1
  Zn  Zn6  1  0.497481  0.717173  0.214653  1
  Zn  Zn7  1  0.497481  0.282827  0.780308  1
  Ag  Ag8  1  0.351687  0.000000  0.351687  1
  Ag  Ag9  1  0.000628  0.655724  0.656352  1
  Ag  Ag10  1  0.000628  0.344276  0.344904  1
  Ag  Ag11  1  0.658291  0.000000  0.658291  1
  Au  Au12  1  0.693195  0.500000  0.193195  1
