# generated using pymatgen
data_Pr3Dy2Zr(SnRh)6
_symmetry_space_group_name_H-M   'P 1'
_cell_length_a   7.55805930
_cell_length_b   7.60717766
_cell_length_c   7.91653600
_cell_angle_alpha   90.00000000
_cell_angle_beta   90.00000000
_cell_angle_gamma   120.21984194
_symmetry_Int_Tables_number   1
_chemical_formula_structural   Pr3Dy2Zr(SnRh)6
_chemical_formula_sum   'Pr3 Dy2 Zr1 Sn6 Rh6'
_cell_volume   393.30849541
_cell_formula_units_Z   1
loop_
 _symmetry_equiv_pos_site_id
 _symmetry_equiv_pos_as_xyz
  1  'x, y, z'
loop_
 _atom_site_type_symbol
 _atom_site_label
 _atom_site_symmetry_multiplicity
 _atom_site_fract_x
 _atom_site_fract_y
 _atom_site_fract_z
 _atom_site_occupancy
  Pr  Pr0  1  0.593827  0.005292  0.750000  1
  Pr  Pr1  1  0.406199  0.411611  0.750000  1
  Pr  Pr2  1  0.000014  0.587702  0.750000  1
  Dy  Dy3  1  0.592308  0.996047  0.250000  1
  Dy  Dy4  1  0.407773  0.403493  0.250000  1
  Zr  Zr5  1  0.999933  0.598914  0.250000  1
  Sn  Sn6  1  0.259132  0.000803  0.005595  1
  Sn  Sn7  1  0.740764  0.741759  0.494409  1
  Sn  Sn8  1  0.000106  0.256368  0.484727  1
  Sn  Sn9  1  0.000106  0.256368  0.015273  1
  Sn  Sn10  1  0.740764  0.741759  0.005591  1
  Sn  Sn11  1  0.259132  0.000803  0.494405  1
  Rh  Rh12  1  0.678335  0.342616  0.025971  1
  Rh  Rh13  1  0.678335  0.342616  0.474029  1
  Rh  Rh14  1  0.321615  0.664229  0.026347  1
  Rh  Rh15  1  0.321615  0.664229  0.473653  1
  Rh  Rh16  1  0.999972  0.999538  0.750000  1
  Rh  Rh17  1  0.000071  0.985851  0.250000  1
