# generated using pymatgen
data_ErZr3(SnRh5)2
_symmetry_space_group_name_H-M   'P 1'
_cell_length_a   5.68121217
_cell_length_b   5.68121180
_cell_length_c   8.31789301
_cell_angle_alpha   89.99580598
_cell_angle_beta   89.99580813
_cell_angle_gamma   96.98745920
_symmetry_Int_Tables_number   1
_chemical_formula_structural   ErZr3(SnRh5)2
_chemical_formula_sum   'Er1 Zr3 Sn2 Rh10'
_cell_volume   266.47574629
_cell_formula_units_Z   1
loop_
 _symmetry_equiv_pos_site_id
 _symmetry_equiv_pos_as_xyz
  1  'x, y, z'
loop_
 _atom_site_type_symbol
 _atom_site_label
 _atom_site_symmetry_multiplicity
 _atom_site_fract_x
 _atom_site_fract_y
 _atom_site_fract_z
 _atom_site_occupancy
  Er  Er0  1  0.778789  0.221211  0.500000  1
  Zr  Zr1  1  0.217127  0.782873  0.000000  1
  Zr  Zr2  1  0.217092  0.782908  0.500000  1
  Zr  Zr3  1  0.782367  0.217633  0.000000  1
  Sn  Sn4  1  0.500838  0.502372  0.750652  1
  Sn  Sn5  1  0.497628  0.499162  0.249348  1
  Rh  Rh6  1  0.729318  0.729196  0.000746  1
  Rh  Rh7  1  0.729762  0.728614  0.499173  1
  Rh  Rh8  1  0.270804  0.270682  0.999254  1
  Rh  Rh9  1  0.271386  0.270238  0.500827  1
  Rh  Rh10  1  0.497353  0.997576  0.753897  1
  Rh  Rh11  1  0.497310  0.996640  0.246164  1
  Rh  Rh12  1  0.002482  0.998040  0.245933  1
  Rh  Rh13  1  0.001960  0.997518  0.754067  1
  Rh  Rh14  1  0.003360  0.502690  0.753836  1
  Rh  Rh15  1  0.002424  0.502647  0.246103  1
