# generated using pymatgen
data_Sc22Os7Pt
_symmetry_space_group_name_H-M   'P 1'
_cell_length_a   9.48275371
_cell_length_b   9.44848772
_cell_length_c   9.48275294
_cell_angle_alpha   60.11945831
_cell_angle_beta   60.00363754
_cell_angle_gamma   60.11946265
_symmetry_Int_Tables_number   1
_chemical_formula_structural   Sc22Os7Pt
_chemical_formula_sum   'Sc22 Os7 Pt1'
_cell_volume   601.88014767
_cell_formula_units_Z   1
loop_
 _symmetry_equiv_pos_site_id
 _symmetry_equiv_pos_as_xyz
  1  'x, y, z'
loop_
 _atom_site_type_symbol
 _atom_site_label
 _atom_site_symmetry_multiplicity
 _atom_site_fract_x
 _atom_site_fract_y
 _atom_site_fract_z
 _atom_site_occupancy
  Sc  Sc0  1  0.843949  0.843931  0.843949  1
  Sc  Sc1  1  0.531876  0.157954  0.152215  1
  Sc  Sc2  1  0.152215  0.157954  0.531876  1
  Sc  Sc3  1  0.156051  0.531829  0.156051  1
  Sc  Sc4  1  0.847785  0.842046  0.468124  1
  Sc  Sc5  1  0.843949  0.468171  0.843949  1
  Sc  Sc6  1  0.468124  0.842046  0.847785  1
  Sc  Sc7  1  0.156051  0.156069  0.156051  1
  Sc  Sc8  1  0.198257  0.801743  0.198257  1
  Sc  Sc9  1  0.196913  0.800709  0.803087  1
  Sc  Sc10  1  0.803087  0.199291  0.196913  1
  Sc  Sc11  1  0.803087  0.800709  0.196913  1
  Sc  Sc12  1  0.196913  0.199291  0.803087  1
  Sc  Sc13  1  0.801743  0.198257  0.801743  1
  Sc  Sc14  1  0.381114  0.387412  0.381114  1
  Sc  Sc15  1  0.149151  0.616753  0.617343  1
  Sc  Sc16  1  0.618886  0.149642  0.618886  1
  Sc  Sc17  1  0.617343  0.616753  0.149151  1
  Sc  Sc18  1  0.381114  0.850358  0.381114  1
  Sc  Sc19  1  0.382657  0.383247  0.850849  1
  Sc  Sc20  1  0.850849  0.383247  0.382657  1
  Sc  Sc21  1  0.618886  0.612588  0.618886  1
  Os  Os22  1  0.500000  0.500000  0.000000  1
  Os  Os23  1  0.000000  0.000000  0.500000  1
  Os  Os24  1  0.000000  0.500000  0.500000  1
  Os  Os25  1  0.500000  0.000000  0.000000  1
  Os  Os26  1  0.000000  0.500000  0.000000  1
  Os  Os27  1  0.500000  0.500000  0.500000  1
  Os  Os28  1  0.000000  0.000000  0.000000  1
  Pt  Pt29  1  0.500000  0.000000  0.500000  1
