# generated using pymatgen
data_Li3La6ZnPd12Rh
_symmetry_space_group_name_H-M   'P 1'
_cell_length_a   8.43716723
_cell_length_b   8.43716821
_cell_length_c   8.42916600
_cell_angle_alpha   109.45200897
_cell_angle_beta   109.45201132
_cell_angle_gamma   109.49042757
_symmetry_Int_Tables_number   1
_chemical_formula_structural   Li3La6ZnPd12Rh
_chemical_formula_sum   'Li3 La6 Zn1 Pd12 Rh1'
_cell_volume   462.01808103
_cell_formula_units_Z   1
loop_
 _symmetry_equiv_pos_site_id
 _symmetry_equiv_pos_as_xyz
  1  'x, y, z'
loop_
 _atom_site_type_symbol
 _atom_site_label
 _atom_site_symmetry_multiplicity
 _atom_site_fract_x
 _atom_site_fract_y
 _atom_site_fract_z
 _atom_site_occupancy
  Li  Li0  1  0.000000  0.500000  0.000000  1
  Li  Li1  1  0.500000  0.000000  0.000000  1
  Li  Li2  1  0.500000  0.500000  0.500000  1
  La  La3  1  0.698329  0.698329  0.000743  1
  La  La4  1  0.301671  0.000000  0.302414  1
  La  La5  1  0.000000  0.301671  0.302414  1
  La  La6  1  0.301671  0.301671  0.999257  1
  La  La7  1  0.698329  0.000000  0.697586  1
  La  La8  1  0.000000  0.698329  0.697586  1
  Zn  Zn9  1  0.000000  0.000000  0.500000  1
  Pd  Pd10  1  0.331981  0.331981  0.664060  1
  Pd  Pd11  1  0.668019  0.000000  0.332078  1
  Pd  Pd12  1  0.000000  0.668019  0.332078  1
  Pd  Pd13  1  0.667426  0.332574  0.000000  1
  Pd  Pd14  1  0.332574  0.665148  0.332574  1
  Pd  Pd15  1  0.000000  0.331981  0.667922  1
  Pd  Pd16  1  0.332574  0.667426  0.000000  1
  Pd  Pd17  1  0.331981  0.000000  0.667922  1
  Pd  Pd18  1  0.665148  0.332574  0.332574  1
  Pd  Pd19  1  0.668019  0.668019  0.335940  1
  Pd  Pd20  1  0.667426  0.334852  0.667426  1
  Pd  Pd21  1  0.334852  0.667426  0.667426  1
  Rh  Rh22  1  0.000000  0.000000  0.000000  1
