# generated using pymatgen
data_Lu10In5SbSe2
_symmetry_space_group_name_H-M   'P 1'
_cell_length_a   8.93171200
_cell_length_b   9.00461976
_cell_length_c   6.65703300
_cell_angle_alpha   90.00000000
_cell_angle_beta   90.00000000
_cell_angle_gamma   120.27038277
_symmetry_Int_Tables_number   1
_chemical_formula_structural   Lu10In5SbSe2
_chemical_formula_sum   'Lu10 In5 Sb1 Se2'
_cell_volume   462.40413810
_cell_formula_units_Z   1
loop_
 _symmetry_equiv_pos_site_id
 _symmetry_equiv_pos_as_xyz
  1  'x, y, z'
loop_
 _atom_site_type_symbol
 _atom_site_label
 _atom_site_symmetry_multiplicity
 _atom_site_fract_x
 _atom_site_fract_y
 _atom_site_fract_z
 _atom_site_occupancy
  Lu  Lu0  1  0.668301  0.335733  0.996406  1
  Lu  Lu1  1  0.331699  0.667434  0.996406  1
  Lu  Lu2  1  0.331699  0.667434  0.503594  1
  Lu  Lu3  1  0.668301  0.335733  0.503594  1
  Lu  Lu4  1  0.748472  0.746742  0.750000  1
  Lu  Lu5  1  0.251528  0.998270  0.750000  1
  Lu  Lu6  1  0.000000  0.254875  0.750000  1
  Lu  Lu7  1  0.252649  0.248113  0.250000  1
  Lu  Lu8  1  0.747351  0.995463  0.250000  1
  Lu  Lu9  1  0.000000  0.744477  0.250000  1
  In  In10  1  0.400732  0.403316  0.750000  1
  In  In11  1  0.599268  0.002585  0.750000  1
  In  In12  1  0.000000  0.604272  0.750000  1
  In  In13  1  0.597479  0.598694  0.250000  1
  In  In14  1  0.402521  0.001215  0.250000  1
  Sb  Sb15  1  0.000000  0.393789  0.250000  1
  Se  Se16  1  0.000000  0.000928  0.000942  1
  Se  Se17  1  0.000000  0.000928  0.499058  1
