# generated using pymatgen
data_Tb12Nd8Ga3Si13
_symmetry_space_group_name_H-M   'P 1'
_cell_length_a   7.80875622
_cell_length_b   7.82011421
_cell_length_c   14.62079101
_cell_angle_alpha   90.00011016
_cell_angle_beta   90.00364189
_cell_angle_gamma   90.02655673
_symmetry_Int_Tables_number   1
_chemical_formula_structural   Tb12Nd8Ga3Si13
_chemical_formula_sum   'Tb12 Nd8 Ga3 Si13'
_cell_volume   892.82384801
_cell_formula_units_Z   1
loop_
 _symmetry_equiv_pos_site_id
 _symmetry_equiv_pos_as_xyz
  1  'x, y, z'
loop_
 _atom_site_type_symbol
 _atom_site_label
 _atom_site_symmetry_multiplicity
 _atom_site_fract_x
 _atom_site_fract_y
 _atom_site_fract_z
 _atom_site_occupancy
  Tb  Tb0  1  0.486467  0.367415  0.124652  1
  Tb  Tb1  1  0.984615  0.137114  0.627498  1
  Tb  Tb2  1  0.865473  0.011770  0.874254  1
  Tb  Tb3  1  0.137024  0.984451  0.372491  1
  Tb  Tb4  1  0.512902  0.633705  0.625529  1
  Tb  Tb5  1  0.364499  0.488044  0.875246  1
  Tb  Tb6  1  0.632829  0.512387  0.374370  1
  Tb  Tb7  1  0.014838  0.862411  0.126420  1
  Tb  Tb8  1  0.315403  0.315032  0.499946  1
  Tb  Tb9  1  0.186950  0.813800  0.750946  1
  Tb  Tb10  1  0.813293  0.187686  0.250236  1
  Tb  Tb11  1  0.687341  0.683943  0.999485  1
  Nd  Nd12  1  0.634677  0.988253  0.455278  1
  Nd  Nd13  1  0.363167  0.009754  0.954741  1
  Nd  Nd14  1  0.987730  0.634647  0.545053  1
  Nd  Nd15  1  0.488045  0.861943  0.206026  1
  Nd  Nd16  1  0.510951  0.137763  0.706892  1
  Nd  Nd17  1  0.864221  0.491453  0.795058  1
  Nd  Nd18  1  0.137692  0.511306  0.293126  1
  Nd  Nd19  1  0.012720  0.367882  0.044412  1
  Ga  Ga20  1  0.286567  0.931923  0.562175  1
  Ga  Ga21  1  0.713800  0.068180  0.061626  1
  Ga  Ga22  1  0.932151  0.287138  0.438164  1
  Si  Si23  1  0.429274  0.213221  0.310174  1
  Si  Si24  1  0.569537  0.786742  0.810932  1
  Si  Si25  1  0.212534  0.430097  0.689587  1
  Si  Si26  1  0.787577  0.569744  0.189235  1
  Si  Si27  1  0.068533  0.711156  0.938935  1
  Si  Si28  1  0.799566  0.841287  0.694083  1
  Si  Si29  1  0.200265  0.158972  0.193685  1
  Si  Si30  1  0.840936  0.799084  0.305232  1
  Si  Si31  1  0.342408  0.698840  0.442774  1
  Si  Si32  1  0.657887  0.301168  0.942165  1
  Si  Si33  1  0.698735  0.342277  0.557701  1
  Si  Si34  1  0.300887  0.658760  0.055627  1
  Si  Si35  1  0.158506  0.200651  0.806249  1
