# generated using pymatgen
data_Th3In3TcPd2
_symmetry_space_group_name_H-M   'P 1'
_cell_length_a   7.74363100
_cell_length_b   7.74348867
_cell_length_c   4.09238600
_cell_angle_alpha   90.00000000
_cell_angle_beta   90.00000000
_cell_angle_gamma   120.00294335
_symmetry_Int_Tables_number   1
_chemical_formula_structural   Th3In3TcPd2
_chemical_formula_sum   'Th3 In3 Tc1 Pd2'
_cell_volume   212.50818272
_cell_formula_units_Z   1
loop_
 _symmetry_equiv_pos_site_id
 _symmetry_equiv_pos_as_xyz
  1  'x, y, z'
loop_
 _atom_site_type_symbol
 _atom_site_label
 _atom_site_symmetry_multiplicity
 _atom_site_fract_x
 _atom_site_fract_y
 _atom_site_fract_z
 _atom_site_occupancy
  Th  Th0  1  0.575754  0.984636  0.500002  1
  Th  Th1  1  0.015376  0.591134  0.500002  1
  Th  Th2  1  0.408842  0.424231  0.500002  1
  In  In3  1  0.249104  0.000609  0.000000  1
  In  In4  1  0.999419  0.248523  0.000000  1
  In  In5  1  0.751410  0.750859  0.000000  1
  Tc  Tc6  1  0.333343  0.666692  0.000000  1
  Pd  Pd7  1  0.999976  0.999986  0.500002  1
  Pd  Pd8  1  0.666675  0.333327  0.000000  1
