# generated using pymatgen
data_Ho2Ge2BOs2
_symmetry_space_group_name_H-M   'P 1'
_cell_length_a   5.94143799
_cell_length_b   5.94143772
_cell_length_c   6.99301000
_cell_angle_alpha   125.56078395
_cell_angle_beta   125.56078211
_cell_angle_gamma   41.05989249
_symmetry_Int_Tables_number   1
_chemical_formula_structural   Ho2Ge2BOs2
_chemical_formula_sum   'Ho2 Ge2 B1 Os2'
_cell_volume   127.09248969
_cell_formula_units_Z   1
loop_
 _symmetry_equiv_pos_site_id
 _symmetry_equiv_pos_as_xyz
  1  'x, y, z'
loop_
 _atom_site_type_symbol
 _atom_site_label
 _atom_site_symmetry_multiplicity
 _atom_site_fract_x
 _atom_site_fract_y
 _atom_site_fract_z
 _atom_site_occupancy
  Ho  Ho0  1  0.435525  0.435525  0.165448  1
  Ho  Ho1  1  0.564475  0.564475  0.834553  1
  Ge  Ge2  1  0.847420  0.847420  0.389753  1
  Ge  Ge3  1  0.152580  0.152580  0.610248  1
  B  B4  1  0.000000  0.000000  0.000000  1
  Os  Os5  1  0.207931  0.207931  0.312470  1
  Os  Os6  1  0.792069  0.792069  0.687530  1
