# generated using pymatgen
data_Nd2SmCo8TcP6
_symmetry_space_group_name_H-M   'P 1'
_cell_length_a   3.76733000
_cell_length_b   10.65172300
_cell_length_c   12.41309000
_cell_angle_alpha   90.00000000
_cell_angle_beta   90.00000000
_cell_angle_gamma   90.00000000
_symmetry_Int_Tables_number   1
_chemical_formula_structural   Nd2SmCo8TcP6
_chemical_formula_sum   'Nd4 Sm2 Co16 Tc2 P12'
_cell_volume   498.11937235
_cell_formula_units_Z   2
loop_
 _symmetry_equiv_pos_site_id
 _symmetry_equiv_pos_as_xyz
  1  'x, y, z'
loop_
 _atom_site_type_symbol
 _atom_site_label
 _atom_site_symmetry_multiplicity
 _atom_site_fract_x
 _atom_site_fract_y
 _atom_site_fract_z
 _atom_site_occupancy
  Nd  Nd0  1  0.000000  0.500000  0.522561  1
  Nd  Nd1  1  0.500000  0.000000  0.477028  1
  Nd  Nd2  1  0.000000  0.682616  0.794162  1
  Nd  Nd3  1  0.000000  0.317384  0.794162  1
  Sm  Sm4  1  0.500000  0.817418  0.205627  1
  Sm  Sm5  1  0.500000  0.182582  0.205627  1
  Co  Co6  1  0.500000  0.500000  0.704769  1
  Co  Co7  1  0.000000  0.000000  0.294469  1
  Co  Co8  1  0.000000  0.500000  0.988721  1
  Co  Co9  1  0.500000  0.000000  0.012811  1
  Co  Co10  1  0.500000  0.331701  0.992298  1
  Co  Co11  1  0.500000  0.668299  0.992298  1
  Co  Co12  1  0.000000  0.167619  0.009207  1
  Co  Co13  1  0.000000  0.832381  0.009207  1
  Co  Co14  1  0.500000  0.296328  0.429683  1
  Co  Co15  1  0.500000  0.703672  0.429683  1
  Co  Co16  1  0.000000  0.203313  0.569151  1
  Co  Co17  1  0.000000  0.796687  0.569151  1
  Co  Co18  1  0.500000  0.881400  0.709511  1
  Co  Co19  1  0.500000  0.118600  0.709511  1
  Co  Co20  1  0.000000  0.619273  0.289936  1
  Co  Co21  1  0.000000  0.380727  0.289936  1
  Tc  Tc22  1  0.500000  0.500000  0.154839  1
  Tc  Tc23  1  0.000000  0.000000  0.845455  1
  P  P24  1  0.500000  0.500000  0.886035  1
  P  P25  1  0.000000  0.000000  0.115779  1
  P  P26  1  0.500000  0.500000  0.343696  1
  P  P27  1  0.000000  0.000000  0.656125  1
  P  P28  1  0.500000  0.307086  0.614002  1
  P  P29  1  0.500000  0.692914  0.614002  1
  P  P30  1  0.000000  0.192296  0.384321  1
  P  P31  1  0.000000  0.807704  0.384321  1
  P  P32  1  0.500000  0.848139  0.895436  1
  P  P33  1  0.500000  0.151861  0.895436  1
  P  P34  1  0.000000  0.653010  0.105523  1
  P  P35  1  0.000000  0.346990  0.105523  1
