# generated using pymatgen
data_Th3Zn2Co3Ge
_symmetry_space_group_name_H-M   'P 1'
_cell_length_a   7.12264927
_cell_length_b   7.12264964
_cell_length_c   3.87930800
_cell_angle_alpha   90.00000000
_cell_angle_beta   90.00000000
_cell_angle_gamma   120.42722095
_symmetry_Int_Tables_number   1
_chemical_formula_structural   Th3Zn2Co3Ge
_chemical_formula_sum   'Th3 Zn2 Co3 Ge1'
_cell_volume   169.70016734
_cell_formula_units_Z   1
loop_
 _symmetry_equiv_pos_site_id
 _symmetry_equiv_pos_as_xyz
  1  'x, y, z'
loop_
 _atom_site_type_symbol
 _atom_site_label
 _atom_site_symmetry_multiplicity
 _atom_site_fract_x
 _atom_site_fract_y
 _atom_site_fract_z
 _atom_site_occupancy
  Th  Th0  1  0.586257  0.001570  0.000000  1
  Th  Th1  1  0.001570  0.586257  0.000000  1
  Th  Th2  1  0.416788  0.416788  0.000000  1
  Zn  Zn3  1  0.236038  0.002138  0.500000  1
  Zn  Zn4  1  0.002138  0.236038  0.500000  1
  Co  Co5  1  0.346984  0.669835  0.500000  1
  Co  Co6  1  0.669835  0.346984  0.500000  1
  Co  Co7  1  0.974421  0.974421  0.000000  1
  Ge  Ge8  1  0.765970  0.765970  0.500000  1
