# generated using pymatgen
data_Ca9Pr3(GeRh)8
_symmetry_space_group_name_H-M   'P 1'
_cell_length_a   5.78897855
_cell_length_b   7.89798618
_cell_length_c   13.53585700
_cell_angle_alpha   90.00000000
_cell_angle_beta   90.00000000
_cell_angle_gamma   90.12906435
_symmetry_Int_Tables_number   1
_chemical_formula_structural   Ca9Pr3(GeRh)8
_chemical_formula_sum   'Ca9 Pr3 Ge8 Rh8'
_cell_volume   618.87503728
_cell_formula_units_Z   1
loop_
 _symmetry_equiv_pos_site_id
 _symmetry_equiv_pos_as_xyz
  1  'x, y, z'
loop_
 _atom_site_type_symbol
 _atom_site_label
 _atom_site_symmetry_multiplicity
 _atom_site_fract_x
 _atom_site_fract_y
 _atom_site_fract_z
 _atom_site_occupancy
  Ca  Ca0  1  0.637796  0.248585  0.250000  1
  Ca  Ca1  1  0.138387  0.392066  0.099374  1
  Ca  Ca2  1  0.860795  0.605127  0.903021  1
  Ca  Ca3  1  0.860795  0.605127  0.596979  1
  Ca  Ca4  1  0.858848  0.897635  0.401635  1
  Ca  Ca5  1  0.138387  0.392066  0.400626  1
  Ca  Ca6  1  0.139656  0.106179  0.598102  1
  Ca  Ca7  1  0.139656  0.106179  0.901898  1
  Ca  Ca8  1  0.858848  0.897635  0.098365  1
  Pr  Pr9  1  0.362343  0.751541  0.750000  1
  Pr  Pr10  1  0.363498  0.748008  0.250000  1
  Pr  Pr11  1  0.636936  0.251182  0.750000  1
  Ge  Ge12  1  0.149817  0.101835  0.250000  1
  Ge  Ge13  1  0.859174  0.895711  0.750000  1
  Ge  Ge14  1  0.854882  0.598020  0.250000  1
  Ge  Ge15  1  0.142275  0.397559  0.750000  1
  Ge  Ge16  1  0.621443  0.250961  0.000291  1
  Ge  Ge17  1  0.379017  0.750188  0.999513  1
  Ge  Ge18  1  0.379017  0.750188  0.500487  1
  Ge  Ge19  1  0.621443  0.250961  0.499709  1
  Rh  Rh20  1  0.369956  0.030295  0.091051  1
  Rh  Rh21  1  0.629860  0.969499  0.908445  1
  Rh  Rh22  1  0.629860  0.969499  0.591555  1
  Rh  Rh23  1  0.627730  0.532944  0.409065  1
  Rh  Rh24  1  0.369956  0.030295  0.408949  1
  Rh  Rh25  1  0.370948  0.468886  0.590595  1
  Rh  Rh26  1  0.370948  0.468886  0.909405  1
  Rh  Rh27  1  0.627730  0.532944  0.090935  1
