# generated using pymatgen
data_Lu4Al18RePt4Rh
_symmetry_space_group_name_H-M   'P 1'
_cell_length_a   7.57206484
_cell_length_b   7.57206540
_cell_length_c   9.40876109
_cell_angle_alpha   89.78642632
_cell_angle_beta   89.78642201
_cell_angle_gamma   119.28833668
_symmetry_Int_Tables_number   1
_chemical_formula_structural   Lu4Al18RePt4Rh
_chemical_formula_sum   'Lu4 Al18 Re1 Pt4 Rh1'
_cell_volume   470.48945196
_cell_formula_units_Z   1
loop_
 _symmetry_equiv_pos_site_id
 _symmetry_equiv_pos_as_xyz
  1  'x, y, z'
loop_
 _atom_site_type_symbol
 _atom_site_label
 _atom_site_symmetry_multiplicity
 _atom_site_fract_x
 _atom_site_fract_y
 _atom_site_fract_z
 _atom_site_occupancy
  Lu  Lu0  1  0.994435  0.673964  0.247347  1
  Lu  Lu1  1  0.005565  0.326036  0.752653  1
  Lu  Lu2  1  0.673964  0.994435  0.247347  1
  Lu  Lu3  1  0.326036  0.005565  0.752653  1
  Al  Al4  1  0.125926  0.125926  0.250437  1
  Al  Al5  1  0.874074  0.874074  0.749563  1
  Al  Al6  1  0.999980  0.331359  0.076703  1
  Al  Al7  1  0.000020  0.668641  0.923297  1
  Al  Al8  1  0.000288  0.667196  0.577662  1
  Al  Al9  1  0.332804  0.999712  0.422338  1
  Al  Al10  1  0.999712  0.332804  0.422338  1
  Al  Al11  1  0.667196  0.000288  0.577662  1
  Al  Al12  1  0.668641  0.000020  0.923297  1
  Al  Al13  1  0.331359  0.999980  0.076703  1
  Al  Al14  1  0.328720  0.328720  0.557554  1
  Al  Al15  1  0.671280  0.671280  0.442446  1
  Al  Al16  1  0.670649  0.670649  0.056471  1
  Al  Al17  1  0.329351  0.329351  0.943529  1
  Al  Al18  1  0.340637  0.547473  0.250047  1
  Al  Al19  1  0.659363  0.452527  0.749953  1
  Al  Al20  1  0.547473  0.340637  0.250047  1
  Al  Al21  1  0.452527  0.659363  0.749953  1
  Re  Re22  1  0.000000  0.000000  0.000000  1
  Pt  Pt23  1  0.672221  0.327779  0.000000  1
  Pt  Pt24  1  0.327779  0.672221  0.000000  1
  Pt  Pt25  1  0.327632  0.672368  0.500000  1
  Pt  Pt26  1  0.672368  0.327632  0.500000  1
  Rh  Rh27  1  0.000000  0.000000  0.500000  1
