# generated using pymatgen
data_Ba13Dy8Zn4PdPt3O37
_symmetry_space_group_name_H-M   'P 1'
_cell_length_a   13.68853104
_cell_length_b   13.68853112
_cell_length_c   13.68853100
_cell_angle_alpha   92.55332153
_cell_angle_beta   92.55332155
_cell_angle_gamma   155.63027545
_symmetry_Int_Tables_number   1
_chemical_formula_structural   Ba13Dy8Zn4PdPt3O37
_chemical_formula_sum   'Ba13 Dy8 Zn4 Pd1 Pt3 O37'
_cell_volume   1034.49480597
_cell_formula_units_Z   1
loop_
 _symmetry_equiv_pos_site_id
 _symmetry_equiv_pos_as_xyz
  1  'x, y, z'
loop_
 _atom_site_type_symbol
 _atom_site_label
 _atom_site_symmetry_multiplicity
 _atom_site_fract_x
 _atom_site_fract_y
 _atom_site_fract_z
 _atom_site_occupancy
  Ba  Ba0  1  0.204130  0.071300  0.275443  1
  Ba  Ba1  1  0.983258  0.608492  0.591759  1
  Ba  Ba2  1  0.637477  0.435853  0.073313  1
  Ba  Ba3  1  0.608673  0.016912  0.625583  1
  Ba  Ba4  1  0.016519  0.391376  0.407907  1
  Ba  Ba5  1  0.362461  0.564080  0.926567  1
  Ba  Ba6  1  0.435836  0.362561  0.798409  1
  Ba  Ba7  1  0.563903  0.637590  0.201493  1
  Ba  Ba8  1  0.928764  0.204472  0.133217  1
  Ba  Ba9  1  0.391640  0.982917  0.374566  1
  Ba  Ba10  1  0.999950  0.999975  0.999924  1
  Ba  Ba11  1  0.071260  0.795796  0.867055  1
  Ba  Ba12  1  0.795775  0.928789  0.724553  1
  Dy  Dy13  1  0.692915  0.238057  0.930978  1
  Dy  Dy14  1  0.816245  0.378396  0.194632  1
  Dy  Dy15  1  0.378396  0.183901  0.562276  1
  Dy  Dy16  1  0.307769  0.762061  0.069823  1
  Dy  Dy17  1  0.238021  0.307230  0.545254  1
  Dy  Dy18  1  0.621129  0.816337  0.437491  1
  Dy  Dy19  1  0.183975  0.621717  0.805710  1
  Dy  Dy20  1  0.761871  0.692926  0.454790  1
  Zn  Zn21  1  0.217995  0.897155  0.115133  1
  Zn  Zn22  1  0.102336  0.218594  0.320922  1
  Zn  Zn23  1  0.782055  0.102816  0.884904  1
  Zn  Zn24  1  0.897252  0.781958  0.679214  1
  Pd  Pd25  1  0.462541  0.799609  0.262142  1
  Pt  Pt26  1  0.799735  0.537643  0.337379  1
  Pt  Pt27  1  0.200203  0.462374  0.662573  1
  Pt  Pt28  1  0.537598  0.200263  0.737862  1
  O  O29  1  0.582765  0.301371  0.884132  1
  O  O30  1  0.527364  0.221698  0.233970  1
  O  O31  1  0.102589  0.516187  0.618775  1
  O  O32  1  0.483841  0.102515  0.586352  1
  O  O33  1  0.068801  0.853565  0.439226  1
  O  O34  1  0.017980  0.429111  0.943204  1
  O  O35  1  0.778115  0.012079  0.304940  1
  O  O36  1  0.982351  0.570997  0.057119  1
  O  O37  1  0.897478  0.483901  0.381370  1
  O  O38  1  0.937496  0.876236  0.813728  1
  O  O39  1  0.074653  0.017862  0.588793  1
  O  O40  1  0.472877  0.778425  0.766011  1
  O  O41  1  0.414558  0.629909  0.560732  1
  O  O42  1  0.585677  0.370435  0.439226  1
  O  O43  1  0.516533  0.897368  0.413900  1
  O  O44  1  0.876117  0.062227  0.938331  1
  O  O45  1  0.146999  0.585733  0.215321  1
  O  O46  1  0.706925  0.473010  0.694455  1
  O  O47  1  0.570934  0.514143  0.588782  1
  O  O48  1  0.853567  0.414378  0.784633  1
  O  O49  1  0.221463  0.987544  0.694453  1
  O  O50  1  0.062643  0.123953  0.186608  1
  O  O51  1  0.629615  0.068348  0.215317  1
  O  O52  1  0.417392  0.698523  0.115911  1
  O  O53  1  0.514079  0.925214  0.943217  1
  O  O54  1  0.698708  0.582801  0.281508  1
  O  O55  1  0.370239  0.931050  0.784633  1
  O  O56  1  0.987609  0.293149  0.766004  1
  O  O57  1  0.012253  0.706596  0.233973  1
  O  O58  1  0.428579  0.485675  0.411002  1
  O  O59  1  0.486123  0.074769  0.057102  1
  O  O60  1  0.499938  0.499887  0.999824  1
  O  O61  1  0.930807  0.146156  0.560727  1
  O  O62  1  0.292840  0.526807  0.304939  1
  O  O63  1  0.123819  0.937538  0.061366  1
  O  O64  1  0.925322  0.982414  0.410994  1
  O  O65  1  0.301268  0.417278  0.718547  1
