# generated using pymatgen
data_Th6FeRhAu6
_symmetry_space_group_name_H-M   'P 1'
_cell_length_a   8.22453695
_cell_length_b   8.22453829
_cell_length_c   8.22453839
_cell_angle_alpha   114.17732402
_cell_angle_beta   114.17731972
_cell_angle_gamma   114.17729743
_symmetry_Int_Tables_number   1
_chemical_formula_structural   Th6FeRhAu6
_chemical_formula_sum   'Th6 Fe1 Rh1 Au6'
_cell_volume   333.51048309
_cell_formula_units_Z   1
loop_
 _symmetry_equiv_pos_site_id
 _symmetry_equiv_pos_as_xyz
  1  'x, y, z'
loop_
 _atom_site_type_symbol
 _atom_site_label
 _atom_site_symmetry_multiplicity
 _atom_site_fract_x
 _atom_site_fract_y
 _atom_site_fract_z
 _atom_site_occupancy
  Th  Th0  1  0.037387  0.380364  0.273654  1
  Th  Th1  1  0.380364  0.273654  0.037387  1
  Th  Th2  1  0.726346  0.962613  0.619636  1
  Th  Th3  1  0.273654  0.037387  0.380364  1
  Th  Th4  1  0.619636  0.726346  0.962613  1
  Th  Th5  1  0.962613  0.619636  0.726346  1
  Fe  Fe6  1  0.000000  0.000000  0.000000  1
  Rh  Rh7  1  0.500000  0.500000  0.500000  1
  Au  Au8  1  0.419644  0.927436  0.763201  1
  Au  Au9  1  0.927436  0.763201  0.419644  1
  Au  Au10  1  0.236799  0.580356  0.072564  1
  Au  Au11  1  0.763201  0.419644  0.927436  1
  Au  Au12  1  0.072564  0.236799  0.580356  1
  Au  Au13  1  0.580356  0.072564  0.236799  1
