# generated using pymatgen
data_NdDy2TeAs2
_symmetry_space_group_name_H-M   'P 1'
_cell_length_a   4.23389700
_cell_length_b   10.54436237
_cell_length_c   7.31813497
_cell_angle_alpha   89.86868896
_cell_angle_beta   90.00000000
_cell_angle_gamma   90.00000000
_symmetry_Int_Tables_number   1
_chemical_formula_structural   NdDy2TeAs2
_chemical_formula_sum   'Nd2 Dy4 Te2 As4'
_cell_volume   326.70808768
_cell_formula_units_Z   2
loop_
 _symmetry_equiv_pos_site_id
 _symmetry_equiv_pos_as_xyz
  1  'x, y, z'
loop_
 _atom_site_type_symbol
 _atom_site_label
 _atom_site_symmetry_multiplicity
 _atom_site_fract_x
 _atom_site_fract_y
 _atom_site_fract_z
 _atom_site_occupancy
  Nd  Nd0  1  0.250000  0.500804  0.248931  1
  Nd  Nd1  1  0.750000  0.499196  0.751069  1
  Dy  Dy2  1  0.250000  0.810179  0.916543  1
  Dy  Dy3  1  0.750000  0.189821  0.083457  1
  Dy  Dy4  1  0.750000  0.807943  0.418578  1
  Dy  Dy5  1  0.250000  0.192057  0.581422  1
  Te  Te6  1  0.750000  0.000823  0.748561  1
  Te  Te7  1  0.250000  0.999177  0.251439  1
  As  As8  1  0.250000  0.667769  0.585164  1
  As  As9  1  0.750000  0.332231  0.414836  1
  As  As10  1  0.750000  0.669865  0.083531  1
  As  As11  1  0.250000  0.330135  0.916469  1
