# generated using pymatgen
data_Tm16TlIn5Co2
_symmetry_space_group_name_H-M   'P 1'
_cell_length_a   10.21132729
_cell_length_b   10.22424017
_cell_length_c   6.93103813
_cell_angle_alpha   89.96363606
_cell_angle_beta   89.99602600
_cell_angle_gamma   119.91303329
_symmetry_Int_Tables_number   1
_chemical_formula_structural   Tm16TlIn5Co2
_chemical_formula_sum   'Tm16 Tl1 In5 Co2'
_cell_volume   627.22296178
_cell_formula_units_Z   1
loop_
 _symmetry_equiv_pos_site_id
 _symmetry_equiv_pos_as_xyz
  1  'x, y, z'
loop_
 _atom_site_type_symbol
 _atom_site_label
 _atom_site_symmetry_multiplicity
 _atom_site_fract_x
 _atom_site_fract_y
 _atom_site_fract_z
 _atom_site_occupancy
  Tm  Tm0  1  0.535052  0.070017  0.513590  1
  Tm  Tm1  1  0.929531  0.464872  0.513220  1
  Tm  Tm2  1  0.535433  0.464898  0.513362  1
  Tm  Tm3  1  0.464733  0.929543  0.013510  1
  Tm  Tm4  1  0.071382  0.534911  0.014648  1
  Tm  Tm5  1  0.463531  0.534809  0.014909  1
  Tm  Tm6  1  0.178769  0.357378  0.719903  1
  Tm  Tm7  1  0.642936  0.820927  0.720139  1
  Tm  Tm8  1  0.178118  0.821010  0.719973  1
  Tm  Tm9  1  0.821277  0.642616  0.217996  1
  Tm  Tm10  1  0.357406  0.178464  0.219873  1
  Tm  Tm11  1  0.820892  0.178561  0.219576  1
  Tm  Tm12  1  0.666414  0.332775  0.903864  1
  Tm  Tm13  1  0.333407  0.666930  0.404636  1
  Tm  Tm14  1  0.000574  0.001212  0.499609  1
  Tm  Tm15  1  0.000778  0.001495  0.001042  1
  Tl  Tl16  1  0.836918  0.673738  0.762563  1
  In  In17  1  0.326009  0.162914  0.760924  1
  In  In18  1  0.837061  0.162909  0.760963  1
  In  In19  1  0.162641  0.325528  0.262076  1
  In  In20  1  0.674196  0.837255  0.261807  1
  In  In21  1  0.162953  0.837096  0.261665  1
  Co  Co22  1  0.666667  0.333540  0.288991  1
  Co  Co23  1  0.333322  0.666602  0.789165  1
