# generated using pymatgen
data_LaPr2Er(MoO6)2
_symmetry_space_group_name_H-M   'P 1'
_cell_length_a   10.25729198
_cell_length_b   10.25729163
_cell_length_c   5.53829725
_cell_angle_alpha   75.04373007
_cell_angle_beta   75.04373674
_cell_angle_gamma   68.66102322
_symmetry_Int_Tables_number   1
_chemical_formula_structural   LaPr2Er(MoO6)2
_chemical_formula_sum   'La2 Pr4 Er2 Mo4 O24'
_cell_volume   515.56186997
_cell_formula_units_Z   2
loop_
 _symmetry_equiv_pos_site_id
 _symmetry_equiv_pos_as_xyz
  1  'x, y, z'
loop_
 _atom_site_type_symbol
 _atom_site_label
 _atom_site_symmetry_multiplicity
 _atom_site_fract_x
 _atom_site_fract_y
 _atom_site_fract_z
 _atom_site_occupancy
  La  La0  1  0.639299  0.360701  0.750000  1
  La  La1  1  0.360701  0.639299  0.250000  1
  Pr  Pr2  1  0.713524  0.946273  0.878109  1
  Pr  Pr3  1  0.286476  0.053727  0.121891  1
  Pr  Pr4  1  0.053727  0.286476  0.621891  1
  Pr  Pr5  1  0.946273  0.713524  0.378109  1
  Er  Er6  1  0.098301  0.901699  0.750000  1
  Er  Er7  1  0.901699  0.098301  0.250000  1
  Mo  Mo8  1  0.506353  0.799268  0.566954  1
  Mo  Mo9  1  0.493647  0.200732  0.433046  1
  Mo  Mo10  1  0.200732  0.493647  0.933046  1
  Mo  Mo11  1  0.799268  0.506353  0.066954  1
  O  O12  1  0.696472  0.160736  0.551338  1
  O  O13  1  0.303528  0.839264  0.448662  1
  O  O14  1  0.839264  0.303528  0.948662  1
  O  O15  1  0.160736  0.696472  0.051338  1
  O  O16  1  0.391612  0.832352  0.877656  1
  O  O17  1  0.608388  0.167648  0.122344  1
  O  O18  1  0.167648  0.608388  0.622344  1
  O  O19  1  0.832352  0.391612  0.377656  1
  O  O20  1  0.677165  0.790878  0.629431  1
  O  O21  1  0.322835  0.209122  0.370569  1
  O  O22  1  0.209122  0.322835  0.870569  1
  O  O23  1  0.790878  0.677165  0.129431  1
  O  O24  1  0.477658  0.074482  0.736660  1
  O  O25  1  0.522342  0.925518  0.263340  1
  O  O26  1  0.925518  0.522342  0.763340  1
  O  O27  1  0.074482  0.477658  0.236660  1
  O  O28  1  0.542543  0.619340  0.524595  1
  O  O29  1  0.457457  0.380660  0.475405  1
  O  O30  1  0.380660  0.457457  0.975405  1
  O  O31  1  0.619340  0.542543  0.024595  1
  O  O32  1  0.894639  0.931824  0.072559  1
  O  O33  1  0.105361  0.068176  0.927441  1
  O  O34  1  0.068176  0.105361  0.427441  1
  O  O35  1  0.931824  0.894639  0.572559  1
