# generated using pymatgen
data_YTm(Zr4Sn3)2
_symmetry_space_group_name_H-M   'P 1'
_cell_length_a   8.69372157
_cell_length_b   8.69372095
_cell_length_c   5.89089800
_cell_angle_alpha   90.00000000
_cell_angle_beta   90.00000000
_cell_angle_gamma   121.09360536
_symmetry_Int_Tables_number   1
_chemical_formula_structural   YTm(Zr4Sn3)2
_chemical_formula_sum   'Y1 Tm1 Zr8 Sn6'
_cell_volume   381.26892672
_cell_formula_units_Z   1
loop_
 _symmetry_equiv_pos_site_id
 _symmetry_equiv_pos_as_xyz
  1  'x, y, z'
loop_
 _atom_site_type_symbol
 _atom_site_label
 _atom_site_symmetry_multiplicity
 _atom_site_fract_x
 _atom_site_fract_y
 _atom_site_fract_z
 _atom_site_occupancy
  Y  Y0  1  0.230043  0.230043  0.750000  1
  Tm  Tm1  1  0.770602  0.770602  0.250000  1
  Zr  Zr2  1  0.000216  0.252908  0.250000  1
  Zr  Zr3  1  0.747221  0.998936  0.750000  1
  Zr  Zr4  1  0.333712  0.665976  0.499816  1
  Zr  Zr5  1  0.252908  0.000216  0.250000  1
  Zr  Zr6  1  0.665976  0.333712  0.499816  1
  Zr  Zr7  1  0.998936  0.747221  0.750000  1
  Zr  Zr8  1  0.333712  0.665976  0.000184  1
  Zr  Zr9  1  0.665976  0.333712  0.000184  1
  Sn  Sn10  1  0.609501  0.609501  0.750000  1
  Sn  Sn11  1  0.392780  0.996356  0.750000  1
  Sn  Sn12  1  0.608025  0.002525  0.250000  1
  Sn  Sn13  1  0.996356  0.392780  0.750000  1
  Sn  Sn14  1  0.391511  0.391511  0.250000  1
  Sn  Sn15  1  0.002525  0.608025  0.250000  1
