# generated using pymatgen
data_Ac2Tb3Ir4
_symmetry_space_group_name_H-M   'P 1'
_cell_length_a   7.69181900
_cell_length_b   7.77767600
_cell_length_c   14.81352900
_cell_angle_alpha   90.00000000
_cell_angle_beta   90.00000000
_cell_angle_gamma   90.00000000
_symmetry_Int_Tables_number   1
_chemical_formula_structural   Ac2Tb3Ir4
_chemical_formula_sum   'Ac8 Tb12 Ir16'
_cell_volume   886.21161062
_cell_formula_units_Z   4
loop_
 _symmetry_equiv_pos_site_id
 _symmetry_equiv_pos_as_xyz
  1  'x, y, z'
loop_
 _atom_site_type_symbol
 _atom_site_label
 _atom_site_symmetry_multiplicity
 _atom_site_fract_x
 _atom_site_fract_y
 _atom_site_fract_z
 _atom_site_occupancy
  Ac  Ac0  1  0.486696  0.179437  0.596865  1
  Ac  Ac1  1  0.986696  0.320563  0.903135  1
  Ac  Ac2  1  0.513304  0.820563  0.096865  1
  Ac  Ac3  1  0.013304  0.679437  0.403135  1
  Ac  Ac4  1  0.513304  0.820563  0.403135  1
  Ac  Ac5  1  0.013304  0.679437  0.096865  1
  Ac  Ac6  1  0.486696  0.179437  0.903135  1
  Ac  Ac7  1  0.986696  0.320563  0.596865  1
  Tb  Tb8  1  0.335792  0.668859  0.622111  1
  Tb  Tb9  1  0.835792  0.831141  0.877889  1
  Tb  Tb10  1  0.664208  0.331141  0.122111  1
  Tb  Tb11  1  0.164208  0.168859  0.377889  1
  Tb  Tb12  1  0.664208  0.331141  0.377889  1
  Tb  Tb13  1  0.164208  0.168859  0.122111  1
  Tb  Tb14  1  0.335792  0.668859  0.877889  1
  Tb  Tb15  1  0.835792  0.831141  0.622111  1
  Tb  Tb16  1  0.668087  0.505687  0.750000  1
  Tb  Tb17  1  0.168087  0.994313  0.750000  1
  Tb  Tb18  1  0.331913  0.494313  0.250000  1
  Tb  Tb19  1  0.831913  0.005687  0.250000  1
  Ir  Ir20  1  0.833405  0.038732  0.456199  1
  Ir  Ir21  1  0.333405  0.461268  0.043801  1
  Ir  Ir22  1  0.166595  0.961268  0.956199  1
  Ir  Ir23  1  0.666595  0.538732  0.543801  1
  Ir  Ir24  1  0.166595  0.961268  0.543801  1
  Ir  Ir25  1  0.666595  0.538732  0.956199  1
  Ir  Ir26  1  0.833405  0.038732  0.043801  1
  Ir  Ir27  1  0.333405  0.461268  0.456199  1
  Ir  Ir28  1  0.289114  0.374292  0.750000  1
  Ir  Ir29  1  0.789114  0.125708  0.750000  1
  Ir  Ir30  1  0.710886  0.625708  0.250000  1
  Ir  Ir31  1  0.210886  0.874292  0.250000  1
  Ir  Ir32  1  0.540549  0.874513  0.750000  1
  Ir  Ir33  1  0.040549  0.625487  0.750000  1
  Ir  Ir34  1  0.459451  0.125487  0.250000  1
  Ir  Ir35  1  0.959451  0.374513  0.250000  1
