# generated using pymatgen
data_YbTm7(B6Os)4
_symmetry_space_group_name_H-M   'P 1'
_cell_length_a   3.61970300
_cell_length_b   9.08697570
_cell_length_c   11.46845514
_cell_angle_alpha   89.92993507
_cell_angle_beta   90.00000000
_cell_angle_gamma   90.00000000
_symmetry_Int_Tables_number   1
_chemical_formula_structural   YbTm7(B6Os)4
_chemical_formula_sum   'Yb1 Tm7 B24 Os4'
_cell_volume   377.22190147
_cell_formula_units_Z   1
loop_
 _symmetry_equiv_pos_site_id
 _symmetry_equiv_pos_as_xyz
  1  'x, y, z'
loop_
 _atom_site_type_symbol
 _atom_site_label
 _atom_site_symmetry_multiplicity
 _atom_site_fract_x
 _atom_site_fract_y
 _atom_site_fract_z
 _atom_site_occupancy
  Yb  Yb0  1  0.000000  0.322569  0.413415  1
  Tm  Tm1  1  0.000000  0.676947  0.585164  1
  Tm  Tm2  1  0.000000  0.821694  0.086535  1
  Tm  Tm3  1  0.000000  0.178824  0.914385  1
  Tm  Tm4  1  0.000000  0.944131  0.372125  1
  Tm  Tm5  1  0.000000  0.057404  0.627182  1
  Tm  Tm6  1  0.000000  0.443277  0.128362  1
  Tm  Tm7  1  0.000000  0.556060  0.873107  1
  B  B8  1  0.500000  0.553893  0.433025  1
  B  B9  1  0.500000  0.446370  0.567095  1
  B  B10  1  0.500000  0.052823  0.065988  1
  B  B11  1  0.500000  0.946320  0.933127  1
  B  B12  1  0.500000  0.748950  0.419797  1
  B  B13  1  0.500000  0.251426  0.580770  1
  B  B14  1  0.500000  0.248103  0.079930  1
  B  B15  1  0.500000  0.751219  0.920127  1
  B  B16  1  0.500000  0.792261  0.266040  1
  B  B17  1  0.500000  0.208779  0.734434  1
  B  B18  1  0.500000  0.290543  0.233478  1
  B  B19  1  0.500000  0.708556  0.766214  1
  B  B20  1  0.500000  0.631855  0.185426  1
  B  B21  1  0.500000  0.368749  0.815565  1
  B  B22  1  0.500000  0.130815  0.314176  1
  B  B23  1  0.500000  0.868650  0.684876  1
  B  B24  1  0.500000  0.982106  0.212113  1
  B  B25  1  0.500000  0.017726  0.786989  1
  B  B26  1  0.500000  0.482941  0.287201  1
  B  B27  1  0.500000  0.517658  0.713166  1
  B  B28  1  0.500000  0.607153  0.029891  1
  B  B29  1  0.500000  0.393129  0.970729  1
  B  B30  1  0.500000  0.103258  0.471243  1
  B  B31  1  0.500000  0.895021  0.529104  1
  Os  Os32  1  0.000000  0.639491  0.320533  1
  Os  Os33  1  0.000000  0.362408  0.680109  1
  Os  Os34  1  0.000000  0.136144  0.177254  1
  Os  Os35  1  0.000000  0.862745  0.821326  1
