# generated using pymatgen
data_Ti14V5Si16Pt
_symmetry_space_group_name_H-M   'P 1'
_cell_length_a   6.60595461
_cell_length_b   6.60527157
_cell_length_c   12.05533920
_cell_angle_alpha   89.78378860
_cell_angle_beta   90.43750136
_cell_angle_gamma   89.81607126
_symmetry_Int_Tables_number   1
_chemical_formula_structural   Ti14V5Si16Pt
_chemical_formula_sum   'Ti14 V5 Si16 Pt1'
_cell_volume   526.00232817
_cell_formula_units_Z   1
loop_
 _symmetry_equiv_pos_site_id
 _symmetry_equiv_pos_as_xyz
  1  'x, y, z'
loop_
 _atom_site_type_symbol
 _atom_site_label
 _atom_site_symmetry_multiplicity
 _atom_site_fract_x
 _atom_site_fract_y
 _atom_site_fract_z
 _atom_site_occupancy
  Ti  Ti0  1  0.003894  0.844219  0.118024  1
  Ti  Ti1  1  0.152438  0.998877  0.376950  1
  Ti  Ti2  1  0.843384  0.002165  0.882545  1
  Ti  Ti3  1  0.002093  0.345789  0.219976  1
  Ti  Ti4  1  0.157718  0.502352  0.469799  1
  Ti  Ti5  1  0.834952  0.495753  0.969591  1
  Ti  Ti6  1  0.501586  0.158368  0.531161  1
  Ti  Ti7  1  0.497133  0.833968  0.029000  1
  Ti  Ti8  1  0.997201  0.658619  0.719238  1
  Ti  Ti9  1  0.346060  0.001374  0.779310  1
  Ti  Ti10  1  0.658100  0.996325  0.282335  1
  Ti  Ti11  1  0.331926  0.669228  0.248001  1
  Ti  Ti12  1  0.667758  0.330464  0.751232  1
  Ti  Ti13  1  0.831499  0.831335  0.500908  1
  V  V14  1  0.994857  0.151979  0.622911  1
  V  V15  1  0.351823  0.496293  0.867779  1
  V  V16  1  0.652425  0.506172  0.372394  1
  V  V17  1  0.498128  0.354515  0.130756  1
  V  V18  1  0.505900  0.650565  0.628472  1
  Si  Si19  1  0.045969  0.300265  0.813078  1
  Si  Si20  1  0.208259  0.541414  0.059191  1
  Si  Si21  1  0.797710  0.456606  0.563552  1
  Si  Si22  1  0.541610  0.208146  0.939949  1
  Si  Si23  1  0.457600  0.796091  0.438113  1
  Si  Si24  1  0.955155  0.698996  0.313975  1
  Si  Si25  1  0.303943  0.047573  0.184522  1
  Si  Si26  1  0.701773  0.955584  0.686520  1
  Si  Si27  1  0.291394  0.363620  0.672281  1
  Si  Si28  1  0.136248  0.778525  0.917175  1
  Si  Si29  1  0.859970  0.211017  0.423933  1
  Si  Si30  1  0.778068  0.134941  0.083283  1
  Si  Si31  1  0.209811  0.864661  0.578811  1
  Si  Si32  1  0.706254  0.636826  0.174306  1
  Si  Si33  1  0.365867  0.296744  0.326280  1
  Si  Si34  1  0.635113  0.705186  0.825674  1
  Pt  Pt35  1  0.176382  0.175443  0.998973  1
