# generated using pymatgen
data_Dy7HoTi11Si16Ir
_symmetry_space_group_name_H-M   'P 1'
_cell_length_a   7.03089817
_cell_length_b   7.03059957
_cell_length_c   12.86909401
_cell_angle_alpha   89.88161472
_cell_angle_beta   90.12345383
_cell_angle_gamma   89.85227153
_symmetry_Int_Tables_number   1
_chemical_formula_structural   Dy7HoTi11Si16Ir
_chemical_formula_sum   'Dy7 Ho1 Ti11 Si16 Ir1'
_cell_volume   636.13275872
_cell_formula_units_Z   1
loop_
 _symmetry_equiv_pos_site_id
 _symmetry_equiv_pos_as_xyz
  1  'x, y, z'
loop_
 _atom_site_type_symbol
 _atom_site_label
 _atom_site_symmetry_multiplicity
 _atom_site_fract_x
 _atom_site_fract_y
 _atom_site_fract_z
 _atom_site_occupancy
  Dy  Dy0  1  0.001974  0.341899  0.531375  1
  Dy  Dy1  1  0.659748  0.995895  0.967400  1
  Dy  Dy2  1  0.158724  0.503376  0.781834  1
  Dy  Dy3  1  0.841069  0.499386  0.285035  1
  Dy  Dy4  1  0.503335  0.158760  0.218183  1
  Dy  Dy5  1  0.499368  0.841052  0.714943  1
  Dy  Dy6  1  0.341869  0.001947  0.468630  1
  Ho  Ho7  1  0.996095  0.659620  0.032643  1
  Ti  Ti8  1  0.343129  0.506173  0.375092  1
  Ti  Ti9  1  0.850137  0.997080  0.376261  1
  Ti  Ti10  1  0.006269  0.151547  0.124831  1
  Ti  Ti11  1  0.997105  0.850114  0.623744  1
  Ti  Ti12  1  0.506163  0.343153  0.624895  1
  Ti  Ti13  1  0.151569  0.006217  0.875177  1
  Ti  Ti14  1  0.824362  0.172689  0.748205  1
  Ti  Ti15  1  0.172706  0.824321  0.251769  1
  Ti  Ti16  1  0.326329  0.326429  0.000009  1
  Ti  Ti17  1  0.493297  0.650795  0.128062  1
  Ti  Ti18  1  0.650810  0.493339  0.871946  1
  Si  Si19  1  0.048489  0.713454  0.435865  1
  Si  Si20  1  0.952145  0.291508  0.934248  1
  Si  Si21  1  0.713488  0.048433  0.564172  1
  Si  Si22  1  0.207893  0.452966  0.184237  1
  Si  Si23  1  0.790094  0.550346  0.681558  1
  Si  Si24  1  0.452845  0.207953  0.815703  1
  Si  Si25  1  0.550291  0.790057  0.318430  1
  Si  Si26  1  0.291269  0.952021  0.065800  1
  Si  Si27  1  0.797980  0.867888  0.185589  1
  Si  Si28  1  0.298727  0.627053  0.565954  1
  Si  Si29  1  0.704190  0.369263  0.065578  1
  Si  Si30  1  0.627031  0.298776  0.434037  1
  Si  Si31  1  0.369007  0.704092  0.934466  1
  Si  Si32  1  0.131114  0.203393  0.315894  1
  Si  Si33  1  0.203352  0.131080  0.684093  1
  Si  Si34  1  0.867997  0.797880  0.814352  1
  Ir  Ir35  1  0.670031  0.670045  0.499990  1
