# generated using pymatgen
data_Nd16AlCd(HgIr2)2
_symmetry_space_group_name_H-M   'P 1'
_cell_length_a   9.90990757
_cell_length_b   9.91949896
_cell_length_c   9.91950070
_cell_angle_alpha   60.09151613
_cell_angle_beta   60.09365348
_cell_angle_gamma   60.09365503
_symmetry_Int_Tables_number   1
_chemical_formula_structural   Nd16AlCd(HgIr2)2
_chemical_formula_sum   'Nd16 Al1 Cd1 Hg2 Ir4'
_cell_volume   690.95188771
_cell_formula_units_Z   1
loop_
 _symmetry_equiv_pos_site_id
 _symmetry_equiv_pos_as_xyz
  1  'x, y, z'
loop_
 _atom_site_type_symbol
 _atom_site_label
 _atom_site_symmetry_multiplicity
 _atom_site_fract_x
 _atom_site_fract_y
 _atom_site_fract_z
 _atom_site_occupancy
  Nd  Nd0  1  0.348778  0.348483  0.348483  1
  Nd  Nd1  1  0.350789  0.350634  0.950637  1
  Nd  Nd2  1  0.350789  0.950637  0.350634  1
  Nd  Nd3  1  0.949538  0.350983  0.350983  1
  Nd  Nd4  1  0.808490  0.190975  0.190975  1
  Nd  Nd5  1  0.191429  0.807414  0.807414  1
  Nd  Nd6  1  0.189878  0.809252  0.190590  1
  Nd  Nd7  1  0.806750  0.192250  0.806914  1
  Nd  Nd8  1  0.189878  0.190590  0.809252  1
  Nd  Nd9  1  0.806750  0.806914  0.192250  1
  Nd  Nd10  1  0.936812  0.562028  0.562028  1
  Nd  Nd11  1  0.560266  0.939768  0.939768  1
  Nd  Nd12  1  0.561349  0.938775  0.561761  1
  Nd  Nd13  1  0.938486  0.560782  0.940260  1
  Nd  Nd14  1  0.561349  0.561761  0.938775  1
  Nd  Nd15  1  0.938486  0.940260  0.560782  1
  Al  Al16  1  0.579180  0.578346  0.578346  1
  Cd  Cd17  1  0.263762  0.579933  0.579933  1
  Hg  Hg18  1  0.582825  0.585103  0.253241  1
  Hg  Hg19  1  0.582825  0.253241  0.585103  1
  Ir  Ir20  1  0.141830  0.142012  0.142012  1
  Ir  Ir21  1  0.142237  0.142294  0.575235  1
  Ir  Ir22  1  0.142237  0.575235  0.142294  1
  Ir  Ir23  1  0.575284  0.142331  0.142331  1
