# generated using pymatgen
data_Sm6ZnIr17
_symmetry_space_group_name_H-M   'P 1'
_cell_length_a   5.39093200
_cell_length_b   5.39093281
_cell_length_c   17.46272300
_cell_angle_alpha   90.00000000
_cell_angle_beta   90.00000000
_cell_angle_gamma   119.99999502
_symmetry_Int_Tables_number   1
_chemical_formula_structural   Sm6ZnIr17
_chemical_formula_sum   'Sm6 Zn1 Ir17'
_cell_volume   439.51165034
_cell_formula_units_Z   1
loop_
 _symmetry_equiv_pos_site_id
 _symmetry_equiv_pos_as_xyz
  1  'x, y, z'
loop_
 _atom_site_type_symbol
 _atom_site_label
 _atom_site_symmetry_multiplicity
 _atom_site_fract_x
 _atom_site_fract_y
 _atom_site_fract_z
 _atom_site_occupancy
  Sm  Sm0  1  0.333333  0.666667  0.538419  1
  Sm  Sm1  1  0.666667  0.333333  0.041242  1
  Sm  Sm2  1  0.666667  0.333333  0.458758  1
  Sm  Sm3  1  0.333333  0.666667  0.961581  1
  Sm  Sm4  1  0.333333  0.666667  0.750000  1
  Sm  Sm5  1  0.666667  0.333333  0.250000  1
  Zn  Zn6  1  0.000000  0.000000  0.250000  1
  Ir  Ir7  1  0.167217  0.334432  0.127853  1
  Ir  Ir8  1  0.833053  0.666105  0.626771  1
  Ir  Ir9  1  0.665568  0.832783  0.127853  1
  Ir  Ir10  1  0.167217  0.832783  0.127853  1
  Ir  Ir11  1  0.833053  0.166947  0.626771  1
  Ir  Ir12  1  0.333895  0.166947  0.626771  1
  Ir  Ir13  1  0.833053  0.666105  0.873229  1
  Ir  Ir14  1  0.833053  0.166947  0.873229  1
  Ir  Ir15  1  0.333895  0.166947  0.873229  1
  Ir  Ir16  1  0.665568  0.832783  0.372147  1
  Ir  Ir17  1  0.167217  0.832783  0.372147  1
  Ir  Ir18  1  0.167217  0.334432  0.372147  1
  Ir  Ir19  1  0.000000  0.000000  0.750000  1
  Ir  Ir20  1  0.333333  0.666667  0.250000  1
  Ir  Ir21  1  0.666667  0.333333  0.750000  1
  Ir  Ir22  1  0.000000  0.000000  0.002110  1
  Ir  Ir23  1  0.000000  0.000000  0.497890  1
