# generated using pymatgen
data_Lu4Re3Os4W
_symmetry_space_group_name_H-M   'P 1'
_cell_length_a   5.39097000
_cell_length_b   5.27860293
_cell_length_c   8.88148200
_cell_angle_alpha   90.00000000
_cell_angle_beta   90.00000000
_cell_angle_gamma   120.70671163
_symmetry_Int_Tables_number   1
_chemical_formula_structural   Lu4Re3Os4W
_chemical_formula_sum   'Lu4 Re3 Os4 W1'
_cell_volume   217.30262963
_cell_formula_units_Z   1
loop_
 _symmetry_equiv_pos_site_id
 _symmetry_equiv_pos_as_xyz
  1  'x, y, z'
loop_
 _atom_site_type_symbol
 _atom_site_label
 _atom_site_symmetry_multiplicity
 _atom_site_fract_x
 _atom_site_fract_y
 _atom_site_fract_z
 _atom_site_occupancy
  Lu  Lu0  1  0.332997  0.665994  0.435321  1
  Lu  Lu1  1  0.669901  0.339803  0.564182  1
  Lu  Lu2  1  0.669901  0.339803  0.935818  1
  Lu  Lu3  1  0.332997  0.665994  0.064679  1
  Re  Re4  1  0.343456  0.169905  0.250000  1
  Re  Re5  1  0.828608  0.657216  0.250000  1
  Re  Re6  1  0.826450  0.169905  0.250000  1
  Os  Os7  1  0.173615  0.824342  0.750000  1
  Os  Os8  1  0.650725  0.824342  0.750000  1
  Os  Os9  1  0.003613  0.007227  0.001280  1
  Os  Os10  1  0.003613  0.007227  0.498720  1
  W  W11  1  0.164123  0.328246  0.750000  1
