# generated using pymatgen
data_Dy8CrTc3C8
_symmetry_space_group_name_H-M   'P 1'
_cell_length_a   5.08959100
_cell_length_b   6.54588695
_cell_length_c   9.84656414
_cell_angle_alpha   90.13521982
_cell_angle_beta   90.00000000
_cell_angle_gamma   90.00000000
_symmetry_Int_Tables_number   1
_chemical_formula_structural   Dy8CrTc3C8
_chemical_formula_sum   'Dy8 Cr1 Tc3 C8'
_cell_volume   328.04610788
_cell_formula_units_Z   1
loop_
 _symmetry_equiv_pos_site_id
 _symmetry_equiv_pos_as_xyz
  1  'x, y, z'
loop_
 _atom_site_type_symbol
 _atom_site_label
 _atom_site_symmetry_multiplicity
 _atom_site_fract_x
 _atom_site_fract_y
 _atom_site_fract_z
 _atom_site_occupancy
  Dy  Dy0  1  0.250000  0.683184  0.558351  1
  Dy  Dy1  1  0.750000  0.319912  0.444766  1
  Dy  Dy2  1  0.750000  0.816965  0.053807  1
  Dy  Dy3  1  0.250000  0.176696  0.943628  1
  Dy  Dy4  1  0.250000  0.531831  0.215142  1
  Dy  Dy5  1  0.750000  0.469508  0.782064  1
  Dy  Dy6  1  0.750000  0.970375  0.716830  1
  Dy  Dy7  1  0.250000  0.032401  0.284690  1
  Cr  Cr8  1  0.250000  0.724435  0.862264  1
  Tc  Tc9  1  0.750000  0.277735  0.134990  1
  Tc  Tc10  1  0.750000  0.778936  0.365591  1
  Tc  Tc11  1  0.250000  0.224193  0.637525  1
  C  C12  1  0.250000  0.462636  0.763315  1
  C  C13  1  0.750000  0.545684  0.241313  1
  C  C14  1  0.750000  0.044236  0.258406  1
  C  C15  1  0.250000  0.950707  0.744283  1
  C  C16  1  0.250000  0.811712  0.038785  1
  C  C17  1  0.750000  0.178823  0.951555  1
  C  C18  1  0.750000  0.679731  0.549572  1
  C  C19  1  0.250000  0.320303  0.453121  1
