# generated using pymatgen
data_Cs12Li4Si15Ge
_symmetry_space_group_name_H-M   'P 1'
_cell_length_a   8.15886817
_cell_length_b   10.19208400
_cell_length_c   13.44044370
_cell_angle_alpha   90.00000000
_cell_angle_beta   89.96062457
_cell_angle_gamma   90.00000000
_symmetry_Int_Tables_number   1
_chemical_formula_structural   Cs12Li4Si15Ge
_chemical_formula_sum   'Cs12 Li4 Si15 Ge1'
_cell_volume   1117.65152104
_cell_formula_units_Z   1
loop_
 _symmetry_equiv_pos_site_id
 _symmetry_equiv_pos_as_xyz
  1  'x, y, z'
loop_
 _atom_site_type_symbol
 _atom_site_label
 _atom_site_symmetry_multiplicity
 _atom_site_fract_x
 _atom_site_fract_y
 _atom_site_fract_z
 _atom_site_occupancy
  Cs  Cs0  1  0.653914  0.445569  0.694098  1
  Cs  Cs1  1  0.152795  0.056358  0.806142  1
  Cs  Cs2  1  0.345853  0.945488  0.306365  1
  Cs  Cs3  1  0.845523  0.554603  0.193888  1
  Cs  Cs4  1  0.345853  0.554512  0.306365  1
  Cs  Cs5  1  0.845523  0.945397  0.193888  1
  Cs  Cs6  1  0.653914  0.054431  0.694098  1
  Cs  Cs7  1  0.152795  0.443642  0.806142  1
  Cs  Cs8  1  0.649552  0.250000  0.402343  1
  Cs  Cs9  1  0.149112  0.250000  0.097886  1
  Cs  Cs10  1  0.350401  0.750000  0.596820  1
  Cs  Cs11  1  0.853020  0.750000  0.902891  1
  Li  Li12  1  0.500081  0.499063  0.000972  1
  Li  Li13  1  0.999928  0.999978  0.500070  1
  Li  Li14  1  0.500081  0.000937  0.000972  1
  Li  Li15  1  0.999928  0.500022  0.500070  1
  Si  Si16  1  0.868280  0.750000  0.590516  1
  Si  Si17  1  0.631615  0.250000  0.090466  1
  Si  Si18  1  0.131987  0.250000  0.409536  1
  Si  Si19  1  0.734590  0.632983  0.453474  1
  Si  Si20  1  0.234285  0.867059  0.047894  1
  Si  Si21  1  0.265444  0.132978  0.546683  1
  Si  Si22  1  0.765767  0.367030  0.953516  1
  Si  Si23  1  0.008723  0.250000  0.576375  1
  Si  Si24  1  0.509356  0.250000  0.923331  1
  Si  Si25  1  0.991175  0.750000  0.423494  1
  Si  Si26  1  0.490937  0.750000  0.077145  1
  Si  Si27  1  0.234285  0.632941  0.047894  1
  Si  Si28  1  0.734590  0.867017  0.453474  1
  Si  Si29  1  0.765767  0.132970  0.953516  1
  Si  Si30  1  0.265444  0.367022  0.546683  1
  Ge  Ge31  1  0.369491  0.750000  0.902996  1
