# generated using pymatgen
data_Ho7ErSiPd24
_symmetry_space_group_name_H-M   'P 1'
_cell_length_a   8.30997300
_cell_length_b   8.30997300
_cell_length_c   8.30997300
_cell_angle_alpha   89.99936567
_cell_angle_beta   90.00063433
_cell_angle_gamma   90.00063433
_symmetry_Int_Tables_number   1
_chemical_formula_structural   Ho7ErSiPd24
_chemical_formula_sum   'Ho7 Er1 Si1 Pd24'
_cell_volume   573.85059742
_cell_formula_units_Z   1
loop_
 _symmetry_equiv_pos_site_id
 _symmetry_equiv_pos_as_xyz
  1  'x, y, z'
loop_
 _atom_site_type_symbol
 _atom_site_label
 _atom_site_symmetry_multiplicity
 _atom_site_fract_x
 _atom_site_fract_y
 _atom_site_fract_z
 _atom_site_occupancy
  Ho  Ho0  1  0.253755  0.253745  0.253745  1
  Ho  Ho1  1  0.746260  0.746261  0.746261  1
  Ho  Ho2  1  0.746255  0.746245  0.253745  1
  Ho  Ho3  1  0.746255  0.253745  0.746245  1
  Ho  Ho4  1  0.253739  0.253740  0.746261  1
  Ho  Ho5  1  0.253739  0.746261  0.253740  1
  Ho  Ho6  1  0.253744  0.746256  0.746256  1
  Er  Er7  1  0.746235  0.253765  0.253765  1
  Si  Si8  1  0.000004  0.999996  0.999996  1
  Pd  Pd9  1  0.257146  0.499996  0.000005  1
  Pd  Pd10  1  0.742850  0.499895  0.000114  1
  Pd  Pd11  1  0.999886  0.257150  0.499895  1
  Pd  Pd12  1  0.500105  0.257150  0.000114  1
  Pd  Pd13  1  0.999995  0.742854  0.499996  1
  Pd  Pd14  1  0.500004  0.742854  0.000005  1
  Pd  Pd15  1  0.500105  0.000114  0.257150  1
  Pd  Pd16  1  0.257146  0.000005  0.499996  1
  Pd  Pd17  1  0.500004  0.000005  0.742854  1
  Pd  Pd18  1  0.742850  0.000114  0.499895  1
  Pd  Pd19  1  0.999886  0.499895  0.257150  1
  Pd  Pd20  1  0.999995  0.499996  0.742854  1
  Pd  Pd21  1  0.252052  0.499994  0.499994  1
  Pd  Pd22  1  0.747945  0.499878  0.499878  1
  Pd  Pd23  1  0.500122  0.252055  0.499878  1
  Pd  Pd24  1  0.500006  0.747948  0.499994  1
  Pd  Pd25  1  0.500122  0.499878  0.252055  1
  Pd  Pd26  1  0.500006  0.499994  0.747948  1
  Pd  Pd27  1  0.280053  0.000003  0.000003  1
  Pd  Pd28  1  0.719970  0.000115  0.000115  1
  Pd  Pd29  1  0.999885  0.280030  0.000115  1
  Pd  Pd30  1  0.999997  0.719947  0.000003  1
  Pd  Pd31  1  0.999885  0.000115  0.280030  1
  Pd  Pd32  1  0.999997  0.000003  0.719947  1
