# generated using pymatgen
data_Li2Pr3CdAg2Ir
_symmetry_space_group_name_H-M   'P 1'
_cell_length_a   7.87369988
_cell_length_b   7.80345291
_cell_length_c   4.02369600
_cell_angle_alpha   90.00000000
_cell_angle_beta   90.00000000
_cell_angle_gamma   119.18088914
_symmetry_Int_Tables_number   1
_chemical_formula_structural   Li2Pr3CdAg2Ir
_chemical_formula_sum   'Li2 Pr3 Cd1 Ag2 Ir1'
_cell_volume   215.84760595
_cell_formula_units_Z   1
loop_
 _symmetry_equiv_pos_site_id
 _symmetry_equiv_pos_as_xyz
  1  'x, y, z'
loop_
 _atom_site_type_symbol
 _atom_site_label
 _atom_site_symmetry_multiplicity
 _atom_site_fract_x
 _atom_site_fract_y
 _atom_site_fract_z
 _atom_site_occupancy
  Li  Li0  1  0.246513  0.000992  0.000000  1
  Li  Li1  1  0.996509  0.242517  0.000000  1
  Pr  Pr2  1  0.430553  0.402957  0.500000  1
  Pr  Pr3  1  0.600991  0.020342  0.500000  1
  Pr  Pr4  1  0.965931  0.569953  0.500000  1
  Cd  Cd5  1  0.752302  0.756358  0.000000  1
  Ag  Ag6  1  0.324861  0.663926  0.000000  1
  Ag  Ag7  1  0.016602  0.015052  0.500000  1
  Ir  Ir8  1  0.665740  0.327903  0.000000  1
