# generated using pymatgen
data_TbLuP7(Rh3W)3
_symmetry_space_group_name_H-M   'P 1'
_cell_length_a   3.93483306
_cell_length_b   9.50403385
_cell_length_c   9.50345502
_cell_angle_alpha   119.99899506
_cell_angle_beta   90.00021299
_cell_angle_gamma   89.99933700
_symmetry_Int_Tables_number   1
_chemical_formula_structural   TbLuP7(Rh3W)3
_chemical_formula_sum   'Tb1 Lu1 P7 Rh9 W3'
_cell_volume   307.78740159
_cell_formula_units_Z   1
loop_
 _symmetry_equiv_pos_site_id
 _symmetry_equiv_pos_as_xyz
  1  'x, y, z'
loop_
 _atom_site_type_symbol
 _atom_site_label
 _atom_site_symmetry_multiplicity
 _atom_site_fract_x
 _atom_site_fract_y
 _atom_site_fract_z
 _atom_site_occupancy
  Tb  Tb0  1  0.261736  0.666613  0.333255  1
  Lu  Lu1  1  0.762516  0.333337  0.666689  1
  P  P2  1  0.261664  0.999999  0.999927  1
  P  P3  1  0.762014  0.881018  0.592014  1
  P  P4  1  0.762015  0.407979  0.289008  1
  P  P5  1  0.762024  0.710973  0.118913  1
  P  P6  1  0.261915  0.119598  0.413383  1
  P  P7  1  0.261918  0.586675  0.706259  1
  P  P8  1  0.261862  0.293803  0.880448  1
  Rh  Rh9  1  0.261785  0.886401  0.159740  1
  Rh  Rh10  1  0.261769  0.840194  0.726468  1
  Rh  Rh11  1  0.261763  0.273419  0.113713  1
  Rh  Rh12  1  0.761882  0.613329  0.560012  1
  Rh  Rh13  1  0.761853  0.439875  0.053201  1
  Rh  Rh14  1  0.761896  0.946621  0.386625  1
  Rh  Rh15  1  0.262028  0.370617  0.440272  1
  Rh  Rh16  1  0.262001  0.559887  0.930458  1
  Rh  Rh17  1  0.262047  0.069631  0.629470  1
  W  W18  1  0.761781  0.090600  0.869843  1
  W  W19  1  0.761767  0.130281  0.221018  1
  W  W20  1  0.761761  0.779150  0.909281  1
