# generated using pymatgen
data_Zr2PaAl2GaRh3
_symmetry_space_group_name_H-M   'P 1'
_cell_length_a   7.15559897
_cell_length_b   7.13970278
_cell_length_c   3.68123200
_cell_angle_alpha   90.00000000
_cell_angle_beta   90.00000000
_cell_angle_gamma   120.26920296
_symmetry_Int_Tables_number   1
_chemical_formula_structural   Zr2PaAl2GaRh3
_chemical_formula_sum   'Zr2 Pa1 Al2 Ga1 Rh3'
_cell_volume   162.42970157
_cell_formula_units_Z   1
loop_
 _symmetry_equiv_pos_site_id
 _symmetry_equiv_pos_as_xyz
  1  'x, y, z'
loop_
 _atom_site_type_symbol
 _atom_site_label
 _atom_site_symmetry_multiplicity
 _atom_site_fract_x
 _atom_site_fract_y
 _atom_site_fract_z
 _atom_site_occupancy
  Zr  Zr0  1  0.599519  0.595573  0.500000  1
  Zr  Zr1  1  0.404201  0.994279  0.500000  1
  Pa  Pa2  1  0.998072  0.412103  0.500000  1
  Al  Al3  1  0.003228  0.769599  0.000000  1
  Al  Al4  1  0.272026  0.250739  0.000000  1
  Ga  Ga5  1  0.723631  0.980354  0.000000  1
  Rh  Rh6  1  0.310944  0.647428  0.000000  1
  Rh  Rh7  1  0.683700  0.339336  0.000000  1
  Rh  Rh8  1  0.004678  0.010589  0.500000  1
