# generated using pymatgen
data_Yb6SmLu(Si4Mo3)4
_symmetry_space_group_name_H-M   'P 1'
_cell_length_a   6.73732662
_cell_length_b   6.93517586
_cell_length_c   13.02241709
_cell_angle_alpha   89.89649644
_cell_angle_beta   89.99726615
_cell_angle_gamma   89.94872684
_symmetry_Int_Tables_number   1
_chemical_formula_structural   Yb6SmLu(Si4Mo3)4
_chemical_formula_sum   'Yb6 Sm1 Lu1 Si16 Mo12'
_cell_volume   608.46527543
_cell_formula_units_Z   1
loop_
 _symmetry_equiv_pos_site_id
 _symmetry_equiv_pos_as_xyz
  1  'x, y, z'
loop_
 _atom_site_type_symbol
 _atom_site_label
 _atom_site_symmetry_multiplicity
 _atom_site_fract_x
 _atom_site_fract_y
 _atom_site_fract_z
 _atom_site_occupancy
  Yb  Yb0  1  0.498099  0.334811  0.090343  1
  Yb  Yb1  1  0.998146  0.165180  0.409615  1
  Yb  Yb2  1  0.501536  0.667285  0.593303  1
  Yb  Yb3  1  0.000831  0.831118  0.907798  1
  Yb  Yb4  1  0.500899  0.666983  0.909042  1
  Yb  Yb5  1  0.001910  0.833409  0.592196  1
  Sm  Sm6  1  0.500317  0.333298  0.407538  1
  Lu  Lu7  1  0.998450  0.169338  0.092695  1
  Si  Si8  1  0.658787  0.040271  0.546378  1
  Si  Si9  1  0.158631  0.457059  0.955399  1
  Si  Si10  1  0.339274  0.958901  0.045430  1
  Si  Si11  1  0.844134  0.545764  0.454841  1
  Si  Si12  1  0.340780  0.953205  0.455175  1
  Si  Si13  1  0.841268  0.541756  0.044898  1
  Si  Si14  1  0.660235  0.041744  0.955216  1
  Si  Si15  1  0.158057  0.458084  0.546626  1
  Si  Si16  1  0.535293  0.372840  0.751147  1
  Si  Si17  1  0.035132  0.125980  0.749957  1
  Si  Si18  1  0.464117  0.633492  0.247704  1
  Si  Si19  1  0.965282  0.870778  0.249548  1
  Si  Si20  1  0.801039  0.629489  0.750412  1
  Si  Si21  1  0.300845  0.869195  0.750762  1
  Si  Si22  1  0.195299  0.369066  0.248150  1
  Si  Si23  1  0.699615  0.130114  0.248027  1
  Mo  Mo24  1  0.833945  0.331537  0.627685  1
  Mo  Mo25  1  0.333506  0.168059  0.873494  1
  Mo  Mo26  1  0.165585  0.667854  0.125848  1
  Mo  Mo27  1  0.666286  0.833660  0.372342  1
  Mo  Mo28  1  0.166894  0.666832  0.371734  1
  Mo  Mo29  1  0.669079  0.834512  0.126065  1
  Mo  Mo30  1  0.835950  0.329481  0.873914  1
  Mo  Mo31  1  0.335080  0.168212  0.627722  1
  Mo  Mo32  1  0.661802  0.008194  0.750551  1
  Mo  Mo33  1  0.161693  0.490516  0.750683  1
  Mo  Mo34  1  0.335291  0.996158  0.249333  1
  Mo  Mo35  1  0.836911  0.505825  0.248433  1
