# generated using pymatgen
data_ErTm15(In3Au)2
_symmetry_space_group_name_H-M   'P 1'
_cell_length_a   10.47939500
_cell_length_b   10.48156658
_cell_length_c   6.80539701
_cell_angle_alpha   90.00523064
_cell_angle_beta   90.00000000
_cell_angle_gamma   119.99314359
_symmetry_Int_Tables_number   1
_chemical_formula_structural   ErTm15(In3Au)2
_chemical_formula_sum   'Er1 Tm15 In6 Au2'
_cell_volume   647.40567828
_cell_formula_units_Z   1
loop_
 _symmetry_equiv_pos_site_id
 _symmetry_equiv_pos_as_xyz
  1  'x, y, z'
loop_
 _atom_site_type_symbol
 _atom_site_label
 _atom_site_symmetry_multiplicity
 _atom_site_fract_x
 _atom_site_fract_y
 _atom_site_fract_z
 _atom_site_occupancy
  Er  Er0  1  0.522891  0.045783  0.518691  1
  Tm  Tm1  1  0.953798  0.476838  0.518638  1
  Tm  Tm2  1  0.523040  0.476838  0.518638  1
  Tm  Tm3  1  0.476944  0.953887  0.018642  1
  Tm  Tm4  1  0.046145  0.523087  0.018597  1
  Tm  Tm5  1  0.476943  0.523087  0.018597  1
  Tm  Tm6  1  0.172923  0.345846  0.734098  1
  Tm  Tm7  1  0.654247  0.826967  0.734224  1
  Tm  Tm8  1  0.172719  0.826967  0.734224  1
  Tm  Tm9  1  0.827128  0.654256  0.234069  1
  Tm  Tm10  1  0.345753  0.172948  0.233902  1
  Tm  Tm11  1  0.827195  0.172948  0.233902  1
  Tm  Tm12  1  0.666762  0.333523  0.874969  1
  Tm  Tm13  1  0.333215  0.666430  0.374718  1
  Tm  Tm14  1  0.999984  0.999967  0.496616  1
  Tm  Tm15  1  0.000022  0.000043  0.996660  1
  In  In16  1  0.835791  0.671581  0.753871  1
  In  In17  1  0.328288  0.164259  0.754056  1
  In  In18  1  0.835971  0.164259  0.754056  1
  In  In19  1  0.164204  0.328408  0.253921  1
  In  In20  1  0.671589  0.835811  0.253937  1
  In  In21  1  0.164222  0.835811  0.253937  1
  Au  Au22  1  0.666895  0.333790  0.287413  1
  Au  Au23  1  0.333333  0.666666  0.787631  1
