# generated using pymatgen
data_Nd9Sm2In9Pd4
_symmetry_space_group_name_H-M   'P 1'
_cell_length_a   13.50915802
_cell_length_b   13.50915682
_cell_length_c   3.78634100
_cell_angle_alpha   90.00000000
_cell_angle_beta   90.00000000
_cell_angle_gamma   111.14670210
_symmetry_Int_Tables_number   1
_chemical_formula_structural   Nd9Sm2In9Pd4
_chemical_formula_sum   'Nd9 Sm2 In9 Pd4'
_cell_volume   644.46524599
_cell_formula_units_Z   1
loop_
 _symmetry_equiv_pos_site_id
 _symmetry_equiv_pos_as_xyz
  1  'x, y, z'
loop_
 _atom_site_type_symbol
 _atom_site_label
 _atom_site_symmetry_multiplicity
 _atom_site_fract_x
 _atom_site_fract_y
 _atom_site_fract_z
 _atom_site_occupancy
  Nd  Nd0  1  0.417178  0.070090  0.000000  1
  Nd  Nd1  1  0.582822  0.929910  0.000000  1
  Nd  Nd2  1  0.070090  0.417178  0.000000  1
  Nd  Nd3  1  0.929910  0.582822  0.000000  1
  Nd  Nd4  1  0.158615  0.841385  0.000000  1
  Nd  Nd5  1  0.841385  0.158615  0.000000  1
  Nd  Nd6  1  0.371023  0.628977  0.000000  1
  Nd  Nd7  1  0.628977  0.371023  0.000000  1
  Nd  Nd8  1  0.000000  0.000000  0.000000  1
  Sm  Sm9  1  0.309789  0.309789  0.000000  1
  Sm  Sm10  1  0.690211  0.690211  0.000000  1
  In  In11  1  0.366961  0.839114  0.500000  1
  In  In12  1  0.633039  0.160886  0.500000  1
  In  In13  1  0.839114  0.366961  0.500000  1
  In  In14  1  0.160886  0.633039  0.500000  1
  In  In15  1  0.219931  0.078793  0.500000  1
  In  In16  1  0.780069  0.921207  0.500000  1
  In  In17  1  0.078793  0.219931  0.500000  1
  In  In18  1  0.921207  0.780069  0.500000  1
  In  In19  1  0.500000  0.500000  0.500000  1
  Pd  Pd20  1  0.448166  0.249361  0.500000  1
  Pd  Pd21  1  0.551834  0.750639  0.500000  1
  Pd  Pd22  1  0.249361  0.448166  0.500000  1
  Pd  Pd23  1  0.750639  0.551834  0.500000  1
