# generated using pymatgen
data_Tm2Re3Mo
_symmetry_space_group_name_H-M   'P 1'
_cell_length_a   5.43071600
_cell_length_b   5.43071599
_cell_length_c   8.81066300
_cell_angle_alpha   90.00000000
_cell_angle_beta   90.00000000
_cell_angle_gamma   120.00000009
_symmetry_Int_Tables_number   1
_chemical_formula_structural   Tm2Re3Mo
_chemical_formula_sum   'Tm4 Re6 Mo2'
_cell_volume   225.03672774
_cell_formula_units_Z   2
loop_
 _symmetry_equiv_pos_site_id
 _symmetry_equiv_pos_as_xyz
  1  'x, y, z'
loop_
 _atom_site_type_symbol
 _atom_site_label
 _atom_site_symmetry_multiplicity
 _atom_site_fract_x
 _atom_site_fract_y
 _atom_site_fract_z
 _atom_site_occupancy
  Tm  Tm0  1  0.333333  0.666667  0.437085  1
  Tm  Tm1  1  0.666667  0.333333  0.562915  1
  Tm  Tm2  1  0.666667  0.333333  0.937085  1
  Tm  Tm3  1  0.333333  0.666667  0.062915  1
  Re  Re4  1  0.828374  0.171626  0.250000  1
  Re  Re5  1  0.828374  0.656746  0.250000  1
  Re  Re6  1  0.343254  0.171626  0.250000  1
  Re  Re7  1  0.171626  0.828374  0.750000  1
  Re  Re8  1  0.171626  0.343254  0.750000  1
  Re  Re9  1  0.656746  0.828374  0.750000  1
  Mo  Mo10  1  0.000000  0.000000  0.500000  1
  Mo  Mo11  1  0.000000  0.000000  0.000000  1
