# generated using pymatgen
data_Tm4Sc4B24IrRh3
_symmetry_space_group_name_H-M   'P 1'
_cell_length_a   3.53196500
_cell_length_b   8.98602639
_cell_length_c   11.33027649
_cell_angle_alpha   89.96624900
_cell_angle_beta   90.00000000
_cell_angle_gamma   90.00000000
_symmetry_Int_Tables_number   1
_chemical_formula_structural   Tm4Sc4B24IrRh3
_chemical_formula_sum   'Tm4 Sc4 B24 Ir1 Rh3'
_cell_volume   359.60399979
_cell_formula_units_Z   1
loop_
 _symmetry_equiv_pos_site_id
 _symmetry_equiv_pos_as_xyz
  1  'x, y, z'
loop_
 _atom_site_type_symbol
 _atom_site_label
 _atom_site_symmetry_multiplicity
 _atom_site_fract_x
 _atom_site_fract_y
 _atom_site_fract_z
 _atom_site_occupancy
  Tm  Tm0  1  0.500000  0.319616  0.413929  1
  Tm  Tm1  1  0.500000  0.680001  0.586851  1
  Tm  Tm2  1  0.500000  0.179684  0.913798  1
  Tm  Tm3  1  0.500000  0.820563  0.085554  1
  Sc  Sc4  1  0.500000  0.444365  0.124489  1
  Sc  Sc5  1  0.500000  0.555520  0.875034  1
  Sc  Sc6  1  0.500000  0.055349  0.625009  1
  Sc  Sc7  1  0.500000  0.945076  0.375293  1
  B  B8  1  0.000000  0.100858  0.472736  1
  B  B9  1  0.000000  0.899240  0.527326  1
  B  B10  1  0.000000  0.398957  0.972618  1
  B  B11  1  0.000000  0.600903  0.027260  1
  B  B12  1  0.000000  0.130655  0.318636  1
  B  B13  1  0.000000  0.869409  0.681603  1
  B  B14  1  0.000000  0.369740  0.818413  1
  B  B15  1  0.000000  0.630198  0.181415  1
  B  B16  1  0.000000  0.054223  0.065011  1
  B  B17  1  0.000000  0.945623  0.934898  1
  B  B18  1  0.000000  0.445506  0.565240  1
  B  B19  1  0.000000  0.554276  0.434855  1
  B  B20  1  0.000000  0.481050  0.285606  1
  B  B21  1  0.000000  0.518886  0.714344  1
  B  B22  1  0.000000  0.018753  0.785694  1
  B  B23  1  0.000000  0.981407  0.214155  1
  B  B24  1  0.000000  0.253447  0.079784  1
  B  B25  1  0.000000  0.746565  0.920269  1
  B  B26  1  0.000000  0.246329  0.579762  1
  B  B27  1  0.000000  0.753771  0.420380  1
  B  B28  1  0.000000  0.295823  0.236034  1
  B  B29  1  0.000000  0.703866  0.763955  1
  B  B30  1  0.000000  0.203897  0.735923  1
  B  B31  1  0.000000  0.796156  0.264191  1
  Ir  Ir32  1  0.500000  0.641399  0.318930  1
  Rh  Rh33  1  0.500000  0.141235  0.181445  1
  Rh  Rh34  1  0.500000  0.858593  0.818670  1
  Rh  Rh35  1  0.500000  0.359064  0.680889  1
