# generated using pymatgen
data_Zr5Ga2BiC
_symmetry_space_group_name_H-M   'P 1'
_cell_length_a   8.34600200
_cell_length_b   8.30357804
_cell_length_c   5.84375500
_cell_angle_alpha   90.00000000
_cell_angle_beta   90.00000000
_cell_angle_gamma   120.16915266
_symmetry_Int_Tables_number   1
_chemical_formula_structural   Zr5Ga2BiC
_chemical_formula_sum   'Zr10 Ga4 Bi2 C2'
_cell_volume   350.12539261
_cell_formula_units_Z   2
loop_
 _symmetry_equiv_pos_site_id
 _symmetry_equiv_pos_as_xyz
  1  'x, y, z'
loop_
 _atom_site_type_symbol
 _atom_site_label
 _atom_site_symmetry_multiplicity
 _atom_site_fract_x
 _atom_site_fract_y
 _atom_site_fract_z
 _atom_site_occupancy
  Zr  Zr0  1  0.321789  0.643580  0.500000  1
  Zr  Zr1  1  0.678211  0.356420  0.500000  1
  Zr  Zr2  1  0.678211  0.356420  0.000000  1
  Zr  Zr3  1  0.321789  0.643580  0.000000  1
  Zr  Zr4  1  0.215413  0.000000  0.750000  1
  Zr  Zr5  1  0.784587  0.000000  0.250000  1
  Zr  Zr6  1  0.010929  0.229887  0.750000  1
  Zr  Zr7  1  0.989071  0.770113  0.250000  1
  Zr  Zr8  1  0.781043  0.770113  0.750000  1
  Zr  Zr9  1  0.218957  0.229887  0.250000  1
  Ga  Ga10  1  0.005970  0.602206  0.750000  1
  Ga  Ga11  1  0.994030  0.397794  0.250000  1
  Ga  Ga12  1  0.403764  0.397794  0.750000  1
  Ga  Ga13  1  0.596236  0.602206  0.250000  1
  Bi  Bi14  1  0.598587  0.000000  0.750000  1
  Bi  Bi15  1  0.401413  0.000000  0.250000  1
  C  C16  1  0.000000  0.000000  0.500000  1
  C  C17  1  0.000000  0.000000  0.000000  1
