# generated using pymatgen
data_Tb19ThSn16
_symmetry_space_group_name_H-M   'P 1'
_cell_length_a   8.09717176
_cell_length_b   8.23350297
_cell_length_c   15.53844895
_cell_angle_alpha   90.04706815
_cell_angle_beta   89.89370882
_cell_angle_gamma   89.89762115
_symmetry_Int_Tables_number   1
_chemical_formula_structural   Tb19ThSn16
_chemical_formula_sum   'Tb19 Th1 Sn16'
_cell_volume   1035.91488883
_cell_formula_units_Z   1
loop_
 _symmetry_equiv_pos_site_id
 _symmetry_equiv_pos_as_xyz
  1  'x, y, z'
loop_
 _atom_site_type_symbol
 _atom_site_label
 _atom_site_symmetry_multiplicity
 _atom_site_fract_x
 _atom_site_fract_y
 _atom_site_fract_z
 _atom_site_occupancy
  Tb  Tb0  1  0.368584  0.835338  0.878266  1
  Tb  Tb1  1  0.869027  0.664133  0.621194  1
  Tb  Tb2  1  0.630844  0.163603  0.378403  1
  Tb  Tb3  1  0.131566  0.336539  0.122199  1
  Tb  Tb4  1  0.631685  0.163726  0.121867  1
  Tb  Tb5  1  0.131278  0.336579  0.378379  1
  Tb  Tb6  1  0.369314  0.835851  0.621523  1
  Tb  Tb7  1  0.868440  0.663692  0.878402  1
  Tb  Tb8  1  0.521398  0.321020  0.901657  1
  Tb  Tb9  1  0.021000  0.179841  0.598986  1
  Tb  Tb10  1  0.479626  0.679413  0.401539  1
  Tb  Tb11  1  0.980138  0.820584  0.098807  1
  Tb  Tb12  1  0.480359  0.679426  0.098566  1
  Tb  Tb13  1  0.980007  0.820139  0.401589  1
  Tb  Tb14  1  0.520287  0.321474  0.597811  1
  Tb  Tb15  1  0.197162  0.501123  0.749445  1
  Tb  Tb16  1  0.696724  0.997352  0.749047  1
  Tb  Tb17  1  0.802740  0.497919  0.250509  1
  Tb  Tb18  1  0.302777  0.001956  0.249936  1
  Th  Th19  1  0.018209  0.181225  0.902725  1
  Sn  Sn20  1  0.291459  0.034451  0.042294  1
  Sn  Sn21  1  0.790385  0.464749  0.457993  1
  Sn  Sn22  1  0.709794  0.965701  0.541990  1
  Sn  Sn23  1  0.210314  0.534903  0.957935  1
  Sn  Sn24  1  0.706700  0.962798  0.958594  1
  Sn  Sn25  1  0.209471  0.535495  0.541887  1
  Sn  Sn26  1  0.290545  0.035239  0.458143  1
  Sn  Sn27  1  0.790981  0.463780  0.041438  1
  Sn  Sn28  1  0.564906  0.618503  0.749939  1
  Sn  Sn29  1  0.065171  0.880701  0.750711  1
  Sn  Sn30  1  0.434826  0.382051  0.249979  1
  Sn  Sn31  1  0.934558  0.118019  0.250031  1
  Sn  Sn32  1  0.328879  0.146262  0.749746  1
  Sn  Sn33  1  0.825567  0.356332  0.748580  1
  Sn  Sn34  1  0.672797  0.853758  0.249898  1
  Sn  Sn35  1  0.172483  0.646322  0.249994  1
