# generated using pymatgen
data_Tm2AlZnNi2
_symmetry_space_group_name_H-M   'P 1'
_cell_length_a   4.06635900
_cell_length_b   6.62159464
_cell_length_c   7.72987017
_cell_angle_alpha   89.70225419
_cell_angle_beta   90.00000000
_cell_angle_gamma   90.00000000
_symmetry_Int_Tables_number   1
_chemical_formula_structural   Tm2AlZnNi2
_chemical_formula_sum   'Tm4 Al2 Zn2 Ni4'
_cell_volume   208.12998075
_cell_formula_units_Z   2
loop_
 _symmetry_equiv_pos_site_id
 _symmetry_equiv_pos_as_xyz
  1  'x, y, z'
loop_
 _atom_site_type_symbol
 _atom_site_label
 _atom_site_symmetry_multiplicity
 _atom_site_fract_x
 _atom_site_fract_y
 _atom_site_fract_z
 _atom_site_occupancy
  Tm  Tm0  1  0.250000  0.537415  0.176650  1
  Tm  Tm1  1  0.750000  0.462585  0.823350  1
  Tm  Tm2  1  0.750000  0.966790  0.684290  1
  Tm  Tm3  1  0.250000  0.033210  0.315710  1
  Al  Al4  1  0.250000  0.637343  0.558905  1
  Al  Al5  1  0.750000  0.362657  0.441095  1
  Zn  Zn6  1  0.750000  0.860693  0.059547  1
  Zn  Zn7  1  0.250000  0.139307  0.940453  1
  Ni  Ni8  1  0.250000  0.759194  0.868968  1
  Ni  Ni9  1  0.750000  0.240806  0.131032  1
  Ni  Ni10  1  0.750000  0.732845  0.382661  1
  Ni  Ni11  1  0.250000  0.267155  0.617339  1
