# generated using pymatgen
data_Rb2Si2Pb2O7
_symmetry_space_group_name_H-M   'P 1'
_cell_length_a   5.79131700
_cell_length_b   5.79131669
_cell_length_c   8.14965600
_cell_angle_alpha   90.00000000
_cell_angle_beta   90.00000000
_cell_angle_gamma   120.00000747
_symmetry_Int_Tables_number   1
_chemical_formula_structural   Rb2Si2Pb2O7
_chemical_formula_sum   'Rb2 Si2 Pb2 O7'
_cell_volume   236.71431853
_cell_formula_units_Z   1
loop_
 _symmetry_equiv_pos_site_id
 _symmetry_equiv_pos_as_xyz
  1  'x, y, z'
loop_
 _atom_site_type_symbol
 _atom_site_label
 _atom_site_symmetry_multiplicity
 _atom_site_fract_x
 _atom_site_fract_y
 _atom_site_fract_z
 _atom_site_occupancy
  Rb  Rb0  1  0.666666  0.333333  0.087925  1
  Rb  Rb1  1  0.333333  0.666666  0.912074  1
  Si  Si2  1  0.000000  0.000000  0.294108  1
  Si  Si3  1  0.000000  0.000000  0.705892  1
  Pb  Pb4  1  0.333333  0.666666  0.390777  1
  Pb  Pb5  1  0.666666  0.333333  0.609222  1
  O  O6  1  0.174878  0.309483  0.229088  1
  O  O7  1  0.134605  0.825123  0.229088  1
  O  O8  1  0.690518  0.865395  0.229088  1
  O  O9  1  0.000000  0.000000  0.500000  1
  O  O10  1  0.309481  0.134605  0.770912  1
  O  O11  1  0.865395  0.174878  0.770912  1
  O  O12  1  0.825124  0.690519  0.770912  1
