# generated using pymatgen
data_Ho5AuSe4
_symmetry_space_group_name_H-M   'P 1'
_cell_length_a   7.09556121
_cell_length_b   7.09556081
_cell_length_c   7.09556058
_cell_angle_alpha   99.64984526
_cell_angle_beta   99.64985033
_cell_angle_gamma   131.66291032
_symmetry_Int_Tables_number   1
_chemical_formula_structural   Ho5AuSe4
_chemical_formula_sum   'Ho5 Au1 Se4'
_cell_volume   243.48927510
_cell_formula_units_Z   1
loop_
 _symmetry_equiv_pos_site_id
 _symmetry_equiv_pos_as_xyz
  1  'x, y, z'
loop_
 _atom_site_type_symbol
 _atom_site_label
 _atom_site_symmetry_multiplicity
 _atom_site_fract_x
 _atom_site_fract_y
 _atom_site_fract_z
 _atom_site_occupancy
  Ho  Ho0  1  0.399717  0.796633  0.196350  1
  Ho  Ho1  1  0.000000  0.000000  0.000000  1
  Ho  Ho2  1  0.600283  0.203367  0.803650  1
  Ho  Ho3  1  0.203367  0.399717  0.603083  1
  Ho  Ho4  1  0.796633  0.600283  0.396917  1
  Au  Au5  1  0.500000  0.500000  0.000000  1
  Se  Se6  1  0.095750  0.695968  0.791717  1
  Se  Se7  1  0.695968  0.904250  0.600218  1
  Se  Se8  1  0.304032  0.095750  0.399782  1
  Se  Se9  1  0.904250  0.304032  0.208283  1
