# generated using pymatgen
data_DyY3Ni2(B8Rh)2
_symmetry_space_group_name_H-M   'P 1'
_cell_length_a   6.91772820
_cell_length_b   6.91772911
_cell_length_c   6.91772828
_cell_angle_alpha   111.20858846
_cell_angle_beta   113.46613077
_cell_angle_gamma   103.88824402
_symmetry_Int_Tables_number   1
_chemical_formula_structural   DyY3Ni2(B8Rh)2
_chemical_formula_sum   'Dy1 Y3 Ni2 B16 Rh2'
_cell_volume   252.94041982
_cell_formula_units_Z   1
loop_
 _symmetry_equiv_pos_site_id
 _symmetry_equiv_pos_as_xyz
  1  'x, y, z'
loop_
 _atom_site_type_symbol
 _atom_site_label
 _atom_site_symmetry_multiplicity
 _atom_site_fract_x
 _atom_site_fract_y
 _atom_site_fract_z
 _atom_site_occupancy
  Dy  Dy0  1  0.248141  0.748141  0.500000  1
  Y  Y1  1  0.791752  0.791752  0.000000  1
  Y  Y2  1  0.208252  0.208252  0.000000  1
  Y  Y3  1  0.751671  0.251671  0.500000  1
  Ni  Ni4  1  0.500118  0.746151  0.246032  1
  Ni  Ni5  1  0.500118  0.254086  0.753968  1
  B  B6  1  0.272425  0.108569  0.381203  1
  B  B7  1  0.727365  0.891221  0.618797  1
  B  B8  1  0.272425  0.891221  0.163856  1
  B  B9  1  0.727365  0.108569  0.836144  1
  B  B10  1  0.111045  0.729435  0.840448  1
  B  B11  1  0.888988  0.270598  0.159552  1
  B  B12  1  0.111045  0.270598  0.381610  1
  B  B13  1  0.888988  0.729435  0.618390  1
  B  B14  1  0.114761  0.108770  0.527633  1
  B  B15  1  0.581136  0.587127  0.472367  1
  B  B16  1  0.114761  0.587127  0.005991  1
  B  B17  1  0.581136  0.108770  0.994009  1
  B  B18  1  0.885456  0.891059  0.472445  1
  B  B19  1  0.418615  0.413014  0.527555  1
  B  B20  1  0.885456  0.413014  0.994397  1
  B  B21  1  0.418615  0.891059  0.005603  1
  Rh  Rh22  1  0.277451  0.500182  0.777268  1
  Rh  Rh23  1  0.722914  0.500182  0.222732  1
