# generated using pymatgen
data_Pr2Be(SiIr2)3
_symmetry_space_group_name_H-M   'P 1'
_cell_length_a   6.66869741
_cell_length_b   6.68788945
_cell_length_c   6.66869734
_cell_angle_alpha   130.40842294
_cell_angle_beta   114.66393273
_cell_angle_gamma   86.14687322
_symmetry_Int_Tables_number   1
_chemical_formula_structural   Pr2Be(SiIr2)3
_chemical_formula_sum   'Pr2 Be1 Si3 Ir6'
_cell_volume   196.72521653
_cell_formula_units_Z   1
loop_
 _symmetry_equiv_pos_site_id
 _symmetry_equiv_pos_as_xyz
  1  'x, y, z'
loop_
 _atom_site_type_symbol
 _atom_site_label
 _atom_site_symmetry_multiplicity
 _atom_site_fract_x
 _atom_site_fract_y
 _atom_site_fract_z
 _atom_site_occupancy
  Pr  Pr0  1  0.245834  0.981062  0.735228  1
  Pr  Pr1  1  0.754876  0.031720  0.276844  1
  Be  Be2  1  0.074216  0.277750  0.203535  1
  Si  Si3  1  0.917053  0.709173  0.792120  1
  Si  Si4  1  0.423838  0.631301  0.207463  1
  Si  Si5  1  0.581754  0.371698  0.789944  1
  Ir  Ir6  1  0.489503  0.499442  0.492101  1
  Ir  Ir7  1  0.007341  0.499442  0.009939  1
  Ir  Ir8  1  0.273007  0.000599  0.273117  1
  Ir  Ir9  1  0.727483  0.000599  0.727592  1
  Ir  Ir10  1  0.224928  0.498607  0.718441  1
  Ir  Ir11  1  0.780166  0.498607  0.273678  1
