# generated using pymatgen
data_CaPrGeRh3
_symmetry_space_group_name_H-M   'P 1'
_cell_length_a   5.19165738
_cell_length_b   5.19165785
_cell_length_c   5.19165718
_cell_angle_alpha   66.05865337
_cell_angle_beta   66.05865165
_cell_angle_gamma   66.05865993
_symmetry_Int_Tables_number   1
_chemical_formula_structural   CaPrGeRh3
_chemical_formula_sum   'Ca1 Pr1 Ge1 Rh3'
_cell_volume   111.91319685
_cell_formula_units_Z   1
loop_
 _symmetry_equiv_pos_site_id
 _symmetry_equiv_pos_as_xyz
  1  'x, y, z'
loop_
 _atom_site_type_symbol
 _atom_site_label
 _atom_site_symmetry_multiplicity
 _atom_site_fract_x
 _atom_site_fract_y
 _atom_site_fract_z
 _atom_site_occupancy
  Ca  Ca0  1  0.628378  0.628378  0.628378  1
  Pr  Pr1  1  0.371898  0.371898  0.371898  1
  Ge  Ge2  1  0.999925  0.999925  0.999925  1
  Rh  Rh3  1  0.999471  0.999471  0.500856  1
  Rh  Rh4  1  0.500856  0.999471  0.999471  1
  Rh  Rh5  1  0.999471  0.500856  0.999471  1
