# generated using pymatgen
data_Li8Sm8Sn5Bi3
_symmetry_space_group_name_H-M   'P 1'
_cell_length_a   9.56316800
_cell_length_b   9.56316763
_cell_length_c   7.49037700
_cell_angle_alpha   90.00000000
_cell_angle_beta   90.00000000
_cell_angle_gamma   120.00000128
_symmetry_Int_Tables_number   1
_chemical_formula_structural   Li8Sm8Sn5Bi3
_chemical_formula_sum   'Li8 Sm8 Sn5 Bi3'
_cell_volume   593.25014985
_cell_formula_units_Z   1
loop_
 _symmetry_equiv_pos_site_id
 _symmetry_equiv_pos_as_xyz
  1  'x, y, z'
loop_
 _atom_site_type_symbol
 _atom_site_label
 _atom_site_symmetry_multiplicity
 _atom_site_fract_x
 _atom_site_fract_y
 _atom_site_fract_z
 _atom_site_occupancy
  Li  Li0  1  0.832891  0.167109  0.721195  1
  Li  Li1  1  0.832891  0.665783  0.721195  1
  Li  Li2  1  0.334217  0.167109  0.721195  1
  Li  Li3  1  0.168080  0.831920  0.211766  1
  Li  Li4  1  0.168080  0.336159  0.211766  1
  Li  Li5  1  0.663841  0.831920  0.211766  1
  Li  Li6  1  0.666667  0.333333  0.330825  1
  Li  Li7  1  0.333333  0.666667  0.817875  1
  Sm  Sm8  1  0.486652  0.513348  0.509923  1
  Sm  Sm9  1  0.486652  0.973305  0.509923  1
  Sm  Sm10  1  0.026695  0.513348  0.509923  1
  Sm  Sm11  1  0.508845  0.491155  0.000552  1
  Sm  Sm12  1  0.508845  0.017688  0.000552  1
  Sm  Sm13  1  0.982312  0.491155  0.000552  1
  Sm  Sm14  1  0.000000  0.000000  0.508107  1
  Sm  Sm15  1  0.000000  0.000000  0.992614  1
  Sn  Sn16  1  0.166184  0.833816  0.767340  1
  Sn  Sn17  1  0.166184  0.332370  0.767340  1
  Sn  Sn18  1  0.667630  0.833816  0.767340  1
  Sn  Sn19  1  0.666667  0.333333  0.739541  1
  Sn  Sn20  1  0.333333  0.666667  0.238562  1
  Bi  Bi21  1  0.833151  0.166849  0.266054  1
  Bi  Bi22  1  0.833151  0.666300  0.266054  1
  Bi  Bi23  1  0.333700  0.166849  0.266054  1
