# generated using pymatgen
data_Cs4V2CuNiS8
_symmetry_space_group_name_H-M   'P 1'
_cell_length_a   14.34330933
_cell_length_b   12.76616633
_cell_length_c   7.59720910
_cell_angle_alpha   85.57614191
_cell_angle_beta   62.54727770
_cell_angle_gamma   31.87656941
_symmetry_Int_Tables_number   1
_chemical_formula_structural   Cs4V2CuNiS8
_chemical_formula_sum   'Cs4 V2 Cu1 Ni1 S8'
_cell_volume   483.47853823
_cell_formula_units_Z   1
loop_
 _symmetry_equiv_pos_site_id
 _symmetry_equiv_pos_as_xyz
  1  'x, y, z'
loop_
 _atom_site_type_symbol
 _atom_site_label
 _atom_site_symmetry_multiplicity
 _atom_site_fract_x
 _atom_site_fract_y
 _atom_site_fract_z
 _atom_site_occupancy
  Cs  Cs0  1  0.572932  0.572932  0.927068  1
  Cs  Cs1  1  0.927068  0.927068  0.572932  1
  Cs  Cs2  1  0.323131  0.323131  0.676869  1
  Cs  Cs3  1  0.676869  0.676869  0.323131  1
  V  V4  1  0.750000  0.750000  0.750000  1
  V  V5  1  0.500000  0.500000  0.500000  1
  Cu  Cu6  1  0.250000  0.250000  0.250000  1
  Ni  Ni7  1  0.000000  0.000000  0.000000  1
  S  S8  1  0.221652  0.877584  0.605723  1
  S  S9  1  0.295041  0.605723  0.877584  1
  S  S10  1  0.605723  0.295041  0.221652  1
  S  S11  1  0.877584  0.221652  0.295041  1
  S  S12  1  0.379711  0.019667  0.942545  1
  S  S13  1  0.942545  0.658077  0.379711  1
  S  S14  1  0.658077  0.942545  0.019667  1
  S  S15  1  0.019667  0.379711  0.658077  1
