# generated using pymatgen
data_Co6Sn4B
_symmetry_space_group_name_H-M   'P 1'
_cell_length_a   5.30626900
_cell_length_b   5.30626896
_cell_length_c   13.25674700
_cell_angle_alpha   90.00000000
_cell_angle_beta   90.00000000
_cell_angle_gamma   119.99999399
_symmetry_Int_Tables_number   1
_chemical_formula_structural   Co6Sn4B
_chemical_formula_sum   'Co12 Sn8 B2'
_cell_volume   323.25566781
_cell_formula_units_Z   2
loop_
 _symmetry_equiv_pos_site_id
 _symmetry_equiv_pos_as_xyz
  1  'x, y, z'
loop_
 _atom_site_type_symbol
 _atom_site_label
 _atom_site_symmetry_multiplicity
 _atom_site_fract_x
 _atom_site_fract_y
 _atom_site_fract_z
 _atom_site_occupancy
  Co  Co0  1  0.336745  0.168373  0.409833  1
  Co  Co1  1  0.831627  0.168373  0.409833  1
  Co  Co2  1  0.831627  0.663255  0.409833  1
  Co  Co3  1  0.168373  0.336745  0.909833  1
  Co  Co4  1  0.663255  0.831627  0.590167  1
  Co  Co5  1  0.663255  0.831627  0.909833  1
  Co  Co6  1  0.336745  0.168373  0.090167  1
  Co  Co7  1  0.168373  0.336745  0.590167  1
  Co  Co8  1  0.168373  0.831627  0.590167  1
  Co  Co9  1  0.831627  0.168373  0.090167  1
  Co  Co10  1  0.831627  0.663255  0.090167  1
  Co  Co11  1  0.168373  0.831627  0.909833  1
  Sn  Sn12  1  0.000000  0.000000  0.750000  1
  Sn  Sn13  1  0.000000  0.000000  0.250000  1
  Sn  Sn14  1  0.333333  0.666667  0.750000  1
  Sn  Sn15  1  0.666667  0.333333  0.250000  1
  Sn  Sn16  1  0.333333  0.666667  0.421206  1
  Sn  Sn17  1  0.666667  0.333333  0.921206  1
  Sn  Sn18  1  0.666667  0.333333  0.578794  1
  Sn  Sn19  1  0.333333  0.666667  0.078794  1
  B  B20  1  0.000000  0.000000  0.500000  1
  B  B21  1  0.000000  0.000000  0.000000  1
