# generated using pymatgen
data_Y12Ho4Cd4IrRu3
_symmetry_space_group_name_H-M   'P 1'
_cell_length_a   9.62779091
_cell_length_b   9.67138803
_cell_length_c   9.67138900
_cell_angle_alpha   60.00000010
_cell_angle_beta   59.85009316
_cell_angle_gamma   59.85008665
_symmetry_Int_Tables_number   1
_chemical_formula_structural   Y12Ho4Cd4IrRu3
_chemical_formula_sum   'Y12 Ho4 Cd4 Ir1 Ru3'
_cell_volume   635.33316073
_cell_formula_units_Z   1
loop_
 _symmetry_equiv_pos_site_id
 _symmetry_equiv_pos_as_xyz
  1  'x, y, z'
loop_
 _atom_site_type_symbol
 _atom_site_label
 _atom_site_symmetry_multiplicity
 _atom_site_fract_x
 _atom_site_fract_y
 _atom_site_fract_z
 _atom_site_occupancy
  Y  Y0  1  0.811013  0.189681  0.189681  1
  Y  Y1  1  0.187928  0.811332  0.811332  1
  Y  Y2  1  0.187928  0.811332  0.189408  1
  Y  Y3  1  0.811013  0.189681  0.809625  1
  Y  Y4  1  0.187928  0.189408  0.811332  1
  Y  Y5  1  0.811013  0.809625  0.189681  1
  Y  Y6  1  0.937661  0.561698  0.561698  1
  Y  Y7  1  0.560691  0.938930  0.938930  1
  Y  Y8  1  0.560691  0.938930  0.561450  1
  Y  Y9  1  0.937661  0.561698  0.938943  1
  Y  Y10  1  0.560691  0.561450  0.938930  1
  Y  Y11  1  0.937661  0.938943  0.561698  1
  Ho  Ho12  1  0.345791  0.347030  0.347030  1
  Ho  Ho13  1  0.345791  0.347030  0.960149  1
  Ho  Ho14  1  0.345791  0.960149  0.347030  1
  Ho  Ho15  1  0.965150  0.344950  0.344950  1
  Cd  Cd16  1  0.580055  0.579462  0.579462  1
  Cd  Cd17  1  0.580055  0.579462  0.261021  1
  Cd  Cd18  1  0.580055  0.261021  0.579462  1
  Cd  Cd19  1  0.259204  0.580265  0.580265  1
  Ir  Ir20  1  0.574778  0.141740  0.141740  1
  Ru  Ru21  1  0.143816  0.139489  0.139489  1
  Ru  Ru22  1  0.143816  0.139489  0.577206  1
  Ru  Ru23  1  0.143816  0.577206  0.139489  1
