# generated using pymatgen
data_TiNbSiPRh2
_symmetry_space_group_name_H-M   'P 1'
_cell_length_a   3.75268100
_cell_length_b   6.36542100
_cell_length_c   7.27330300
_cell_angle_alpha   90.00000000
_cell_angle_beta   90.00000000
_cell_angle_gamma   90.00000000
_symmetry_Int_Tables_number   1
_chemical_formula_structural   TiNbSiPRh2
_chemical_formula_sum   'Ti2 Nb2 Si2 P2 Rh4'
_cell_volume   173.74025767
_cell_formula_units_Z   2
loop_
 _symmetry_equiv_pos_site_id
 _symmetry_equiv_pos_as_xyz
  1  'x, y, z'
loop_
 _atom_site_type_symbol
 _atom_site_label
 _atom_site_symmetry_multiplicity
 _atom_site_fract_x
 _atom_site_fract_y
 _atom_site_fract_z
 _atom_site_occupancy
  Ti  Ti0  1  0.250000  0.024651  0.823498  1
  Ti  Ti1  1  0.250000  0.524651  0.676502  1
  Nb  Nb2  1  0.750000  0.971129  0.172778  1
  Nb  Nb3  1  0.750000  0.471129  0.327222  1
  Si  Si4  1  0.250000  0.764566  0.376220  1
  Si  Si5  1  0.250000  0.264566  0.123780  1
  P  P6  1  0.750000  0.239691  0.624429  1
  P  P7  1  0.750000  0.739691  0.875571  1
  Rh  Rh8  1  0.250000  0.145230  0.444337  1
  Rh  Rh9  1  0.250000  0.645230  0.055663  1
  Rh  Rh10  1  0.750000  0.854733  0.569534  1
  Rh  Rh11  1  0.750000  0.354733  0.930466  1
