# generated using pymatgen
data_Er6Zn17GePt6
_symmetry_space_group_name_H-M   'P 1'
_cell_length_a   9.02847687
_cell_length_b   9.02847681
_cell_length_c   9.02847700
_cell_angle_alpha   59.99999565
_cell_angle_beta   59.99999586
_cell_angle_gamma   59.99999492
_symmetry_Int_Tables_number   1
_chemical_formula_structural   Er6Zn17GePt6
_chemical_formula_sum   'Er6 Zn17 Ge1 Pt6'
_cell_volume   520.38938646
_cell_formula_units_Z   1
loop_
 _symmetry_equiv_pos_site_id
 _symmetry_equiv_pos_as_xyz
  1  'x, y, z'
loop_
 _atom_site_type_symbol
 _atom_site_label
 _atom_site_symmetry_multiplicity
 _atom_site_fract_x
 _atom_site_fract_y
 _atom_site_fract_z
 _atom_site_occupancy
  Er  Er0  1  0.721612  0.278388  0.278388  1
  Er  Er1  1  0.721612  0.278388  0.721612  1
  Er  Er2  1  0.721612  0.721612  0.278388  1
  Er  Er3  1  0.278388  0.721612  0.721612  1
  Er  Er4  1  0.278388  0.721612  0.278388  1
  Er  Er5  1  0.278388  0.278388  0.721612  1
  Zn  Zn6  1  0.627091  0.124303  0.124303  1
  Zn  Zn7  1  0.124303  0.627091  0.124303  1
  Zn  Zn8  1  0.124303  0.124303  0.627091  1
  Zn  Zn9  1  0.124303  0.124303  0.124303  1
  Zn  Zn10  1  0.372909  0.875697  0.875697  1
  Zn  Zn11  1  0.875697  0.372909  0.875697  1
  Zn  Zn12  1  0.875697  0.875697  0.372909  1
  Zn  Zn13  1  0.875697  0.875697  0.875697  1
  Zn  Zn14  1  0.000000  0.000000  0.000000  1
  Zn  Zn15  1  0.992695  0.335768  0.335768  1
  Zn  Zn16  1  0.335768  0.992695  0.335768  1
  Zn  Zn17  1  0.335768  0.335768  0.992695  1
  Zn  Zn18  1  0.335768  0.335768  0.335768  1
  Zn  Zn19  1  0.007305  0.664232  0.664232  1
  Zn  Zn20  1  0.664232  0.007305  0.664232  1
  Zn  Zn21  1  0.664232  0.664232  0.007305  1
  Zn  Zn22  1  0.664232  0.664232  0.664232  1
  Ge  Ge23  1  0.500000  0.500000  0.500000  1
  Pt  Pt24  1  0.500000  0.000000  0.000000  1
  Pt  Pt25  1  0.500000  0.000000  0.500000  1
  Pt  Pt26  1  0.500000  0.500000  0.000000  1
  Pt  Pt27  1  0.000000  0.500000  0.500000  1
  Pt  Pt28  1  0.000000  0.500000  0.000000  1
  Pt  Pt29  1  0.000000  0.000000  0.500000  1
