# generated using pymatgen
data_Ho3ErGa18Ir5Pd
_symmetry_space_group_name_H-M   'P 1'
_cell_length_a   7.59536017
_cell_length_b   7.59552810
_cell_length_c   9.48376029
_cell_angle_alpha   89.98339354
_cell_angle_beta   89.98308706
_cell_angle_gamma   119.91977369
_symmetry_Int_Tables_number   1
_chemical_formula_structural   Ho3ErGa18Ir5Pd
_chemical_formula_sum   'Ho3 Er1 Ga18 Ir5 Pd1'
_cell_volume   474.20703889
_cell_formula_units_Z   1
loop_
 _symmetry_equiv_pos_site_id
 _symmetry_equiv_pos_as_xyz
  1  'x, y, z'
loop_
 _atom_site_type_symbol
 _atom_site_label
 _atom_site_symmetry_multiplicity
 _atom_site_fract_x
 _atom_site_fract_y
 _atom_site_fract_z
 _atom_site_occupancy
  Ho  Ho0  1  0.003319  0.331335  0.748718  1
  Ho  Ho1  1  0.668638  0.996635  0.251294  1
  Ho  Ho2  1  0.331100  0.003144  0.748830  1
  Er  Er3  1  0.996956  0.668999  0.251227  1
  Ga  Ga4  1  0.127390  0.126597  0.250335  1
  Ga  Ga5  1  0.873286  0.872566  0.749660  1
  Ga  Ga6  1  0.001123  0.334157  0.082094  1
  Ga  Ga7  1  0.003624  0.668096  0.918151  1
  Ga  Ga8  1  0.001065  0.665698  0.580067  1
  Ga  Ga9  1  0.334153  0.998784  0.419773  1
  Ga  Ga10  1  0.998675  0.334503  0.419484  1
  Ga  Ga11  1  0.665644  0.001333  0.580456  1
  Ga  Ga12  1  0.665989  0.998885  0.917958  1
  Ga  Ga13  1  0.331739  0.996210  0.082007  1
  Ga  Ga14  1  0.331802  0.331831  0.564776  1
  Ga  Ga15  1  0.668303  0.668195  0.435157  1
  Ga  Ga16  1  0.668014  0.670391  0.067311  1
  Ga  Ga17  1  0.329603  0.332117  0.932757  1
  Ga  Ga18  1  0.339950  0.546950  0.250555  1
  Ga  Ga19  1  0.660332  0.454155  0.748298  1
  Ga  Ga20  1  0.545992  0.339765  0.251696  1
  Ga  Ga21  1  0.453080  0.659986  0.749442  1
  Ir  Ir22  1  0.329025  0.670944  0.000047  1
  Ir  Ir23  1  0.328039  0.671935  0.499947  1
  Ir  Ir24  1  0.671797  0.328301  0.499934  1
  Ir  Ir25  1  0.000516  0.999412  0.000066  1
  Ir  Ir26  1  0.999612  0.000305  0.499931  1
  Pd  Pd27  1  0.671238  0.328773  0.000030  1
