# generated using pymatgen
data_Sm2Nb3Ge4
_symmetry_space_group_name_H-M   'P 1'
_cell_length_a   7.08418963
_cell_length_b   7.26339079
_cell_length_c   13.71821066
_cell_angle_alpha   89.99865294
_cell_angle_beta   89.97736285
_cell_angle_gamma   90.00178073
_symmetry_Int_Tables_number   1
_chemical_formula_structural   Sm2Nb3Ge4
_chemical_formula_sum   'Sm8 Nb12 Ge16'
_cell_volume   705.87373448
_cell_formula_units_Z   4
loop_
 _symmetry_equiv_pos_site_id
 _symmetry_equiv_pos_as_xyz
  1  'x, y, z'
loop_
 _atom_site_type_symbol
 _atom_site_label
 _atom_site_symmetry_multiplicity
 _atom_site_fract_x
 _atom_site_fract_y
 _atom_site_fract_z
 _atom_site_occupancy
  Sm  Sm0  1  0.499479  0.328165  0.094993  1
  Sm  Sm1  1  0.999559  0.172001  0.404909  1
  Sm  Sm2  1  0.500711  0.672092  0.595110  1
  Sm  Sm3  1  0.000345  0.828086  0.905072  1
  Sm  Sm4  1  0.500418  0.671803  0.905047  1
  Sm  Sm5  1  0.000597  0.827917  0.595073  1
  Sm  Sm6  1  0.499518  0.328011  0.404903  1
  Sm  Sm7  1  0.999474  0.171979  0.094960  1
  Nb  Nb8  1  0.664061  0.014004  0.750049  1
  Nb  Nb9  1  0.164176  0.485798  0.750096  1
  Nb  Nb10  1  0.335842  0.986004  0.249918  1
  Nb  Nb11  1  0.835823  0.514170  0.249958  1
  Nb  Nb12  1  0.838897  0.328126  0.626383  1
  Nb  Nb13  1  0.338514  0.172037  0.873685  1
  Nb  Nb14  1  0.161409  0.672107  0.126255  1
  Nb  Nb15  1  0.661373  0.828098  0.373587  1
  Nb  Nb16  1  0.161131  0.672089  0.373593  1
  Nb  Nb17  1  0.661162  0.827906  0.126269  1
  Nb  Nb18  1  0.838610  0.327836  0.873729  1
  Nb  Nb19  1  0.338861  0.171819  0.626417  1
  Ge  Ge20  1  0.803599  0.630894  0.750143  1
  Ge  Ge21  1  0.303366  0.868855  0.750171  1
  Ge  Ge22  1  0.196428  0.369133  0.249884  1
  Ge  Ge23  1  0.696515  0.130995  0.249850  1
  Ge  Ge24  1  0.539300  0.373049  0.750031  1
  Ge  Ge25  1  0.039171  0.126791  0.750041  1
  Ge  Ge26  1  0.460637  0.627032  0.249999  1
  Ge  Ge27  1  0.960677  0.873104  0.249841  1
  Ge  Ge28  1  0.670177  0.040364  0.542295  1
  Ge  Ge29  1  0.169786  0.459882  0.957670  1
  Ge  Ge30  1  0.330043  0.960018  0.042334  1
  Ge  Ge31  1  0.830112  0.540253  0.457656  1
  Ge  Ge32  1  0.330148  0.959741  0.457675  1
  Ge  Ge33  1  0.830159  0.540075  0.042395  1
  Ge  Ge34  1  0.669631  0.040040  0.957638  1
  Ge  Ge35  1  0.170291  0.459727  0.542369  1
