# generated using pymatgen
data_Tb5YAl24Os5Pd3
_symmetry_space_group_name_H-M   'P 1'
_cell_length_a   8.85274399
_cell_length_b   8.88366004
_cell_length_c   9.57843826
_cell_angle_alpha   90.23426333
_cell_angle_beta   89.85260645
_cell_angle_gamma   120.00481999
_symmetry_Int_Tables_number   1
_chemical_formula_structural   Tb5YAl24Os5Pd3
_chemical_formula_sum   'Tb5 Y1 Al24 Os5 Pd3'
_cell_volume   652.33452708
_cell_formula_units_Z   1
loop_
 _symmetry_equiv_pos_site_id
 _symmetry_equiv_pos_as_xyz
  1  'x, y, z'
loop_
 _atom_site_type_symbol
 _atom_site_label
 _atom_site_symmetry_multiplicity
 _atom_site_fract_x
 _atom_site_fract_y
 _atom_site_fract_z
 _atom_site_occupancy
  Tb  Tb0  1  0.801457  0.615268  0.747806  1
  Tb  Tb1  1  0.613578  0.804410  0.250869  1
  Tb  Tb2  1  0.386417  0.195551  0.749126  1
  Tb  Tb3  1  0.194471  0.812078  0.251462  1
  Tb  Tb4  1  0.805512  0.187922  0.748524  1
  Y  Y5  1  0.198698  0.385133  0.252195  1
  Al  Al6  1  0.334726  0.664319  0.026911  1
  Al  Al7  1  0.665237  0.335592  0.973164  1
  Al  Al8  1  0.662410  0.330736  0.524367  1
  Al  Al9  1  0.337549  0.669156  0.475538  1
  Al  Al10  1  0.167682  0.325445  0.577509  1
  Al  Al11  1  0.832357  0.674568  0.422437  1
  Al  Al12  1  0.670970  0.835610  0.575190  1
  Al  Al13  1  0.832292  0.674742  0.077291  1
  Al  Al14  1  0.329027  0.164413  0.424818  1
  Al  Al15  1  0.167736  0.325256  0.922750  1
  Al  Al16  1  0.167463  0.843171  0.578011  1
  Al  Al17  1  0.326597  0.168965  0.078407  1
  Al  Al18  1  0.832549  0.156838  0.421961  1
  Al  Al19  1  0.673406  0.831075  0.921580  1
  Al  Al20  1  0.839717  0.162791  0.080987  1
  Al  Al21  1  0.160292  0.837217  0.919042  1
  Al  Al22  1  0.563115  0.125495  0.252218  1
  Al  Al23  1  0.436886  0.874530  0.747763  1
  Al  Al24  1  0.876251  0.438165  0.249796  1
  Al  Al25  1  0.123823  0.561824  0.750212  1
  Al  Al26  1  0.562606  0.438668  0.249557  1
  Al  Al27  1  0.437213  0.561310  0.750461  1
  Al  Al28  1  0.002343  0.000961  0.250242  1
  Al  Al29  1  0.997545  0.998893  0.749753  1
  Os  Os30  1  0.499983  0.999957  0.499998  1
  Os  Os31  1  0.499950  0.499968  0.000034  1
  Os  Os32  1  0.499992  0.499987  0.500022  1
  Os  Os33  1  0.000016  0.000061  0.000049  1
  Os  Os34  1  0.000042  0.000083  0.499944  1
  Pd  Pd35  1  0.499982  0.999960  0.999997  1
  Pd  Pd36  1  0.000055  0.499938  0.000075  1
  Pd  Pd37  1  0.000056  0.499943  0.499935  1
