# generated using pymatgen
data_Hf11Zr8Si16Pd
_symmetry_space_group_name_H-M   'P 1'
_cell_length_a   7.10286241
_cell_length_b   7.10286224
_cell_length_c   12.84688243
_cell_angle_alpha   89.69174760
_cell_angle_beta   90.30825232
_cell_angle_gamma   90.00218020
_symmetry_Int_Tables_number   1
_chemical_formula_structural   Hf11Zr8Si16Pd
_chemical_formula_sum   'Hf11 Zr8 Si16 Pd1'
_cell_volume   648.11485069
_cell_formula_units_Z   1
loop_
 _symmetry_equiv_pos_site_id
 _symmetry_equiv_pos_as_xyz
  1  'x, y, z'
loop_
 _atom_site_type_symbol
 _atom_site_label
 _atom_site_symmetry_multiplicity
 _atom_site_fract_x
 _atom_site_fract_y
 _atom_site_fract_z
 _atom_site_occupancy
  Hf  Hf0  1  0.824777  0.824777  0.500000  1
  Hf  Hf1  1  0.322395  0.678411  0.248306  1
  Hf  Hf2  1  0.678411  0.322395  0.751694  1
  Hf  Hf3  1  0.144846  0.000545  0.375302  1
  Hf  Hf4  1  0.858664  0.002135  0.880426  1
  Hf  Hf5  1  0.501957  0.646182  0.628170  1
  Hf  Hf6  1  0.356988  0.493985  0.874469  1
  Hf  Hf7  1  0.493985  0.356988  0.125531  1
  Hf  Hf8  1  0.646182  0.501957  0.371830  1
  Hf  Hf9  1  0.000545  0.144846  0.624698  1
  Hf  Hf10  1  0.002135  0.858664  0.119574  1
  Zr  Zr11  1  0.996858  0.350020  0.213011  1
  Zr  Zr12  1  0.002581  0.651556  0.717278  1
  Zr  Zr13  1  0.151080  0.497976  0.464793  1
  Zr  Zr14  1  0.495696  0.848463  0.033174  1
  Zr  Zr15  1  0.848463  0.495696  0.966826  1
  Zr  Zr16  1  0.497976  0.151080  0.535207  1
  Zr  Zr17  1  0.350020  0.996858  0.786989  1
  Zr  Zr18  1  0.651556  0.002581  0.282722  1
  Si  Si19  1  0.353650  0.295339  0.321459  1
  Si  Si20  1  0.648022  0.703760  0.824415  1
  Si  Si21  1  0.205757  0.854092  0.573117  1
  Si  Si22  1  0.140704  0.782104  0.924356  1
  Si  Si23  1  0.782104  0.140704  0.075644  1
  Si  Si24  1  0.854092  0.205757  0.426883  1
  Si  Si25  1  0.295339  0.353650  0.678541  1
  Si  Si26  1  0.703760  0.648022  0.175585  1
  Si  Si27  1  0.296512  0.055859  0.184945  1
  Si  Si28  1  0.701939  0.949829  0.688443  1
  Si  Si29  1  0.449911  0.800641  0.436303  1
  Si  Si30  1  0.202665  0.555652  0.061496  1
  Si  Si31  1  0.555652  0.202665  0.938504  1
  Si  Si32  1  0.800641  0.449911  0.563697  1
  Si  Si33  1  0.055859  0.296512  0.815055  1
  Si  Si34  1  0.949829  0.701939  0.311557  1
  Pd  Pd35  1  0.178448  0.178448  0.000000  1
