# generated using pymatgen
data_Dy9Tm11(SnPb)8
_symmetry_space_group_name_H-M   'P 1'
_cell_length_a   8.07341500
_cell_length_b   8.13262507
_cell_length_c   15.42355800
_cell_angle_alpha   90.00170493
_cell_angle_beta   90.00158260
_cell_angle_gamma   90.02940652
_symmetry_Int_Tables_number   1
_chemical_formula_structural   Dy9Tm11(SnPb)8
_chemical_formula_sum   'Dy9 Tm11 Sn8 Pb8'
_cell_volume   1012.68072061
_cell_formula_units_Z   1
loop_
 _symmetry_equiv_pos_site_id
 _symmetry_equiv_pos_as_xyz
  1  'x, y, z'
loop_
 _atom_site_type_symbol
 _atom_site_label
 _atom_site_symmetry_multiplicity
 _atom_site_fract_x
 _atom_site_fract_y
 _atom_site_fract_z
 _atom_site_occupancy
  Dy  Dy0  1  0.878762  0.660800  0.876745  1
  Dy  Dy1  1  0.535448  0.323535  0.897276  1
  Dy  Dy2  1  0.035656  0.176332  0.602670  1
  Dy  Dy3  1  0.464402  0.676366  0.397273  1
  Dy  Dy4  1  0.964318  0.823795  0.102967  1
  Dy  Dy5  1  0.464551  0.676214  0.102671  1
  Dy  Dy6  1  0.964255  0.823686  0.397245  1
  Dy  Dy7  1  0.535492  0.323540  0.602720  1
  Dy  Dy8  1  0.035634  0.176176  0.897197  1
  Tm  Tm9  1  0.378251  0.839484  0.876329  1
  Tm  Tm10  1  0.878374  0.660445  0.623564  1
  Tm  Tm11  1  0.621740  0.160383  0.376495  1
  Tm  Tm12  1  0.121571  0.339695  0.123434  1
  Tm  Tm13  1  0.621513  0.160370  0.123725  1
  Tm  Tm14  1  0.121610  0.339487  0.376445  1
  Tm  Tm15  1  0.378485  0.839632  0.623515  1
  Tm  Tm16  1  0.209158  0.504539  0.749842  1
  Tm  Tm17  1  0.708681  0.995574  0.749826  1
  Tm  Tm18  1  0.791002  0.495304  0.250047  1
  Tm  Tm19  1  0.291015  0.004673  0.249972  1
  Sn  Sn20  1  0.573514  0.623279  0.749760  1
  Sn  Sn21  1  0.074567  0.877253  0.749620  1
  Sn  Sn22  1  0.425930  0.376801  0.250001  1
  Sn  Sn23  1  0.925992  0.123175  0.249961  1
  Sn  Sn24  1  0.343758  0.149002  0.750012  1
  Sn  Sn25  1  0.843780  0.350457  0.749823  1
  Sn  Sn26  1  0.656205  0.850859  0.249933  1
  Sn  Sn27  1  0.156106  0.649092  0.249950  1
  Pb  Pb28  1  0.282860  0.034030  0.041447  1
  Pb  Pb29  1  0.782856  0.465987  0.458572  1
  Pb  Pb30  1  0.717134  0.965965  0.541628  1
  Pb  Pb31  1  0.218493  0.533633  0.958564  1
  Pb  Pb32  1  0.716514  0.967125  0.958591  1
  Pb  Pb33  1  0.217128  0.534109  0.541605  1
  Pb  Pb34  1  0.282801  0.034049  0.458490  1
  Pb  Pb35  1  0.782445  0.465149  0.042081  1
