# generated using pymatgen
data_Li5Rh3
_symmetry_space_group_name_H-M   'P 1'
_cell_length_a   4.80020461
_cell_length_b   6.31020600
_cell_length_c   5.12201728
_cell_angle_alpha   104.17968872
_cell_angle_beta   118.00912562
_cell_angle_gamma   112.46411391
_symmetry_Int_Tables_number   1
_chemical_formula_structural   Li5Rh3
_chemical_formula_sum   'Li5 Rh3'
_cell_volume   108.10776221
_cell_formula_units_Z   1
loop_
 _symmetry_equiv_pos_site_id
 _symmetry_equiv_pos_as_xyz
  1  'x, y, z'
loop_
 _atom_site_type_symbol
 _atom_site_label
 _atom_site_symmetry_multiplicity
 _atom_site_fract_x
 _atom_site_fract_y
 _atom_site_fract_z
 _atom_site_occupancy
  Li  Li0  1  0.247121  0.836963  0.239516  1
  Li  Li1  1  0.040257  0.707529  0.609358  1
  Li  Li2  1  0.804324  0.970748  0.873662  1
  Li  Li3  1  0.309965  0.453071  0.360475  1
  Li  Li4  1  0.577026  0.224429  0.121845  1
  Rh  Rh5  1  0.996690  0.082003  0.494738  1
  Rh  Rh6  1  0.748282  0.336681  0.739268  1
  Rh  Rh7  1  0.495022  0.590376  0.982499  1
