# generated using pymatgen
data_DyHo11TlGaCo4
_symmetry_space_group_name_H-M   'P 1'
_cell_length_a   8.29706684
_cell_length_b   8.30245964
_cell_length_c   8.30245988
_cell_angle_alpha   112.01672709
_cell_angle_beta   109.53901788
_cell_angle_gamma   106.92264062
_symmetry_Int_Tables_number   1
_chemical_formula_structural   DyHo11TlGaCo4
_chemical_formula_sum   'Dy1 Ho11 Tl1 Ga1 Co4'
_cell_volume   439.26341308
_cell_formula_units_Z   1
loop_
 _symmetry_equiv_pos_site_id
 _symmetry_equiv_pos_as_xyz
  1  'x, y, z'
loop_
 _atom_site_type_symbol
 _atom_site_label
 _atom_site_symmetry_multiplicity
 _atom_site_fract_x
 _atom_site_fract_y
 _atom_site_fract_z
 _atom_site_occupancy
  Dy  Dy0  1  0.966595  0.266617  0.699977  1
  Ho  Ho1  1  0.033142  0.733445  0.299696  1
  Ho  Ho2  1  0.674510  0.861616  0.186639  1
  Ho  Ho3  1  0.325349  0.512301  0.187420  1
  Ho  Ho4  1  0.325349  0.137929  0.813049  1
  Ho  Ho5  1  0.674510  0.487869  0.812894  1
  Ho  Ho6  1  0.566097  0.266397  0.299700  1
  Ho  Ho7  1  0.433831  0.733689  0.700142  1
  Ho  Ho8  1  0.180669  0.782080  0.962517  1
  Ho  Ho9  1  0.819550  0.781496  0.601259  1
  Ho  Ho10  1  0.180669  0.218151  0.398588  1
  Ho  Ho11  1  0.819550  0.218291  0.038054  1
  Tl  Tl12  1  0.499430  0.999783  0.499648  1
  Ga  Ga13  1  0.000266  0.500483  0.499783  1
  Co  Co14  1  0.114813  0.114041  0.000772  1
  Co  Co15  1  0.885452  0.885686  0.999766  1
  Co  Co16  1  0.658657  0.499912  0.158745  1
  Co  Co17  1  0.341564  0.500214  0.841350  1
