# generated using pymatgen
data_MgAg7(SO4)6
_symmetry_space_group_name_H-M   'P 1'
_cell_length_a   8.59437199
_cell_length_b   8.59437193
_cell_length_c   8.59437147
_cell_angle_alpha   107.56525934
_cell_angle_beta   107.56526877
_cell_angle_gamma   107.56527867
_symmetry_Int_Tables_number   1
_chemical_formula_structural   MgAg7(SO4)6
_chemical_formula_sum   'Mg1 Ag7 S6 O24'
_cell_volume   520.30688101
_cell_formula_units_Z   1
loop_
 _symmetry_equiv_pos_site_id
 _symmetry_equiv_pos_as_xyz
  1  'x, y, z'
loop_
 _atom_site_type_symbol
 _atom_site_label
 _atom_site_symmetry_multiplicity
 _atom_site_fract_x
 _atom_site_fract_y
 _atom_site_fract_z
 _atom_site_occupancy
  Mg  Mg0  1  0.000000  0.000000  0.000000  1
  Ag  Ag1  1  0.500000  0.500000  0.500000  1
  Ag  Ag2  1  0.829185  0.337161  0.668383  1
  Ag  Ag3  1  0.337161  0.668383  0.829185  1
  Ag  Ag4  1  0.668383  0.829185  0.337161  1
  Ag  Ag5  1  0.170815  0.662839  0.331617  1
  Ag  Ag6  1  0.662839  0.331617  0.170815  1
  Ag  Ag7  1  0.331617  0.170815  0.662839  1
  S  S8  1  0.969790  0.758952  0.599084  1
  S  S9  1  0.758952  0.599084  0.969790  1
  S  S10  1  0.599084  0.969790  0.758952  1
  S  S11  1  0.030210  0.241048  0.400916  1
  S  S12  1  0.241048  0.400916  0.030210  1
  S  S13  1  0.400916  0.030210  0.241048  1
  O  O14  1  0.485811  0.913856  0.168683  1
  O  O15  1  0.913856  0.168683  0.485811  1
  O  O16  1  0.168683  0.485811  0.913856  1
  O  O17  1  0.514189  0.086144  0.831317  1
  O  O18  1  0.086144  0.831317  0.514189  1
  O  O19  1  0.831317  0.514189  0.086144  1
  O  O20  1  0.336482  0.979349  0.368025  1
  O  O21  1  0.979349  0.368025  0.336482  1
  O  O22  1  0.368025  0.336482  0.979349  1
  O  O23  1  0.663518  0.020651  0.631975  1
  O  O24  1  0.020651  0.631975  0.663518  1
  O  O25  1  0.631975  0.663518  0.020651  1
  O  O26  1  0.742724  0.983237  0.914381  1
  O  O27  1  0.983237  0.914381  0.742724  1
  O  O28  1  0.654652  0.453513  0.773664  1
  O  O29  1  0.773664  0.654652  0.453513  1
  O  O30  1  0.453513  0.773664  0.654652  1
  O  O31  1  0.345348  0.546487  0.226336  1
  O  O32  1  0.226336  0.345348  0.546487  1
  O  O33  1  0.546487  0.226336  0.345348  1
  O  O34  1  0.085619  0.257276  0.016763  1
  O  O35  1  0.016763  0.085619  0.257276  1
  O  O36  1  0.257276  0.016763  0.085619  1
  O  O37  1  0.914381  0.742724  0.983237  1
