# generated using pymatgen
data_LaPtF7
_symmetry_space_group_name_H-M   'P 1'
_cell_length_a   5.74347500
_cell_length_b   9.30748423
_cell_length_c   12.46838322
_cell_angle_alpha   61.90522900
_cell_angle_beta   90.00000000
_cell_angle_gamma   90.00000000
_symmetry_Int_Tables_number   1
_chemical_formula_structural   LaPtF7
_chemical_formula_sum   'La4 Pt4 F28'
_cell_volume   587.98926331
_cell_formula_units_Z   4
loop_
 _symmetry_equiv_pos_site_id
 _symmetry_equiv_pos_as_xyz
  1  'x, y, z'
loop_
 _atom_site_type_symbol
 _atom_site_label
 _atom_site_symmetry_multiplicity
 _atom_site_fract_x
 _atom_site_fract_y
 _atom_site_fract_z
 _atom_site_occupancy
  La  La0  1  0.760460  0.810425  0.764401  1
  La  La1  1  0.260460  0.189575  0.735599  1
  La  La2  1  0.239540  0.189575  0.235599  1
  La  La3  1  0.739540  0.810425  0.264401  1
  Pt  Pt4  1  0.756729  0.273628  0.957243  1
  Pt  Pt5  1  0.256729  0.726372  0.542757  1
  Pt  Pt6  1  0.243271  0.726372  0.042757  1
  Pt  Pt7  1  0.743271  0.273628  0.457243  1
  F  F8  1  0.429496  0.707162  0.917410  1
  F  F9  1  0.929496  0.292838  0.582590  1
  F  F10  1  0.570504  0.292838  0.082590  1
  F  F11  1  0.070504  0.707162  0.417410  1
  F  F12  1  0.452341  0.282007  0.538239  1
  F  F13  1  0.952341  0.717993  0.961761  1
  F  F14  1  0.547659  0.717993  0.461761  1
  F  F15  1  0.047659  0.282007  0.038239  1
  F  F16  1  0.765891  0.512724  0.862338  1
  F  F17  1  0.265891  0.487276  0.637662  1
  F  F18  1  0.234109  0.487276  0.137662  1
  F  F19  1  0.734109  0.512724  0.362338  1
  F  F20  1  0.757341  0.033933  0.047866  1
  F  F21  1  0.257341  0.966067  0.452134  1
  F  F22  1  0.242659  0.966067  0.952134  1
  F  F23  1  0.742659  0.033933  0.547866  1
  F  F24  1  0.970380  0.727993  0.628911  1
  F  F25  1  0.470380  0.272007  0.871089  1
  F  F26  1  0.029620  0.272007  0.371089  1
  F  F27  1  0.529620  0.727993  0.128911  1
  F  F28  1  0.060825  0.741275  0.170960  1
  F  F29  1  0.560825  0.258725  0.329040  1
  F  F30  1  0.939175  0.258725  0.829040  1
  F  F31  1  0.439175  0.741275  0.670960  1
  F  F32  1  0.404474  0.966386  0.230914  1
  F  F33  1  0.904474  0.033614  0.269086  1
  F  F34  1  0.595526  0.033614  0.769086  1
  F  F35  1  0.095526  0.966386  0.730914  1
