# generated using pymatgen
data_DyHo5Al14(Si5Os4)2
_symmetry_space_group_name_H-M   'P 1'
_cell_length_a   8.70275175
_cell_length_b   8.70308208
_cell_length_c   9.30431700
_cell_angle_alpha   90.00000000
_cell_angle_beta   90.00000000
_cell_angle_gamma   120.04636892
_symmetry_Int_Tables_number   1
_chemical_formula_structural   DyHo5Al14(Si5Os4)2
_chemical_formula_sum   'Dy1 Ho5 Al14 Si10 Os8'
_cell_volume   610.01665699
_cell_formula_units_Z   1
loop_
 _symmetry_equiv_pos_site_id
 _symmetry_equiv_pos_as_xyz
  1  'x, y, z'
loop_
 _atom_site_type_symbol
 _atom_site_label
 _atom_site_symmetry_multiplicity
 _atom_site_fract_x
 _atom_site_fract_y
 _atom_site_fract_z
 _atom_site_occupancy
  Dy  Dy0  1  0.190934  0.384326  0.250000  1
  Ho  Ho1  1  0.808058  0.613309  0.750000  1
  Ho  Ho2  1  0.614495  0.808393  0.250000  1
  Ho  Ho3  1  0.386811  0.192036  0.750000  1
  Ho  Ho4  1  0.193407  0.806603  0.250000  1
  Ho  Ho5  1  0.806032  0.194001  0.750000  1
  Al  Al6  1  0.165053  0.327965  0.579595  1
  Al  Al7  1  0.834902  0.668950  0.420164  1
  Al  Al8  1  0.672120  0.835023  0.579425  1
  Al  Al9  1  0.834902  0.668950  0.079836  1
  Al  Al10  1  0.331369  0.165213  0.420253  1
  Al  Al11  1  0.165053  0.327965  0.920405  1
  Al  Al12  1  0.163958  0.836098  0.579600  1
  Al  Al13  1  0.331369  0.165213  0.079747  1
  Al  Al14  1  0.833740  0.166078  0.421278  1
  Al  Al15  1  0.672120  0.835023  0.920575  1
  Al  Al16  1  0.833740  0.166078  0.078722  1
  Al  Al17  1  0.163958  0.836098  0.920400  1
  Al  Al18  1  0.435083  0.565118  0.750000  1
  Al  Al19  1  0.999819  0.000223  0.750000  1
  Si  Si20  1  0.334539  0.665654  0.040704  1
  Si  Si21  1  0.665982  0.334185  0.958089  1
  Si  Si22  1  0.665982  0.334185  0.541911  1
  Si  Si23  1  0.334539  0.665654  0.459296  1
  Si  Si24  1  0.561159  0.124088  0.250000  1
  Si  Si25  1  0.436175  0.875150  0.750000  1
  Si  Si26  1  0.875377  0.438896  0.250000  1
  Si  Si27  1  0.124890  0.563942  0.750000  1
  Si  Si28  1  0.563401  0.437235  0.250000  1
  Si  Si29  1  0.000119  0.997792  0.250000  1
  Os  Os30  1  0.500037  0.000655  0.000448  1
  Os  Os31  1  0.999282  0.500098  0.000339  1
  Os  Os32  1  0.500037  0.000655  0.499552  1
  Os  Os33  1  0.501083  0.499307  0.006271  1
  Os  Os34  1  0.999282  0.500098  0.499661  1
  Os  Os35  1  0.501083  0.499307  0.493729  1
  Os  Os36  1  0.000057  0.000216  0.007484  1
  Os  Os37  1  0.000057  0.000216  0.492516  1
