# generated using pymatgen
data_Ca3Zn(PO3)8
_symmetry_space_group_name_H-M   'P 1'
_cell_length_a   7.60596977
_cell_length_b   7.72239885
_cell_length_c   10.47395412
_cell_angle_alpha   67.09669787
_cell_angle_beta   66.79961159
_cell_angle_gamma   70.45857327
_symmetry_Int_Tables_number   1
_chemical_formula_structural   Ca3Zn(PO3)8
_chemical_formula_sum   'Ca3 Zn1 P8 O24'
_cell_volume   508.80865504
_cell_formula_units_Z   1
loop_
 _symmetry_equiv_pos_site_id
 _symmetry_equiv_pos_as_xyz
  1  'x, y, z'
loop_
 _atom_site_type_symbol
 _atom_site_label
 _atom_site_symmetry_multiplicity
 _atom_site_fract_x
 _atom_site_fract_y
 _atom_site_fract_z
 _atom_site_occupancy
  Ca  Ca0  1  0.000000  0.500000  0.500000  1
  Ca  Ca1  1  0.536590  0.453548  0.755496  1
  Ca  Ca2  1  0.463410  0.546452  0.244504  1
  Zn  Zn3  1  0.500000  0.000000  0.000000  1
  P  P4  1  0.800230  0.823048  0.695090  1
  P  P5  1  0.187990  0.188205  0.814197  1
  P  P6  1  0.199770  0.176952  0.304910  1
  P  P7  1  0.812010  0.811795  0.185803  1
  P  P8  1  0.766161  0.213523  0.475830  1
  P  P9  1  0.777006  0.228302  0.024116  1
  P  P10  1  0.233839  0.786477  0.524170  1
  P  P11  1  0.222994  0.771698  0.975884  1
  O  O12  1  0.031539  0.812154  0.655291  1
  O  O13  1  0.198241  0.965126  0.842235  1
  O  O14  1  0.968461  0.187846  0.344709  1
  O  O15  1  0.801759  0.034874  0.157765  1
  O  O16  1  0.740568  0.994795  0.559140  1
  O  O17  1  0.000535  0.249278  0.942109  1
  O  O18  1  0.259432  0.005205  0.440860  1
  O  O19  1  0.999465  0.750722  0.057891  1
  O  O20  1  0.696054  0.869866  0.834853  1
  O  O21  1  0.159726  0.299384  0.669559  1
  O  O22  1  0.303946  0.130134  0.165147  1
  O  O23  1  0.840274  0.700616  0.330441  1
  O  O24  1  0.777509  0.642989  0.682382  1
  O  O25  1  0.363212  0.202783  0.842777  1
  O  O26  1  0.222491  0.357011  0.317618  1
  O  O27  1  0.636788  0.797217  0.157223  1
  O  O28  1  0.791311  0.294708  0.576932  1
  O  O29  1  0.693540  0.193680  0.927911  1
  O  O30  1  0.208689  0.705292  0.423068  1
  O  O31  1  0.306460  0.806320  0.072089  1
  O  O32  1  0.395222  0.681339  0.589779  1
  O  O33  1  0.325982  0.605305  0.917955  1
  O  O34  1  0.604778  0.318661  0.410221  1
  O  O35  1  0.674018  0.394695  0.082045  1
