# generated using pymatgen
data_La16Yb3PrIr12
_symmetry_space_group_name_H-M   'P 1'
_cell_length_a   11.39349600
_cell_length_b   11.39349600
_cell_length_c   6.52453200
_cell_angle_alpha   90.00000000
_cell_angle_beta   90.00000000
_cell_angle_gamma   90.00000000
_symmetry_Int_Tables_number   1
_chemical_formula_structural   La16Yb3PrIr12
_chemical_formula_sum   'La16 Yb3 Pr1 Ir12'
_cell_volume   846.96092404
_cell_formula_units_Z   1
loop_
 _symmetry_equiv_pos_site_id
 _symmetry_equiv_pos_as_xyz
  1  'x, y, z'
loop_
 _atom_site_type_symbol
 _atom_site_label
 _atom_site_symmetry_multiplicity
 _atom_site_fract_x
 _atom_site_fract_y
 _atom_site_fract_z
 _atom_site_occupancy
  La  La0  1  0.286294  0.089404  0.386948  1
  La  La1  1  0.286996  0.911308  0.886109  1
  La  La2  1  0.713004  0.088692  0.886109  1
  La  La3  1  0.713706  0.910596  0.386948  1
  La  La4  1  0.589003  0.787533  0.885607  1
  La  La5  1  0.589851  0.209207  0.385747  1
  La  La6  1  0.410149  0.790793  0.385747  1
  La  La7  1  0.410997  0.212467  0.885607  1
  La  La8  1  0.209207  0.410149  0.614253  1
  La  La9  1  0.212467  0.589003  0.114393  1
  La  La10  1  0.787533  0.410997  0.114393  1
  La  La11  1  0.790793  0.589851  0.614253  1
  La  La12  1  0.911308  0.713004  0.113891  1
  La  La13  1  0.910596  0.286294  0.613052  1
  La  La14  1  0.089404  0.713706  0.613052  1
  La  La15  1  0.088692  0.286996  0.113891  1
  Yb  Yb16  1  0.000000  0.000000  0.500000  1
  Yb  Yb17  1  0.000000  0.000000  0.000000  1
  Yb  Yb18  1  0.500000  0.500000  0.000000  1
  Pr  Pr19  1  0.500000  0.500000  0.500000  1
  Ir  Ir20  1  0.844948  0.155278  0.249025  1
  Ir  Ir21  1  0.844722  0.844948  0.750975  1
  Ir  Ir22  1  0.155278  0.155052  0.750975  1
  Ir  Ir23  1  0.155052  0.844722  0.249025  1
  Ir  Ir24  1  0.655629  0.344781  0.748384  1
  Ir  Ir25  1  0.655219  0.655629  0.251616  1
  Ir  Ir26  1  0.344781  0.344371  0.251616  1
  Ir  Ir27  1  0.344371  0.655219  0.748384  1
  Ir  Ir28  1  0.500000  0.000000  0.113060  1
  Ir  Ir29  1  0.500000  0.000000  0.615269  1
  Ir  Ir30  1  0.000000  0.500000  0.886940  1
  Ir  Ir31  1  0.000000  0.500000  0.384731  1
