# generated using pymatgen
data_Nd2(S2O7)3
_symmetry_space_group_name_H-M   'P 1'
_cell_length_a   6.71133342
_cell_length_b   10.36095690
_cell_length_c   11.80463100
_cell_angle_alpha   91.01991303
_cell_angle_beta   96.78929167
_cell_angle_gamma   94.87733159
_symmetry_Int_Tables_number   1
_chemical_formula_structural   Nd2(S2O7)3
_chemical_formula_sum   'Nd4 S12 O42'
_cell_volume   811.81554991
_cell_formula_units_Z   2
loop_
 _symmetry_equiv_pos_site_id
 _symmetry_equiv_pos_as_xyz
  1  'x, y, z'
loop_
 _atom_site_type_symbol
 _atom_site_label
 _atom_site_symmetry_multiplicity
 _atom_site_fract_x
 _atom_site_fract_y
 _atom_site_fract_z
 _atom_site_occupancy
  Nd  Nd0  1  0.832242  0.411412  0.721890  1
  Nd  Nd1  1  0.167758  0.588588  0.278110  1
  Nd  Nd2  1  0.402262  0.905099  0.737346  1
  Nd  Nd3  1  0.597738  0.094901  0.262654  1
  S  S4  1  0.362419  0.554567  0.765310  1
  S  S5  1  0.637581  0.445433  0.234690  1
  S  S6  1  0.418273  0.186988  0.548307  1
  S  S7  1  0.581727  0.813012  0.451693  1
  S  S8  1  0.706707  0.671240  0.907796  1
  S  S9  1  0.293293  0.328760  0.092204  1
  S  S10  1  0.926171  0.070996  0.775312  1
  S  S11  1  0.073829  0.929004  0.224688  1
  S  S12  1  0.677762  0.165579  0.932218  1
  S  S13  1  0.322238  0.834421  0.067782  1
  S  S14  1  0.038526  0.298168  0.459355  1
  S  S15  1  0.961473  0.701832  0.540645  1
  O  O16  1  0.673427  0.778836  0.830815  1
  O  O17  1  0.326573  0.221164  0.169185  1
  O  O18  1  0.296281  0.679211  0.726914  1
  O  O19  1  0.703719  0.320789  0.273086  1
  O  O20  1  0.343158  0.059972  0.585051  1
  O  O21  1  0.656842  0.940028  0.414949  1
  O  O22  1  0.877578  0.088080  0.908553  1
  O  O23  1  0.122422  0.911920  0.091447  1
  O  O24  1  0.477198  0.578367  0.891966  1
  O  O25  1  0.522802  0.421633  0.108034  1
  O  O26  1  0.743814  0.007265  0.712117  1
  O  O27  1  0.256186  0.992735  0.287883  1
  O  O28  1  0.844145  0.582296  0.868350  1
  O  O29  1  0.155855  0.417704  0.131650  1
  O  O30  1  0.978834  0.201322  0.737301  1
  O  O31  1  0.021166  0.798678  0.262699  1
  O  O32  1  0.235804  0.279107  0.555835  1
  O  O33  1  0.764196  0.720893  0.444165  1
  O  O34  1  0.711504  0.293883  0.884600  1
  O  O35  1  0.288496  0.706117  0.115400  1
  O  O36  1  0.466389  0.188818  0.431696  1
  O  O37  1  0.533611  0.811182  0.568304  1
  O  O38  1  0.192463  0.461869  0.778897  1
  O  O39  1  0.807537  0.538131  0.221103  1
  O  O40  1  0.572831  0.252152  0.631148  1
  O  O41  1  0.427169  0.747848  0.368852  1
  O  O42  1  0.506859  0.504846  0.695853  1
  O  O43  1  0.493141  0.495154  0.304147  1
  O  O44  1  0.094700  0.991986  0.789206  1
  O  O45  1  0.905300  0.008014  0.210794  1
  O  O46  1  0.689569  0.165696  0.054870  1
  O  O47  1  0.310431  0.834304  0.945130  1
  O  O48  1  0.734833  0.702420  0.026936  1
  O  O49  1  0.265167  0.297580  0.973064  1
  O  O50  1  0.921011  0.368851  0.532206  1
  O  O51  1  0.078989  0.631149  0.467794  1
  O  O52  1  0.948979  0.171248  0.419414  1
  O  O53  1  0.051021  0.828752  0.580586  1
  O  O54  1  0.122159  0.378343  0.373534  1
  O  O55  1  0.877841  0.621657  0.626466  1
  O  O56  1  0.504965  0.086906  0.872224  1
  O  O57  1  0.495035  0.913094  0.127776  1
