# generated using pymatgen
data_KNd(NbCl3)6
_symmetry_space_group_name_H-M   'P 1'
_cell_length_a   10.31834689
_cell_length_b   10.31834657
_cell_length_c   10.31834643
_cell_angle_alpha   55.22066517
_cell_angle_beta   55.22066815
_cell_angle_gamma   55.22067155
_symmetry_Int_Tables_number   1
_chemical_formula_structural   KNd(NbCl3)6
_chemical_formula_sum   'K1 Nd1 Nb6 Cl18'
_cell_volume   690.50792348
_cell_formula_units_Z   1
loop_
 _symmetry_equiv_pos_site_id
 _symmetry_equiv_pos_as_xyz
  1  'x, y, z'
loop_
 _atom_site_type_symbol
 _atom_site_label
 _atom_site_symmetry_multiplicity
 _atom_site_fract_x
 _atom_site_fract_y
 _atom_site_fract_z
 _atom_site_occupancy
  K  K0  1  0.221607  0.221607  0.221607  1
  Nd  Nd1  1  0.498490  0.498490  0.498490  1
  Nb  Nb2  1  0.800430  0.147680  0.915153  1
  Nb  Nb3  1  0.915153  0.800430  0.147680  1
  Nb  Nb4  1  0.147680  0.915153  0.800430  1
  Nb  Nb5  1  0.200570  0.852585  0.084004  1
  Nb  Nb6  1  0.084004  0.200570  0.852585  1
  Nb  Nb7  1  0.852585  0.084004  0.200570  1
  Cl  Cl8  1  0.862044  0.409729  0.729607  1
  Cl  Cl9  1  0.729607  0.862044  0.409729  1
  Cl  Cl10  1  0.409729  0.729607  0.862044  1
  Cl  Cl11  1  0.137915  0.589276  0.271518  1
  Cl  Cl12  1  0.271518  0.137915  0.589276  1
  Cl  Cl13  1  0.589276  0.271518  0.137915  1
  Cl  Cl14  1  0.531664  0.337970  0.813084  1
  Cl  Cl15  1  0.813084  0.531664  0.337970  1
  Cl  Cl16  1  0.337970  0.813084  0.531664  1
  Cl  Cl17  1  0.462401  0.663466  0.191417  1
  Cl  Cl18  1  0.191417  0.462401  0.663466  1
  Cl  Cl19  1  0.663466  0.191417  0.462401  1
  Cl  Cl20  1  0.664786  0.937625  0.073690  1
  Cl  Cl21  1  0.073690  0.664786  0.937625  1
  Cl  Cl22  1  0.937625  0.073690  0.664786  1
  Cl  Cl23  1  0.335421  0.062740  0.926267  1
  Cl  Cl24  1  0.926267  0.335421  0.062740  1
  Cl  Cl25  1  0.062740  0.926267  0.335421  1
