# generated using pymatgen
data_Tb8YbMg(SiB4)4
_symmetry_space_group_name_H-M   'P 1'
_cell_length_a   7.21168300
_cell_length_b   7.21168300
_cell_length_c   8.05515500
_cell_angle_alpha   90.00000000
_cell_angle_beta   90.00000000
_cell_angle_gamma   90.00000000
_symmetry_Int_Tables_number   1
_chemical_formula_structural   Tb8YbMg(SiB4)4
_chemical_formula_sum   'Tb8 Yb1 Mg1 Si4 B16'
_cell_volume   418.93549528
_cell_formula_units_Z   1
loop_
 _symmetry_equiv_pos_site_id
 _symmetry_equiv_pos_as_xyz
  1  'x, y, z'
loop_
 _atom_site_type_symbol
 _atom_site_label
 _atom_site_symmetry_multiplicity
 _atom_site_fract_x
 _atom_site_fract_y
 _atom_site_fract_z
 _atom_site_occupancy
  Tb  Tb0  1  0.683045  0.181752  0.230276  1
  Tb  Tb1  1  0.316955  0.818248  0.769724  1
  Tb  Tb2  1  0.316955  0.818248  0.230276  1
  Tb  Tb3  1  0.818248  0.683045  0.230276  1
  Tb  Tb4  1  0.818248  0.683045  0.769724  1
  Tb  Tb5  1  0.683045  0.181752  0.769724  1
  Tb  Tb6  1  0.181752  0.316955  0.769724  1
  Tb  Tb7  1  0.181752  0.316955  0.230276  1
  Yb  Yb8  1  0.500000  0.500000  0.500000  1
  Mg  Mg9  1  0.000000  0.000000  0.500000  1
  Si  Si10  1  0.109214  0.619639  0.500000  1
  Si  Si11  1  0.890786  0.380361  0.500000  1
  Si  Si12  1  0.380361  0.109214  0.500000  1
  Si  Si13  1  0.619639  0.890786  0.500000  1
  B  B14  1  0.173966  0.038865  0.000000  1
  B  B15  1  0.826034  0.961135  0.000000  1
  B  B16  1  0.961135  0.173966  0.000000  1
  B  B17  1  0.327278  0.539637  0.000000  1
  B  B18  1  0.038865  0.826034  0.000000  1
  B  B19  1  0.672722  0.460363  0.000000  1
  B  B20  1  0.539637  0.672722  0.000000  1
  B  B21  1  0.460363  0.327278  0.000000  1
  B  B22  1  0.089422  0.588912  0.000000  1
  B  B23  1  0.910578  0.411088  0.000000  1
  B  B24  1  0.411088  0.089422  0.000000  1
  B  B25  1  0.588912  0.910578  0.000000  1
  B  B26  1  0.000000  0.000000  0.156970  1
  B  B27  1  0.000000  0.000000  0.843030  1
  B  B28  1  0.500000  0.500000  0.841201  1
  B  B29  1  0.500000  0.500000  0.158799  1
