# generated using pymatgen
data_Mn(S4Cl)4
_symmetry_space_group_name_H-M   'P 1'
_cell_length_a   15.26521094
_cell_length_b   12.56195678
_cell_length_c   12.15791132
_cell_angle_alpha   76.25217311
_cell_angle_beta   53.06697983
_cell_angle_gamma   50.68085088
_symmetry_Int_Tables_number   1
_chemical_formula_structural   Mn(S4Cl)4
_chemical_formula_sum   'Mn2 S32 Cl8'
_cell_volume   1402.59570675
_cell_formula_units_Z   2
loop_
 _symmetry_equiv_pos_site_id
 _symmetry_equiv_pos_as_xyz
  1  'x, y, z'
loop_
 _atom_site_type_symbol
 _atom_site_label
 _atom_site_symmetry_multiplicity
 _atom_site_fract_x
 _atom_site_fract_y
 _atom_site_fract_z
 _atom_site_occupancy
  Mn  Mn0  1  0.247055  0.252945  0.252945  1
  Mn  Mn1  1  0.997055  0.002945  0.002945  1
  S  S2  1  0.525798  0.463854  0.266190  1
  S  S3  1  0.319057  0.883978  0.160243  1
  S  S4  1  0.744159  0.266190  0.463854  1
  S  S5  1  0.812704  0.527864  0.325939  1
  S  S6  1  0.636721  0.160243  0.883978  1
  S  S7  1  0.176081  0.308448  0.650575  1
  S  S8  1  0.599096  0.928532  0.588079  1
  S  S9  1  0.322763  0.818990  0.330924  1
  S  S10  1  0.632226  0.649521  0.337081  1
  S  S11  1  0.333493  0.325939  0.527864  1
  S  S12  1  0.722136  0.437296  0.916507  1
  S  S13  1  0.786146  0.724202  0.505841  1
  S  S14  1  0.321468  0.650904  0.365707  1
  S  S15  1  0.912919  0.868827  0.617774  1
  S  S16  1  0.599425  0.385104  0.073919  1
  S  S17  1  0.884293  0.588079  0.928532  1
  S  S18  1  0.268423  0.546039  0.727297  1
  S  S19  1  0.703961  0.981577  0.791759  1
  S  S20  1  0.431010  0.927237  0.722677  1
  S  S21  1  0.366022  0.930943  0.613279  1
  S  S22  1  0.381173  0.337081  0.649521  1
  S  S23  1  0.941552  0.073919  0.385104  1
  S  S24  1  0.089757  0.613279  0.930943  1
  S  S25  1  0.527323  0.330924  0.818990  1
  S  S26  1  0.522703  0.791759  0.981577  1
  S  S27  1  0.924061  0.916507  0.437296  1
  S  S28  1  0.661921  0.365707  0.650904  1
  S  S29  1  0.864896  0.650575  0.308448  1
  S  S30  1  0.919076  0.722677  0.927237  1
  S  S31  1  0.600479  0.617774  0.868827  1
  S  S32  1  0.458241  0.727297  0.546039  1
  S  S33  1  0.983810  0.505841  0.724202  1
  Cl  Cl34  1  0.188747  0.812565  0.964723  1
  Cl  Cl35  1  0.955854  0.190860  0.043951  1
  Cl  Cl36  1  0.033963  0.964723  0.812565  1
  Cl  Cl37  1  0.809335  0.043951  0.190860  1
  Cl  Cl38  1  0.437435  0.061253  0.216037  1
  Cl  Cl39  1  0.285277  0.216037  0.061253  1
  Cl  Cl40  1  0.206049  0.440665  0.294146  1
  Cl  Cl41  1  0.059140  0.294146  0.440665  1
