# generated using pymatgen
data_La2Dy(Ga2Ni3)3
_symmetry_space_group_name_H-M   'P 1'
_cell_length_a   4.12288600
_cell_length_b   8.88239428
_cell_length_c   8.92928437
_cell_angle_alpha   119.82643654
_cell_angle_beta   90.00000000
_cell_angle_gamma   90.00000000
_symmetry_Int_Tables_number   1
_chemical_formula_structural   La2Dy(Ga2Ni3)3
_chemical_formula_sum   'La2 Dy1 Ga6 Ni9'
_cell_volume   283.68446982
_cell_formula_units_Z   1
loop_
 _symmetry_equiv_pos_site_id
 _symmetry_equiv_pos_as_xyz
  1  'x, y, z'
loop_
 _atom_site_type_symbol
 _atom_site_label
 _atom_site_symmetry_multiplicity
 _atom_site_fract_x
 _atom_site_fract_y
 _atom_site_fract_z
 _atom_site_occupancy
  La  La0  1  0.500000  0.332669  0.665922  1
  La  La1  1  0.500000  0.666748  0.334078  1
  Dy  Dy2  1  0.000000  0.998399  0.000000  1
  Ga  Ga3  1  0.000000  0.522707  0.000000  1
  Ga  Ga4  1  0.000000  0.478020  0.476980  1
  Ga  Ga5  1  0.000000  0.001041  0.523020  1
  Ga  Ga6  1  0.500000  0.265856  0.000000  1
  Ga  Ga7  1  0.500000  0.734090  0.734326  1
  Ga  Ga8  1  0.500000  0.999763  0.265674  1
  Ni  Ni9  1  0.000000  0.169078  0.364661  1
  Ni  Ni10  1  0.000000  0.196232  0.831092  1
  Ni  Ni11  1  0.000000  0.632750  0.801205  1
  Ni  Ni12  1  0.000000  0.804417  0.635339  1
  Ni  Ni13  1  0.000000  0.365140  0.168908  1
  Ni  Ni14  1  0.000000  0.831545  0.198795  1
  Ni  Ni15  1  0.500000  0.712674  0.000000  1
  Ni  Ni16  1  0.500000  0.288188  0.287600  1
  Ni  Ni17  1  0.500000  0.000587  0.712400  1
