# generated using pymatgen
data_Lu4VCo4
_symmetry_space_group_name_H-M   'P 1'
_cell_length_a   5.45866342
_cell_length_b   5.45866285
_cell_length_c   8.74785058
_cell_angle_alpha   72.26684290
_cell_angle_beta   72.26684268
_cell_angle_gamma   40.75503256
_symmetry_Int_Tables_number   1
_chemical_formula_structural   Lu4VCo4
_chemical_formula_sum   'Lu4 V1 Co4'
_cell_volume   160.93271061
_cell_formula_units_Z   1
loop_
 _symmetry_equiv_pos_site_id
 _symmetry_equiv_pos_as_xyz
  1  'x, y, z'
loop_
 _atom_site_type_symbol
 _atom_site_label
 _atom_site_symmetry_multiplicity
 _atom_site_fract_x
 _atom_site_fract_y
 _atom_site_fract_z
 _atom_site_occupancy
  Lu  Lu0  1  0.742527  0.742527  0.663386  1
  Lu  Lu1  1  0.257473  0.257473  0.336614  1
  Lu  Lu2  1  0.389911  0.389911  0.888393  1
  Lu  Lu3  1  0.610089  0.610089  0.111607  1
  V  V4  1  0.500000  0.500000  0.500000  1
  Co  Co5  1  0.032067  0.032067  0.641610  1
  Co  Co6  1  0.967933  0.967933  0.358390  1
  Co  Co7  1  0.091696  0.091696  0.879753  1
  Co  Co8  1  0.908304  0.908304  0.120247  1
