# generated using pymatgen
data_Y3Tm(Al8Ni3)3
_symmetry_space_group_name_H-M   'P 1'
_cell_length_a   7.30817017
_cell_length_b   7.34475869
_cell_length_c   12.78364761
_cell_angle_alpha   84.63680314
_cell_angle_beta   79.12770360
_cell_angle_gamma   60.01191807
_symmetry_Int_Tables_number   1
_chemical_formula_structural   Y3Tm(Al8Ni3)3
_chemical_formula_sum   'Y3 Tm1 Al24 Ni9'
_cell_volume   583.65628517
_cell_formula_units_Z   1
loop_
 _symmetry_equiv_pos_site_id
 _symmetry_equiv_pos_as_xyz
  1  'x, y, z'
loop_
 _atom_site_type_symbol
 _atom_site_label
 _atom_site_symmetry_multiplicity
 _atom_site_fract_x
 _atom_site_fract_y
 _atom_site_fract_z
 _atom_site_occupancy
  Y  Y0  1  0.394200  0.168773  0.805206  1
  Y  Y1  1  0.605833  0.831336  0.194961  1
  Y  Y2  1  0.734857  0.497563  0.805301  1
  Tm  Tm3  1  0.264594  0.502338  0.195812  1
  Al  Al4  1  0.680852  0.833559  0.948412  1
  Al  Al5  1  0.319065  0.167216  0.052483  1
  Al  Al6  1  0.146032  0.833029  0.559404  1
  Al  Al7  1  0.854182  0.166835  0.440090  1
  Al  Al8  1  0.480695  0.166666  0.557091  1
  Al  Al9  1  0.519316  0.833407  0.442610  1
  Al  Al10  1  0.214906  0.165967  0.336212  1
  Al  Al11  1  0.785372  0.834423  0.662986  1
  Al  Al12  1  0.439140  0.506719  0.662827  1
  Al  Al13  1  0.560728  0.493266  0.336365  1
  Al  Al14  1  0.111760  0.159001  0.661573  1
  Al  Al15  1  0.888954  0.840536  0.337658  1
  Al  Al16  1  0.353171  0.497295  0.949215  1
  Al  Al17  1  0.645248  0.502976  0.052300  1
  Al  Al18  1  0.012891  0.168980  0.961591  1
  Al  Al19  1  0.987283  0.830329  0.039614  1
  Al  Al20  1  0.186537  0.499650  0.442325  1
  Al  Al21  1  0.813772  0.500300  0.557175  1
  Al  Al22  1  0.727795  0.165498  0.184884  1
  Al  Al23  1  0.271054  0.835617  0.815175  1
  Al  Al24  1  0.062203  0.626658  0.813958  1
  Al  Al25  1  0.939061  0.373382  0.186015  1
  Al  Al26  1  0.852102  0.045336  0.815123  1
  Al  Al27  1  0.147980  0.953344  0.184732  1
  Ni  Ni28  1  0.119286  0.493629  0.637398  1
  Ni  Ni29  1  0.880431  0.506852  0.362191  1
  Ni  Ni30  1  0.658716  0.170086  0.000196  1
  Ni  Ni31  1  0.341118  0.829317  0.000170  1
  Ni  Ni32  1  0.538882  0.167173  0.362217  1
  Ni  Ni33  1  0.461367  0.833188  0.637520  1
  Ni  Ni34  1  0.779071  0.174060  0.636877  1
  Ni  Ni35  1  0.221338  0.825593  0.362213  1
  Ni  Ni36  1  0.000210  0.500106  0.000121  1
