# generated using pymatgen
data_Ba6Ta3AsS16
_symmetry_space_group_name_H-M   'P 1'
_cell_length_a   11.31923534
_cell_length_b   11.31923433
_cell_length_c   11.31923500
_cell_angle_alpha   51.63092690
_cell_angle_beta   51.63093094
_cell_angle_gamma   51.63093202
_symmetry_Int_Tables_number   1
_chemical_formula_structural   Ba6Ta3AsS16
_chemical_formula_sum   'Ba6 Ta3 As1 S16'
_cell_volume   823.51272488
_cell_formula_units_Z   1
loop_
 _symmetry_equiv_pos_site_id
 _symmetry_equiv_pos_as_xyz
  1  'x, y, z'
loop_
 _atom_site_type_symbol
 _atom_site_label
 _atom_site_symmetry_multiplicity
 _atom_site_fract_x
 _atom_site_fract_y
 _atom_site_fract_z
 _atom_site_occupancy
  Ba  Ba0  1  0.750305  0.433192  0.067611  1
  Ba  Ba1  1  0.571865  0.929638  0.247186  1
  Ba  Ba2  1  0.067611  0.750305  0.433193  1
  Ba  Ba3  1  0.929639  0.247186  0.571865  1
  Ba  Ba4  1  0.433193  0.067612  0.750304  1
  Ba  Ba5  1  0.247186  0.571865  0.929639  1
  Ta  Ta6  1  0.160435  0.160435  0.160435  1
  Ta  Ta7  1  0.339572  0.339572  0.339572  1
  Ta  Ta8  1  0.660392  0.660392  0.660392  1
  As  As9  1  0.839209  0.839209  0.839209  1
  S  S10  1  0.618748  0.789530  0.034829  1
  S  S11  1  0.082254  0.082254  0.082254  1
  S  S12  1  0.542752  0.286225  0.110401  1
  S  S13  1  0.956448  0.388609  0.215395  1
  S  S14  1  0.110401  0.542751  0.286225  1
  S  S15  1  0.215394  0.956449  0.388609  1
  S  S16  1  0.417935  0.417935  0.417935  1
  S  S17  1  0.713585  0.889764  0.457478  1
  S  S18  1  0.286225  0.110401  0.542752  1
  S  S19  1  0.582190  0.582190  0.582190  1
  S  S20  1  0.789530  0.034829  0.618748  1
  S  S21  1  0.889764  0.457479  0.713585  1
  S  S22  1  0.034829  0.618748  0.789530  1
  S  S23  1  0.457479  0.713585  0.889764  1
  S  S24  1  0.914448  0.914448  0.914448  1
  S  S25  1  0.388610  0.215394  0.956448  1
