# generated using pymatgen
data_Ca8Cu2Si12RhAu
_symmetry_space_group_name_H-M   'P 1'
_cell_length_a   8.18543600
_cell_length_b   8.18543642
_cell_length_c   8.59073100
_cell_angle_alpha   90.00000000
_cell_angle_beta   90.00000000
_cell_angle_gamma   119.99999831
_symmetry_Int_Tables_number   1
_chemical_formula_structural   Ca8Cu2Si12RhAu
_chemical_formula_sum   'Ca8 Cu2 Si12 Rh1 Au1'
_cell_volume   498.47618672
_cell_formula_units_Z   1
loop_
 _symmetry_equiv_pos_site_id
 _symmetry_equiv_pos_as_xyz
  1  'x, y, z'
loop_
 _atom_site_type_symbol
 _atom_site_label
 _atom_site_symmetry_multiplicity
 _atom_site_fract_x
 _atom_site_fract_y
 _atom_site_fract_z
 _atom_site_occupancy
  Ca  Ca0  1  0.000000  0.000000  0.252018  1
  Ca  Ca1  1  0.000000  0.000000  0.747812  1
  Ca  Ca2  1  0.497608  0.502392  0.246716  1
  Ca  Ca3  1  0.497608  0.995216  0.246716  1
  Ca  Ca4  1  0.004784  0.502392  0.246716  1
  Ca  Ca5  1  0.496921  0.503079  0.753186  1
  Ca  Ca6  1  0.496921  0.993839  0.753186  1
  Ca  Ca7  1  0.006161  0.503079  0.753186  1
  Cu  Cu8  1  0.333333  0.666667  0.499447  1
  Cu  Cu9  1  0.666667  0.333333  0.501618  1
  Si  Si10  1  0.167076  0.832924  0.499823  1
  Si  Si11  1  0.167076  0.334152  0.499823  1
  Si  Si12  1  0.665848  0.832924  0.499823  1
  Si  Si13  1  0.832119  0.167881  0.500191  1
  Si  Si14  1  0.832119  0.664237  0.500191  1
  Si  Si15  1  0.335763  0.167881  0.500191  1
  Si  Si16  1  0.839383  0.160617  0.999748  1
  Si  Si17  1  0.839383  0.678764  0.999748  1
  Si  Si18  1  0.321236  0.160617  0.999748  1
  Si  Si19  1  0.169549  0.830451  0.000146  1
  Si  Si20  1  0.169549  0.339098  0.000146  1
  Si  Si21  1  0.660902  0.830451  0.000146  1
  Rh  Rh22  1  0.333333  0.666667  0.000640  1
  Au  Au23  1  0.666667  0.333333  0.999042  1
