# generated using pymatgen
data_Cs2(TaBr3)3
_symmetry_space_group_name_H-M   'P 1'
_cell_length_a   10.91510543
_cell_length_b   10.91510546
_cell_length_c   10.75012611
_cell_angle_alpha   76.45212727
_cell_angle_beta   76.45212751
_cell_angle_gamma   116.19909128
_symmetry_Int_Tables_number   1
_chemical_formula_structural   Cs2(TaBr3)3
_chemical_formula_sum   'Cs4 Ta6 Br18'
_cell_volume   1030.10179989
_cell_formula_units_Z   2
loop_
 _symmetry_equiv_pos_site_id
 _symmetry_equiv_pos_as_xyz
  1  'x, y, z'
loop_
 _atom_site_type_symbol
 _atom_site_label
 _atom_site_symmetry_multiplicity
 _atom_site_fract_x
 _atom_site_fract_y
 _atom_site_fract_z
 _atom_site_occupancy
  Cs  Cs0  1  0.735025  0.051329  0.322503  1
  Cs  Cs1  1  0.264975  0.948671  0.677497  1
  Cs  Cs2  1  0.948671  0.264975  0.677497  1
  Cs  Cs3  1  0.051329  0.735025  0.322503  1
  Ta  Ta4  1  0.603223  0.603223  0.117075  1
  Ta  Ta5  1  0.396777  0.396777  0.882925  1
  Ta  Ta6  1  0.457674  0.299209  0.128127  1
  Ta  Ta7  1  0.542326  0.700791  0.871873  1
  Ta  Ta8  1  0.700791  0.542326  0.871873  1
  Ta  Ta9  1  0.299209  0.457674  0.128127  1
  Br  Br10  1  0.697363  0.302637  0.000000  1
  Br  Br11  1  0.302637  0.697363  0.000000  1
  Br  Br12  1  0.398192  0.020753  0.305548  1
  Br  Br13  1  0.601808  0.979247  0.694452  1
  Br  Br14  1  0.979247  0.601808  0.694452  1
  Br  Br15  1  0.020753  0.398192  0.305548  1
  Br  Br16  1  0.320858  0.122371  0.013659  1
  Br  Br17  1  0.679142  0.877629  0.986341  1
  Br  Br18  1  0.877629  0.679142  0.986341  1
  Br  Br19  1  0.122371  0.320858  0.013659  1
  Br  Br20  1  0.743831  0.743831  0.274822  1
  Br  Br21  1  0.256169  0.256169  0.725178  1
  Br  Br22  1  0.803951  0.803951  0.681195  1
  Br  Br23  1  0.196049  0.196049  0.318805  1
  Br  Br24  1  0.575115  0.378168  0.303168  1
  Br  Br25  1  0.424885  0.621832  0.696832  1
  Br  Br26  1  0.621832  0.424885  0.696832  1
  Br  Br27  1  0.378168  0.575115  0.303168  1
