# generated using pymatgen
data_Th3Al2ZnCo2Cu
_symmetry_space_group_name_H-M   'P 1'
_cell_length_a   7.15610300
_cell_length_b   7.12194894
_cell_length_c   3.97696800
_cell_angle_alpha   90.00000000
_cell_angle_beta   90.00000000
_cell_angle_gamma   120.15875990
_symmetry_Int_Tables_number   1
_chemical_formula_structural   Th3Al2ZnCo2Cu
_chemical_formula_sum   'Th3 Al2 Zn1 Co2 Cu1'
_cell_volume   175.25126857
_cell_formula_units_Z   1
loop_
 _symmetry_equiv_pos_site_id
 _symmetry_equiv_pos_as_xyz
  1  'x, y, z'
loop_
 _atom_site_type_symbol
 _atom_site_label
 _atom_site_symmetry_multiplicity
 _atom_site_fract_x
 _atom_site_fract_y
 _atom_site_fract_z
 _atom_site_occupancy
  Th  Th0  1  0.568569  0.000000  0.000000  1
  Th  Th1  1  0.002587  0.575924  0.000000  1
  Th  Th2  1  0.426663  0.424076  0.000000  1
  Al  Al3  1  0.997817  0.232449  0.500000  1
  Al  Al4  1  0.765369  0.767551  0.500000  1
  Zn  Zn5  1  0.232152  0.000000  0.500000  1
  Co  Co6  1  0.335072  0.654647  0.500000  1
  Co  Co7  1  0.680426  0.345353  0.500000  1
  Cu  Cu8  1  0.991345  0.000000  0.000000  1
