# generated using pymatgen
data_Tb5Y7AlInCo4
_symmetry_space_group_name_H-M   'P 1'
_cell_length_a   8.40137484
_cell_length_b   8.40137323
_cell_length_c   8.38501273
_cell_angle_alpha   111.87781957
_cell_angle_beta   109.70147519
_cell_angle_gamma   106.95581991
_symmetry_Int_Tables_number   1
_chemical_formula_structural   Tb5Y7AlInCo4
_chemical_formula_sum   'Tb5 Y7 Al1 In1 Co4'
_cell_volume   454.28399550
_cell_formula_units_Z   1
loop_
 _symmetry_equiv_pos_site_id
 _symmetry_equiv_pos_as_xyz
  1  'x, y, z'
loop_
 _atom_site_type_symbol
 _atom_site_label
 _atom_site_symmetry_multiplicity
 _atom_site_fract_x
 _atom_site_fract_y
 _atom_site_fract_z
 _atom_site_occupancy
  Tb  Tb0  1  0.819234  0.283032  0.102267  1
  Tb  Tb1  1  0.324167  0.638156  0.313962  1
  Tb  Tb2  1  0.676034  0.362146  0.686156  1
  Tb  Tb3  1  0.324011  0.010123  0.686156  1
  Tb  Tb4  1  0.675806  0.989794  0.313962  1
  Y  Y5  1  0.434203  0.234834  0.199495  1
  Y  Y6  1  0.565943  0.765284  0.800851  1
  Y  Y7  1  0.035568  0.234908  0.800851  1
  Y  Y8  1  0.964661  0.765292  0.199495  1
  Y  Y9  1  0.181605  0.282446  0.464051  1
  Y  Y10  1  0.818478  0.717408  0.535886  1
  Y  Y11  1  0.181158  0.717233  0.898391  1
  Al  Al12  1  0.000162  0.999449  0.999611  1
  In  In13  1  0.500029  0.500158  0.000187  1
  Co  Co14  1  0.334662  0.000108  0.334771  1
  Co  Co15  1  0.665685  0.000213  0.665897  1
  Co  Co16  1  0.112285  0.612694  0.499006  1
  Co  Co17  1  0.886312  0.386721  0.499006  1
