# generated using pymatgen
data_Rb6As4W
_symmetry_space_group_name_H-M   'P 1'
_cell_length_a   10.73346800
_cell_length_b   10.73346704
_cell_length_c   8.60348200
_cell_angle_alpha   90.00000000
_cell_angle_beta   90.00000000
_cell_angle_gamma   119.99999064
_symmetry_Int_Tables_number   1
_chemical_formula_structural   Rb6As4W
_chemical_formula_sum   'Rb12 As8 W2'
_cell_volume   858.39073166
_cell_formula_units_Z   2
loop_
 _symmetry_equiv_pos_site_id
 _symmetry_equiv_pos_as_xyz
  1  'x, y, z'
loop_
 _atom_site_type_symbol
 _atom_site_label
 _atom_site_symmetry_multiplicity
 _atom_site_fract_x
 _atom_site_fract_y
 _atom_site_fract_z
 _atom_site_occupancy
  Rb  Rb0  1  0.146595  0.293192  0.287445  1
  Rb  Rb1  1  0.853405  0.146595  0.787445  1
  Rb  Rb2  1  0.532768  0.467232  0.104598  1
  Rb  Rb3  1  0.065535  0.532768  0.604598  1
  Rb  Rb4  1  0.467232  0.934465  0.604598  1
  Rb  Rb5  1  0.532768  0.065535  0.104598  1
  Rb  Rb6  1  0.934465  0.467232  0.104598  1
  Rb  Rb7  1  0.467232  0.532768  0.604598  1
  Rb  Rb8  1  0.146595  0.853405  0.287445  1
  Rb  Rb9  1  0.706808  0.853405  0.287445  1
  Rb  Rb10  1  0.853405  0.706808  0.787445  1
  Rb  Rb11  1  0.293192  0.146595  0.787445  1
  As  As12  1  0.791592  0.583185  0.407395  1
  As  As13  1  0.416815  0.208408  0.407395  1
  As  As14  1  0.333333  0.666667  0.279467  1
  As  As15  1  0.666667  0.333333  0.779467  1
  As  As16  1  0.791592  0.208408  0.407395  1
  As  As17  1  0.208408  0.791592  0.907395  1
  As  As18  1  0.208408  0.416815  0.907395  1
  As  As19  1  0.583185  0.791592  0.907395  1
  W  W20  1  0.666667  0.333333  0.497117  1
  W  W21  1  0.333333  0.666667  0.997117  1
