# generated using pymatgen
data_YbDy3(B4Os)4
_symmetry_space_group_name_H-M   'P 1'
_cell_length_a   3.55910700
_cell_length_b   5.97602812
_cell_length_c   11.54716523
_cell_angle_alpha   89.97726503
_cell_angle_beta   90.00000000
_cell_angle_gamma   90.00000000
_symmetry_Int_Tables_number   1
_chemical_formula_structural   YbDy3(B4Os)4
_chemical_formula_sum   'Yb1 Dy3 B16 Os4'
_cell_volume   245.60037346
_cell_formula_units_Z   1
loop_
 _symmetry_equiv_pos_site_id
 _symmetry_equiv_pos_as_xyz
  1  'x, y, z'
loop_
 _atom_site_type_symbol
 _atom_site_label
 _atom_site_symmetry_multiplicity
 _atom_site_fract_x
 _atom_site_fract_y
 _atom_site_fract_z
 _atom_site_occupancy
  Yb  Yb0  1  0.000000  0.370427  0.149298  1
  Dy  Dy1  1  0.000000  0.127553  0.649947  1
  Dy  Dy2  1  0.000000  0.871737  0.348653  1
  Dy  Dy3  1  0.000000  0.627747  0.850907  1
  B  B4  1  0.500000  0.475206  0.691539  1
  B  B5  1  0.500000  0.525349  0.308355  1
  B  B6  1  0.500000  0.974604  0.808995  1
  B  B7  1  0.500000  0.025394  0.190827  1
  B  B8  1  0.500000  0.288779  0.814972  1
  B  B9  1  0.500000  0.711181  0.185069  1
  B  B10  1  0.500000  0.788627  0.686002  1
  B  B11  1  0.500000  0.212574  0.313785  1
  B  B12  1  0.500000  0.363504  0.970323  1
  B  B13  1  0.500000  0.636208  0.030423  1
  B  B14  1  0.500000  0.863284  0.530236  1
  B  B15  1  0.500000  0.136484  0.469938  1
  B  B16  1  0.500000  0.387342  0.546892  1
  B  B17  1  0.500000  0.611831  0.452965  1
  B  B18  1  0.500000  0.888094  0.954109  1
  B  B19  1  0.500000  0.114148  0.047199  1
  Os  Os20  1  0.000000  0.140476  0.906947  1
  Os  Os21  1  0.000000  0.860063  0.091734  1
  Os  Os22  1  0.000000  0.640888  0.593072  1
  Os  Os23  1  0.000000  0.358499  0.407814  1
