# generated using pymatgen
data_LaPr7(ScSn3)2
_symmetry_space_group_name_H-M   'P 1'
_cell_length_a   9.33193057
_cell_length_b   9.33193102
_cell_length_c   9.26203594
_cell_angle_alpha   96.30814028
_cell_angle_beta   96.37789099
_cell_angle_gamma   141.32416091
_symmetry_Int_Tables_number   1
_chemical_formula_structural   LaPr7(ScSn3)2
_chemical_formula_sum   'La1 Pr7 Sc2 Sn6'
_cell_volume   475.16386300
_cell_formula_units_Z   1
loop_
 _symmetry_equiv_pos_site_id
 _symmetry_equiv_pos_as_xyz
  1  'x, y, z'
loop_
 _atom_site_type_symbol
 _atom_site_label
 _atom_site_symmetry_multiplicity
 _atom_site_fract_x
 _atom_site_fract_y
 _atom_site_fract_z
 _atom_site_occupancy
  La  La0  1  0.410476  0.275967  0.686443  1
  Pr  Pr1  1  0.913007  0.221030  0.134037  1
  Pr  Pr2  1  0.222980  0.088693  0.311674  1
  Pr  Pr3  1  0.778106  0.912592  0.690698  1
  Pr  Pr4  1  0.087230  0.779260  0.866490  1
  Pr  Pr5  1  0.721056  0.412697  0.133753  1
  Pr  Pr6  1  0.279319  0.587011  0.866330  1
  Pr  Pr7  1  0.587691  0.722596  0.310287  1
  Sc  Sc8  1  0.750243  0.250081  0.499683  1
  Sc  Sc9  1  0.249603  0.749441  0.499683  1
  Sn  Sn10  1  0.751023  0.751147  0.001482  1
  Sn  Sn11  1  0.250336  0.250459  0.001482  1
  Sn  Sn12  1  0.849158  0.649045  0.498203  1
  Sn  Sn13  1  0.650945  0.149471  0.800417  1
  Sn  Sn14  1  0.349909  0.850047  0.199955  1
  Sn  Sn15  1  0.148919  0.350464  0.499383  1
