# generated using pymatgen
data_LiLa4Zn9SiSn
_symmetry_space_group_name_H-M   'P 1'
_cell_length_a   8.58812800
_cell_length_b   8.58812739
_cell_length_c   9.08179700
_cell_angle_alpha   90.00000000
_cell_angle_beta   90.00000000
_cell_angle_gamma   149.28045591
_symmetry_Int_Tables_number   1
_chemical_formula_structural   LiLa4Zn9SiSn
_chemical_formula_sum   'Li1 La4 Zn9 Si1 Sn1'
_cell_volume   342.17670101
_cell_formula_units_Z   1
loop_
 _symmetry_equiv_pos_site_id
 _symmetry_equiv_pos_as_xyz
  1  'x, y, z'
loop_
 _atom_site_type_symbol
 _atom_site_label
 _atom_site_symmetry_multiplicity
 _atom_site_fract_x
 _atom_site_fract_y
 _atom_site_fract_z
 _atom_site_occupancy
  Li  Li0  1  0.602485  0.397515  0.750000  1
  La  La1  1  0.203904  0.796096  0.250000  1
  La  La2  1  0.791540  0.208460  0.750000  1
  La  La3  1  0.000516  0.999484  0.485984  1
  La  La4  1  0.000516  0.999484  0.014016  1
  Zn  Zn5  1  0.814637  0.185363  0.390642  1
  Zn  Zn6  1  0.184775  0.815225  0.604397  1
  Zn  Zn7  1  0.814637  0.185363  0.109358  1
  Zn  Zn8  1  0.184775  0.815225  0.895603  1
  Zn  Zn9  1  0.650359  0.349641  0.476564  1
  Zn  Zn10  1  0.345555  0.654445  0.511988  1
  Zn  Zn11  1  0.650359  0.349641  0.023436  1
  Zn  Zn12  1  0.345555  0.654445  0.988012  1
  Zn  Zn13  1  0.407703  0.592297  0.250000  1
  Si  Si14  1  0.559861  0.440139  0.250000  1
  Sn  Sn15  1  0.442822  0.557178  0.750000  1
