# generated using pymatgen
data_Sm3GaPt3Au2
_symmetry_space_group_name_H-M   'P 1'
_cell_length_a   7.61632095
_cell_length_b   7.45971264
_cell_length_c   3.88261800
_cell_angle_alpha   90.00000000
_cell_angle_beta   90.00000000
_cell_angle_gamma   119.32212077
_symmetry_Int_Tables_number   1
_chemical_formula_structural   Sm3GaPt3Au2
_chemical_formula_sum   'Sm3 Ga1 Pt3 Au2'
_cell_volume   192.33080373
_cell_formula_units_Z   1
loop_
 _symmetry_equiv_pos_site_id
 _symmetry_equiv_pos_as_xyz
  1  'x, y, z'
loop_
 _atom_site_type_symbol
 _atom_site_label
 _atom_site_symmetry_multiplicity
 _atom_site_fract_x
 _atom_site_fract_y
 _atom_site_fract_z
 _atom_site_occupancy
  Sm  Sm0  1  0.404700  0.393821  0.500000  1
  Sm  Sm1  1  0.595300  0.989121  0.500000  1
  Sm  Sm2  1  0.000000  0.617262  0.500000  1
  Ga  Ga3  1  0.000000  0.259488  0.000000  1
  Pt  Pt4  1  0.687923  0.327632  0.000000  1
  Pt  Pt5  1  0.312077  0.639711  0.000000  1
  Pt  Pt6  1  0.000000  0.038130  0.500000  1
  Au  Au7  1  0.734702  0.734769  0.000000  1
  Au  Au8  1  0.265298  0.000066  0.000000  1
