# generated using pymatgen
data_Ho19Er(SnPb7)2
_symmetry_space_group_name_H-M   'P 1'
_cell_length_a   8.17662194
_cell_length_b   8.22990817
_cell_length_c   15.57355600
_cell_angle_alpha   90.00000000
_cell_angle_beta   90.00000000
_cell_angle_gamma   89.75644008
_symmetry_Int_Tables_number   1
_chemical_formula_structural   Ho19Er(SnPb7)2
_chemical_formula_sum   'Ho19 Er1 Sn2 Pb14'
_cell_volume   1047.97946290
_cell_formula_units_Z   1
loop_
 _symmetry_equiv_pos_site_id
 _symmetry_equiv_pos_as_xyz
  1  'x, y, z'
loop_
 _atom_site_type_symbol
 _atom_site_label
 _atom_site_symmetry_multiplicity
 _atom_site_fract_x
 _atom_site_fract_y
 _atom_site_fract_z
 _atom_site_occupancy
  Ho  Ho0  1  0.381130  0.838800  0.877415  1
  Ho  Ho1  1  0.875805  0.659046  0.621506  1
  Ho  Ho2  1  0.618751  0.161223  0.377348  1
  Ho  Ho3  1  0.124449  0.341050  0.121342  1
  Ho  Ho4  1  0.618751  0.161223  0.122652  1
  Ho  Ho5  1  0.124449  0.341050  0.378658  1
  Ho  Ho6  1  0.381130  0.838800  0.622585  1
  Ho  Ho7  1  0.875805  0.659046  0.878494  1
  Ho  Ho8  1  0.537011  0.327180  0.899139  1
  Ho  Ho9  1  0.036168  0.175625  0.600144  1
  Ho  Ho10  1  0.462860  0.672764  0.399263  1
  Ho  Ho11  1  0.963605  0.824328  0.100294  1
  Ho  Ho12  1  0.462860  0.672764  0.100737  1
  Ho  Ho13  1  0.963605  0.824328  0.399706  1
  Ho  Ho14  1  0.537011  0.327180  0.600861  1
  Ho  Ho15  1  0.036168  0.175625  0.899856  1
  Ho  Ho16  1  0.211961  0.505604  0.750000  1
  Ho  Ho17  1  0.709053  0.993763  0.750000  1
  Ho  Ho18  1  0.788210  0.494537  0.250000  1
  Er  Er19  1  0.290914  0.006790  0.250000  1
  Sn  Sn20  1  0.575419  0.623926  0.750000  1
  Sn  Sn21  1  0.425067  0.375774  0.250000  1
  Pb  Pb22  1  0.281588  0.031841  0.042026  1
  Pb  Pb23  1  0.782393  0.465870  0.457457  1
  Pb  Pb24  1  0.718204  0.967499  0.541729  1
  Pb  Pb25  1  0.217738  0.533974  0.957302  1
  Pb  Pb26  1  0.718204  0.967499  0.958271  1
  Pb  Pb27  1  0.217738  0.533974  0.542698  1
  Pb  Pb28  1  0.281588  0.031841  0.457974  1
  Pb  Pb29  1  0.782393  0.465870  0.042543  1
  Pb  Pb30  1  0.072672  0.875086  0.750000  1
  Pb  Pb31  1  0.927690  0.124900  0.250000  1
  Pb  Pb32  1  0.348626  0.154454  0.750000  1
  Pb  Pb33  1  0.847815  0.347430  0.750000  1
  Pb  Pb34  1  0.651048  0.845962  0.250000  1
  Pb  Pb35  1  0.152119  0.653373  0.250000  1
