# generated using pymatgen
data_Ba2As4Ir3Ru
_symmetry_space_group_name_H-M   'P 1'
_cell_length_a   5.84421000
_cell_length_b   7.10298602
_cell_length_c   5.84825151
_cell_angle_alpha   65.38986553
_cell_angle_beta   89.99990196
_cell_angle_gamma   89.99995120
_symmetry_Int_Tables_number   1
_chemical_formula_structural   Ba2As4Ir3Ru
_chemical_formula_sum   'Ba2 As4 Ir3 Ru1'
_cell_volume   220.71625147
_cell_formula_units_Z   1
loop_
 _symmetry_equiv_pos_site_id
 _symmetry_equiv_pos_as_xyz
  1  'x, y, z'
loop_
 _atom_site_type_symbol
 _atom_site_label
 _atom_site_symmetry_multiplicity
 _atom_site_fract_x
 _atom_site_fract_y
 _atom_site_fract_z
 _atom_site_occupancy
  Ba  Ba0  1  0.993906  0.000001  0.999999  1
  Ba  Ba1  1  0.506121  0.999999  0.500001  1
  As  As2  1  0.495958  0.709952  0.147132  1
  As  As3  1  0.004054  0.710479  0.639980  1
  As  As4  1  0.004057  0.289521  0.360019  1
  As  As5  1  0.495961  0.290050  0.852867  1
  Ir  Ir6  1  0.249614  0.500001  0.000001  1
  Ir  Ir7  1  0.750375  0.500001  0.000000  1
  Ir  Ir8  1  0.750063  0.499997  0.500000  1
  Ru  Ru9  1  0.249892  0.499999  0.499999  1
