# generated using pymatgen
data_Sr3Mn5V2O16
_symmetry_space_group_name_H-M   'P 1'
_cell_length_a   5.80505100
_cell_length_b   5.80505157
_cell_length_c   11.44880700
_cell_angle_alpha   90.00000000
_cell_angle_beta   90.00000000
_cell_angle_gamma   120.00000248
_symmetry_Int_Tables_number   1
_chemical_formula_structural   Sr3Mn5V2O16
_chemical_formula_sum   'Sr3 Mn5 V2 O16'
_cell_volume   334.12038756
_cell_formula_units_Z   1
loop_
 _symmetry_equiv_pos_site_id
 _symmetry_equiv_pos_as_xyz
  1  'x, y, z'
loop_
 _atom_site_type_symbol
 _atom_site_label
 _atom_site_symmetry_multiplicity
 _atom_site_fract_x
 _atom_site_fract_y
 _atom_site_fract_z
 _atom_site_occupancy
  Sr  Sr0  1  0.333333  0.666667  0.230961  1
  Sr  Sr1  1  0.666667  0.333333  0.769039  1
  Sr  Sr2  1  0.000000  0.000000  0.000000  1
  Mn  Mn3  1  0.000000  0.500000  0.500000  1
  Mn  Mn4  1  0.000000  0.000000  0.313508  1
  Mn  Mn5  1  0.000000  0.000000  0.686492  1
  Mn  Mn6  1  0.500000  0.500000  0.500000  1
  Mn  Mn7  1  0.500000  0.000000  0.500000  1
  V  V8  1  0.333333  0.666667  0.865749  1
  V  V9  1  0.666667  0.333333  0.134251  1
  O  O10  1  0.178175  0.356349  0.405610  1
  O  O11  1  0.666667  0.333333  0.984671  1
  O  O12  1  0.166141  0.833859  0.819917  1
  O  O13  1  0.356349  0.178175  0.594390  1
  O  O14  1  0.333333  0.666667  0.586120  1
  O  O15  1  0.166141  0.332281  0.819917  1
  O  O16  1  0.821825  0.643651  0.594390  1
  O  O17  1  0.643651  0.821825  0.405610  1
  O  O18  1  0.821825  0.178175  0.594390  1
  O  O19  1  0.333333  0.666667  0.015329  1
  O  O20  1  0.332281  0.166141  0.180083  1
  O  O21  1  0.178175  0.821825  0.405610  1
  O  O22  1  0.833859  0.166141  0.180083  1
  O  O23  1  0.833859  0.667719  0.180083  1
  O  O24  1  0.667719  0.833859  0.819917  1
  O  O25  1  0.666667  0.333333  0.413880  1
