# generated using pymatgen
data_CePu7(Si3Ir)4
_symmetry_space_group_name_H-M   'P 1'
_cell_length_a   8.17353600
_cell_length_b   8.17353703
_cell_length_c   7.98056400
_cell_angle_alpha   90.00000000
_cell_angle_beta   90.00000000
_cell_angle_gamma   119.99999585
_symmetry_Int_Tables_number   1
_chemical_formula_structural   CePu7(Si3Ir)4
_chemical_formula_sum   'Ce1 Pu7 Si12 Ir4'
_cell_volume   461.72591305
_cell_formula_units_Z   1
loop_
 _symmetry_equiv_pos_site_id
 _symmetry_equiv_pos_as_xyz
  1  'x, y, z'
loop_
 _atom_site_type_symbol
 _atom_site_label
 _atom_site_symmetry_multiplicity
 _atom_site_fract_x
 _atom_site_fract_y
 _atom_site_fract_z
 _atom_site_occupancy
  Ce  Ce0  1  0.000000  0.000000  0.250000  1
  Pu  Pu1  1  0.000000  0.000000  0.750000  1
  Pu  Pu2  1  0.500522  0.499478  0.250000  1
  Pu  Pu3  1  0.500522  0.001043  0.250000  1
  Pu  Pu4  1  0.998957  0.499478  0.250000  1
  Pu  Pu5  1  0.499410  0.500590  0.750000  1
  Pu  Pu6  1  0.499410  0.998820  0.750000  1
  Pu  Pu7  1  0.001180  0.500590  0.750000  1
  Si  Si8  1  0.164925  0.835075  0.505152  1
  Si  Si9  1  0.164925  0.329850  0.505152  1
  Si  Si10  1  0.670150  0.835075  0.505152  1
  Si  Si11  1  0.835051  0.164949  0.502962  1
  Si  Si12  1  0.835051  0.670103  0.502962  1
  Si  Si13  1  0.329897  0.164949  0.502962  1
  Si  Si14  1  0.835051  0.164949  0.997038  1
  Si  Si15  1  0.835051  0.670103  0.997038  1
  Si  Si16  1  0.329897  0.164949  0.997038  1
  Si  Si17  1  0.164925  0.835075  0.994848  1
  Si  Si18  1  0.164925  0.329850  0.994848  1
  Si  Si19  1  0.670150  0.835075  0.994848  1
  Ir  Ir20  1  0.333333  0.666667  0.491992  1
  Ir  Ir21  1  0.666667  0.333333  0.503334  1
  Ir  Ir22  1  0.666667  0.333333  0.996666  1
  Ir  Ir23  1  0.333333  0.666667  0.008008  1
