# generated using pymatgen
data_Er16Cd4IrRuPt2
_symmetry_space_group_name_H-M   'P 1'
_cell_length_a   9.57730524
_cell_length_b   9.57538917
_cell_length_c   9.55977900
_cell_angle_alpha   60.05391668
_cell_angle_beta   60.06052012
_cell_angle_gamma   60.15925381
_symmetry_Int_Tables_number   1
_chemical_formula_structural   Er16Cd4IrRuPt2
_chemical_formula_sum   'Er16 Cd4 Ir1 Ru1 Pt2'
_cell_volume   621.19586423
_cell_formula_units_Z   1
loop_
 _symmetry_equiv_pos_site_id
 _symmetry_equiv_pos_as_xyz
  1  'x, y, z'
loop_
 _atom_site_type_symbol
 _atom_site_label
 _atom_site_symmetry_multiplicity
 _atom_site_fract_x
 _atom_site_fract_y
 _atom_site_fract_z
 _atom_site_occupancy
  Er  Er0  1  0.600077  0.600998  0.596207  1
  Er  Er1  1  0.600077  0.600998  0.202717  1
  Er  Er2  1  0.606473  0.193381  0.600072  1
  Er  Er3  1  0.194041  0.606679  0.599639  1
  Er  Er4  1  0.056668  0.440254  0.440453  1
  Er  Er5  1  0.439839  0.056026  0.064260  1
  Er  Er6  1  0.439839  0.056026  0.439876  1
  Er  Er7  1  0.056668  0.440254  0.062626  1
  Er  Er8  1  0.441032  0.440652  0.059158  1
  Er  Er9  1  0.062879  0.060736  0.438192  1
  Er  Er10  1  0.187393  0.815857  0.810922  1
  Er  Er11  1  0.815503  0.187122  0.185526  1
  Er  Er12  1  0.815503  0.187122  0.811849  1
  Er  Er13  1  0.187393  0.815857  0.185828  1
  Er  Er14  1  0.813426  0.814708  0.185933  1
  Er  Er15  1  0.186749  0.186798  0.813227  1
  Cd  Cd16  1  0.831202  0.831376  0.831954  1
  Cd  Cd17  1  0.831202  0.831376  0.505468  1
  Cd  Cd18  1  0.830002  0.506318  0.831840  1
  Cd  Cd19  1  0.505900  0.830194  0.831953  1
  Ir  Ir20  1  0.823779  0.390241  0.392989  1
  Ru  Ru21  1  0.390712  0.823865  0.392710  1
  Pt  Pt22  1  0.391822  0.391582  0.395282  1
  Pt  Pt23  1  0.391822  0.391582  0.821313  1
