# generated using pymatgen
data_NdPa3(SnRh2)2
_symmetry_space_group_name_H-M   'P 1'
_cell_length_a   7.71400091
_cell_length_b   7.71400112
_cell_length_c   3.67551700
_cell_angle_alpha   90.00000000
_cell_angle_beta   90.00000000
_cell_angle_gamma   92.71497242
_symmetry_Int_Tables_number   1
_chemical_formula_structural   NdPa3(SnRh2)2
_chemical_formula_sum   'Nd1 Pa3 Sn2 Rh4'
_cell_volume   218.46912213
_cell_formula_units_Z   1
loop_
 _symmetry_equiv_pos_site_id
 _symmetry_equiv_pos_as_xyz
  1  'x, y, z'
loop_
 _atom_site_type_symbol
 _atom_site_label
 _atom_site_symmetry_multiplicity
 _atom_site_fract_x
 _atom_site_fract_y
 _atom_site_fract_z
 _atom_site_occupancy
  Nd  Nd0  1  0.823650  0.676350  0.500000  1
  Pa  Pa1  1  0.674746  0.171062  0.500000  1
  Pa  Pa2  1  0.328938  0.825254  0.500000  1
  Pa  Pa3  1  0.171041  0.328959  0.500000  1
  Sn  Sn4  1  0.001994  0.996107  0.000000  1
  Sn  Sn5  1  0.503893  0.498006  0.000000  1
  Rh  Rh6  1  0.154739  0.622583  0.000000  1
  Rh  Rh7  1  0.877417  0.345261  0.000000  1
  Rh  Rh8  1  0.607633  0.892367  0.000000  1
  Rh  Rh9  1  0.355952  0.144048  0.000000  1
