# generated using pymatgen
data_TbErSb4(ClO4)2
_symmetry_space_group_name_H-M   'P 1'
_cell_length_a   5.57345300
_cell_length_b   5.54946681
_cell_length_c   8.87534009
_cell_angle_alpha   88.20352356
_cell_angle_beta   90.00000000
_cell_angle_gamma   90.00000000
_symmetry_Int_Tables_number   1
_chemical_formula_structural   TbErSb4(ClO4)2
_chemical_formula_sum   'Tb1 Er1 Sb4 Cl2 O8'
_cell_volume   274.37661442
_cell_formula_units_Z   1
loop_
 _symmetry_equiv_pos_site_id
 _symmetry_equiv_pos_as_xyz
  1  'x, y, z'
loop_
 _atom_site_type_symbol
 _atom_site_label
 _atom_site_symmetry_multiplicity
 _atom_site_fract_x
 _atom_site_fract_y
 _atom_site_fract_z
 _atom_site_occupancy
  Tb  Tb0  1  0.778260  0.750000  0.500000  1
  Er  Er1  1  0.217064  0.250000  0.500000  1
  Sb  Sb2  1  0.701800  0.297457  0.785761  1
  Sb  Sb3  1  0.701800  0.202543  0.214239  1
  Sb  Sb4  1  0.298446  0.701420  0.214279  1
  Sb  Sb5  1  0.298446  0.798580  0.785721  1
  Cl  Cl6  1  0.766466  0.750000  0.000000  1
  Cl  Cl7  1  0.234682  0.250000  0.000000  1
  O  O8  1  0.068631  0.925012  0.636369  1
  O  O9  1  0.068631  0.574988  0.363631  1
  O  O10  1  0.934792  0.078890  0.363097  1
  O  O11  1  0.934792  0.421110  0.636903  1
  O  O12  1  0.466972  0.533362  0.663600  1
  O  O13  1  0.531124  0.464849  0.337372  1
  O  O14  1  0.466972  0.966638  0.336400  1
  O  O15  1  0.531124  0.035151  0.662628  1
