# generated using pymatgen
data_CeDy9Os4
_symmetry_space_group_name_H-M   'P 1'
_cell_length_a   8.53068293
_cell_length_b   8.50084901
_cell_length_c   7.29896044
_cell_angle_alpha   82.91056774
_cell_angle_beta   83.85227524
_cell_angle_gamma   44.16520934
_symmetry_Int_Tables_number   1
_chemical_formula_structural   CeDy9Os4
_chemical_formula_sum   'Ce1 Dy9 Os4'
_cell_volume   365.83210527
_cell_formula_units_Z   1
loop_
 _symmetry_equiv_pos_site_id
 _symmetry_equiv_pos_as_xyz
  1  'x, y, z'
loop_
 _atom_site_type_symbol
 _atom_site_label
 _atom_site_symmetry_multiplicity
 _atom_site_fract_x
 _atom_site_fract_y
 _atom_site_fract_z
 _atom_site_occupancy
  Ce  Ce0  1  0.197603  0.989217  0.596613  1
  Dy  Dy1  1  0.021248  0.790547  0.917646  1
  Dy  Dy2  1  0.211291  0.355317  0.313584  1
  Dy  Dy3  1  0.644418  0.792206  0.184023  1
  Dy  Dy4  1  0.798396  0.639896  0.681275  1
  Dy  Dy5  1  0.359337  0.206740  0.816395  1
  Dy  Dy6  1  0.972425  0.207471  0.082851  1
  Dy  Dy7  1  0.791901  0.025269  0.416906  1
  Dy  Dy8  1  0.570870  0.426910  0.750343  1
  Dy  Dy9  1  0.423795  0.577685  0.250499  1
  Os  Os10  1  0.175343  0.604840  0.574496  1
  Os  Os11  1  0.388605  0.831203  0.911011  1
  Os  Os12  1  0.842278  0.375084  0.429245  1
  Os  Os13  1  0.602490  0.177615  0.075113  1
