# generated using pymatgen
data_Ho17(MgIr4)3
_symmetry_space_group_name_H-M   'P 1'
_cell_length_a   10.69561200
_cell_length_b   10.69561200
_cell_length_c   6.28063800
_cell_angle_alpha   90.00000000
_cell_angle_beta   90.00000000
_cell_angle_gamma   90.00000000
_symmetry_Int_Tables_number   1
_chemical_formula_structural   Ho17(MgIr4)3
_chemical_formula_sum   'Ho17 Mg3 Ir12'
_cell_volume   718.48059354
_cell_formula_units_Z   1
loop_
 _symmetry_equiv_pos_site_id
 _symmetry_equiv_pos_as_xyz
  1  'x, y, z'
loop_
 _atom_site_type_symbol
 _atom_site_label
 _atom_site_symmetry_multiplicity
 _atom_site_fract_x
 _atom_site_fract_y
 _atom_site_fract_z
 _atom_site_occupancy
  Ho  Ho0  1  0.284869  0.086648  0.380303  1
  Ho  Ho1  1  0.285028  0.914626  0.878635  1
  Ho  Ho2  1  0.714972  0.085374  0.878635  1
  Ho  Ho3  1  0.715131  0.913352  0.380303  1
  Ho  Ho4  1  0.586664  0.786521  0.877012  1
  Ho  Ho5  1  0.589909  0.207170  0.378270  1
  Ho  Ho6  1  0.410091  0.792830  0.378270  1
  Ho  Ho7  1  0.413336  0.213479  0.877012  1
  Ho  Ho8  1  0.207170  0.410091  0.621730  1
  Ho  Ho9  1  0.213479  0.586664  0.122988  1
  Ho  Ho10  1  0.786521  0.413336  0.122988  1
  Ho  Ho11  1  0.792830  0.589909  0.621730  1
  Ho  Ho12  1  0.914626  0.714972  0.121365  1
  Ho  Ho13  1  0.913352  0.284869  0.619697  1
  Ho  Ho14  1  0.086648  0.715131  0.619697  1
  Ho  Ho15  1  0.085374  0.285028  0.121365  1
  Ho  Ho16  1  0.500000  0.500000  0.500000  1
  Mg  Mg17  1  0.000000  0.000000  0.500000  1
  Mg  Mg18  1  0.000000  0.000000  0.000000  1
  Mg  Mg19  1  0.500000  0.500000  0.000000  1
  Ir  Ir20  1  0.847111  0.153045  0.248079  1
  Ir  Ir21  1  0.846955  0.847111  0.751921  1
  Ir  Ir22  1  0.153045  0.152889  0.751921  1
  Ir  Ir23  1  0.152889  0.846955  0.248079  1
  Ir  Ir24  1  0.655078  0.345780  0.747585  1
  Ir  Ir25  1  0.654220  0.655078  0.252415  1
  Ir  Ir26  1  0.345780  0.344922  0.252415  1
  Ir  Ir27  1  0.344922  0.654220  0.747585  1
  Ir  Ir28  1  0.500000  0.000000  0.120578  1
  Ir  Ir29  1  0.500000  0.000000  0.624725  1
  Ir  Ir30  1  0.000000  0.500000  0.879422  1
  Ir  Ir31  1  0.000000  0.500000  0.375275  1
