# generated using pymatgen
data_Nb9Ni2GePt2
_symmetry_space_group_name_H-M   'P 1'
_cell_length_a   5.15386318
_cell_length_b   9.82459134
_cell_length_c   9.82459126
_cell_angle_alpha   86.05503979
_cell_angle_beta   74.79378616
_cell_angle_gamma   74.79378001
_symmetry_Int_Tables_number   1
_chemical_formula_structural   Nb9Ni2GePt2
_chemical_formula_sum   'Nb18 Ni4 Ge2 Pt4'
_cell_volume   463.23965795
_cell_formula_units_Z   2
loop_
 _symmetry_equiv_pos_site_id
 _symmetry_equiv_pos_as_xyz
  1  'x, y, z'
loop_
 _atom_site_type_symbol
 _atom_site_label
 _atom_site_symmetry_multiplicity
 _atom_site_fract_x
 _atom_site_fract_y
 _atom_site_fract_z
 _atom_site_occupancy
  Nb  Nb0  1  0.750000  0.500000  0.500000  1
  Nb  Nb1  1  0.250000  0.500000  0.500000  1
  Nb  Nb2  1  0.790069  0.780749  0.639111  1
  Nb  Nb3  1  0.209931  0.219251  0.360889  1
  Nb  Nb4  1  0.709931  0.360889  0.219251  1
  Nb  Nb5  1  0.290069  0.639111  0.780749  1
  Nb  Nb6  1  0.570820  0.639111  0.219251  1
  Nb  Nb7  1  0.429180  0.360889  0.780749  1
  Nb  Nb8  1  0.070820  0.219251  0.639111  1
  Nb  Nb9  1  0.929180  0.780749  0.360889  1
  Nb  Nb10  1  0.583946  0.078103  0.754006  1
  Nb  Nb11  1  0.416054  0.921897  0.245994  1
  Nb  Nb12  1  0.916054  0.245994  0.921897  1
  Nb  Nb13  1  0.083946  0.754006  0.078103  1
  Nb  Nb14  1  0.662049  0.754006  0.921897  1
  Nb  Nb15  1  0.337951  0.245994  0.078103  1
  Nb  Nb16  1  0.162049  0.921897  0.754006  1
  Nb  Nb17  1  0.837951  0.078103  0.245994  1
  Ni  Ni18  1  0.500000  0.000000  0.500000  1
  Ni  Ni19  1  0.000000  0.000000  0.500000  1
  Ni  Ni20  1  0.500000  0.500000  0.000000  1
  Ni  Ni21  1  0.000000  0.500000  0.000000  1
  Ge  Ge22  1  0.250000  0.000000  0.000000  1
  Ge  Ge23  1  0.750000  0.000000  0.000000  1
  Pt  Pt24  1  0.130328  0.500000  0.239344  1
  Pt  Pt25  1  0.869672  0.500000  0.760656  1
  Pt  Pt26  1  0.369672  0.760656  0.500000  1
  Pt  Pt27  1  0.630328  0.239344  0.500000  1
