# generated using pymatgen
data_Ce5Ta3(P3Ru4)4
_symmetry_space_group_name_H-M   'P 1'
_cell_length_a   12.81054700
_cell_length_b   12.81054576
_cell_length_c   3.94468000
_cell_angle_alpha   90.00000000
_cell_angle_beta   90.00000000
_cell_angle_gamma   120.00000061
_symmetry_Int_Tables_number   1
_chemical_formula_structural   Ce5Ta3(P3Ru4)4
_chemical_formula_sum   'Ce5 Ta3 P12 Ru16'
_cell_volume   560.63178139
_cell_formula_units_Z   1
loop_
 _symmetry_equiv_pos_site_id
 _symmetry_equiv_pos_as_xyz
  1  'x, y, z'
loop_
 _atom_site_type_symbol
 _atom_site_label
 _atom_site_symmetry_multiplicity
 _atom_site_fract_x
 _atom_site_fract_y
 _atom_site_fract_z
 _atom_site_occupancy
  Ce  Ce0  1  0.185969  0.185969  0.500000  1
  Ce  Ce1  1  0.814031  0.000000  0.500000  1
  Ce  Ce2  1  0.000000  0.814031  0.500000  1
  Ce  Ce3  1  0.333333  0.666667  0.000000  1
  Ce  Ce4  1  0.666667  0.333333  0.000000  1
  Ta  Ta5  1  0.563880  0.563880  0.000000  1
  Ta  Ta6  1  0.436120  0.000000  0.000000  1
  Ta  Ta7  1  0.000000  0.436120  0.000000  1
  P  P8  1  0.816817  0.816817  0.000000  1
  P  P9  1  0.183183  0.000000  0.000000  1
  P  P10  1  0.000000  0.183183  0.000000  1
  P  P11  1  0.168881  0.477554  0.500000  1
  P  P12  1  0.522446  0.691327  0.500000  1
  P  P13  1  0.308673  0.831119  0.500000  1
  P  P14  1  0.691327  0.522446  0.500000  1
  P  P15  1  0.831119  0.308673  0.500000  1
  P  P16  1  0.477554  0.168881  0.500000  1
  P  P17  1  0.365000  0.365000  0.000000  1
  P  P18  1  0.635000  0.000000  0.000000  1
  P  P19  1  0.000000  0.635000  0.000000  1
  Ru  Ru20  1  0.720161  0.720161  0.500000  1
  Ru  Ru21  1  0.279839  0.000000  0.500000  1
  Ru  Ru22  1  0.000000  0.279839  0.500000  1
  Ru  Ru23  1  0.182785  0.376431  0.000000  1
  Ru  Ru24  1  0.623569  0.806354  0.000000  1
  Ru  Ru25  1  0.193646  0.817215  0.000000  1
  Ru  Ru26  1  0.806354  0.623569  0.000000  1
  Ru  Ru27  1  0.817215  0.193646  0.000000  1
  Ru  Ru28  1  0.376431  0.182785  0.000000  1
  Ru  Ru29  1  0.363143  0.488709  0.500000  1
  Ru  Ru30  1  0.511291  0.874434  0.500000  1
  Ru  Ru31  1  0.125566  0.636857  0.500000  1
  Ru  Ru32  1  0.874434  0.511291  0.500000  1
  Ru  Ru33  1  0.636857  0.125566  0.500000  1
  Ru  Ru34  1  0.488709  0.363143  0.500000  1
  Ru  Ru35  1  0.000000  0.000000  0.000000  1
