# generated using pymatgen
data_Tm3Lu2Ru3
_symmetry_space_group_name_H-M   'P 1'
_cell_length_a   8.08153400
_cell_length_b   8.08153335
_cell_length_c   6.20650400
_cell_angle_alpha   90.00000000
_cell_angle_beta   90.00000000
_cell_angle_gamma   120.00000264
_symmetry_Int_Tables_number   1
_chemical_formula_structural   Tm3Lu2Ru3
_chemical_formula_sum   'Tm6 Lu4 Ru6'
_cell_volume   351.04697405
_cell_formula_units_Z   2
loop_
 _symmetry_equiv_pos_site_id
 _symmetry_equiv_pos_as_xyz
  1  'x, y, z'
loop_
 _atom_site_type_symbol
 _atom_site_label
 _atom_site_symmetry_multiplicity
 _atom_site_fract_x
 _atom_site_fract_y
 _atom_site_fract_z
 _atom_site_occupancy
  Tm  Tm0  1  0.742629  0.000000  0.750000  1
  Tm  Tm1  1  0.742629  0.742629  0.250000  1
  Tm  Tm2  1  0.000000  0.257371  0.250000  1
  Tm  Tm3  1  0.000000  0.742629  0.750000  1
  Tm  Tm4  1  0.257371  0.257371  0.750000  1
  Tm  Tm5  1  0.257371  0.000000  0.250000  1
  Lu  Lu6  1  0.666667  0.333333  0.000000  1
  Lu  Lu7  1  0.333333  0.666667  0.500000  1
  Lu  Lu8  1  0.333333  0.666667  0.000000  1
  Lu  Lu9  1  0.666667  0.333333  0.500000  1
  Ru  Ru10  1  0.398252  0.000000  0.750000  1
  Ru  Ru11  1  0.398252  0.398252  0.250000  1
  Ru  Ru12  1  0.000000  0.601748  0.250000  1
  Ru  Ru13  1  0.000000  0.398252  0.750000  1
  Ru  Ru14  1  0.601748  0.601748  0.750000  1
  Ru  Ru15  1  0.601748  0.000000  0.250000  1
