# generated using pymatgen
data_Li3Y3CuSn4
_symmetry_space_group_name_H-M   'P 1'
_cell_length_a   8.50643380
_cell_length_b   8.64641447
_cell_length_c   8.64641398
_cell_angle_alpha   149.52337282
_cell_angle_beta   131.04606795
_cell_angle_gamma   58.92041970
_symmetry_Int_Tables_number   1
_chemical_formula_structural   Li3Y3CuSn4
_chemical_formula_sum   'Li3 Y3 Cu1 Sn4'
_cell_volume   241.19314174
_cell_formula_units_Z   1
loop_
 _symmetry_equiv_pos_site_id
 _symmetry_equiv_pos_as_xyz
  1  'x, y, z'
loop_
 _atom_site_type_symbol
 _atom_site_label
 _atom_site_symmetry_multiplicity
 _atom_site_fract_x
 _atom_site_fract_y
 _atom_site_fract_z
 _atom_site_occupancy
  Li  Li0  1  0.483111  0.673481  0.809629  1
  Li  Li1  1  0.861586  0.672807  0.188779  1
  Li  Li2  1  0.145956  0.329606  0.816350  1
  Y  Y3  1  0.496875  0.999673  0.497202  1
  Y  Y4  1  0.859848  0.871412  0.988437  1
  Y  Y5  1  0.138100  0.128506  0.009594  1
  Cu  Cu6  1  0.517544  0.324029  0.193515  1
  Sn  Sn7  1  0.292780  0.786392  0.506388  1
  Sn  Sn8  1  0.710900  0.215884  0.495015  1
  Sn  Sn9  1  0.793001  0.497337  0.295664  1
  Sn  Sn10  1  0.200299  0.500873  0.699426  1
