# generated using pymatgen
data_CePCl9
_symmetry_space_group_name_H-M   'P 1'
_cell_length_a   7.41110494
_cell_length_b   9.60919439
_cell_length_c   10.27602759
_cell_angle_alpha   100.19194723
_cell_angle_beta   95.18205626
_cell_angle_gamma   94.32103086
_symmetry_Int_Tables_number   1
_chemical_formula_structural   CePCl9
_chemical_formula_sum   'Ce2 P2 Cl18'
_cell_volume   714.19303961
_cell_formula_units_Z   2
loop_
 _symmetry_equiv_pos_site_id
 _symmetry_equiv_pos_as_xyz
  1  'x, y, z'
loop_
 _atom_site_type_symbol
 _atom_site_label
 _atom_site_symmetry_multiplicity
 _atom_site_fract_x
 _atom_site_fract_y
 _atom_site_fract_z
 _atom_site_occupancy
  Ce  Ce0  1  0.613316  0.642346  0.683147  1
  Ce  Ce1  1  0.386684  0.357654  0.316853  1
  P  P2  1  0.051034  0.194466  0.779258  1
  P  P3  1  0.948966  0.805534  0.220742  1
  Cl  Cl4  1  0.366457  0.576329  0.200650  1
  Cl  Cl5  1  0.633543  0.423671  0.799350  1
  Cl  Cl6  1  0.413647  0.148120  0.441446  1
  Cl  Cl7  1  0.586353  0.851880  0.558554  1
  Cl  Cl8  1  0.051832  0.270678  0.233112  1
  Cl  Cl9  1  0.948168  0.729322  0.766888  1
  Cl  Cl10  1  0.519757  0.213273  0.116141  1
  Cl  Cl11  1  0.480243  0.786727  0.883859  1
  Cl  Cl12  1  0.281860  0.518433  0.547133  1
  Cl  Cl13  1  0.718140  0.481567  0.452867  1
  Cl  Cl14  1  0.844612  0.619908  0.122420  1
  Cl  Cl15  1  0.155388  0.380092  0.877580  1
  Cl  Cl16  1  0.952709  0.212752  0.600555  1
  Cl  Cl17  1  0.047291  0.787248  0.399445  1
  Cl  Cl18  1  0.241255  0.063195  0.767461  1
  Cl  Cl19  1  0.758745  0.936805  0.232539  1
  Cl  Cl20  1  0.855965  0.120837  0.871912  1
  Cl  Cl21  1  0.144035  0.879163  0.128088  1
