# generated using pymatgen
data_TbZr(PPd)3
_symmetry_space_group_name_H-M   'P 1'
_cell_length_a   3.85735700
_cell_length_b   10.78185600
_cell_length_c   13.18449000
_cell_angle_alpha   90.00000000
_cell_angle_beta   90.00000000
_cell_angle_gamma   90.00000000
_symmetry_Int_Tables_number   1
_chemical_formula_structural   TbZr(PPd)3
_chemical_formula_sum   'Tb4 Zr4 P12 Pd12'
_cell_volume   548.33592119
_cell_formula_units_Z   4
loop_
 _symmetry_equiv_pos_site_id
 _symmetry_equiv_pos_as_xyz
  1  'x, y, z'
loop_
 _atom_site_type_symbol
 _atom_site_label
 _atom_site_symmetry_multiplicity
 _atom_site_fract_x
 _atom_site_fract_y
 _atom_site_fract_z
 _atom_site_occupancy
  Tb  Tb0  1  0.250000  0.076086  0.212334  1
  Tb  Tb1  1  0.750000  0.923914  0.787666  1
  Tb  Tb2  1  0.750000  0.576086  0.287666  1
  Tb  Tb3  1  0.250000  0.423914  0.712334  1
  Zr  Zr4  1  0.250000  0.160058  0.496305  1
  Zr  Zr5  1  0.750000  0.839942  0.503695  1
  Zr  Zr6  1  0.750000  0.660058  0.003695  1
  Zr  Zr7  1  0.250000  0.339942  0.996305  1
  P  P8  1  0.250000  0.946545  0.613826  1
  P  P9  1  0.750000  0.053455  0.386174  1
  P  P10  1  0.750000  0.446545  0.886174  1
  P  P11  1  0.250000  0.553455  0.113826  1
  P  P12  1  0.250000  0.392947  0.397822  1
  P  P13  1  0.750000  0.607053  0.602178  1
  P  P14  1  0.750000  0.892947  0.102178  1
  P  P15  1  0.250000  0.107053  0.897822  1
  P  P16  1  0.250000  0.768346  0.364072  1
  P  P17  1  0.750000  0.231654  0.635928  1
  P  P18  1  0.750000  0.268346  0.135928  1
  P  P19  1  0.250000  0.731654  0.864072  1
  Pd  Pd20  1  0.250000  0.735694  0.663786  1
  Pd  Pd21  1  0.750000  0.264306  0.336214  1
  Pd  Pd22  1  0.750000  0.235694  0.836214  1
  Pd  Pd23  1  0.250000  0.764306  0.163786  1
  Pd  Pd24  1  0.250000  0.371137  0.214880  1
  Pd  Pd25  1  0.750000  0.628863  0.785120  1
  Pd  Pd26  1  0.750000  0.871137  0.285120  1
  Pd  Pd27  1  0.250000  0.128863  0.714880  1
  Pd  Pd28  1  0.250000  0.596083  0.478223  1
  Pd  Pd29  1  0.750000  0.403917  0.521777  1
  Pd  Pd30  1  0.750000  0.096083  0.021777  1
  Pd  Pd31  1  0.250000  0.903917  0.978223  1
