# generated using pymatgen
data_TbDy3YCoSb2
_symmetry_space_group_name_H-M   'P 1'
_cell_length_a   7.90313000
_cell_length_b   8.72027700
_cell_length_c   12.19676400
_cell_angle_alpha   90.00000000
_cell_angle_beta   90.00000000
_cell_angle_gamma   90.00000000
_symmetry_Int_Tables_number   1
_chemical_formula_structural   TbDy3YCoSb2
_chemical_formula_sum   'Tb4 Dy12 Y4 Co4 Sb8'
_cell_volume   840.57027278
_cell_formula_units_Z   4
loop_
 _symmetry_equiv_pos_site_id
 _symmetry_equiv_pos_as_xyz
  1  'x, y, z'
loop_
 _atom_site_type_symbol
 _atom_site_label
 _atom_site_symmetry_multiplicity
 _atom_site_fract_x
 _atom_site_fract_y
 _atom_site_fract_z
 _atom_site_occupancy
  Tb  Tb0  1  0.621826  0.750000  0.305755  1
  Tb  Tb1  1  0.121826  0.250000  0.194245  1
  Tb  Tb2  1  0.378174  0.250000  0.694245  1
  Tb  Tb3  1  0.878174  0.750000  0.805755  1
  Dy  Dy4  1  0.454471  0.750000  0.998124  1
  Dy  Dy5  1  0.954471  0.250000  0.501876  1
  Dy  Dy6  1  0.545529  0.250000  0.001876  1
  Dy  Dy7  1  0.045529  0.750000  0.498124  1
  Dy  Dy8  1  0.820989  0.964467  0.064973  1
  Dy  Dy9  1  0.320989  0.035533  0.435027  1
  Dy  Dy10  1  0.179011  0.464467  0.935027  1
  Dy  Dy11  1  0.679011  0.535533  0.564973  1
  Dy  Dy12  1  0.179011  0.035533  0.935027  1
  Dy  Dy13  1  0.679011  0.964467  0.564973  1
  Dy  Dy14  1  0.820989  0.535533  0.064973  1
  Dy  Dy15  1  0.320989  0.464467  0.435027  1
  Y  Y16  1  0.155374  0.750000  0.204285  1
  Y  Y17  1  0.655374  0.250000  0.295715  1
  Y  Y18  1  0.844626  0.250000  0.795715  1
  Y  Y19  1  0.344626  0.750000  0.704285  1
  Co  Co20  1  0.432947  0.750000  0.489277  1
  Co  Co21  1  0.932947  0.250000  0.010723  1
  Co  Co22  1  0.567053  0.250000  0.510723  1
  Co  Co23  1  0.067053  0.750000  0.989277  1
  Sb  Sb24  1  0.927823  0.991655  0.326805  1
  Sb  Sb25  1  0.427823  0.008345  0.173195  1
  Sb  Sb26  1  0.072177  0.491655  0.673195  1
  Sb  Sb27  1  0.572177  0.508345  0.826805  1
  Sb  Sb28  1  0.072177  0.008345  0.673195  1
  Sb  Sb29  1  0.572177  0.991655  0.826805  1
  Sb  Sb30  1  0.927823  0.508345  0.326805  1
  Sb  Sb31  1  0.427823  0.491655  0.173195  1
