# generated using pymatgen
data_Ba3YbIr2O9
_symmetry_space_group_name_H-M   'P 1'
_cell_length_a   5.94252896
_cell_length_b   5.94252762
_cell_length_c   14.71254834
_cell_angle_alpha   89.17302052
_cell_angle_beta   89.17301953
_cell_angle_gamma   119.90829626
_symmetry_Int_Tables_number   1
_chemical_formula_structural   Ba3YbIr2O9
_chemical_formula_sum   'Ba6 Yb2 Ir4 O18'
_cell_volume   450.17473161
_cell_formula_units_Z   2
loop_
 _symmetry_equiv_pos_site_id
 _symmetry_equiv_pos_as_xyz
  1  'x, y, z'
loop_
 _atom_site_type_symbol
 _atom_site_label
 _atom_site_symmetry_multiplicity
 _atom_site_fract_x
 _atom_site_fract_y
 _atom_site_fract_z
 _atom_site_occupancy
  Ba  Ba0  1  0.328811  0.663575  0.585464  1
  Ba  Ba1  1  0.996521  0.003479  0.750000  1
  Ba  Ba2  1  0.336425  0.671189  0.914536  1
  Ba  Ba3  1  0.671189  0.336425  0.414536  1
  Ba  Ba4  1  0.003479  0.996521  0.250000  1
  Ba  Ba5  1  0.663575  0.328811  0.085464  1
  Yb  Yb6  1  0.000000  0.000000  0.000000  1
  Yb  Yb7  1  0.000000  0.000000  0.500000  1
  Ir  Ir8  1  0.676969  0.345840  0.836791  1
  Ir  Ir9  1  0.345840  0.676969  0.336791  1
  Ir  Ir10  1  0.323031  0.654160  0.163209  1
  Ir  Ir11  1  0.654160  0.323031  0.663209  1
  O  O12  1  0.157060  0.334749  0.094698  1
  O  O13  1  0.665251  0.842940  0.405302  1
  O  O14  1  0.842940  0.665251  0.905302  1
  O  O15  1  0.334749  0.157060  0.594698  1
  O  O16  1  0.800900  0.157282  0.588129  1
  O  O17  1  0.842718  0.199100  0.911871  1
  O  O18  1  0.199100  0.842718  0.411871  1
  O  O19  1  0.157282  0.800900  0.088129  1
  O  O20  1  0.799557  0.621799  0.579700  1
  O  O21  1  0.378201  0.200443  0.920300  1
  O  O22  1  0.200443  0.378201  0.420300  1
  O  O23  1  0.621799  0.799557  0.079700  1
  O  O24  1  0.024170  0.509283  0.258179  1
  O  O25  1  0.490717  0.975830  0.241821  1
  O  O26  1  0.975830  0.490717  0.741821  1
  O  O27  1  0.509283  0.024170  0.758179  1
  O  O28  1  0.490462  0.509538  0.250000  1
  O  O29  1  0.509538  0.490462  0.750000  1
