# generated using pymatgen
data_Hf9ZrAl2(GeSb2)2
_symmetry_space_group_name_H-M   'P 1'
_cell_length_a   8.53142857
_cell_length_b   8.58038114
_cell_length_c   5.79756100
_cell_angle_alpha   90.00000000
_cell_angle_beta   90.00000000
_cell_angle_gamma   120.18998914
_symmetry_Int_Tables_number   1
_chemical_formula_structural   Hf9ZrAl2(GeSb2)2
_chemical_formula_sum   'Hf9 Zr1 Al2 Ge2 Sb4'
_cell_volume   366.83407599
_cell_formula_units_Z   1
loop_
 _symmetry_equiv_pos_site_id
 _symmetry_equiv_pos_as_xyz
  1  'x, y, z'
loop_
 _atom_site_type_symbol
 _atom_site_label
 _atom_site_symmetry_multiplicity
 _atom_site_fract_x
 _atom_site_fract_y
 _atom_site_fract_z
 _atom_site_occupancy
  Hf  Hf0  1  0.662251  0.329256  0.994672  1
  Hf  Hf1  1  0.337749  0.667006  0.994672  1
  Hf  Hf2  1  0.337749  0.667006  0.505328  1
  Hf  Hf3  1  0.662251  0.329256  0.505328  1
  Hf  Hf4  1  0.719680  0.731523  0.750000  1
  Hf  Hf5  1  0.280320  0.011842  0.750000  1
  Hf  Hf6  1  0.000000  0.270918  0.750000  1
  Hf  Hf7  1  0.261658  0.259195  0.250000  1
  Hf  Hf8  1  0.738342  0.997536  0.250000  1
  Zr  Zr9  1  0.000000  0.738247  0.250000  1
  Al  Al10  1  0.390037  0.391343  0.750000  1
  Al  Al11  1  0.609963  0.001305  0.750000  1
  Ge  Ge12  1  0.000000  0.000685  0.988281  1
  Ge  Ge13  1  0.000000  0.000685  0.511719  1
  Sb  Sb14  1  0.000000  0.614033  0.750000  1
  Sb  Sb15  1  0.600091  0.598628  0.250000  1
  Sb  Sb16  1  0.399909  0.998538  0.250000  1
  Sb  Sb17  1  0.000000  0.392999  0.250000  1
