# generated using pymatgen
data_Ca4Pr15HoSn16
_symmetry_space_group_name_H-M   'P 1'
_cell_length_a   8.14016305
_cell_length_b   8.52760997
_cell_length_c   16.19182868
_cell_angle_alpha   90.10324505
_cell_angle_beta   89.53878980
_cell_angle_gamma   90.06830582
_symmetry_Int_Tables_number   1
_chemical_formula_structural   Ca4Pr15HoSn16
_chemical_formula_sum   'Ca4 Pr15 Ho1 Sn16'
_cell_volume   1123.93515695
_cell_formula_units_Z   1
loop_
 _symmetry_equiv_pos_site_id
 _symmetry_equiv_pos_as_xyz
  1  'x, y, z'
loop_
 _atom_site_type_symbol
 _atom_site_label
 _atom_site_symmetry_multiplicity
 _atom_site_fract_x
 _atom_site_fract_y
 _atom_site_fract_z
 _atom_site_occupancy
  Ca  Ca0  1  0.171143  0.497810  0.749959  1
  Ca  Ca1  1  0.670294  0.005336  0.750105  1
  Ca  Ca2  1  0.829082  0.504498  0.250998  1
  Ca  Ca3  1  0.329070  0.993580  0.250623  1
  Pr  Pr4  1  0.844280  0.670668  0.623957  1
  Pr  Pr5  1  0.654768  0.169602  0.375733  1
  Pr  Pr6  1  0.161926  0.326401  0.123315  1
  Pr  Pr7  1  0.663267  0.172156  0.123901  1
  Pr  Pr8  1  0.155650  0.329070  0.376217  1
  Pr  Pr9  1  0.346679  0.830027  0.625393  1
  Pr  Pr10  1  0.838760  0.674813  0.875372  1
  Pr  Pr11  1  0.493622  0.317955  0.903792  1
  Pr  Pr12  1  0.998223  0.183577  0.596308  1
  Pr  Pr13  1  0.504522  0.682417  0.404252  1
  Pr  Pr14  1  0.005686  0.815268  0.095995  1
  Pr  Pr15  1  0.504283  0.681161  0.095175  1
  Pr  Pr16  1  0.003415  0.817636  0.403856  1
  Pr  Pr17  1  0.496141  0.316608  0.596196  1
  Pr  Pr18  1  0.994263  0.183467  0.903181  1
  Ho  Ho19  1  0.334677  0.829208  0.875785  1
  Sn  Sn20  1  0.325366  0.032568  0.035970  1
  Sn  Sn21  1  0.815608  0.460179  0.463395  1
  Sn  Sn22  1  0.686740  0.961819  0.536818  1
  Sn  Sn23  1  0.178260  0.539181  0.960491  1
  Sn  Sn24  1  0.669239  0.962442  0.961088  1
  Sn  Sn25  1  0.186448  0.540057  0.536752  1
  Sn  Sn26  1  0.314542  0.038435  0.464097  1
  Sn  Sn27  1  0.823569  0.463661  0.036934  1
  Sn  Sn28  1  0.536793  0.606810  0.751573  1
  Sn  Sn29  1  0.041850  0.895815  0.751342  1
  Sn  Sn30  1  0.460860  0.395586  0.250066  1
  Sn  Sn31  1  0.961213  0.103070  0.250328  1
  Sn  Sn32  1  0.298734  0.140396  0.751511  1
  Sn  Sn33  1  0.798862  0.360597  0.750881  1
  Sn  Sn34  1  0.701320  0.858339  0.249284  1
  Sn  Sn35  1  0.200845  0.639790  0.249358  1
