# generated using pymatgen
data_Tb3Th(B10Pt)2
_symmetry_space_group_name_H-M   'P 1'
_cell_length_a   4.18449800
_cell_length_b   5.71419601
_cell_length_c   11.41229202
_cell_angle_alpha   90.00755559
_cell_angle_beta   90.00000000
_cell_angle_gamma   90.00000000
_symmetry_Int_Tables_number   1
_chemical_formula_structural   Tb3Th(B10Pt)2
_chemical_formula_sum   'Tb3 Th1 B20 Pt2'
_cell_volume   272.87978910
_cell_formula_units_Z   1
loop_
 _symmetry_equiv_pos_site_id
 _symmetry_equiv_pos_as_xyz
  1  'x, y, z'
loop_
 _atom_site_type_symbol
 _atom_site_label
 _atom_site_symmetry_multiplicity
 _atom_site_fract_x
 _atom_site_fract_y
 _atom_site_fract_z
 _atom_site_occupancy
  Tb  Tb0  1  0.500000  0.814395  0.642605  1
  Tb  Tb1  1  0.500000  0.313866  0.860059  1
  Tb  Tb2  1  0.500000  0.687524  0.139616  1
  Th  Th3  1  0.500000  0.193042  0.360243  1
  B  B4  1  0.000000  0.383618  0.043187  1
  B  B5  1  0.000000  0.616527  0.955752  1
  B  B6  1  0.000000  0.116131  0.544789  1
  B  B7  1  0.000000  0.883973  0.455972  1
  B  B8  1  0.000000  0.360516  0.197145  1
  B  B9  1  0.000000  0.638925  0.802438  1
  B  B10  1  0.000000  0.139795  0.698830  1
  B  B11  1  0.000000  0.861454  0.302304  1
  B  B12  1  0.000000  0.053537  0.193450  1
  B  B13  1  0.000000  0.945934  0.806404  1
  B  B14  1  0.000000  0.446127  0.694613  1
  B  B15  1  0.000000  0.552569  0.306002  1
  B  B16  1  0.302675  0.219132  0.118779  1
  B  B17  1  0.697113  0.780646  0.879168  1
  B  B18  1  0.302887  0.780646  0.879168  1
  B  B19  1  0.696530  0.280037  0.621291  1
  B  B20  1  0.697325  0.219132  0.118779  1
  B  B21  1  0.303086  0.715204  0.378376  1
  B  B22  1  0.696914  0.715204  0.378376  1
  B  B23  1  0.303470  0.280037  0.621291  1
  Pt  Pt24  1  0.000000  0.999845  0.999408  1
  Pt  Pt25  1  0.000000  0.502185  0.501955  1
