# generated using pymatgen
data_Sr3CoIrO6
_symmetry_space_group_name_H-M   'P 1'
_cell_length_a   6.77269538
_cell_length_b   6.68430413
_cell_length_c   6.78252740
_cell_angle_alpha   91.81059606
_cell_angle_beta   91.59041412
_cell_angle_gamma   92.00802042
_symmetry_Int_Tables_number   1
_chemical_formula_structural   Sr3CoIrO6
_chemical_formula_sum   'Sr6 Co2 Ir2 O12'
_cell_volume   306.58033256
_cell_formula_units_Z   2
loop_
 _symmetry_equiv_pos_site_id
 _symmetry_equiv_pos_as_xyz
  1  'x, y, z'
loop_
 _atom_site_type_symbol
 _atom_site_label
 _atom_site_symmetry_multiplicity
 _atom_site_fract_x
 _atom_site_fract_y
 _atom_site_fract_z
 _atom_site_occupancy
  Sr  Sr0  1  0.613091  0.882661  0.250988  1
  Sr  Sr1  1  0.887599  0.250646  0.611468  1
  Sr  Sr2  1  0.248170  0.616252  0.888858  1
  Sr  Sr3  1  0.112379  0.749218  0.388285  1
  Sr  Sr4  1  0.752062  0.383699  0.111068  1
  Sr  Sr5  1  0.387088  0.117331  0.749025  1
  Co  Co6  1  0.259307  0.246648  0.244396  1
  Co  Co7  1  0.741312  0.752137  0.756198  1
  Ir  Ir8  1  0.499725  0.500198  0.500043  1
  Ir  Ir9  1  0.000034  0.000109  0.999885  1
  O  O10  1  0.545188  0.213803  0.408964  1
  O  O11  1  0.215588  0.408809  0.541412  1
  O  O12  1  0.400567  0.528118  0.210747  1
  O  O13  1  0.037300  0.906037  0.715791  1
  O  O14  1  0.910188  0.714631  0.049336  1
  O  O15  1  0.710284  0.028535  0.901483  1
  O  O16  1  0.454470  0.786467  0.590878  1
  O  O17  1  0.783994  0.591457  0.458727  1
  O  O18  1  0.599120  0.472091  0.789347  1
  O  O19  1  0.962978  0.094257  0.284225  1
  O  O20  1  0.089765  0.285370  0.950362  1
  O  O21  1  0.289787  0.971526  0.098513  1
