# generated using pymatgen
data_DyEr3Al16(SiIr3)2
_symmetry_space_group_name_H-M   'P 1'
_cell_length_a   7.52914413
_cell_length_b   7.52893424
_cell_length_c   9.32938600
_cell_angle_alpha   90.00000000
_cell_angle_beta   90.00000000
_cell_angle_gamma   119.67678878
_symmetry_Int_Tables_number   1
_chemical_formula_structural   DyEr3Al16(SiIr3)2
_chemical_formula_sum   'Dy1 Er3 Al16 Si2 Ir6'
_cell_volume   459.48153686
_cell_formula_units_Z   1
loop_
 _symmetry_equiv_pos_site_id
 _symmetry_equiv_pos_as_xyz
  1  'x, y, z'
loop_
 _atom_site_type_symbol
 _atom_site_label
 _atom_site_symmetry_multiplicity
 _atom_site_fract_x
 _atom_site_fract_y
 _atom_site_fract_z
 _atom_site_occupancy
  Dy  Dy0  1  0.325517  0.005025  0.250000  1
  Er  Er1  1  0.994865  0.674445  0.750000  1
  Er  Er2  1  0.004955  0.325365  0.250000  1
  Er  Er3  1  0.674534  0.994884  0.750000  1
  Al  Al4  1  0.000975  0.336151  0.576517  1
  Al  Al5  1  0.998829  0.663645  0.423630  1
  Al  Al6  1  0.998829  0.663645  0.076370  1
  Al  Al7  1  0.336138  0.000958  0.923280  1
  Al  Al8  1  0.000975  0.336151  0.923483  1
  Al  Al9  1  0.664081  0.999047  0.076392  1
  Al  Al10  1  0.664081  0.999047  0.423608  1
  Al  Al11  1  0.336138  0.000958  0.576720  1
  Al  Al12  1  0.335348  0.335568  0.057195  1
  Al  Al13  1  0.664679  0.664680  0.942586  1
  Al  Al14  1  0.664679  0.664680  0.557414  1
  Al  Al15  1  0.335348  0.335568  0.442805  1
  Al  Al16  1  0.335660  0.548597  0.750000  1
  Al  Al17  1  0.664565  0.451671  0.250000  1
  Al  Al18  1  0.548595  0.335686  0.750000  1
  Al  Al19  1  0.451457  0.664203  0.250000  1
  Si  Si20  1  0.128170  0.128142  0.750000  1
  Si  Si21  1  0.871654  0.871728  0.250000  1
  Ir  Ir22  1  0.672021  0.328227  0.500122  1
  Ir  Ir23  1  0.328117  0.671813  0.500111  1
  Ir  Ir24  1  0.328117  0.671813  0.999889  1
  Ir  Ir25  1  0.672021  0.328227  0.999878  1
  Ir  Ir26  1  0.999826  0.000038  0.500133  1
  Ir  Ir27  1  0.999826  0.000038  0.999867  1
