# generated using pymatgen
data_Tb18YTmSn16
_symmetry_space_group_name_H-M   'P 1'
_cell_length_a   8.06380903
_cell_length_b   8.21527458
_cell_length_c   15.53067300
_cell_angle_alpha   90.00000000
_cell_angle_beta   90.00000000
_cell_angle_gamma   89.95980628
_symmetry_Int_Tables_number   1
_chemical_formula_structural   Tb18YTmSn16
_chemical_formula_sum   'Tb18 Y1 Tm1 Sn16'
_cell_volume   1028.85100664
_cell_formula_units_Z   1
loop_
 _symmetry_equiv_pos_site_id
 _symmetry_equiv_pos_as_xyz
  1  'x, y, z'
loop_
 _atom_site_type_symbol
 _atom_site_label
 _atom_site_symmetry_multiplicity
 _atom_site_fract_x
 _atom_site_fract_y
 _atom_site_fract_z
 _atom_site_occupancy
  Tb  Tb0  1  0.367118  0.836172  0.877988  1
  Tb  Tb1  1  0.867872  0.663273  0.621982  1
  Tb  Tb2  1  0.632577  0.163721  0.378304  1
  Tb  Tb3  1  0.132608  0.336318  0.121358  1
  Tb  Tb4  1  0.632577  0.163721  0.121696  1
  Tb  Tb5  1  0.132608  0.336318  0.378642  1
  Tb  Tb6  1  0.367118  0.836172  0.622012  1
  Tb  Tb7  1  0.867872  0.663273  0.878018  1
  Tb  Tb8  1  0.519802  0.320650  0.901972  1
  Tb  Tb9  1  0.020259  0.179964  0.598041  1
  Tb  Tb10  1  0.480082  0.679740  0.402398  1
  Tb  Tb11  1  0.979987  0.820181  0.097794  1
  Tb  Tb12  1  0.480082  0.679740  0.097602  1
  Tb  Tb13  1  0.979987  0.820181  0.402206  1
  Tb  Tb14  1  0.519802  0.320650  0.598028  1
  Tb  Tb15  1  0.020259  0.179964  0.901959  1
  Tb  Tb16  1  0.801030  0.497725  0.250000  1
  Tb  Tb17  1  0.301009  0.002207  0.250000  1
  Y  Y18  1  0.698680  0.998160  0.750000  1
  Tm  Tm19  1  0.199287  0.502491  0.750000  1
  Sn  Sn20  1  0.292599  0.035375  0.041674  1
  Sn  Sn21  1  0.792378  0.464261  0.458324  1
  Sn  Sn22  1  0.707428  0.964467  0.542159  1
  Sn  Sn23  1  0.207499  0.535216  0.957199  1
  Sn  Sn24  1  0.707428  0.964467  0.957841  1
  Sn  Sn25  1  0.207499  0.535216  0.542801  1
  Sn  Sn26  1  0.292599  0.035375  0.458326  1
  Sn  Sn27  1  0.792378  0.464261  0.041676  1
  Sn  Sn28  1  0.564257  0.618046  0.750000  1
  Sn  Sn29  1  0.065595  0.880725  0.750000  1
  Sn  Sn30  1  0.434318  0.381596  0.250000  1
  Sn  Sn31  1  0.934548  0.118494  0.250000  1
  Sn  Sn32  1  0.327902  0.148323  0.750000  1
  Sn  Sn33  1  0.829338  0.353981  0.750000  1
  Sn  Sn34  1  0.671697  0.853796  0.250000  1
  Sn  Sn35  1  0.171920  0.645781  0.250000  1
