# generated using pymatgen
data_LiDy16In3CoIr3
_symmetry_space_group_name_H-M   'P 1'
_cell_length_a   9.62244461
_cell_length_b   9.62244468
_cell_length_c   9.62244462
_cell_angle_alpha   60.01907356
_cell_angle_beta   60.01906969
_cell_angle_gamma   60.01907011
_symmetry_Int_Tables_number   1
_chemical_formula_structural   LiDy16In3CoIr3
_chemical_formula_sum   'Li1 Dy16 In3 Co1 Ir3'
_cell_volume   630.27341168
_cell_formula_units_Z   1
loop_
 _symmetry_equiv_pos_site_id
 _symmetry_equiv_pos_as_xyz
  1  'x, y, z'
loop_
 _atom_site_type_symbol
 _atom_site_label
 _atom_site_symmetry_multiplicity
 _atom_site_fract_x
 _atom_site_fract_y
 _atom_site_fract_z
 _atom_site_occupancy
  Li  Li0  1  0.821267  0.821267  0.821267  1
  Dy  Dy1  1  0.600024  0.600024  0.600024  1
  Dy  Dy2  1  0.595647  0.595647  0.207553  1
  Dy  Dy3  1  0.595647  0.207553  0.595647  1
  Dy  Dy4  1  0.207553  0.595647  0.595647  1
  Dy  Dy5  1  0.063146  0.441410  0.441410  1
  Dy  Dy6  1  0.437938  0.061491  0.061491  1
  Dy  Dy7  1  0.441410  0.063146  0.441410  1
  Dy  Dy8  1  0.061491  0.437938  0.061491  1
  Dy  Dy9  1  0.441410  0.441410  0.063146  1
  Dy  Dy10  1  0.061491  0.061491  0.437938  1
  Dy  Dy11  1  0.189774  0.810127  0.810127  1
  Dy  Dy12  1  0.811886  0.188852  0.188852  1
  Dy  Dy13  1  0.810127  0.189774  0.810127  1
  Dy  Dy14  1  0.188852  0.811886  0.188852  1
  Dy  Dy15  1  0.810127  0.810127  0.189774  1
  Dy  Dy16  1  0.188852  0.188852  0.811886  1
  In  In17  1  0.833202  0.833202  0.504053  1
  In  In18  1  0.833202  0.504053  0.833202  1
  In  In19  1  0.504053  0.833202  0.833202  1
  Co  Co20  1  0.391780  0.391780  0.391780  1
  Ir  Ir21  1  0.392451  0.392451  0.826218  1
  Ir  Ir22  1  0.392451  0.826218  0.392451  1
  Ir  Ir23  1  0.826218  0.392451  0.392451  1
