# generated using pymatgen
data_TlCoAg2Ir3PbO14
_symmetry_space_group_name_H-M   'P 1'
_cell_length_a   7.24019937
_cell_length_b   7.20931928
_cell_length_c   7.14440390
_cell_angle_alpha   59.88810081
_cell_angle_beta   59.92217325
_cell_angle_gamma   60.62600603
_symmetry_Int_Tables_number   1
_chemical_formula_structural   TlCoAg2Ir3PbO14
_chemical_formula_sum   'Tl1 Co1 Ag2 Ir3 Pb1 O14'
_cell_volume   264.53195195
_cell_formula_units_Z   1
loop_
 _symmetry_equiv_pos_site_id
 _symmetry_equiv_pos_as_xyz
  1  'x, y, z'
loop_
 _atom_site_type_symbol
 _atom_site_label
 _atom_site_symmetry_multiplicity
 _atom_site_fract_x
 _atom_site_fract_y
 _atom_site_fract_z
 _atom_site_occupancy
  Tl  Tl0  1  0.125000  0.625000  0.125000  1
  Co  Co1  1  0.625000  0.625000  0.125000  1
  Ag  Ag2  1  0.125000  0.125000  0.625000  1
  Ag  Ag3  1  0.125000  0.125000  0.125000  1
  Ir  Ir4  1  0.125000  0.625000  0.625000  1
  Ir  Ir5  1  0.625000  0.125000  0.625000  1
  Ir  Ir6  1  0.625000  0.625000  0.625000  1
  Pb  Pb7  1  0.625000  0.125000  0.125000  1
  O  O8  1  0.700736  0.704932  0.292788  1
  O  O9  1  0.305013  0.302936  0.693667  1
  O  O10  1  0.695233  0.298389  0.710439  1
  O  O11  1  0.306610  0.691493  0.301077  1
  O  O12  1  0.303011  0.694190  0.704298  1
  O  O13  1  0.690682  0.306101  0.300561  1
  O  O14  1  0.549264  0.545068  0.957212  1
  O  O15  1  0.944987  0.947064  0.556333  1
  O  O16  1  0.554767  0.951611  0.539561  1
  O  O17  1  0.943390  0.558507  0.948923  1
  O  O18  1  0.946989  0.555810  0.545702  1
  O  O19  1  0.559318  0.943899  0.949439  1
  O  O20  1  0.234739  0.237017  0.263222  1
  O  O21  1  0.015261  0.012983  0.986778  1
