# generated using pymatgen
data_Nb16Al3FeTe16
_symmetry_space_group_name_H-M   'P 1'
_cell_length_a   4.91574300
_cell_length_b   10.96687411
_cell_length_c   19.14432911
_cell_angle_alpha   89.99798914
_cell_angle_beta   90.00000000
_cell_angle_gamma   90.00000000
_symmetry_Int_Tables_number   1
_chemical_formula_structural   Nb16Al3FeTe16
_chemical_formula_sum   'Nb16 Al3 Fe1 Te16'
_cell_volume   1032.07718859
_cell_formula_units_Z   1
loop_
 _symmetry_equiv_pos_site_id
 _symmetry_equiv_pos_as_xyz
  1  'x, y, z'
loop_
 _atom_site_type_symbol
 _atom_site_label
 _atom_site_symmetry_multiplicity
 _atom_site_fract_x
 _atom_site_fract_y
 _atom_site_fract_z
 _atom_site_occupancy
  Nb  Nb0  1  0.500414  0.566280  0.380355  1
  Nb  Nb1  1  0.500414  0.433720  0.619645  1
  Nb  Nb2  1  0.499815  0.064935  0.117461  1
  Nb  Nb3  1  0.499815  0.935065  0.882539  1
  Nb  Nb4  1  0.499981  0.709502  0.537631  1
  Nb  Nb5  1  0.499981  0.290498  0.462369  1
  Nb  Nb6  1  0.500505  0.205888  0.962938  1
  Nb  Nb7  1  0.500505  0.794112  0.037062  1
  Nb  Nb8  1  0.000107  0.694740  0.441694  1
  Nb  Nb9  1  0.000107  0.305260  0.558306  1
  Nb  Nb10  1  0.999564  0.191497  0.057151  1
  Nb  Nb11  1  0.999564  0.808503  0.942849  1
  Nb  Nb12  1  0.999808  0.398867  0.388747  1
  Nb  Nb13  1  0.999808  0.601133  0.611253  1
  Nb  Nb14  1  0.999921  0.900499  0.109242  1
  Nb  Nb15  1  0.999921  0.099501  0.890758  1
  Al  Al16  1  0.250103  0.500000  0.500000  1
  Al  Al17  1  0.750152  0.000000  0.000000  1
  Al  Al18  1  0.750130  0.500000  0.500000  1
  Fe  Fe19  1  0.250204  0.000000  0.000000  1
  Te  Te20  1  0.000026  0.847839  0.562729  1
  Te  Te21  1  0.000026  0.152161  0.437271  1
  Te  Te22  1  0.003880  0.346402  0.937248  1
  Te  Te23  1  0.003880  0.653598  0.062752  1
  Te  Te24  1  0.500049  0.332160  0.315208  1
  Te  Te25  1  0.500049  0.667840  0.684792  1
  Te  Te26  1  0.496118  0.832988  0.184019  1
  Te  Te27  1  0.496118  0.167012  0.815981  1
  Te  Te28  1  0.499990  0.823832  0.403404  1
  Te  Te29  1  0.499990  0.176168  0.596596  1
  Te  Te30  1  0.495990  0.322464  0.096162  1
  Te  Te31  1  0.495990  0.677536  0.903838  1
  Te  Te32  1  0.999985  0.609333  0.300905  1
  Te  Te33  1  0.999985  0.390667  0.699095  1
  Te  Te34  1  0.003552  0.108714  0.198051  1
  Te  Te35  1  0.003552  0.891286  0.801949  1
