# generated using pymatgen
data_Tb3Y(Ga5Co3)2
_symmetry_space_group_name_H-M   'P 1'
_cell_length_a   8.32925083
_cell_length_b   8.33008198
_cell_length_c   5.52696942
_cell_angle_alpha   70.59101677
_cell_angle_beta   70.58381909
_cell_angle_gamma   96.21933701
_symmetry_Int_Tables_number   1
_chemical_formula_structural   Tb3Y(Ga5Co3)2
_chemical_formula_sum   'Tb3 Y1 Ga10 Co6'
_cell_volume   330.63660595
_cell_formula_units_Z   1
loop_
 _symmetry_equiv_pos_site_id
 _symmetry_equiv_pos_as_xyz
  1  'x, y, z'
loop_
 _atom_site_type_symbol
 _atom_site_label
 _atom_site_symmetry_multiplicity
 _atom_site_fract_x
 _atom_site_fract_y
 _atom_site_fract_z
 _atom_site_occupancy
  Tb  Tb0  1  0.132731  0.418433  0.723167  1
  Tb  Tb1  1  0.418490  0.132711  0.223146  1
  Tb  Tb2  1  0.867253  0.581576  0.276833  1
  Y  Y3  1  0.581727  0.867337  0.776715  1
  Ga  Ga4  1  0.499534  0.500491  0.750002  1
  Ga  Ga5  1  0.500438  0.499616  0.249962  1
  Ga  Ga6  1  0.262487  0.093286  0.821155  1
  Ga  Ga7  1  0.906712  0.737482  0.678865  1
  Ga  Ga8  1  0.737357  0.906627  0.178959  1
  Ga  Ga9  1  0.093332  0.262593  0.321059  1
  Ga  Ga10  1  0.794602  0.205282  0.749972  1
  Ga  Ga11  1  0.205440  0.794647  0.249924  1
  Ga  Ga12  1  0.206034  0.794045  0.749991  1
  Ga  Ga13  1  0.794019  0.205911  0.250121  1
  Co  Co14  1  0.561958  0.264535  0.587866  1
  Co  Co15  1  0.735599  0.437983  0.912089  1
  Co  Co16  1  0.437946  0.735548  0.412167  1
  Co  Co17  1  0.264438  0.561970  0.087912  1
  Co  Co18  1  0.000030  0.999905  0.749968  1
  Co  Co19  1  0.999872  0.000021  0.250127  1
