# generated using pymatgen
data_Dy9YSi6F
_symmetry_space_group_name_H-M   'P 1'
_cell_length_a   8.46424827
_cell_length_b   8.46295877
_cell_length_c   6.38535000
_cell_angle_alpha   90.00718993
_cell_angle_beta   89.98562232
_cell_angle_gamma   120.00504048
_symmetry_Int_Tables_number   1
_chemical_formula_structural   Dy9YSi6F
_chemical_formula_sum   'Dy9 Y1 Si6 F1'
_cell_volume   396.09912486
_cell_formula_units_Z   1
loop_
 _symmetry_equiv_pos_site_id
 _symmetry_equiv_pos_as_xyz
  1  'x, y, z'
loop_
 _atom_site_type_symbol
 _atom_site_label
 _atom_site_symmetry_multiplicity
 _atom_site_fract_x
 _atom_site_fract_y
 _atom_site_fract_z
 _atom_site_occupancy
  Dy  Dy0  1  0.333381  0.666630  0.499935  1
  Dy  Dy1  1  0.666752  0.333370  0.499935  1
  Dy  Dy2  1  0.666818  0.333435  0.000071  1
  Dy  Dy3  1  0.333382  0.666565  0.000071  1
  Dy  Dy4  1  0.999935  0.752976  0.245625  1
  Dy  Dy5  1  0.246959  0.247024  0.245625  1
  Dy  Dy6  1  0.753142  0.000000  0.245591  1
  Dy  Dy7  1  0.999981  0.247126  0.754415  1
  Dy  Dy8  1  0.752855  0.752874  0.754415  1
  Y  Y9  1  0.247212  0.000000  0.755302  1
  Si  Si10  1  0.000088  0.392374  0.248486  1
  Si  Si11  1  0.607714  0.607626  0.248486  1
  Si  Si12  1  0.392374  0.000000  0.248593  1
  Si  Si13  1  0.999974  0.607692  0.751487  1
  Si  Si14  1  0.392282  0.392308  0.751487  1
  Si  Si15  1  0.607954  0.000000  0.751493  1
  F  F16  1  0.999198  0.000000  0.498983  1
