# generated using pymatgen
data_YCrCo4As3
_symmetry_space_group_name_H-M   'P 1'
_cell_length_a   3.78339900
_cell_length_b   10.77148100
_cell_length_c   12.30266200
_cell_angle_alpha   90.00000000
_cell_angle_beta   90.00000000
_cell_angle_gamma   90.00000000
_symmetry_Int_Tables_number   1
_chemical_formula_structural   YCrCo4As3
_chemical_formula_sum   'Y4 Cr4 Co16 As12'
_cell_volume   501.36805244
_cell_formula_units_Z   4
loop_
 _symmetry_equiv_pos_site_id
 _symmetry_equiv_pos_as_xyz
  1  'x, y, z'
loop_
 _atom_site_type_symbol
 _atom_site_label
 _atom_site_symmetry_multiplicity
 _atom_site_fract_x
 _atom_site_fract_y
 _atom_site_fract_z
 _atom_site_occupancy
  Y  Y0  1  0.250000  0.918618  0.205348  1
  Y  Y1  1  0.750000  0.081382  0.794652  1
  Y  Y2  1  0.750000  0.418618  0.294652  1
  Y  Y3  1  0.250000  0.581382  0.705348  1
  Cr  Cr4  1  0.250000  0.794845  0.490498  1
  Cr  Cr5  1  0.750000  0.205155  0.509502  1
  Cr  Cr6  1  0.750000  0.294845  0.009502  1
  Cr  Cr7  1  0.250000  0.705155  0.990498  1
  Co  Co8  1  0.250000  0.094856  0.989218  1
  Co  Co9  1  0.750000  0.905144  0.010782  1
  Co  Co10  1  0.750000  0.594856  0.510782  1
  Co  Co11  1  0.250000  0.405144  0.489218  1
  Co  Co12  1  0.250000  0.281915  0.674905  1
  Co  Co13  1  0.750000  0.718085  0.325095  1
  Co  Co14  1  0.750000  0.781915  0.825095  1
  Co  Co15  1  0.250000  0.218085  0.174905  1
  Co  Co16  1  0.250000  0.616717  0.199049  1
  Co  Co17  1  0.750000  0.383283  0.800951  1
  Co  Co18  1  0.750000  0.116717  0.300951  1
  Co  Co19  1  0.250000  0.883283  0.699049  1
  Co  Co20  1  0.250000  0.035080  0.431887  1
  Co  Co21  1  0.750000  0.964920  0.568113  1
  Co  Co22  1  0.750000  0.535080  0.068113  1
  Co  Co23  1  0.250000  0.464920  0.931887  1
  As  As24  1  0.250000  0.081178  0.614188  1
  As  As25  1  0.750000  0.918822  0.385812  1
  As  As26  1  0.750000  0.581178  0.885812  1
  As  As27  1  0.250000  0.418822  0.114188  1
  As  As28  1  0.250000  0.232327  0.365723  1
  As  As29  1  0.750000  0.767673  0.634277  1
  As  As30  1  0.750000  0.732327  0.134277  1
  As  As31  1  0.250000  0.267673  0.865723  1
  As  As32  1  0.250000  0.904217  0.890242  1
  As  As33  1  0.750000  0.095783  0.109758  1
  As  As34  1  0.750000  0.404217  0.609758  1
  As  As35  1  0.250000  0.595783  0.390242  1
