# generated using pymatgen
data_Tm2Hf2NbSi4
_symmetry_space_group_name_H-M   'P 1'
_cell_length_a   7.18159300
_cell_length_b   7.18159300
_cell_length_c   13.13185700
_cell_angle_alpha   90.00000000
_cell_angle_beta   90.00000000
_cell_angle_gamma   90.00000000
_symmetry_Int_Tables_number   1
_chemical_formula_structural   Tm2Hf2NbSi4
_chemical_formula_sum   'Tm8 Hf8 Nb4 Si16'
_cell_volume   677.27917566
_cell_formula_units_Z   4
loop_
 _symmetry_equiv_pos_site_id
 _symmetry_equiv_pos_as_xyz
  1  'x, y, z'
loop_
 _atom_site_type_symbol
 _atom_site_label
 _atom_site_symmetry_multiplicity
 _atom_site_fract_x
 _atom_site_fract_y
 _atom_site_fract_z
 _atom_site_occupancy
  Tm  Tm0  1  0.498184  0.154528  0.534535  1
  Tm  Tm1  1  0.501816  0.845472  0.034535  1
  Tm  Tm2  1  0.654528  0.001816  0.284535  1
  Tm  Tm3  1  0.345472  0.998184  0.784535  1
  Tm  Tm4  1  0.845472  0.501816  0.965465  1
  Tm  Tm5  1  0.154528  0.498184  0.465465  1
  Tm  Tm6  1  0.001816  0.654528  0.715465  1
  Tm  Tm7  1  0.998184  0.345472  0.215465  1
  Hf  Hf8  1  0.493966  0.354378  0.125712  1
  Hf  Hf9  1  0.506034  0.645622  0.625712  1
  Hf  Hf10  1  0.854378  0.006034  0.875712  1
  Hf  Hf11  1  0.145622  0.993966  0.375712  1
  Hf  Hf12  1  0.645622  0.506034  0.374288  1
  Hf  Hf13  1  0.354378  0.493966  0.874288  1
  Hf  Hf14  1  0.006034  0.854378  0.124288  1
  Hf  Hf15  1  0.993966  0.145622  0.624288  1
  Nb  Nb16  1  0.676402  0.323598  0.750000  1
  Nb  Nb17  1  0.323598  0.676402  0.250000  1
  Nb  Nb18  1  0.823598  0.823598  0.500000  1
  Nb  Nb19  1  0.176402  0.176402  0.000000  1
  Si  Si20  1  0.794916  0.140665  0.068277  1
  Si  Si21  1  0.205084  0.859335  0.568277  1
  Si  Si22  1  0.640665  0.705084  0.818277  1
  Si  Si23  1  0.359335  0.294916  0.318277  1
  Si  Si24  1  0.859335  0.205084  0.431723  1
  Si  Si25  1  0.140665  0.794916  0.931723  1
  Si  Si26  1  0.705084  0.640665  0.181723  1
  Si  Si27  1  0.294916  0.359335  0.681723  1
  Si  Si28  1  0.549925  0.202834  0.935219  1
  Si  Si29  1  0.450075  0.797166  0.435219  1
  Si  Si30  1  0.702834  0.950075  0.685219  1
  Si  Si31  1  0.297166  0.049925  0.185219  1
  Si  Si32  1  0.797166  0.450075  0.564781  1
  Si  Si33  1  0.202834  0.549925  0.064781  1
  Si  Si34  1  0.950075  0.702834  0.314781  1
  Si  Si35  1  0.049925  0.297166  0.814781  1
