# generated using pymatgen
data_Nd4Sm6B2I15
_symmetry_space_group_name_H-M   'P 1'
_cell_length_a   9.86639684
_cell_length_b   10.59359601
_cell_length_c   11.55680237
_cell_angle_alpha   91.77604837
_cell_angle_beta   114.32940576
_cell_angle_gamma   110.45353632
_symmetry_Int_Tables_number   1
_chemical_formula_structural   Nd4Sm6B2I15
_chemical_formula_sum   'Nd4 Sm6 B2 I15'
_cell_volume   1009.37419234
_cell_formula_units_Z   1
loop_
 _symmetry_equiv_pos_site_id
 _symmetry_equiv_pos_as_xyz
  1  'x, y, z'
loop_
 _atom_site_type_symbol
 _atom_site_label
 _atom_site_symmetry_multiplicity
 _atom_site_fract_x
 _atom_site_fract_y
 _atom_site_fract_z
 _atom_site_occupancy
  Nd  Nd0  1  0.789595  0.398453  0.271297  1
  Nd  Nd1  1  0.210405  0.601547  0.728703  1
  Nd  Nd2  1  0.665173  0.750266  0.823101  1
  Nd  Nd3  1  0.334827  0.249734  0.176899  1
  Sm  Sm4  1  0.523132  0.710918  0.087128  1
  Sm  Sm5  1  0.476868  0.289082  0.912872  1
  Sm  Sm6  1  0.581442  0.042094  0.311732  1
  Sm  Sm7  1  0.418558  0.957906  0.688268  1
  Sm  Sm8  1  0.710860  0.070739  0.045973  1
  Sm  Sm9  1  0.289140  0.929261  0.954027  1
  B  B10  1  0.467720  0.823109  0.879792  1
  B  B11  1  0.532280  0.176891  0.120208  1
  I  I12  1  0.000000  0.000000  0.000000  1
  I  I13  1  0.636015  0.884735  0.580050  1
  I  I14  1  0.363985  0.115265  0.419950  1
  I  I15  1  0.882183  0.294772  0.532391  1
  I  I16  1  0.117817  0.705228  0.467609  1
  I  I17  1  0.285163  0.760462  0.176499  1
  I  I18  1  0.714837  0.239538  0.823501  1
  I  I19  1  0.054359  0.338775  0.224200  1
  I  I20  1  0.161279  0.055992  0.703578  1
  I  I21  1  0.838721  0.944008  0.296422  1
  I  I22  1  0.229426  0.409552  0.942552  1
  I  I23  1  0.770574  0.590448  0.057448  1
  I  I24  1  0.408617  0.454862  0.658979  1
  I  I25  1  0.591383  0.545138  0.341021  1
  I  I26  1  0.945641  0.661225  0.775800  1
