# generated using pymatgen
data_LiAu(Se2O7)2
_symmetry_space_group_name_H-M   'P 1'
_cell_length_a   5.79665658
_cell_length_b   7.11169125
_cell_length_c   9.03885585
_cell_angle_alpha   105.76247281
_cell_angle_beta   93.16884240
_cell_angle_gamma   102.47501121
_symmetry_Int_Tables_number   1
_chemical_formula_structural   LiAu(Se2O7)2
_chemical_formula_sum   'Li1 Au1 Se4 O14'
_cell_volume   347.55523177
_cell_formula_units_Z   1
loop_
 _symmetry_equiv_pos_site_id
 _symmetry_equiv_pos_as_xyz
  1  'x, y, z'
loop_
 _atom_site_type_symbol
 _atom_site_label
 _atom_site_symmetry_multiplicity
 _atom_site_fract_x
 _atom_site_fract_y
 _atom_site_fract_z
 _atom_site_occupancy
  Li  Li0  1  0.500000  0.000000  0.000000  1
  Au  Au1  1  0.500000  0.500000  0.500000  1
  Se  Se2  1  0.935736  0.744539  0.773904  1
  Se  Se3  1  0.064264  0.255461  0.226096  1
  Se  Se4  1  0.660034  0.298993  0.756428  1
  Se  Se5  1  0.339966  0.701007  0.243572  1
  O  O6  1  0.842393  0.654667  0.576212  1
  O  O7  1  0.157607  0.345333  0.423788  1
  O  O8  1  0.451486  0.414232  0.695108  1
  O  O9  1  0.548514  0.585768  0.304892  1
  O  O10  1  0.219775  0.842864  0.791733  1
  O  O11  1  0.780225  0.157136  0.208267  1
  O  O12  1  0.762212  0.870050  0.870389  1
  O  O13  1  0.237788  0.129950  0.129611  1
  O  O14  1  0.576308  0.248055  0.912798  1
  O  O15  1  0.423692  0.751945  0.087202  1
  O  O16  1  0.920330  0.515771  0.830659  1
  O  O17  1  0.079670  0.484229  0.169341  1
  O  O18  1  0.741345  0.138782  0.617351  1
  O  O19  1  0.258655  0.861218  0.382649  1
