# generated using pymatgen
data_Ta12Al7CoN4
_symmetry_space_group_name_H-M   'P 1'
_cell_length_a   7.01652968
_cell_length_b   7.01652901
_cell_length_c   7.01652921
_cell_angle_alpha   89.90486765
_cell_angle_beta   90.09512532
_cell_angle_gamma   90.09513331
_symmetry_Int_Tables_number   1
_chemical_formula_structural   Ta12Al7CoN4
_chemical_formula_sum   'Ta12 Al7 Co1 N4'
_cell_volume   345.43412220
_cell_formula_units_Z   1
loop_
 _symmetry_equiv_pos_site_id
 _symmetry_equiv_pos_as_xyz
  1  'x, y, z'
loop_
 _atom_site_type_symbol
 _atom_site_label
 _atom_site_symmetry_multiplicity
 _atom_site_fract_x
 _atom_site_fract_y
 _atom_site_fract_z
 _atom_site_occupancy
  Ta  Ta0  1  0.795297  0.955336  0.373483  1
  Ta  Ta1  1  0.707555  0.045068  0.877110  1
  Ta  Ta2  1  0.205405  0.457370  0.124423  1
  Ta  Ta3  1  0.294660  0.545292  0.627530  1
  Ta  Ta4  1  0.954932  0.377110  0.792445  1
  Ta  Ta5  1  0.044664  0.873483  0.704703  1
  Ta  Ta6  1  0.454708  0.127530  0.205340  1
  Ta  Ta7  1  0.542630  0.624423  0.294595  1
  Ta  Ta8  1  0.375577  0.794595  0.957370  1
  Ta  Ta9  1  0.872470  0.705340  0.045292  1
  Ta  Ta10  1  0.126517  0.204703  0.455336  1
  Ta  Ta11  1  0.622890  0.292445  0.545068  1
  Al  Al12  1  0.320575  0.175097  0.820751  1
  Al  Al13  1  0.824903  0.320751  0.179425  1
  Al  Al14  1  0.679249  0.679425  0.675097  1
  Al  Al15  1  0.570372  0.429628  0.929628  1
  Al  Al16  1  0.415388  0.923292  0.556570  1
  Al  Al17  1  0.943430  0.584612  0.423292  1
  Al  Al18  1  0.076708  0.056570  0.084612  1
  Co  Co19  1  0.179198  0.820802  0.320802  1
  N  N20  1  0.875750  0.124250  0.624250  1
  N  N21  1  0.622387  0.876766  0.128500  1
  N  N22  1  0.123234  0.628500  0.877613  1
  N  N23  1  0.371500  0.377613  0.376766  1
