# generated using pymatgen
data_DyY3Sc4(B6Ir)4
_symmetry_space_group_name_H-M   'P 1'
_cell_length_a   3.55237400
_cell_length_b   9.01987100
_cell_length_c   11.39399400
_cell_angle_alpha   89.99704154
_cell_angle_beta   90.00000000
_cell_angle_gamma   90.00000000
_symmetry_Int_Tables_number   1
_chemical_formula_structural   DyY3Sc4(B6Ir)4
_chemical_formula_sum   'Dy1 Y3 Sc4 B24 Ir4'
_cell_volume   365.08584532
_cell_formula_units_Z   1
loop_
 _symmetry_equiv_pos_site_id
 _symmetry_equiv_pos_as_xyz
  1  'x, y, z'
loop_
 _atom_site_type_symbol
 _atom_site_label
 _atom_site_symmetry_multiplicity
 _atom_site_fract_x
 _atom_site_fract_y
 _atom_site_fract_z
 _atom_site_occupancy
  Dy  Dy0  1  0.500000  0.819922  0.085984  1
  Y  Y1  1  0.500000  0.319855  0.414048  1
  Y  Y2  1  0.500000  0.680131  0.585952  1
  Y  Y3  1  0.500000  0.180135  0.914046  1
  Sc  Sc4  1  0.500000  0.445187  0.124217  1
  Sc  Sc5  1  0.500000  0.554838  0.875801  1
  Sc  Sc6  1  0.500000  0.054855  0.624211  1
  Sc  Sc7  1  0.500000  0.945146  0.375749  1
  B  B8  1  0.000000  0.100155  0.472914  1
  B  B9  1  0.000000  0.899846  0.527079  1
  B  B10  1  0.000000  0.399851  0.972921  1
  B  B11  1  0.000000  0.600234  0.027115  1
  B  B12  1  0.000000  0.129754  0.318364  1
  B  B13  1  0.000000  0.870236  0.681638  1
  B  B14  1  0.000000  0.370236  0.818366  1
  B  B15  1  0.000000  0.629895  0.181570  1
  B  B16  1  0.000000  0.054654  0.065837  1
  B  B17  1  0.000000  0.945149  0.934262  1
  B  B18  1  0.000000  0.445246  0.565789  1
  B  B19  1  0.000000  0.554753  0.434213  1
  B  B20  1  0.000000  0.481839  0.284903  1
  B  B21  1  0.000000  0.518154  0.715091  1
  B  B22  1  0.000000  0.018154  0.784908  1
  B  B23  1  0.000000  0.981767  0.215012  1
  B  B24  1  0.000000  0.254133  0.080377  1
  B  B25  1  0.000000  0.745922  0.919726  1
  B  B26  1  0.000000  0.245860  0.580380  1
  B  B27  1  0.000000  0.754140  0.419622  1
  B  B28  1  0.000000  0.295747  0.235290  1
  B  B29  1  0.000000  0.704265  0.764718  1
  B  B30  1  0.000000  0.204265  0.735284  1
  B  B31  1  0.000000  0.795735  0.264613  1
  Ir  Ir32  1  0.500000  0.141376  0.181505  1
  Ir  Ir33  1  0.500000  0.858487  0.818583  1
  Ir  Ir34  1  0.500000  0.358499  0.681540  1
  Ir  Ir35  1  0.500000  0.641575  0.318370  1
