# generated using pymatgen
data_LiLa2ZnIr2
_symmetry_space_group_name_H-M   'P 1'
_cell_length_a   7.17215800
_cell_length_b   4.15493200
_cell_length_c   8.47057300
_cell_angle_alpha   90.00000000
_cell_angle_beta   90.00000000
_cell_angle_gamma   90.00000000
_symmetry_Int_Tables_number   1
_chemical_formula_structural   LiLa2ZnIr2
_chemical_formula_sum   'Li2 La4 Zn2 Ir4'
_cell_volume   252.42162510
_cell_formula_units_Z   2
loop_
 _symmetry_equiv_pos_site_id
 _symmetry_equiv_pos_as_xyz
  1  'x, y, z'
loop_
 _atom_site_type_symbol
 _atom_site_label
 _atom_site_symmetry_multiplicity
 _atom_site_fract_x
 _atom_site_fract_y
 _atom_site_fract_z
 _atom_site_occupancy
  Li  Li0  1  0.626235  0.250000  0.554773  1
  Li  Li1  1  0.126235  0.250000  0.945227  1
  La  La2  1  0.041198  0.250000  0.317247  1
  La  La3  1  0.541198  0.250000  0.182753  1
  La  La4  1  0.958836  0.750000  0.683351  1
  La  La5  1  0.458836  0.750000  0.816649  1
  Zn  Zn6  1  0.373389  0.750000  0.442975  1
  Zn  Zn7  1  0.873389  0.750000  0.057025  1
  Ir  Ir8  1  0.251749  0.250000  0.618033  1
  Ir  Ir9  1  0.751749  0.250000  0.881967  1
  Ir  Ir10  1  0.748594  0.750000  0.372882  1
  Ir  Ir11  1  0.248594  0.750000  0.127118  1
