# generated using pymatgen
data_Nd12Ni(PtI4)3
_symmetry_space_group_name_H-M   'P 1'
_cell_length_a   10.87443805
_cell_length_b   10.87383303
_cell_length_c   10.87707370
_cell_angle_alpha   109.28013690
_cell_angle_beta   109.27905210
_cell_angle_gamma   109.55874534
_symmetry_Int_Tables_number   1
_chemical_formula_structural   Nd12Ni(PtI4)3
_chemical_formula_sum   'Nd12 Ni1 Pt3 I12'
_cell_volume   993.69258715
_cell_formula_units_Z   1
loop_
 _symmetry_equiv_pos_site_id
 _symmetry_equiv_pos_as_xyz
  1  'x, y, z'
loop_
 _atom_site_type_symbol
 _atom_site_label
 _atom_site_symmetry_multiplicity
 _atom_site_fract_x
 _atom_site_fract_y
 _atom_site_fract_z
 _atom_site_occupancy
  Nd  Nd0  1  0.395815  0.604223  0.999976  1
  Nd  Nd1  1  0.604745  0.395223  0.000007  1
  Nd  Nd2  1  0.643917  0.150720  0.294813  1
  Nd  Nd3  1  0.849297  0.356071  0.705188  1
  Nd  Nd4  1  0.418838  0.395593  0.275936  1
  Nd  Nd5  1  0.126407  0.144744  0.728644  1
  Nd  Nd6  1  0.123930  0.353344  0.517710  1
  Nd  Nd7  1  0.830148  0.599532  0.483540  1
  Nd  Nd8  1  0.604406  0.581139  0.724075  1
  Nd  Nd9  1  0.855246  0.873628  0.271346  1
  Nd  Nd10  1  0.646669  0.876096  0.482289  1
  Nd  Nd11  1  0.400487  0.169793  0.516466  1
  Ni  Ni12  1  0.624688  0.375328  0.500036  1
  Pt  Pt13  1  0.625351  0.624826  0.251649  1
  Pt  Pt14  1  0.375177  0.374620  0.748331  1
  Pt  Pt15  1  0.874977  0.125042  0.500000  1
  I  I16  1  0.365630  0.634424  0.500031  1
  I  I17  1  0.133682  0.866241  0.499958  1
  I  I18  1  0.116664  0.116099  0.231461  1
  I  I19  1  0.883876  0.883368  0.768547  1
  I  I20  1  0.890686  0.633211  0.005122  1
  I  I21  1  0.627742  0.884325  0.994572  1
  I  I22  1  0.622213  0.116328  0.757026  1
  I  I23  1  0.359273  0.865967  0.243265  1
  I  I24  1  0.366749  0.109263  0.994866  1
  I  I25  1  0.115743  0.372301  0.005428  1
  I  I26  1  0.883673  0.377824  0.243010  1
  I  I27  1  0.133975  0.640727  0.756710  1
