# generated using pymatgen
data_Ho7ErSc11Si16Os
_symmetry_space_group_name_H-M   'P 1'
_cell_length_a   6.99958101
_cell_length_b   7.34800886
_cell_length_c   13.84965710
_cell_angle_alpha   89.98739352
_cell_angle_beta   90.00592125
_cell_angle_gamma   90.10810137
_symmetry_Int_Tables_number   1
_chemical_formula_structural   Ho7ErSc11Si16Os
_chemical_formula_sum   'Ho7 Er1 Sc11 Si16 Os1'
_cell_volume   712.32789341
_cell_formula_units_Z   1
loop_
 _symmetry_equiv_pos_site_id
 _symmetry_equiv_pos_as_xyz
  1  'x, y, z'
loop_
 _atom_site_type_symbol
 _atom_site_label
 _atom_site_symmetry_multiplicity
 _atom_site_fract_x
 _atom_site_fract_y
 _atom_site_fract_z
 _atom_site_occupancy
  Ho  Ho0  1  0.012486  0.178693  0.092495  1
  Ho  Ho1  1  0.992884  0.818890  0.900935  1
  Ho  Ho2  1  0.489589  0.673103  0.903098  1
  Ho  Ho3  1  0.992880  0.818847  0.599057  1
  Ho  Ho4  1  0.511856  0.323134  0.094316  1
  Ho  Ho5  1  0.012478  0.178691  0.407522  1
  Ho  Ho6  1  0.511857  0.323152  0.405718  1
  Er  Er7  1  0.489514  0.673202  0.597028  1
  Sc  Sc8  1  0.843494  0.496536  0.250000  1
  Sc  Sc9  1  0.343650  0.003448  0.249997  1
  Sc  Sc10  1  0.655801  0.994754  0.749965  1
  Sc  Sc11  1  0.324530  0.175577  0.627537  1
  Sc  Sc12  1  0.673248  0.824977  0.373960  1
  Sc  Sc13  1  0.173418  0.673069  0.377011  1
  Sc  Sc14  1  0.673247  0.825028  0.126065  1
  Sc  Sc15  1  0.823289  0.331856  0.628749  1
  Sc  Sc16  1  0.324493  0.175533  0.872455  1
  Sc  Sc17  1  0.823386  0.331782  0.871219  1
  Sc  Sc18  1  0.173402  0.673057  0.123008  1
  Si  Si19  1  0.026332  0.117035  0.749988  1
  Si  Si20  1  0.975087  0.887152  0.250003  1
  Si  Si21  1  0.470656  0.613938  0.250009  1
  Si  Si22  1  0.511739  0.396550  0.749913  1
  Si  Si23  1  0.285446  0.857151  0.749892  1
  Si  Si24  1  0.718167  0.131407  0.250001  1
  Si  Si25  1  0.215981  0.369584  0.249995  1
  Si  Si26  1  0.794540  0.631308  0.749921  1
  Si  Si27  1  0.156408  0.466390  0.550119  1
  Si  Si28  1  0.842509  0.536307  0.464048  1
  Si  Si29  1  0.345528  0.964502  0.462889  1
  Si  Si30  1  0.842598  0.536297  0.035984  1
  Si  Si31  1  0.658987  0.034265  0.539705  1
  Si  Si32  1  0.156103  0.466210  0.949925  1
  Si  Si33  1  0.659065  0.034459  0.960330  1
  Si  Si34  1  0.345460  0.964668  0.037169  1
  Os  Os35  1  0.149892  0.499447  0.749973  1
