# generated using pymatgen
data_Co2Tc5Ru
_symmetry_space_group_name_H-M   'P 1'
_cell_length_a   5.37327500
_cell_length_b   5.37851312
_cell_length_c   4.29413700
_cell_angle_alpha   90.00000000
_cell_angle_beta   90.00000000
_cell_angle_gamma   119.96777049
_symmetry_Int_Tables_number   1
_chemical_formula_structural   Co2Tc5Ru
_chemical_formula_sum   'Co2 Tc5 Ru1'
_cell_volume   107.50997996
_cell_formula_units_Z   1
loop_
 _symmetry_equiv_pos_site_id
 _symmetry_equiv_pos_as_xyz
  1  'x, y, z'
loop_
 _atom_site_type_symbol
 _atom_site_label
 _atom_site_symmetry_multiplicity
 _atom_site_fract_x
 _atom_site_fract_y
 _atom_site_fract_z
 _atom_site_occupancy
  Co  Co0  1  0.664482  0.328963  0.250000  1
  Co  Co1  1  0.332307  0.664615  0.750000  1
  Tc  Tc2  1  0.833644  0.168463  0.750000  1
  Tc  Tc3  1  0.334817  0.168463  0.750000  1
  Tc  Tc4  1  0.833905  0.667812  0.750000  1
  Tc  Tc5  1  0.168193  0.832937  0.250000  1
  Tc  Tc6  1  0.664745  0.832937  0.250000  1
  Ru  Ru7  1  0.167906  0.335811  0.250000  1
