# generated using pymatgen
data_Tb2GaRh2
_symmetry_space_group_name_H-M   'P 1'
_cell_length_a   4.14546328
_cell_length_b   5.85610780
_cell_length_c   5.53172792
_cell_angle_alpha   121.95952562
_cell_angle_beta   112.00570121
_cell_angle_gamma   89.99999888
_symmetry_Int_Tables_number   1
_chemical_formula_structural   Tb2GaRh2
_chemical_formula_sum   'Tb2 Ga1 Rh2'
_cell_volume   102.22098965
_cell_formula_units_Z   1
loop_
 _symmetry_equiv_pos_site_id
 _symmetry_equiv_pos_as_xyz
  1  'x, y, z'
loop_
 _atom_site_type_symbol
 _atom_site_label
 _atom_site_symmetry_multiplicity
 _atom_site_fract_x
 _atom_site_fract_y
 _atom_site_fract_z
 _atom_site_occupancy
  Tb  Tb0  1  0.797865  0.297865  0.595729  1
  Tb  Tb1  1  0.202135  0.702135  0.404271  1
  Ga  Ga2  1  0.000000  0.000000  0.000000  1
  Rh  Rh3  1  0.500000  0.260967  0.000000  1
  Rh  Rh4  1  0.500000  0.739033  0.000000  1
