# generated using pymatgen
data_Ho16Er4Sn15Pb
_symmetry_space_group_name_H-M   'P 1'
_cell_length_a   8.05750404
_cell_length_b   8.13045861
_cell_length_c   15.42859948
_cell_angle_alpha   89.99904462
_cell_angle_beta   90.08758717
_cell_angle_gamma   89.89716929
_symmetry_Int_Tables_number   1
_chemical_formula_structural   Ho16Er4Sn15Pb
_chemical_formula_sum   'Ho16 Er4 Sn15 Pb1'
_cell_volume   1010.74330473
_cell_formula_units_Z   1
loop_
 _symmetry_equiv_pos_site_id
 _symmetry_equiv_pos_as_xyz
  1  'x, y, z'
loop_
 _atom_site_type_symbol
 _atom_site_label
 _atom_site_symmetry_multiplicity
 _atom_site_fract_x
 _atom_site_fract_y
 _atom_site_fract_z
 _atom_site_occupancy
  Ho  Ho0  1  0.378688  0.837338  0.878550  1
  Ho  Ho1  1  0.877579  0.661958  0.621203  1
  Ho  Ho2  1  0.622117  0.161972  0.378688  1
  Ho  Ho3  1  0.124132  0.338078  0.121571  1
  Ho  Ho4  1  0.620951  0.159605  0.122082  1
  Ho  Ho5  1  0.122988  0.338094  0.378893  1
  Ho  Ho6  1  0.378123  0.837487  0.621190  1
  Ho  Ho7  1  0.878635  0.663303  0.877708  1
  Ho  Ho8  1  0.529515  0.321136  0.899511  1
  Ho  Ho9  1  0.030574  0.177969  0.598754  1
  Ho  Ho10  1  0.468588  0.677128  0.400990  1
  Ho  Ho11  1  0.969314  0.825555  0.099731  1
  Ho  Ho12  1  0.464867  0.679198  0.100189  1
  Ho  Ho13  1  0.969197  0.822494  0.401317  1
  Ho  Ho14  1  0.531363  0.322910  0.599259  1
  Ho  Ho15  1  0.032912  0.176128  0.899969  1
  Er  Er16  1  0.209050  0.504219  0.749825  1
  Er  Er17  1  0.709083  0.995865  0.749982  1
  Er  Er18  1  0.791398  0.495737  0.251536  1
  Er  Er19  1  0.290958  0.004171  0.250166  1
  Sn  Sn20  1  0.284754  0.033680  0.041928  1
  Sn  Sn21  1  0.784830  0.465692  0.458183  1
  Sn  Sn22  1  0.715059  0.966509  0.542189  1
  Sn  Sn23  1  0.215309  0.533375  0.957627  1
  Sn  Sn24  1  0.715959  0.966947  0.957842  1
  Sn  Sn25  1  0.215241  0.534079  0.542065  1
  Sn  Sn26  1  0.285138  0.033735  0.457883  1
  Sn  Sn27  1  0.575674  0.619733  0.749750  1
  Sn  Sn28  1  0.075685  0.880027  0.749640  1
  Sn  Sn29  1  0.425094  0.380327  0.250042  1
  Sn  Sn30  1  0.924753  0.120667  0.250073  1
  Sn  Sn31  1  0.340922  0.147586  0.749326  1
  Sn  Sn32  1  0.841341  0.351839  0.749913  1
  Sn  Sn33  1  0.658960  0.851125  0.250461  1
  Sn  Sn34  1  0.157969  0.648433  0.250394  1
  Pb  Pb35  1  0.783283  0.465901  0.041570  1
