# generated using pymatgen
data_Th6Si12IrPt7
_symmetry_space_group_name_H-M   'P 1'
_cell_length_a   4.35024800
_cell_length_b   8.77517128
_cell_length_c   13.19218100
_cell_angle_alpha   80.05755354
_cell_angle_beta   90.00000000
_cell_angle_gamma   90.00000000
_symmetry_Int_Tables_number   1
_chemical_formula_structural   Th6Si12IrPt7
_chemical_formula_sum   'Th6 Si12 Ir1 Pt7'
_cell_volume   496.03734572
_cell_formula_units_Z   1
loop_
 _symmetry_equiv_pos_site_id
 _symmetry_equiv_pos_as_xyz
  1  'x, y, z'
loop_
 _atom_site_type_symbol
 _atom_site_label
 _atom_site_symmetry_multiplicity
 _atom_site_fract_x
 _atom_site_fract_y
 _atom_site_fract_z
 _atom_site_occupancy
  Th  Th0  1  0.250000  0.765637  0.440474  1
  Th  Th1  1  0.250000  0.579041  0.182963  1
  Th  Th2  1  0.750000  0.234880  0.559127  1
  Th  Th3  1  0.750000  0.418575  0.818970  1
  Th  Th4  1  0.750000  0.922507  0.817293  1
  Th  Th5  1  0.250000  0.079297  0.183359  1
  Si  Si6  1  0.750000  0.586118  0.576883  1
  Si  Si7  1  0.750000  0.129035  0.003317  1
  Si  Si8  1  0.750000  0.872430  0.578712  1
  Si  Si9  1  0.250000  0.693796  0.720201  1
  Si  Si10  1  0.750000  0.307215  0.275993  1
  Si  Si11  1  0.750000  0.807611  0.272356  1
  Si  Si12  1  0.250000  0.874408  0.998315  1
  Si  Si13  1  0.250000  0.192740  0.726840  1
  Si  Si14  1  0.250000  0.374269  0.002009  1
  Si  Si15  1  0.250000  0.127355  0.421740  1
  Si  Si16  1  0.750000  0.620637  0.000219  1
  Si  Si17  1  0.250000  0.413735  0.422909  1
  Ir  Ir18  1  0.750000  0.353493  0.090605  1
  Pt  Pt19  1  0.250000  0.965820  0.627398  1
  Pt  Pt20  1  0.750000  0.852619  0.083992  1
  Pt  Pt21  1  0.750000  0.035006  0.372690  1
  Pt  Pt22  1  0.250000  0.647933  0.908899  1
  Pt  Pt23  1  0.250000  0.146030  0.914848  1
  Pt  Pt24  1  0.750000  0.530435  0.372461  1
  Pt  Pt25  1  0.250000  0.469380  0.627428  1
