# generated using pymatgen
data_La8NdEr11Ga16
_symmetry_space_group_name_H-M   'P 1'
_cell_length_a   8.01299912
_cell_length_b   8.00826643
_cell_length_c   14.81117300
_cell_angle_alpha   89.82516327
_cell_angle_beta   89.86844052
_cell_angle_gamma   89.98856622
_symmetry_Int_Tables_number   1
_chemical_formula_structural   La8NdEr11Ga16
_chemical_formula_sum   'La8 Nd1 Er11 Ga16'
_cell_volume   950.42945814
_cell_formula_units_Z   1
loop_
 _symmetry_equiv_pos_site_id
 _symmetry_equiv_pos_as_xyz
  1  'x, y, z'
loop_
 _atom_site_type_symbol
 _atom_site_label
 _atom_site_symmetry_multiplicity
 _atom_site_fract_x
 _atom_site_fract_y
 _atom_site_fract_z
 _atom_site_occupancy
  La  La0  1  0.989466  0.642790  0.039212  1
  La  La1  1  0.010293  0.359223  0.542114  1
  La  La2  1  0.641240  0.990941  0.959545  1
  La  La3  1  0.142483  0.510252  0.790221  1
  La  La4  1  0.857614  0.489227  0.289660  1
  La  La5  1  0.509074  0.140722  0.207236  1
  La  La6  1  0.491922  0.859131  0.710976  1
  La  La7  1  0.358804  0.009348  0.460172  1
  Nd  Nd8  1  0.359836  0.491487  0.375385  1
  Er  Er9  1  0.857529  0.007416  0.374883  1
  Er  Er10  1  0.992499  0.139834  0.122838  1
  Er  Er11  1  0.006498  0.860188  0.626835  1
  Er  Er12  1  0.641096  0.505959  0.875125  1
  Er  Er13  1  0.494314  0.358073  0.625962  1
  Er  Er14  1  0.506751  0.640900  0.124008  1
  Er  Er15  1  0.140740  0.994742  0.874744  1
  Er  Er16  1  0.683532  0.683327  0.501111  1
  Er  Er17  1  0.818479  0.182697  0.750121  1
  Er  Er18  1  0.181022  0.817665  0.249650  1
  Er  Er19  1  0.317630  0.318989  0.999055  1
  Ga  Ga20  1  0.060375  0.716419  0.439744  1
  Ga  Ga21  1  0.935500  0.286664  0.936644  1
  Ga  Ga22  1  0.714828  0.061859  0.564162  1
  Ga  Ga23  1  0.209563  0.434595  0.184283  1
  Ga  Ga24  1  0.786179  0.564179  0.688327  1
  Ga  Ga25  1  0.436133  0.214154  0.812750  1
  Ga  Ga26  1  0.566445  0.788530  0.311191  1
  Ga  Ga27  1  0.285403  0.936089  0.061833  1
  Ga  Ga28  1  0.850638  0.795681  0.812683  1
  Ga  Ga29  1  0.148168  0.197892  0.307421  1
  Ga  Ga30  1  0.796801  0.849277  0.187163  1
  Ga  Ga31  1  0.295158  0.652697  0.564888  1
  Ga  Ga32  1  0.704222  0.350356  0.061012  1
  Ga  Ga33  1  0.654949  0.294422  0.442123  1
  Ga  Ga34  1  0.349995  0.704019  0.937956  1
  Ga  Ga35  1  0.204822  0.150257  0.688966  1
