# generated using pymatgen
data_Hf3Mn2Co6TcP6
_symmetry_space_group_name_H-M   'P 1'
_cell_length_a   11.88937053
_cell_length_b   11.90108814
_cell_length_c   3.66522900
_cell_angle_alpha   90.00000000
_cell_angle_beta   90.00000000
_cell_angle_gamma   119.91112847
_symmetry_Int_Tables_number   1
_chemical_formula_structural   Hf3Mn2Co6TcP6
_chemical_formula_sum   'Hf6 Mn4 Co12 Tc2 P12'
_cell_volume   449.53706551
_cell_formula_units_Z   2
loop_
 _symmetry_equiv_pos_site_id
 _symmetry_equiv_pos_as_xyz
  1  'x, y, z'
loop_
 _atom_site_type_symbol
 _atom_site_label
 _atom_site_symmetry_multiplicity
 _atom_site_fract_x
 _atom_site_fract_y
 _atom_site_fract_z
 _atom_site_occupancy
  Hf  Hf0  1  0.812300  0.813182  0.500000  1
  Hf  Hf1  1  0.003813  0.178377  0.500000  1
  Hf  Hf2  1  0.334152  0.666486  0.000000  1
  Hf  Hf3  1  0.664254  0.334792  0.000000  1
  Hf  Hf4  1  0.999893  0.557312  0.000000  1
  Hf  Hf5  1  0.187290  0.001658  0.500000  1
  Mn  Mn6  1  0.623006  0.823561  0.000000  1
  Mn  Mn7  1  0.379249  0.199741  0.000000  1
  Mn  Mn8  1  0.000782  0.722655  0.500000  1
  Mn  Mn9  1  0.280620  0.281264  0.500000  1
  Co  Co10  1  0.868881  0.350194  0.500000  1
  Co  Co11  1  0.721364  0.002636  0.500000  1
  Co  Co12  1  0.813298  0.624681  0.000000  1
  Co  Co13  1  0.187565  0.810154  0.000000  1
  Co  Co14  1  0.360623  0.874912  0.500000  1
  Co  Co15  1  0.129689  0.480034  0.500000  1
  Co  Co16  1  0.639758  0.514822  0.500000  1
  Co  Co17  1  0.998926  0.999511  0.000000  1
  Co  Co18  1  0.512385  0.643593  0.500000  1
  Co  Co19  1  0.487258  0.129851  0.500000  1
  Co  Co20  1  0.193267  0.370067  0.000000  1
  Co  Co21  1  0.804461  0.175933  0.000000  1
  Tc  Tc22  1  0.444597  0.450163  0.000000  1
  Tc  Tc23  1  0.554488  0.003930  0.000000  1
  P  P24  1  0.999490  0.346058  0.000000  1
  P  P25  1  0.825869  0.518911  0.500000  1
  P  P26  1  0.685466  0.167067  0.500000  1
  P  P27  1  0.178812  0.173755  0.000000  1
  P  P28  1  0.637564  0.643650  0.000000  1
  P  P29  1  0.820856  0.995299  0.000000  1
  P  P30  1  0.519076  0.832298  0.500000  1
  P  P31  1  0.174525  0.691745  0.500000  1
  P  P32  1  0.360934  0.004763  0.000000  1
  P  P33  1  0.480832  0.314042  0.500000  1
  P  P34  1  0.000198  0.823269  0.000000  1
  P  P35  1  0.314459  0.479635  0.500000  1
