# generated using pymatgen
data_Y9Ho11Pb16
_symmetry_space_group_name_H-M   'P 1'
_cell_length_a   8.18679070
_cell_length_b   8.28455430
_cell_length_c   15.62122972
_cell_angle_alpha   89.98454191
_cell_angle_beta   90.08596818
_cell_angle_gamma   90.01270335
_symmetry_Int_Tables_number   1
_chemical_formula_structural   Y9Ho11Pb16
_chemical_formula_sum   'Y9 Ho11 Pb16'
_cell_volume   1059.49165488
_cell_formula_units_Z   1
loop_
 _symmetry_equiv_pos_site_id
 _symmetry_equiv_pos_as_xyz
  1  'x, y, z'
loop_
 _atom_site_type_symbol
 _atom_site_label
 _atom_site_symmetry_multiplicity
 _atom_site_fract_x
 _atom_site_fract_y
 _atom_site_fract_z
 _atom_site_occupancy
  Y  Y0  1  0.129427  0.342092  0.621376  1
  Y  Y1  1  0.470816  0.677591  0.598005  1
  Y  Y2  1  0.972583  0.822527  0.902825  1
  Y  Y3  1  0.528221  0.323004  0.097587  1
  Y  Y4  1  0.029615  0.176235  0.401241  1
  Y  Y5  1  0.528126  0.323195  0.401877  1
  Y  Y6  1  0.027727  0.177180  0.097647  1
  Y  Y7  1  0.472399  0.677304  0.902694  1
  Y  Y8  1  0.971247  0.822862  0.597929  1
  Ho  Ho9  1  0.629961  0.158048  0.622365  1
  Ho  Ho10  1  0.130493  0.342475  0.878183  1
  Ho  Ho11  1  0.369402  0.842477  0.122075  1
  Ho  Ho12  1  0.869788  0.657417  0.377981  1
  Ho  Ho13  1  0.370703  0.842336  0.377310  1
  Ho  Ho14  1  0.869589  0.657600  0.122122  1
  Ho  Ho15  1  0.630403  0.157427  0.878394  1
  Ho  Ho16  1  0.797406  0.495585  0.750166  1
  Ho  Ho17  1  0.297869  0.004106  0.750108  1
  Ho  Ho18  1  0.202350  0.504496  0.249664  1
  Ho  Ho19  1  0.702407  0.995970  0.250140  1
  Pb  Pb20  1  0.713106  0.963101  0.457296  1
  Pb  Pb21  1  0.212405  0.538370  0.042473  1
  Pb  Pb22  1  0.287904  0.038296  0.957642  1
  Pb  Pb23  1  0.785378  0.462824  0.542318  1
  Pb  Pb24  1  0.287935  0.036046  0.542361  1
  Pb  Pb25  1  0.787974  0.461521  0.957663  1
  Pb  Pb26  1  0.712296  0.961718  0.042736  1
  Pb  Pb27  1  0.212602  0.538752  0.456771  1
  Pb  Pb28  1  0.434765  0.374924  0.750858  1
  Pb  Pb29  1  0.935185  0.124554  0.750513  1
  Pb  Pb30  1  0.564983  0.624873  0.249462  1
  Pb  Pb31  1  0.064642  0.874994  0.250052  1
  Pb  Pb32  1  0.659422  0.845195  0.750663  1
  Pb  Pb33  1  0.159030  0.654491  0.750209  1
  Pb  Pb34  1  0.340856  0.155016  0.249409  1
  Pb  Pb35  1  0.840986  0.345399  0.249885  1
