# generated using pymatgen
data_Nd8YRh6
_symmetry_space_group_name_H-M   'P 1'
_cell_length_a   7.61005113
_cell_length_b   7.61005093
_cell_length_c   7.61005126
_cell_angle_alpha   71.29106088
_cell_angle_beta   71.29106145
_cell_angle_gamma   71.29105836
_symmetry_Int_Tables_number   1
_chemical_formula_structural   Nd8YRh6
_chemical_formula_sum   'Nd8 Y1 Rh6'
_cell_volume   383.53832778
_cell_formula_units_Z   1
loop_
 _symmetry_equiv_pos_site_id
 _symmetry_equiv_pos_as_xyz
  1  'x, y, z'
loop_
 _atom_site_type_symbol
 _atom_site_label
 _atom_site_symmetry_multiplicity
 _atom_site_fract_x
 _atom_site_fract_y
 _atom_site_fract_z
 _atom_site_occupancy
  Nd  Nd0  1  0.798315  0.798315  0.798315  1
  Nd  Nd1  1  0.201685  0.201685  0.201685  1
  Nd  Nd2  1  0.162949  0.389992  0.666925  1
  Nd  Nd3  1  0.666925  0.162949  0.389992  1
  Nd  Nd4  1  0.389992  0.666925  0.162949  1
  Nd  Nd5  1  0.837051  0.610008  0.333075  1
  Nd  Nd6  1  0.333075  0.837051  0.610008  1
  Nd  Nd7  1  0.610008  0.333075  0.837051  1
  Y  Y8  1  0.000000  0.000000  0.000000  1
  Rh  Rh9  1  0.958559  0.159659  0.594587  1
  Rh  Rh10  1  0.594587  0.958559  0.159659  1
  Rh  Rh11  1  0.159659  0.594587  0.958559  1
  Rh  Rh12  1  0.041441  0.840341  0.405413  1
  Rh  Rh13  1  0.405413  0.041441  0.840341  1
  Rh  Rh14  1  0.840341  0.405413  0.041441  1
