# generated using pymatgen
data_Nd2Sm4Zn4Pt13
_symmetry_space_group_name_H-M   'P 1'
_cell_length_a   8.36541924
_cell_length_b   8.36541964
_cell_length_c   8.36518019
_cell_angle_alpha   109.48288168
_cell_angle_beta   109.48288100
_cell_angle_gamma   109.44906238
_symmetry_Int_Tables_number   1
_chemical_formula_structural   Nd2Sm4Zn4Pt13
_chemical_formula_sum   'Nd2 Sm4 Zn4 Pt13'
_cell_volume   450.63257269
_cell_formula_units_Z   1
loop_
 _symmetry_equiv_pos_site_id
 _symmetry_equiv_pos_as_xyz
  1  'x, y, z'
loop_
 _atom_site_type_symbol
 _atom_site_label
 _atom_site_symmetry_multiplicity
 _atom_site_fract_x
 _atom_site_fract_y
 _atom_site_fract_z
 _atom_site_occupancy
  Nd  Nd0  1  0.699890  0.000143  0.700033  1
  Nd  Nd1  1  0.000143  0.699890  0.700033  1
  Sm  Sm2  1  0.698510  0.698510  0.000279  1
  Sm  Sm3  1  0.301075  0.000121  0.301196  1
  Sm  Sm4  1  0.000121  0.301075  0.301196  1
  Sm  Sm5  1  0.301769  0.301769  0.000279  1
  Zn  Zn6  1  0.000045  0.000045  0.499559  1
  Zn  Zn7  1  0.000048  0.500048  0.000096  1
  Zn  Zn8  1  0.500048  0.000048  0.000096  1
  Zn  Zn9  1  0.499515  0.499515  0.499559  1
  Pt  Pt10  1  0.330253  0.330253  0.660505  1
  Pt  Pt11  1  0.669837  0.000051  0.329177  1
  Pt  Pt12  1  0.000051  0.669837  0.329177  1
  Pt  Pt13  1  0.669571  0.330949  0.000520  1
  Pt  Pt14  1  0.329126  0.659340  0.329177  1
  Pt  Pt15  1  0.000477  0.329815  0.669623  1
  Pt  Pt16  1  0.330949  0.669571  0.000520  1
  Pt  Pt17  1  0.329815  0.000477  0.669623  1
  Pt  Pt18  1  0.659340  0.329126  0.329177  1
  Pt  Pt19  1  0.668905  0.668905  0.337812  1
  Pt  Pt20  1  0.669146  0.339809  0.669623  1
  Pt  Pt21  1  0.339809  0.669146  0.669623  1
  Pt  Pt22  1  0.001557  0.001557  0.003115  1
