# generated using pymatgen
data_Yb2MnOs3
_symmetry_space_group_name_H-M   'P 1'
_cell_length_a   5.29140500
_cell_length_b   5.29140462
_cell_length_c   8.61196400
_cell_angle_alpha   90.00000000
_cell_angle_beta   90.00000000
_cell_angle_gamma   119.99999613
_symmetry_Int_Tables_number   1
_chemical_formula_structural   Yb2MnOs3
_chemical_formula_sum   'Yb4 Mn2 Os6'
_cell_volume   208.82131666
_cell_formula_units_Z   2
loop_
 _symmetry_equiv_pos_site_id
 _symmetry_equiv_pos_as_xyz
  1  'x, y, z'
loop_
 _atom_site_type_symbol
 _atom_site_label
 _atom_site_symmetry_multiplicity
 _atom_site_fract_x
 _atom_site_fract_y
 _atom_site_fract_z
 _atom_site_occupancy
  Yb  Yb0  1  0.333333  0.666667  0.433382  1
  Yb  Yb1  1  0.666667  0.333333  0.566618  1
  Yb  Yb2  1  0.666667  0.333333  0.933382  1
  Yb  Yb3  1  0.333333  0.666667  0.066618  1
  Mn  Mn4  1  0.000000  0.000000  0.500000  1
  Mn  Mn5  1  0.000000  0.000000  0.000000  1
  Os  Os6  1  0.830033  0.169967  0.250000  1
  Os  Os7  1  0.830033  0.660065  0.250000  1
  Os  Os8  1  0.339935  0.169967  0.250000  1
  Os  Os9  1  0.169967  0.830033  0.750000  1
  Os  Os10  1  0.169967  0.339935  0.750000  1
  Os  Os11  1  0.660065  0.830033  0.750000  1
