# generated using pymatgen
data_PuBiF34
_symmetry_space_group_name_H-M   'P 1'
_cell_length_a   9.01135453
_cell_length_b   8.45240016
_cell_length_c   10.26026900
_cell_angle_alpha   83.84487605
_cell_angle_beta   88.36996340
_cell_angle_gamma   67.68143154
_symmetry_Int_Tables_number   1
_chemical_formula_structural   PuBiF34
_chemical_formula_sum   'Pu1 Bi1 F34'
_cell_volume   718.72342894
_cell_formula_units_Z   1
loop_
 _symmetry_equiv_pos_site_id
 _symmetry_equiv_pos_as_xyz
  1  'x, y, z'
loop_
 _atom_site_type_symbol
 _atom_site_label
 _atom_site_symmetry_multiplicity
 _atom_site_fract_x
 _atom_site_fract_y
 _atom_site_fract_z
 _atom_site_occupancy
  Pu  Pu0  1  0.864949  0.250055  0.762516  1
  Bi  Bi1  1  0.138439  0.751212  0.238977  1
  F  F2  1  0.599454  0.200857  0.482693  1
  F  F3  1  0.405200  0.789199  0.503935  1
  F  F4  1  0.822070  0.719639  0.722977  1
  F  F5  1  0.158434  0.348687  0.309014  1
  F  F6  1  0.093654  0.751970  0.864566  1
  F  F7  1  0.926045  0.211747  0.150688  1
  F  F8  1  0.554425  0.143882  0.369465  1
  F  F9  1  0.439924  0.855346  0.617912  1
  F  F10  1  0.639924  0.324182  0.697130  1
  F  F11  1  0.368260  0.675239  0.305462  1
  F  F12  1  0.934428  0.057526  0.651897  1
  F  F13  1  0.056352  0.920992  0.378997  1
  F  F14  1  0.908554  0.395855  0.614453  1
  F  F15  1  0.090844  0.590465  0.400590  1
  F  F16  1  0.865714  0.782169  0.599303  1
  F  F17  1  0.145740  0.193151  0.367983  1
  F  F18  1  0.798436  0.445058  0.871524  1
  F  F19  1  0.207632  0.533339  0.142209  1
  F  F20  1  0.211119  0.693381  0.766262  1
  F  F21  1  0.786347  0.317962  0.214388  1
  F  F22  1  0.914838  0.821329  0.162438  1
  F  F23  1  0.088152  0.177041  0.829953  1
  F  F24  1  0.818712  0.101382  0.907174  1
  F  F25  1  0.180916  0.914670  0.095695  1
  F  F26  1  0.478393  0.590415  0.983106  1
  F  F27  1  0.520114  0.409789  0.011555  1
  F  F28  1  0.454524  0.090105  0.869071  1
  F  F29  1  0.530685  0.927106  0.134525  1
  F  F30  1  0.287877  0.237550  0.609343  1
  F  F31  1  0.708240  0.761867  0.378297  1
  F  F32  1  0.258971  0.388819  0.672496  1
  F  F33  1  0.749408  0.602990  0.323570  1
  F  F34  1  0.551830  0.922982  0.835296  1
  F  F35  1  0.441392  0.102039  0.154539  1
