# generated using pymatgen
data_Tb16Zn2CdHgRh4
_symmetry_space_group_name_H-M   'P 1'
_cell_length_a   9.58702718
_cell_length_b   9.58702563
_cell_length_c   9.60560376
_cell_angle_alpha   59.87333188
_cell_angle_beta   59.87333598
_cell_angle_gamma   59.86974449
_symmetry_Int_Tables_number   1
_chemical_formula_structural   Tb16Zn2CdHgRh4
_chemical_formula_sum   'Tb16 Zn2 Cd1 Hg1 Rh4'
_cell_volume   622.46605296
_cell_formula_units_Z   1
loop_
 _symmetry_equiv_pos_site_id
 _symmetry_equiv_pos_as_xyz
  1  'x, y, z'
loop_
 _atom_site_type_symbol
 _atom_site_label
 _atom_site_symmetry_multiplicity
 _atom_site_fract_x
 _atom_site_fract_y
 _atom_site_fract_z
 _atom_site_occupancy
  Tb  Tb0  1  0.304309  0.898589  0.898065  1
  Tb  Tb1  1  0.686362  0.309443  0.686271  1
  Tb  Tb2  1  0.310115  0.686991  0.316607  1
  Tb  Tb3  1  0.061280  0.440757  0.439943  1
  Tb  Tb4  1  0.686991  0.310115  0.316607  1
  Tb  Tb5  1  0.440757  0.061280  0.439943  1
  Tb  Tb6  1  0.441187  0.059797  0.057905  1
  Tb  Tb7  1  0.897460  0.897460  0.897573  1
  Tb  Tb8  1  0.059797  0.441187  0.057905  1
  Tb  Tb9  1  0.898589  0.304309  0.898065  1
  Tb  Tb10  1  0.309443  0.686362  0.686271  1
  Tb  Tb11  1  0.898515  0.898515  0.304138  1
  Tb  Tb12  1  0.440352  0.440352  0.059940  1
  Tb  Tb13  1  0.313492  0.313492  0.686875  1
  Tb  Tb14  1  0.686408  0.686408  0.313454  1
  Tb  Tb15  1  0.058344  0.058344  0.441275  1
  Zn  Zn16  1  0.998903  0.669464  0.665917  1
  Zn  Zn17  1  0.669464  0.998903  0.665917  1
  Cd  Cd18  1  0.673352  0.673352  0.669155  1
  Hg  Hg19  1  0.667789  0.667789  0.000486  1
  Rh  Rh20  1  0.106234  0.106234  0.676390  1
  Rh  Rh21  1  0.105676  0.677969  0.106550  1
  Rh  Rh22  1  0.107209  0.107209  0.108198  1
  Rh  Rh23  1  0.677969  0.105676  0.106550  1
