# generated using pymatgen
data_LuZr7Sc2(In2Pt)4
_symmetry_space_group_name_H-M   'P 1'
_cell_length_a   3.48167500
_cell_length_b   7.68443068
_cell_length_c   17.60574901
_cell_angle_alpha   90.18651516
_cell_angle_beta   90.00000000
_cell_angle_gamma   90.00000000
_symmetry_Int_Tables_number   1
_chemical_formula_structural   LuZr7Sc2(In2Pt)4
_chemical_formula_sum   'Lu1 Zr7 Sc2 In8 Pt4'
_cell_volume   471.03386468
_cell_formula_units_Z   1
loop_
 _symmetry_equiv_pos_site_id
 _symmetry_equiv_pos_as_xyz
  1  'x, y, z'
loop_
 _atom_site_type_symbol
 _atom_site_label
 _atom_site_symmetry_multiplicity
 _atom_site_fract_x
 _atom_site_fract_y
 _atom_site_fract_z
 _atom_site_occupancy
  Lu  Lu0  1  0.000000  0.756014  0.280026  1
  Zr  Zr1  1  0.000000  0.136148  0.422456  1
  Zr  Zr2  1  0.000000  0.864100  0.580592  1
  Zr  Zr3  1  0.000000  0.366530  0.920763  1
  Zr  Zr4  1  0.000000  0.637447  0.077042  1
  Zr  Zr5  1  0.000000  0.253655  0.218209  1
  Zr  Zr6  1  0.000000  0.001994  0.999709  1
  Zr  Zr7  1  0.000000  0.499860  0.500629  1
  Sc  Sc8  1  0.000000  0.741531  0.778573  1
  Sc  Sc9  1  0.000000  0.241836  0.722338  1
  In  In10  1  0.500000  0.432106  0.351436  1
  In  In11  1  0.500000  0.563102  0.650170  1
  In  In12  1  0.500000  0.064782  0.850469  1
  In  In13  1  0.500000  0.936894  0.146965  1
  In  In14  1  0.500000  0.299885  0.064432  1
  In  In15  1  0.500000  0.703472  0.932362  1
  In  In16  1  0.500000  0.200832  0.567901  1
  In  In17  1  0.500000  0.801234  0.436445  1
  Pt  Pt18  1  0.500000  0.050725  0.306212  1
  Pt  Pt19  1  0.500000  0.952857  0.694695  1
  Pt  Pt20  1  0.500000  0.453713  0.806461  1
  Pt  Pt21  1  0.500000  0.541287  0.192115  1
