# generated using pymatgen
data_Dy5InSn2S
_symmetry_space_group_name_H-M   'P 1'
_cell_length_a   9.11175500
_cell_length_b   9.11175444
_cell_length_c   6.61477500
_cell_angle_alpha   90.00000000
_cell_angle_beta   90.00000000
_cell_angle_gamma   120.10397810
_symmetry_Int_Tables_number   1
_chemical_formula_structural   Dy5InSn2S
_chemical_formula_sum   'Dy10 In2 Sn4 S2'
_cell_volume   475.10955147
_cell_formula_units_Z   2
loop_
 _symmetry_equiv_pos_site_id
 _symmetry_equiv_pos_as_xyz
  1  'x, y, z'
loop_
 _atom_site_type_symbol
 _atom_site_label
 _atom_site_symmetry_multiplicity
 _atom_site_fract_x
 _atom_site_fract_y
 _atom_site_fract_z
 _atom_site_occupancy
  Dy  Dy0  1  0.243961  0.244415  0.750000  1
  Dy  Dy1  1  0.999743  0.756036  0.750000  1
  Dy  Dy2  1  0.755743  0.000028  0.750000  1
  Dy  Dy3  1  0.999972  0.244257  0.250000  1
  Dy  Dy4  1  0.333853  0.666147  0.500000  1
  Dy  Dy5  1  0.755585  0.756039  0.250000  1
  Dy  Dy6  1  0.666390  0.333610  0.500000  1
  Dy  Dy7  1  0.243964  0.000257  0.250000  1
  Dy  Dy8  1  0.333853  0.666147  0.000000  1
  Dy  Dy9  1  0.666390  0.333610  0.000000  1
  In  In10  1  0.601247  0.999263  0.250000  1
  In  In11  1  0.000737  0.398753  0.750000  1
  Sn  Sn12  1  0.398336  0.000351  0.750000  1
  Sn  Sn13  1  0.604401  0.603938  0.750000  1
  Sn  Sn14  1  0.999649  0.601664  0.250000  1
  Sn  Sn15  1  0.396062  0.395599  0.250000  1
  S  S16  1  0.000057  0.999943  0.000000  1
  S  S17  1  0.000057  0.999943  0.500000  1
