# generated using pymatgen
data_Pr2Th2Zn9AgSn2
_symmetry_space_group_name_H-M   'P 1'
_cell_length_a   8.65450008
_cell_length_b   8.65450022
_cell_length_c   9.09881800
_cell_angle_alpha   90.00000000
_cell_angle_beta   90.00000000
_cell_angle_gamma   149.73954374
_symmetry_Int_Tables_number   1
_chemical_formula_structural   Pr2Th2Zn9AgSn2
_chemical_formula_sum   'Pr2 Th2 Zn9 Ag1 Sn2'
_cell_volume   343.43184550
_cell_formula_units_Z   1
loop_
 _symmetry_equiv_pos_site_id
 _symmetry_equiv_pos_as_xyz
  1  'x, y, z'
loop_
 _atom_site_type_symbol
 _atom_site_label
 _atom_site_symmetry_multiplicity
 _atom_site_fract_x
 _atom_site_fract_y
 _atom_site_fract_z
 _atom_site_occupancy
  Pr  Pr0  1  0.999336  0.000664  0.498826  1
  Pr  Pr1  1  0.999336  0.000664  0.001174  1
  Th  Th2  1  0.205841  0.794159  0.250000  1
  Th  Th3  1  0.793165  0.206835  0.750000  1
  Zn  Zn4  1  0.814076  0.185924  0.392704  1
  Zn  Zn5  1  0.185355  0.814645  0.608304  1
  Zn  Zn6  1  0.814076  0.185924  0.107296  1
  Zn  Zn7  1  0.185355  0.814645  0.891696  1
  Zn  Zn8  1  0.658879  0.341121  0.484352  1
  Zn  Zn9  1  0.340573  0.659427  0.520836  1
  Zn  Zn10  1  0.658879  0.341121  0.015648  1
  Zn  Zn11  1  0.340573  0.659427  0.979164  1
  Zn  Zn12  1  0.604272  0.395728  0.750000  1
  Ag  Ag13  1  0.396614  0.603386  0.250000  1
  Sn  Sn14  1  0.559099  0.440901  0.250000  1
  Sn  Sn15  1  0.444570  0.555430  0.750000  1
