# generated using pymatgen
data_Dy6MgCo2Sn11
_symmetry_space_group_name_H-M   'P 1'
_cell_length_a   8.43806352
_cell_length_b   8.43807335
_cell_length_c   13.14773338
_cell_angle_alpha   89.88185296
_cell_angle_beta   90.11814254
_cell_angle_gamma   148.84046118
_symmetry_Int_Tables_number   1
_chemical_formula_structural   Dy6MgCo2Sn11
_chemical_formula_sum   'Dy6 Mg1 Co2 Sn11'
_cell_volume   484.37483690
_cell_formula_units_Z   1
loop_
 _symmetry_equiv_pos_site_id
 _symmetry_equiv_pos_as_xyz
  1  'x, y, z'
loop_
 _atom_site_type_symbol
 _atom_site_label
 _atom_site_symmetry_multiplicity
 _atom_site_fract_x
 _atom_site_fract_y
 _atom_site_fract_z
 _atom_site_occupancy
  Dy  Dy0  1  0.898292  0.101708  0.094569  1
  Dy  Dy1  1  0.096559  0.903440  0.592776  1
  Dy  Dy2  1  0.900267  0.099732  0.754904  1
  Dy  Dy3  1  0.102196  0.897805  0.904903  1
  Dy  Dy4  1  0.100597  0.899403  0.251923  1
  Dy  Dy5  1  0.903571  0.096430  0.400920  1
  Mg  Mg6  1  0.753897  0.246104  0.572635  1
  Co  Co7  1  0.301455  0.698543  0.248142  1
  Co  Co8  1  0.699186  0.300813  0.754357  1
  Sn  Sn9  1  0.421401  0.578598  0.573857  1
  Sn  Sn10  1  0.572309  0.427692  0.426969  1
  Sn  Sn11  1  0.735202  0.264797  0.256110  1
  Sn  Sn12  1  0.263056  0.736945  0.737790  1
  Sn  Sn13  1  0.242870  0.757130  0.072427  1
  Sn  Sn14  1  0.250570  0.749431  0.431982  1
  Sn  Sn15  1  0.573413  0.426588  0.075108  1
  Sn  Sn16  1  0.455827  0.544173  0.248758  1
  Sn  Sn17  1  0.545063  0.454936  0.748087  1
  Sn  Sn18  1  0.756779  0.243221  0.928867  1
  Sn  Sn19  1  0.427491  0.572509  0.924916  1
