# generated using pymatgen
data_Dy2InNi4Hg
_symmetry_space_group_name_H-M   'P 1'
_cell_length_a   5.05852700
_cell_length_b   4.00167700
_cell_length_c   7.01643300
_cell_angle_alpha   90.00000000
_cell_angle_beta   90.00000000
_cell_angle_gamma   90.00000000
_symmetry_Int_Tables_number   1
_chemical_formula_structural   Dy2InNi4Hg
_chemical_formula_sum   'Dy2 In1 Ni4 Hg1'
_cell_volume   142.03078455
_cell_formula_units_Z   1
loop_
 _symmetry_equiv_pos_site_id
 _symmetry_equiv_pos_as_xyz
  1  'x, y, z'
loop_
 _atom_site_type_symbol
 _atom_site_label
 _atom_site_symmetry_multiplicity
 _atom_site_fract_x
 _atom_site_fract_y
 _atom_site_fract_z
 _atom_site_occupancy
  Dy  Dy0  1  0.749999  0.000000  0.231154  1
  Dy  Dy1  1  0.250000  0.000000  0.772904  1
  In  In2  1  0.749999  0.499999  0.854684  1
  Ni  Ni3  1  0.250000  0.000000  0.396458  1
  Ni  Ni4  1  0.001137  0.499999  0.500496  1
  Ni  Ni5  1  0.498864  0.499999  0.500496  1
  Ni  Ni6  1  0.749999  0.000000  0.609976  1
  Hg  Hg7  1  0.250000  0.499999  0.133830  1
