# generated using pymatgen
data_TbDy11(CoPd)2
_symmetry_space_group_name_H-M   'P 1'
_cell_length_a   6.45417300
_cell_length_b   7.07562965
_cell_length_c   9.51931700
_cell_angle_alpha   90.00000000
_cell_angle_beta   90.00000000
_cell_angle_gamma   90.17137025
_symmetry_Int_Tables_number   1
_chemical_formula_structural   TbDy11(CoPd)2
_chemical_formula_sum   'Tb1 Dy11 Co2 Pd2'
_cell_volume   434.71992094
_cell_formula_units_Z   1
loop_
 _symmetry_equiv_pos_site_id
 _symmetry_equiv_pos_as_xyz
  1  'x, y, z'
loop_
 _atom_site_type_symbol
 _atom_site_label
 _atom_site_symmetry_multiplicity
 _atom_site_fract_x
 _atom_site_fract_y
 _atom_site_fract_z
 _atom_site_occupancy
  Tb  Tb0  1  0.622730  0.048229  0.250000  1
  Dy  Dy1  1  0.377064  0.952793  0.750000  1
  Dy  Dy2  1  0.149124  0.478844  0.750000  1
  Dy  Dy3  1  0.852293  0.520906  0.250000  1
  Dy  Dy4  1  0.180664  0.185116  0.063162  1
  Dy  Dy5  1  0.819165  0.814397  0.936518  1
  Dy  Dy6  1  0.671677  0.330162  0.934312  1
  Dy  Dy7  1  0.819165  0.814397  0.563482  1
  Dy  Dy8  1  0.328514  0.669969  0.065772  1
  Dy  Dy9  1  0.180664  0.185116  0.436838  1
  Dy  Dy10  1  0.328514  0.669969  0.434228  1
  Dy  Dy11  1  0.671677  0.330162  0.565688  1
  Co  Co12  1  0.445708  0.385047  0.250000  1
  Co  Co13  1  0.554362  0.615143  0.750000  1
  Pd  Pd14  1  0.952117  0.110819  0.750000  1
  Pd  Pd15  1  0.046565  0.888930  0.250000  1
