# generated using pymatgen
data_Tb5Er11(CdCo)4
_symmetry_space_group_name_H-M   'P 1'
_cell_length_a   9.47429152
_cell_length_b   9.46850271
_cell_length_c   9.46850216
_cell_angle_alpha   59.94368199
_cell_angle_beta   59.97976649
_cell_angle_gamma   59.97977141
_symmetry_Int_Tables_number   1
_chemical_formula_structural   Tb5Er11(CdCo)4
_chemical_formula_sum   'Tb5 Er11 Cd4 Co4'
_cell_volume   600.17291248
_cell_formula_units_Z   1
loop_
 _symmetry_equiv_pos_site_id
 _symmetry_equiv_pos_as_xyz
  1  'x, y, z'
loop_
 _atom_site_type_symbol
 _atom_site_label
 _atom_site_symmetry_multiplicity
 _atom_site_fract_x
 _atom_site_fract_y
 _atom_site_fract_z
 _atom_site_occupancy
  Tb  Tb0  1  0.559570  0.940430  0.940430  1
  Tb  Tb1  1  0.561624  0.938774  0.560683  1
  Tb  Tb2  1  0.938920  0.560683  0.938774  1
  Tb  Tb3  1  0.561624  0.560683  0.938774  1
  Tb  Tb4  1  0.938920  0.938774  0.560683  1
  Er  Er5  1  0.344543  0.346317  0.346317  1
  Er  Er6  1  0.344780  0.347641  0.962800  1
  Er  Er7  1  0.344780  0.962800  0.347641  1
  Er  Er8  1  0.962824  0.346317  0.346317  1
  Er  Er9  1  0.813352  0.186648  0.186648  1
  Er  Er10  1  0.186912  0.813088  0.813088  1
  Er  Er11  1  0.187757  0.811913  0.186505  1
  Er  Er12  1  0.813825  0.186505  0.811913  1
  Er  Er13  1  0.187757  0.186505  0.811913  1
  Er  Er14  1  0.813825  0.811913  0.186505  1
  Er  Er15  1  0.939925  0.560075  0.560075  1
  Cd  Cd16  1  0.581546  0.579166  0.579166  1
  Cd  Cd17  1  0.581064  0.579728  0.258143  1
  Cd  Cd18  1  0.581064  0.258143  0.579728  1
  Cd  Cd19  1  0.260121  0.579166  0.579166  1
  Co  Co20  1  0.140120  0.141697  0.141697  1
  Co  Co21  1  0.139329  0.143629  0.577713  1
  Co  Co22  1  0.139329  0.577713  0.143629  1
  Co  Co23  1  0.576486  0.141697  0.141697  1
