# generated using pymatgen
data_YbDyHo2MnRu7
_symmetry_space_group_name_H-M   'P 1'
_cell_length_a   5.31562847
_cell_length_b   5.31382824
_cell_length_c   8.65826813
_cell_angle_alpha   89.99999907
_cell_angle_beta   89.99568669
_cell_angle_gamma   60.01118125
_symmetry_Int_Tables_number   1
_chemical_formula_structural   YbDyHo2MnRu7
_chemical_formula_sum   'Yb1 Dy1 Ho2 Mn1 Ru7'
_cell_volume   211.82280430
_cell_formula_units_Z   1
loop_
 _symmetry_equiv_pos_site_id
 _symmetry_equiv_pos_as_xyz
  1  'x, y, z'
loop_
 _atom_site_type_symbol
 _atom_site_label
 _atom_site_symmetry_multiplicity
 _atom_site_fract_x
 _atom_site_fract_y
 _atom_site_fract_z
 _atom_site_occupancy
  Yb  Yb0  1  0.333335  0.333333  0.562726  1
  Dy  Dy1  1  0.666649  0.666677  0.439460  1
  Ho  Ho2  1  0.666665  0.666667  0.068740  1
  Ho  Ho3  1  0.333360  0.333320  0.926108  1
  Mn  Mn4  1  0.999989  0.000005  0.002563  1
  Ru  Ru5  1  0.999958  0.000021  0.499860  1
  Ru  Ru6  1  0.829513  0.341104  0.754887  1
  Ru  Ru7  1  0.341068  0.829466  0.754839  1
  Ru  Ru8  1  0.829513  0.829383  0.754887  1
  Ru  Ru9  1  0.171620  0.656768  0.245291  1
  Ru  Ru10  1  0.656712  0.171645  0.245348  1
  Ru  Ru11  1  0.171620  0.171614  0.245291  1
