# generated using pymatgen
data_CaHo3Tm2(Si3Ru)8
_symmetry_space_group_name_H-M   'P 1'
_cell_length_a   10.10967093
_cell_length_b   10.10967160
_cell_length_c   8.11855900
_cell_angle_alpha   89.91173627
_cell_angle_beta   90.08825923
_cell_angle_gamma   132.64196180
_symmetry_Int_Tables_number   1
_chemical_formula_structural   CaHo3Tm2(Si3Ru)8
_chemical_formula_sum   'Ca1 Ho3 Tm2 Si24 Ru8'
_cell_volume   610.37229592
_cell_formula_units_Z   1
loop_
 _symmetry_equiv_pos_site_id
 _symmetry_equiv_pos_as_xyz
  1  'x, y, z'
loop_
 _atom_site_type_symbol
 _atom_site_label
 _atom_site_symmetry_multiplicity
 _atom_site_fract_x
 _atom_site_fract_y
 _atom_site_fract_z
 _atom_site_occupancy
  Ca  Ca0  1  0.501740  0.001740  0.750000  1
  Ho  Ho1  1  0.998808  0.498808  0.250000  1
  Ho  Ho2  1  0.497028  0.997028  0.250000  1
  Ho  Ho3  1  0.002748  0.502748  0.750000  1
  Tm  Tm4  1  0.500214  0.500387  0.500553  1
  Tm  Tm5  1  0.000387  0.000214  0.999447  1
  Si  Si6  1  0.794114  0.204531  0.499984  1
  Si  Si7  1  0.295040  0.705892  0.999052  1
  Si  Si8  1  0.205892  0.795040  0.500948  1
  Si  Si9  1  0.704531  0.294114  0.000016  1
  Si  Si10  1  0.332423  0.333888  0.832778  1
  Si  Si11  1  0.666600  0.669041  0.167196  1
  Si  Si12  1  0.169041  0.166600  0.332804  1
  Si  Si13  1  0.833888  0.832423  0.667222  1
  Si  Si14  1  0.119644  0.885388  0.728297  1
  Si  Si15  1  0.111583  0.877995  0.272290  1
  Si  Si16  1  0.611421  0.378254  0.228552  1
  Si  Si17  1  0.624604  0.390883  0.771548  1
  Si  Si18  1  0.878254  0.111421  0.271448  1
  Si  Si19  1  0.890883  0.124604  0.728452  1
  Si  Si20  1  0.385388  0.619644  0.771703  1
  Si  Si21  1  0.377995  0.611583  0.227710  1
  Si  Si22  1  0.345038  0.111587  0.501820  1
  Si  Si23  1  0.888410  0.655373  0.495345  1
  Si  Si24  1  0.387835  0.154181  0.007144  1
  Si  Si25  1  0.844191  0.611837  0.995289  1
  Si  Si26  1  0.654181  0.887835  0.492856  1
  Si  Si27  1  0.111837  0.344191  0.504711  1
  Si  Si28  1  0.611587  0.845038  0.998180  1
  Si  Si29  1  0.155373  0.388410  0.004655  1
  Ru  Ru30  1  0.670688  0.331867  0.498948  1
  Ru  Ru31  1  0.166815  0.828808  0.002087  1
  Ru  Ru32  1  0.328808  0.666815  0.497913  1
  Ru  Ru33  1  0.831867  0.170688  0.001052  1
  Ru  Ru34  1  0.127311  0.126729  0.627205  1
  Ru  Ru35  1  0.873335  0.873768  0.373076  1
  Ru  Ru36  1  0.373768  0.373335  0.126924  1
  Ru  Ru37  1  0.626729  0.627311  0.872795  1
