# generated using pymatgen
data_HfZr2(Co3P2)3
_symmetry_space_group_name_H-M   'P 1'
_cell_length_a   3.62539500
_cell_length_b   10.30314200
_cell_length_c   11.92991600
_cell_angle_alpha   90.00000000
_cell_angle_beta   90.00000000
_cell_angle_gamma   90.00000000
_symmetry_Int_Tables_number   1
_chemical_formula_structural   HfZr2(Co3P2)3
_chemical_formula_sum   'Hf2 Zr4 Co18 P12'
_cell_volume   445.61766908
_cell_formula_units_Z   2
loop_
 _symmetry_equiv_pos_site_id
 _symmetry_equiv_pos_as_xyz
  1  'x, y, z'
loop_
 _atom_site_type_symbol
 _atom_site_label
 _atom_site_symmetry_multiplicity
 _atom_site_fract_x
 _atom_site_fract_y
 _atom_site_fract_z
 _atom_site_occupancy
  Hf  Hf0  1  0.750000  0.071216  0.207945  1
  Hf  Hf1  1  0.750000  0.428784  0.207945  1
  Zr  Zr2  1  0.750000  0.250000  0.472827  1
  Zr  Zr3  1  0.250000  0.750000  0.526536  1
  Zr  Zr4  1  0.250000  0.929776  0.792743  1
  Zr  Zr5  1  0.250000  0.570224  0.792743  1
  Co  Co6  1  0.250000  0.250000  0.835899  1
  Co  Co7  1  0.750000  0.750000  0.164226  1
  Co  Co8  1  0.250000  0.250000  0.295367  1
  Co  Co9  1  0.750000  0.750000  0.703866  1
  Co  Co10  1  0.750000  0.250000  0.013738  1
  Co  Co11  1  0.250000  0.750000  0.988475  1
  Co  Co12  1  0.250000  0.416753  0.006508  1
  Co  Co13  1  0.250000  0.083247  0.006508  1
  Co  Co14  1  0.750000  0.582147  0.995263  1
  Co  Co15  1  0.750000  0.917853  0.995263  1
  Co  Co16  1  0.250000  0.450441  0.567011  1
  Co  Co17  1  0.250000  0.049559  0.567011  1
  Co  Co18  1  0.750000  0.549278  0.431550  1
  Co  Co19  1  0.750000  0.950722  0.431550  1
  Co  Co20  1  0.250000  0.874692  0.291984  1
  Co  Co21  1  0.250000  0.625308  0.291984  1
  Co  Co22  1  0.750000  0.126431  0.706956  1
  Co  Co23  1  0.750000  0.373569  0.706956  1
  P  P24  1  0.250000  0.250000  0.120510  1
  P  P25  1  0.750000  0.750000  0.880596  1
  P  P26  1  0.250000  0.250000  0.648473  1
  P  P27  1  0.750000  0.750000  0.351196  1
  P  P28  1  0.250000  0.433168  0.381752  1
  P  P29  1  0.250000  0.066832  0.381752  1
  P  P30  1  0.750000  0.566600  0.616948  1
  P  P31  1  0.750000  0.933400  0.616948  1
  P  P32  1  0.250000  0.906231  0.111051  1
  P  P33  1  0.250000  0.593769  0.111051  1
  P  P34  1  0.750000  0.095375  0.889435  1
  P  P35  1  0.750000  0.404625  0.889435  1
