# generated using pymatgen
data_Nd3Al2(SnAu2)3
_symmetry_space_group_name_H-M   'P 1'
_cell_length_a   4.55841100
_cell_length_b   10.05688200
_cell_length_c   13.68600500
_cell_angle_alpha   90.00000000
_cell_angle_beta   90.00000000
_cell_angle_gamma   90.00000000
_symmetry_Int_Tables_number   1
_chemical_formula_structural   Nd3Al2(SnAu2)3
_chemical_formula_sum   'Nd6 Al4 Sn6 Au12'
_cell_volume   627.41302262
_cell_formula_units_Z   2
loop_
 _symmetry_equiv_pos_site_id
 _symmetry_equiv_pos_as_xyz
  1  'x, y, z'
loop_
 _atom_site_type_symbol
 _atom_site_label
 _atom_site_symmetry_multiplicity
 _atom_site_fract_x
 _atom_site_fract_y
 _atom_site_fract_z
 _atom_site_occupancy
  Nd  Nd0  1  0.000000  0.740861  0.808237  1
  Nd  Nd1  1  0.000000  0.740861  0.191763  1
  Nd  Nd2  1  0.500000  0.259139  0.691763  1
  Nd  Nd3  1  0.500000  0.259139  0.308237  1
  Nd  Nd4  1  0.000000  0.738435  0.500000  1
  Nd  Nd5  1  0.500000  0.261565  0.000000  1
  Al  Al6  1  0.000000  0.392053  0.832165  1
  Al  Al7  1  0.000000  0.392053  0.167835  1
  Al  Al8  1  0.500000  0.607947  0.667835  1
  Al  Al9  1  0.500000  0.607947  0.332165  1
  Sn  Sn10  1  0.000000  0.019070  0.355644  1
  Sn  Sn11  1  0.000000  0.019070  0.644356  1
  Sn  Sn12  1  0.500000  0.980930  0.144356  1
  Sn  Sn13  1  0.500000  0.980930  0.855644  1
  Sn  Sn14  1  0.000000  0.276096  0.500000  1
  Sn  Sn15  1  0.500000  0.723904  0.000000  1
  Au  Au16  1  0.000000  0.141639  0.842435  1
  Au  Au17  1  0.000000  0.141639  0.157565  1
  Au  Au18  1  0.500000  0.858361  0.657565  1
  Au  Au19  1  0.500000  0.858361  0.342435  1
  Au  Au20  1  0.000000  0.506060  0.000000  1
  Au  Au21  1  0.500000  0.493940  0.500000  1
  Au  Au22  1  0.000000  0.479852  0.350745  1
  Au  Au23  1  0.000000  0.479852  0.649255  1
  Au  Au24  1  0.500000  0.520148  0.149255  1
  Au  Au25  1  0.500000  0.520148  0.850745  1
  Au  Au26  1  0.000000  0.927418  0.000000  1
  Au  Au27  1  0.500000  0.072582  0.500000  1
