# generated using pymatgen
data_LaTbZn5Si
_symmetry_space_group_name_H-M   'P 1'
_cell_length_a   8.29279325
_cell_length_b   8.29279357
_cell_length_c   8.80925900
_cell_angle_alpha   90.00000000
_cell_angle_beta   90.00000000
_cell_angle_gamma   149.25861217
_symmetry_Int_Tables_number   1
_chemical_formula_structural   LaTbZn5Si
_chemical_formula_sum   'La2 Tb2 Zn10 Si2'
_cell_volume   309.67150755
_cell_formula_units_Z   2
loop_
 _symmetry_equiv_pos_site_id
 _symmetry_equiv_pos_as_xyz
  1  'x, y, z'
loop_
 _atom_site_type_symbol
 _atom_site_label
 _atom_site_symmetry_multiplicity
 _atom_site_fract_x
 _atom_site_fract_y
 _atom_site_fract_z
 _atom_site_occupancy
  La  La0  1  0.000000  0.000000  0.500000  1
  La  La1  1  0.000000  0.000000  0.000000  1
  Tb  Tb2  1  0.201877  0.798123  0.250000  1
  Tb  Tb3  1  0.798123  0.201877  0.750000  1
  Zn  Zn4  1  0.812325  0.187675  0.391607  1
  Zn  Zn5  1  0.187675  0.812325  0.608393  1
  Zn  Zn6  1  0.812325  0.187675  0.108393  1
  Zn  Zn7  1  0.187675  0.812325  0.891607  1
  Zn  Zn8  1  0.653507  0.346493  0.475081  1
  Zn  Zn9  1  0.346493  0.653507  0.524919  1
  Zn  Zn10  1  0.653507  0.346493  0.024919  1
  Zn  Zn11  1  0.346493  0.653507  0.975081  1
  Zn  Zn12  1  0.402435  0.597565  0.250000  1
  Zn  Zn13  1  0.597565  0.402435  0.750000  1
  Si  Si14  1  0.559619  0.440381  0.250000  1
  Si  Si15  1  0.440381  0.559619  0.750000  1
