# generated using pymatgen
data_Sc3Zn2Si3Ir
_symmetry_space_group_name_H-M   'P 1'
_cell_length_a   6.59614779
_cell_length_b   6.59614712
_cell_length_c   4.02795500
_cell_angle_alpha   90.00000000
_cell_angle_beta   90.00000000
_cell_angle_gamma   121.94670271
_symmetry_Int_Tables_number   1
_chemical_formula_structural   Sc3Zn2Si3Ir
_chemical_formula_sum   'Sc3 Zn2 Si3 Ir1'
_cell_volume   148.70924970
_cell_formula_units_Z   1
loop_
 _symmetry_equiv_pos_site_id
 _symmetry_equiv_pos_as_xyz
  1  'x, y, z'
loop_
 _atom_site_type_symbol
 _atom_site_label
 _atom_site_symmetry_multiplicity
 _atom_site_fract_x
 _atom_site_fract_y
 _atom_site_fract_z
 _atom_site_occupancy
  Sc  Sc0  1  0.581110  0.002802  0.500000  1
  Sc  Sc1  1  0.426232  0.426232  0.500000  1
  Sc  Sc2  1  0.002802  0.581109  0.500000  1
  Zn  Zn3  1  0.242792  0.990417  0.000000  1
  Zn  Zn4  1  0.990417  0.242791  0.000000  1
  Si  Si5  1  0.669962  0.349452  0.000000  1
  Si  Si6  1  0.349453  0.669962  0.000000  1
  Si  Si7  1  0.978924  0.978924  0.500000  1
  Ir  Ir8  1  0.758308  0.758309  0.000000  1
