# generated using pymatgen
data_Th5Ti3(Co4As3)4
_symmetry_space_group_name_H-M   'P 1'
_cell_length_a   12.63395000
_cell_length_b   12.63394857
_cell_length_c   3.94656200
_cell_angle_alpha   90.00000000
_cell_angle_beta   90.00000000
_cell_angle_gamma   120.00000374
_symmetry_Int_Tables_number   1
_chemical_formula_structural   Th5Ti3(Co4As3)4
_chemical_formula_sum   'Th5 Ti3 Co16 As12'
_cell_volume   545.54151284
_cell_formula_units_Z   1
loop_
 _symmetry_equiv_pos_site_id
 _symmetry_equiv_pos_as_xyz
  1  'x, y, z'
loop_
 _atom_site_type_symbol
 _atom_site_label
 _atom_site_symmetry_multiplicity
 _atom_site_fract_x
 _atom_site_fract_y
 _atom_site_fract_z
 _atom_site_occupancy
  Th  Th0  1  0.190441  0.190441  0.500000  1
  Th  Th1  1  0.809559  0.000000  0.500000  1
  Th  Th2  1  0.000000  0.809559  0.500000  1
  Th  Th3  1  0.333333  0.666667  0.000000  1
  Th  Th4  1  0.666667  0.333333  0.000000  1
  Ti  Ti5  1  0.574714  0.574714  0.000000  1
  Ti  Ti6  1  0.425286  0.000000  0.000000  1
  Ti  Ti7  1  0.000000  0.425286  0.000000  1
  Co  Co8  1  0.720448  0.720448  0.500000  1
  Co  Co9  1  0.279552  0.000000  0.500000  1
  Co  Co10  1  0.000000  0.279552  0.500000  1
  Co  Co11  1  0.183604  0.378558  0.000000  1
  Co  Co12  1  0.621442  0.805045  0.000000  1
  Co  Co13  1  0.194955  0.816396  0.000000  1
  Co  Co14  1  0.805045  0.621442  0.000000  1
  Co  Co15  1  0.816396  0.194955  0.000000  1
  Co  Co16  1  0.378558  0.183604  0.000000  1
  Co  Co17  1  0.361506  0.485335  0.500000  1
  Co  Co18  1  0.514665  0.876171  0.500000  1
  Co  Co19  1  0.123829  0.638494  0.500000  1
  Co  Co20  1  0.876171  0.514665  0.500000  1
  Co  Co21  1  0.638494  0.123829  0.500000  1
  Co  Co22  1  0.485335  0.361506  0.500000  1
  Co  Co23  1  0.000000  0.000000  0.000000  1
  As  As24  1  0.818633  0.818633  0.000000  1
  As  As25  1  0.181367  0.000000  0.000000  1
  As  As26  1  0.000000  0.181367  0.000000  1
  As  As27  1  0.167468  0.475800  0.500000  1
  As  As28  1  0.524200  0.691667  0.500000  1
  As  As29  1  0.308333  0.832532  0.500000  1
  As  As30  1  0.691667  0.524200  0.500000  1
  As  As31  1  0.832532  0.308333  0.500000  1
  As  As32  1  0.475800  0.167468  0.500000  1
  As  As33  1  0.371658  0.371658  0.000000  1
  As  As34  1  0.628342  0.000000  0.000000  1
  As  As35  1  0.000000  0.628342  0.000000  1
