# generated using pymatgen
data_CaDy7(Ge4Mo3)4
_symmetry_space_group_name_H-M   'P 1'
_cell_length_a   6.94364520
_cell_length_b   7.07329418
_cell_length_c   13.16844114
_cell_angle_alpha   89.96488793
_cell_angle_beta   89.98933776
_cell_angle_gamma   89.98369598
_symmetry_Int_Tables_number   1
_chemical_formula_structural   CaDy7(Ge4Mo3)4
_chemical_formula_sum   'Ca1 Dy7 Ge16 Mo12'
_cell_volume   646.76052141
_cell_formula_units_Z   1
loop_
 _symmetry_equiv_pos_site_id
 _symmetry_equiv_pos_as_xyz
  1  'x, y, z'
loop_
 _atom_site_type_symbol
 _atom_site_label
 _atom_site_symmetry_multiplicity
 _atom_site_fract_x
 _atom_site_fract_y
 _atom_site_fract_z
 _atom_site_occupancy
  Ca  Ca0  1  0.989826  0.831061  0.589777  1
  Dy  Dy1  1  0.489712  0.670087  0.592695  1
  Dy  Dy2  1  0.989853  0.829800  0.907700  1
  Dy  Dy3  1  0.511270  0.329734  0.092031  1
  Dy  Dy4  1  0.010630  0.169291  0.408898  1
  Dy  Dy5  1  0.511323  0.330223  0.408391  1
  Dy  Dy6  1  0.011444  0.169605  0.092272  1
  Dy  Dy7  1  0.489366  0.670524  0.906998  1
  Ge  Ge8  1  0.668567  0.952637  0.452285  1
  Ge  Ge9  1  0.170320  0.547679  0.047596  1
  Ge  Ge10  1  0.329896  0.047269  0.952248  1
  Ge  Ge11  1  0.830651  0.454447  0.548648  1
  Ge  Ge12  1  0.330825  0.046560  0.548430  1
  Ge  Ge13  1  0.829730  0.453013  0.952588  1
  Ge  Ge14  1  0.670651  0.952489  0.047670  1
  Ge  Ge15  1  0.169294  0.546779  0.451592  1
  Ge  Ge16  1  0.468651  0.367879  0.750495  1
  Ge  Ge17  1  0.969407  0.131892  0.749544  1
  Ge  Ge18  1  0.529958  0.632421  0.249833  1
  Ge  Ge19  1  0.030444  0.866605  0.250619  1
  Ge  Ge20  1  0.690259  0.856677  0.748823  1
  Ge  Ge21  1  0.185886  0.645511  0.748573  1
  Ge  Ge22  1  0.312135  0.144476  0.250260  1
  Ge  Ge23  1  0.812550  0.354653  0.250286  1
  Mo  Mo24  1  0.667035  0.158428  0.627622  1
  Mo  Mo25  1  0.169136  0.344692  0.873332  1
  Mo  Mo26  1  0.331122  0.845045  0.127436  1
  Mo  Mo27  1  0.829064  0.654127  0.371578  1
  Mo  Mo28  1  0.331312  0.844662  0.372475  1
  Mo  Mo29  1  0.830351  0.654675  0.127270  1
  Mo  Mo30  1  0.669678  0.155751  0.872736  1
  Mo  Mo31  1  0.168882  0.343477  0.627924  1
  Mo  Mo32  1  0.832795  0.491381  0.751159  1
  Mo  Mo33  1  0.334291  0.007151  0.750859  1
  Mo  Mo34  1  0.166862  0.506137  0.249664  1
  Mo  Mo35  1  0.666827  0.993166  0.249695  1
