# generated using pymatgen
data_HoEr5CrFeB14
_symmetry_space_group_name_H-M   'P 1'
_cell_length_a   7.98165402
_cell_length_b   7.98165463
_cell_length_c   9.26362400
_cell_angle_alpha   90.00000000
_cell_angle_beta   90.00000000
_cell_angle_gamma   155.34142223
_symmetry_Int_Tables_number   1
_chemical_formula_structural   HoEr5CrFeB14
_chemical_formula_sum   'Ho1 Er5 Cr1 Fe1 B14'
_cell_volume   246.21903248
_cell_formula_units_Z   1
loop_
 _symmetry_equiv_pos_site_id
 _symmetry_equiv_pos_as_xyz
  1  'x, y, z'
loop_
 _atom_site_type_symbol
 _atom_site_label
 _atom_site_symmetry_multiplicity
 _atom_site_fract_x
 _atom_site_fract_y
 _atom_site_fract_z
 _atom_site_occupancy
  Ho  Ho0  1  0.243518  0.756482  0.250000  1
  Er  Er1  1  0.894556  0.105444  0.440530  1
  Er  Er2  1  0.105058  0.894942  0.560804  1
  Er  Er3  1  0.894556  0.105444  0.059470  1
  Er  Er4  1  0.105058  0.894942  0.939196  1
  Er  Er5  1  0.757807  0.242193  0.750000  1
  Cr  Cr6  1  0.052328  0.947672  0.250000  1
  Fe  Fe7  1  0.946081  0.053919  0.750000  1
  B  B8  1  0.727957  0.272043  0.468299  1
  B  B9  1  0.272920  0.727080  0.534687  1
  B  B10  1  0.727957  0.272043  0.031701  1
  B  B11  1  0.272920  0.727080  0.965313  1
  B  B12  1  0.631478  0.368522  0.150778  1
  B  B13  1  0.370057  0.629943  0.847226  1
  B  B14  1  0.631478  0.368522  0.349222  1
  B  B15  1  0.370057  0.629943  0.652774  1
  B  B16  1  0.520580  0.479420  0.095236  1
  B  B17  1  0.478797  0.521203  0.902710  1
  B  B18  1  0.520580  0.479420  0.404764  1
  B  B19  1  0.478797  0.521203  0.597290  1
  B  B20  1  0.456568  0.543432  0.250000  1
  B  B21  1  0.540891  0.459109  0.750000  1
