# generated using pymatgen
data_Nd2FeRuI
_symmetry_space_group_name_H-M   'P 1'
_cell_length_a   4.16621100
_cell_length_b   4.16621026
_cell_length_c   17.73354500
_cell_angle_alpha   90.00000000
_cell_angle_beta   90.00000000
_cell_angle_gamma   119.99999792
_symmetry_Int_Tables_number   1
_chemical_formula_structural   Nd2FeRuI
_chemical_formula_sum   'Nd4 Fe2 Ru2 I2'
_cell_volume   266.56838921
_cell_formula_units_Z   2
loop_
 _symmetry_equiv_pos_site_id
 _symmetry_equiv_pos_as_xyz
  1  'x, y, z'
loop_
 _atom_site_type_symbol
 _atom_site_label
 _atom_site_symmetry_multiplicity
 _atom_site_fract_x
 _atom_site_fract_y
 _atom_site_fract_z
 _atom_site_occupancy
  Nd  Nd0  1  0.000000  0.000000  0.606506  1
  Nd  Nd1  1  0.000000  0.000000  0.393417  1
  Nd  Nd2  1  0.000000  0.000000  0.106506  1
  Nd  Nd3  1  0.000000  0.000000  0.893417  1
  Fe  Fe4  1  0.666667  0.333333  0.994729  1
  Fe  Fe5  1  0.333333  0.666667  0.494729  1
  Ru  Ru6  1  0.666667  0.333333  0.504958  1
  Ru  Ru7  1  0.333333  0.666667  0.004958  1
  I  I8  1  0.666667  0.333333  0.250390  1
  I  I9  1  0.333333  0.666667  0.750390  1
