# generated using pymatgen
data_KRb11Mn4O16
_symmetry_space_group_name_H-M   'P 1'
_cell_length_a   8.80194289
_cell_length_b   8.80668501
_cell_length_c   10.78926921
_cell_angle_alpha   114.04730004
_cell_angle_beta   114.05315993
_cell_angle_gamma   90.02366330
_symmetry_Int_Tables_number   1
_chemical_formula_structural   KRb11Mn4O16
_chemical_formula_sum   'K1 Rb11 Mn4 O16'
_cell_volume   683.39252000
_cell_formula_units_Z   1
loop_
 _symmetry_equiv_pos_site_id
 _symmetry_equiv_pos_as_xyz
  1  'x, y, z'
loop_
 _atom_site_type_symbol
 _atom_site_label
 _atom_site_symmetry_multiplicity
 _atom_site_fract_x
 _atom_site_fract_y
 _atom_site_fract_z
 _atom_site_occupancy
  K  K0  1  0.000109  0.999986  0.000250  1
  Rb  Rb1  1  0.273982  0.273983  0.548189  1
  Rb  Rb2  1  0.500383  0.999910  0.999939  1
  Rb  Rb3  1  0.250007  0.750005  0.499987  1
  Rb  Rb4  1  0.895423  0.895355  0.245255  1
  Rb  Rb5  1  0.104493  0.650246  0.754805  1
  Rb  Rb6  1  0.726016  0.726002  0.451917  1
  Rb  Rb7  1  0.000159  0.500012  0.000085  1
  Rb  Rb8  1  0.650043  0.104609  0.754662  1
  Rb  Rb9  1  0.349981  0.349791  0.245316  1
  Rb  Rb10  1  0.750017  0.249985  0.499947  1
  Rb  Rb11  1  0.500073  0.499930  0.999981  1
  Mn  Mn12  1  0.856153  0.400889  0.257036  1
  Mn  Mn13  1  0.143644  0.144000  0.742881  1
  Mn  Mn14  1  0.599334  0.599149  0.743022  1
  Mn  Mn15  1  0.400916  0.856033  0.257044  1
  O  O16  1  0.436783  0.000020  0.437054  1
  O  O17  1  0.764312  0.764795  0.883011  1
  O  O18  1  0.653524  0.355478  0.236204  1
  O  O19  1  0.355973  0.653453  0.236445  1
  O  O20  1  0.000139  0.437306  0.437179  1
  O  O21  1  0.582696  0.880572  0.236105  1
  O  O22  1  0.346476  0.119538  0.764035  1
  O  O23  1  0.235299  0.880305  0.116667  1
  O  O24  1  0.562854  0.562726  0.562763  1
  O  O25  1  0.117962  0.118812  0.882720  1
  O  O26  1  0.644534  0.417392  0.763926  1
  O  O27  1  0.999793  0.000232  0.562719  1
  O  O28  1  0.880555  0.582770  0.236268  1
  O  O29  1  0.881620  0.235846  0.117065  1
  O  O30  1  0.119369  0.346647  0.763818  1
  O  O31  1  0.417377  0.644218  0.763710  1
