# generated using pymatgen
data_TbErTm2(ReB6)2
_symmetry_space_group_name_H-M   'P 1'
_cell_length_a   3.65774200
_cell_length_b   9.12934102
_cell_length_c   11.51243503
_cell_angle_alpha   89.99198954
_cell_angle_beta   90.00000000
_cell_angle_gamma   90.00000000
_symmetry_Int_Tables_number   1
_chemical_formula_structural   TbErTm2(ReB6)2
_chemical_formula_sum   'Tb2 Er2 Tm4 Re4 B24'
_cell_volume   384.43213836
_cell_formula_units_Z   2
loop_
 _symmetry_equiv_pos_site_id
 _symmetry_equiv_pos_as_xyz
  1  'x, y, z'
loop_
 _atom_site_type_symbol
 _atom_site_label
 _atom_site_symmetry_multiplicity
 _atom_site_fract_x
 _atom_site_fract_y
 _atom_site_fract_z
 _atom_site_occupancy
  Tb  Tb0  1  0.000000  0.322756  0.413936  1
  Tb  Tb1  1  0.000000  0.677244  0.586064  1
  Er  Er2  1  0.000000  0.823166  0.085799  1
  Er  Er3  1  0.000000  0.176834  0.914201  1
  Tm  Tm4  1  0.000000  0.942955  0.369735  1
  Tm  Tm5  1  0.000000  0.057045  0.630265  1
  Tm  Tm6  1  0.000000  0.442836  0.129373  1
  Tm  Tm7  1  0.000000  0.557164  0.870627  1
  Re  Re8  1  0.000000  0.638938  0.319588  1
  Re  Re9  1  0.000000  0.361062  0.680412  1
  Re  Re10  1  0.000000  0.138177  0.179030  1
  Re  Re11  1  0.000000  0.861823  0.820970  1
  B  B12  1  0.500000  0.553420  0.432219  1
  B  B13  1  0.500000  0.446580  0.567781  1
  B  B14  1  0.500000  0.052977  0.066684  1
  B  B15  1  0.500000  0.947023  0.933316  1
  B  B16  1  0.500000  0.750069  0.417621  1
  B  B17  1  0.500000  0.249931  0.582379  1
  B  B18  1  0.500000  0.249623  0.080911  1
  B  B19  1  0.500000  0.750377  0.919089  1
  B  B20  1  0.500000  0.792491  0.264398  1
  B  B21  1  0.500000  0.207509  0.735602  1
  B  B22  1  0.500000  0.291940  0.233983  1
  B  B23  1  0.500000  0.708060  0.766017  1
  B  B24  1  0.500000  0.630305  0.184294  1
  B  B25  1  0.500000  0.369695  0.815706  1
  B  B26  1  0.500000  0.129603  0.314334  1
  B  B27  1  0.500000  0.870397  0.685666  1
  B  B28  1  0.500000  0.981071  0.211646  1
  B  B29  1  0.500000  0.018929  0.788354  1
  B  B30  1  0.500000  0.481707  0.286946  1
  B  B31  1  0.500000  0.518293  0.713054  1
  B  B32  1  0.500000  0.599211  0.027613  1
  B  B33  1  0.500000  0.400789  0.972387  1
  B  B34  1  0.500000  0.098027  0.472650  1
  B  B35  1  0.500000  0.901973  0.527350  1
