# generated using pymatgen
data_TbNd4ErNiBr10
_symmetry_space_group_name_H-M   'P 1'
_cell_length_a   7.46539734
_cell_length_b   9.50522269
_cell_length_c   9.49244873
_cell_angle_alpha   108.77792464
_cell_angle_beta   95.43190543
_cell_angle_gamma   105.48258528
_symmetry_Int_Tables_number   1
_chemical_formula_structural   TbNd4ErNiBr10
_chemical_formula_sum   'Tb1 Nd4 Er1 Ni1 Br10'
_cell_volume   602.43286702
_cell_formula_units_Z   1
loop_
 _symmetry_equiv_pos_site_id
 _symmetry_equiv_pos_as_xyz
  1  'x, y, z'
loop_
 _atom_site_type_symbol
 _atom_site_label
 _atom_site_symmetry_multiplicity
 _atom_site_fract_x
 _atom_site_fract_y
 _atom_site_fract_z
 _atom_site_occupancy
  Tb  Tb0  1  0.650018  0.872445  0.829159  1
  Nd  Nd1  1  0.131497  0.046513  0.754625  1
  Nd  Nd2  1  0.871051  0.954663  0.246118  1
  Nd  Nd3  1  0.972042  0.297443  0.098291  1
  Nd  Nd4  1  0.029751  0.702910  0.902668  1
  Er  Er5  1  0.346694  0.126174  0.168968  1
  Ni  Ni6  1  0.000631  0.000221  0.000043  1
  Br  Br7  1  0.550078  0.174043  0.921582  1
  Br  Br8  1  0.449552  0.829406  0.082536  1
  Br  Br9  1  0.361387  0.439397  0.268210  1
  Br  Br10  1  0.640877  0.556809  0.732430  1
  Br  Br11  1  0.255123  0.083512  0.444494  1
  Br  Br12  1  0.748095  0.918382  0.553799  1
  Br  Br13  1  0.757204  0.248806  0.341226  1
  Br  Br14  1  0.236071  0.749115  0.655374  1
  Br  Br15  1  0.086882  0.366530  0.827300  1
  Br  Br16  1  0.913049  0.633631  0.173177  1
