# generated using pymatgen
data_Ce2CoSi6PRu11
_symmetry_space_group_name_H-M   'P 1'
_cell_length_a   9.56720060
_cell_length_b   9.57619441
_cell_length_c   3.92357600
_cell_angle_alpha   90.00000000
_cell_angle_beta   90.00000000
_cell_angle_gamma   119.89665804
_symmetry_Int_Tables_number   1
_chemical_formula_structural   Ce2CoSi6PRu11
_chemical_formula_sum   'Ce2 Co1 Si6 P1 Ru11'
_cell_volume   311.63185401
_cell_formula_units_Z   1
loop_
 _symmetry_equiv_pos_site_id
 _symmetry_equiv_pos_as_xyz
  1  'x, y, z'
loop_
 _atom_site_type_symbol
 _atom_site_label
 _atom_site_symmetry_multiplicity
 _atom_site_fract_x
 _atom_site_fract_y
 _atom_site_fract_z
 _atom_site_occupancy
  Ce  Ce0  1  0.332763  0.664492  0.000000  1
  Ce  Ce1  1  0.996018  0.994350  0.500000  1
  Co  Co2  1  0.537647  0.484203  0.000000  1
  Si  Si3  1  0.966851  0.224387  0.000000  1
  Si  Si4  1  0.261970  0.037226  0.000000  1
  Si  Si5  1  0.765582  0.726967  0.000000  1
  Si  Si6  1  0.058989  0.625069  0.500000  1
  Si  Si7  1  0.565574  0.940529  0.500000  1
  Si  Si8  1  0.665540  0.342618  0.000000  1
  P  P9  1  0.380071  0.436004  0.500000  1
  Ru  Ru10  1  0.730125  0.961357  0.000000  1
  Ru  Ru11  1  0.242131  0.274260  0.000000  1
  Ru  Ru12  1  0.032353  0.765841  0.000000  1
  Ru  Ru13  1  0.942513  0.457800  0.000000  1
  Ru  Ru14  1  0.519996  0.064224  0.000000  1
  Ru  Ru15  1  0.113414  0.392193  0.500000  1
  Ru  Ru16  1  0.284758  0.896842  0.500000  1
  Ru  Ru17  1  0.601130  0.705362  0.500000  1
  Ru  Ru18  1  0.771737  0.223322  0.500000  1
  Ru  Ru19  1  0.459990  0.242278  0.500000  1
  Ru  Ru20  1  0.770847  0.540679  0.500000  1
