# generated using pymatgen
data_Hf9Nb(ReN)3
_symmetry_space_group_name_H-M   'P 1'
_cell_length_a   8.55741800
_cell_length_b   8.55741767
_cell_length_c   8.45112200
_cell_angle_alpha   90.00000000
_cell_angle_beta   90.00000000
_cell_angle_gamma   120.00000127
_symmetry_Int_Tables_number   1
_chemical_formula_structural   Hf9Nb(ReN)3
_chemical_formula_sum   'Hf18 Nb2 Re6 N6'
_cell_volume   535.95764882
_cell_formula_units_Z   2
loop_
 _symmetry_equiv_pos_site_id
 _symmetry_equiv_pos_as_xyz
  1  'x, y, z'
loop_
 _atom_site_type_symbol
 _atom_site_label
 _atom_site_symmetry_multiplicity
 _atom_site_fract_x
 _atom_site_fract_y
 _atom_site_fract_z
 _atom_site_occupancy
  Hf  Hf0  1  0.454896  0.909791  0.250000  1
  Hf  Hf1  1  0.545104  0.090209  0.750000  1
  Hf  Hf2  1  0.090209  0.545104  0.250000  1
  Hf  Hf3  1  0.909791  0.454896  0.750000  1
  Hf  Hf4  1  0.454896  0.545104  0.250000  1
  Hf  Hf5  1  0.545104  0.454896  0.750000  1
  Hf  Hf6  1  0.205683  0.411367  0.557822  1
  Hf  Hf7  1  0.794317  0.588633  0.442178  1
  Hf  Hf8  1  0.588633  0.794317  0.557822  1
  Hf  Hf9  1  0.794317  0.588633  0.057822  1
  Hf  Hf10  1  0.411367  0.205683  0.442178  1
  Hf  Hf11  1  0.205683  0.411367  0.942178  1
  Hf  Hf12  1  0.205683  0.794317  0.557822  1
  Hf  Hf13  1  0.411367  0.205683  0.057822  1
  Hf  Hf14  1  0.794317  0.205683  0.442178  1
  Hf  Hf15  1  0.588633  0.794317  0.942178  1
  Hf  Hf16  1  0.794317  0.205683  0.057822  1
  Hf  Hf17  1  0.205683  0.794317  0.942178  1
  Nb  Nb18  1  0.000000  0.000000  0.000000  1
  Nb  Nb19  1  0.000000  0.000000  0.500000  1
  Re  Re20  1  0.111567  0.223135  0.250000  1
  Re  Re21  1  0.888433  0.776865  0.750000  1
  Re  Re22  1  0.776865  0.888433  0.250000  1
  Re  Re23  1  0.223135  0.111567  0.750000  1
  Re  Re24  1  0.111567  0.888433  0.250000  1
  Re  Re25  1  0.888433  0.111567  0.750000  1
  N  N26  1  0.500000  0.000000  0.000000  1
  N  N27  1  0.000000  0.500000  0.000000  1
  N  N28  1  0.500000  0.000000  0.500000  1
  N  N29  1  0.500000  0.500000  0.000000  1
  N  N30  1  0.000000  0.500000  0.500000  1
  N  N31  1  0.500000  0.500000  0.500000  1
