# generated using pymatgen
data_NaTlSe12
_symmetry_space_group_name_H-M   'P 1'
_cell_length_a   11.12783518
_cell_length_b   11.12783712
_cell_length_c   11.12783564
_cell_angle_alpha   131.80936588
_cell_angle_beta   119.61952824
_cell_angle_gamma   80.74129088
_symmetry_Int_Tables_number   1
_chemical_formula_structural   NaTlSe12
_chemical_formula_sum   'Na2 Tl2 Se24'
_cell_volume   862.11181367
_cell_formula_units_Z   2
loop_
 _symmetry_equiv_pos_site_id
 _symmetry_equiv_pos_as_xyz
  1  'x, y, z'
loop_
 _atom_site_type_symbol
 _atom_site_label
 _atom_site_symmetry_multiplicity
 _atom_site_fract_x
 _atom_site_fract_y
 _atom_site_fract_z
 _atom_site_occupancy
  Na  Na0  1  0.500000  0.500000  0.000000  1
  Na  Na1  1  0.000000  0.000000  0.000000  1
  Tl  Tl2  1  0.750000  0.250000  0.500000  1
  Tl  Tl3  1  0.250000  0.750000  0.500000  1
  Se  Se4  1  0.645287  0.750000  0.895287  1
  Se  Se5  1  0.854713  0.750000  0.104713  1
  Se  Se6  1  0.354713  0.250000  0.104713  1
  Se  Se7  1  0.145287  0.250000  0.895287  1
  Se  Se8  1  0.263684  0.156630  0.694123  1
  Se  Se9  1  0.236316  0.930439  0.892946  1
  Se  Se10  1  0.037494  0.343370  0.107054  1
  Se  Se11  1  0.462506  0.569561  0.305877  1
  Se  Se12  1  0.736316  0.843370  0.305877  1
  Se  Se13  1  0.763684  0.069561  0.107054  1
  Se  Se14  1  0.962506  0.656630  0.892946  1
  Se  Se15  1  0.537494  0.430439  0.694123  1
  Se  Se16  1  0.918125  0.821285  0.519822  1
  Se  Se17  1  0.581875  0.101698  0.903161  1
  Se  Se18  1  0.198538  0.678715  0.096839  1
  Se  Se19  1  0.301462  0.398302  0.480178  1
  Se  Se20  1  0.081875  0.178715  0.480178  1
  Se  Se21  1  0.418125  0.898302  0.096839  1
  Se  Se22  1  0.801463  0.321285  0.903161  1
  Se  Se23  1  0.698538  0.601698  0.519822  1
  Se  Se24  1  0.666537  0.052360  0.718897  1
  Se  Se25  1  0.833463  0.552360  0.385823  1
  Se  Se26  1  0.166537  0.447640  0.614177  1
  Se  Se27  1  0.333463  0.947640  0.281103  1
