# generated using pymatgen
data_ErNb8CdSe16
_symmetry_space_group_name_H-M   'P 1'
_cell_length_a   7.02577100
_cell_length_b   7.02577061
_cell_length_c   14.34548500
_cell_angle_alpha   90.00000000
_cell_angle_beta   90.00000000
_cell_angle_gamma   119.99999715
_symmetry_Int_Tables_number   1
_chemical_formula_structural   ErNb8CdSe16
_chemical_formula_sum   'Er1 Nb8 Cd1 Se16'
_cell_volume   613.24474563
_cell_formula_units_Z   1
loop_
 _symmetry_equiv_pos_site_id
 _symmetry_equiv_pos_as_xyz
  1  'x, y, z'
loop_
 _atom_site_type_symbol
 _atom_site_label
 _atom_site_symmetry_multiplicity
 _atom_site_fract_x
 _atom_site_fract_y
 _atom_site_fract_z
 _atom_site_occupancy
  Er  Er0  1  0.000000  0.000000  0.500000  1
  Nb  Nb1  1  0.000000  0.000000  0.253008  1
  Nb  Nb2  1  0.000000  0.000000  0.746992  1
  Nb  Nb3  1  0.507332  0.014664  0.249955  1
  Nb  Nb4  1  0.985336  0.492668  0.249955  1
  Nb  Nb5  1  0.507332  0.492668  0.249955  1
  Nb  Nb6  1  0.492668  0.985336  0.750045  1
  Nb  Nb7  1  0.014664  0.507332  0.750045  1
  Nb  Nb8  1  0.492668  0.507332  0.750045  1
  Cd  Cd9  1  0.000000  0.000000  0.000000  1
  Se  Se10  1  0.333333  0.666667  0.870066  1
  Se  Se11  1  0.666667  0.333333  0.129934  1
  Se  Se12  1  0.666667  0.333333  0.371179  1
  Se  Se13  1  0.333333  0.666667  0.628821  1
  Se  Se14  1  0.170147  0.829853  0.366630  1
  Se  Se15  1  0.170147  0.340294  0.366630  1
  Se  Se16  1  0.659706  0.829853  0.366630  1
  Se  Se17  1  0.829853  0.170147  0.633370  1
  Se  Se18  1  0.829853  0.659706  0.633370  1
  Se  Se19  1  0.340294  0.170147  0.633370  1
  Se  Se20  1  0.832390  0.167610  0.863848  1
  Se  Se21  1  0.832390  0.664782  0.863848  1
  Se  Se22  1  0.335218  0.167610  0.863848  1
  Se  Se23  1  0.167610  0.832390  0.136152  1
  Se  Se24  1  0.167610  0.335218  0.136152  1
  Se  Se25  1  0.664782  0.832390  0.136152  1
