# generated using pymatgen
data_Ce3Dy(B4W)4
_symmetry_space_group_name_H-M   'P 1'
_cell_length_a   6.06537639
_cell_length_b   11.73427943
_cell_length_c   3.68185800
_cell_angle_alpha   90.00000000
_cell_angle_beta   90.00000000
_cell_angle_gamma   89.92383431
_symmetry_Int_Tables_number   1
_chemical_formula_structural   Ce3Dy(B4W)4
_chemical_formula_sum   'Ce3 Dy1 B16 W4'
_cell_volume   262.04799042
_cell_formula_units_Z   1
loop_
 _symmetry_equiv_pos_site_id
 _symmetry_equiv_pos_as_xyz
  1  'x, y, z'
loop_
 _atom_site_type_symbol
 _atom_site_label
 _atom_site_symmetry_multiplicity
 _atom_site_fract_x
 _atom_site_fract_y
 _atom_site_fract_z
 _atom_site_occupancy
  Ce  Ce0  1  0.625281  0.349218  0.000000  1
  Ce  Ce1  1  0.374469  0.651359  0.000000  1
  Ce  Ce2  1  0.124949  0.150248  0.000000  1
  Dy  Dy3  1  0.874454  0.849741  0.000000  1
  B  B4  1  0.787173  0.184762  0.500000  1
  B  B5  1  0.213058  0.814781  0.500000  1
  B  B6  1  0.286206  0.314411  0.500000  1
  B  B7  1  0.713537  0.686052  0.500000  1
  B  B8  1  0.864978  0.031929  0.500000  1
  B  B9  1  0.135117  0.967531  0.500000  1
  B  B10  1  0.364432  0.468163  0.500000  1
  B  B11  1  0.635650  0.532291  0.500000  1
  B  B12  1  0.886033  0.453488  0.500000  1
  B  B13  1  0.113639  0.547416  0.500000  1
  B  B14  1  0.386403  0.046078  0.500000  1
  B  B15  1  0.615431  0.952564  0.500000  1
  B  B16  1  0.975084  0.308144  0.500000  1
  B  B17  1  0.024730  0.692640  0.500000  1
  B  B18  1  0.475184  0.191377  0.500000  1
  B  B19  1  0.523532  0.808100  0.500000  1
  W  W20  1  0.630612  0.085008  0.000000  1
  W  W21  1  0.370405  0.914617  0.000000  1
  W  W22  1  0.131052  0.414439  0.000000  1
  W  W23  1  0.868592  0.585648  0.000000  1
