# generated using pymatgen
data_Tb2U(InPt)3
_symmetry_space_group_name_H-M   'P 1'
_cell_length_a   7.63313000
_cell_length_b   7.60227926
_cell_length_c   3.95034800
_cell_angle_alpha   90.00000000
_cell_angle_beta   90.00000000
_cell_angle_gamma   120.13433160
_symmetry_Int_Tables_number   1
_chemical_formula_structural   Tb2U(InPt)3
_chemical_formula_sum   'Tb2 U1 In3 Pt3'
_cell_volume   198.25447785
_cell_formula_units_Z   1
loop_
 _symmetry_equiv_pos_site_id
 _symmetry_equiv_pos_as_xyz
  1  'x, y, z'
loop_
 _atom_site_type_symbol
 _atom_site_label
 _atom_site_symmetry_multiplicity
 _atom_site_fract_x
 _atom_site_fract_y
 _atom_site_fract_z
 _atom_site_occupancy
  Tb  Tb0  1  0.998114  0.404954  0.000000  1
  Tb  Tb1  1  0.593161  0.595046  0.000000  1
  U  U2  1  0.410576  0.000000  0.000000  1
  In  In3  1  0.257241  0.269269  0.500000  1
  In  In4  1  0.987972  0.730731  0.500000  1
  In  In5  1  0.753248  0.000000  0.500000  1
  Pt  Pt6  1  0.018053  0.000000  0.000000  1
  Pt  Pt7  1  0.645447  0.309259  0.500000  1
  Pt  Pt8  1  0.336187  0.690741  0.500000  1
