# generated using pymatgen
data_Gd6TcNiSn
_symmetry_space_group_name_H-M   'P 1'
_cell_length_a   8.49219741
_cell_length_b   8.49219851
_cell_length_c   8.49219700
_cell_angle_alpha   104.48934003
_cell_angle_beta   110.53007403
_cell_angle_gamma   113.52199577
_symmetry_Int_Tables_number   1
_chemical_formula_structural   Gd6TcNiSn
_chemical_formula_sum   'Gd12 Tc2 Ni2 Sn2'
_cell_volume   468.45920574
_cell_formula_units_Z   2
loop_
 _symmetry_equiv_pos_site_id
 _symmetry_equiv_pos_as_xyz
  1  'x, y, z'
loop_
 _atom_site_type_symbol
 _atom_site_label
 _atom_site_symmetry_multiplicity
 _atom_site_fract_x
 _atom_site_fract_y
 _atom_site_fract_z
 _atom_site_occupancy
  Gd  Gd0  1  0.700678  0.260092  0.960768  1
  Gd  Gd1  1  0.299322  0.739908  0.039232  1
  Gd  Gd2  1  0.700678  0.739908  0.440586  1
  Gd  Gd3  1  0.299322  0.260092  0.559414  1
  Gd  Gd4  1  0.814165  0.145319  0.331153  1
  Gd  Gd5  1  0.814165  0.483012  0.668847  1
  Gd  Gd6  1  0.185835  0.854681  0.668847  1
  Gd  Gd7  1  0.185835  0.516988  0.331153  1
  Gd  Gd8  1  0.601533  0.784903  0.816631  1
  Gd  Gd9  1  0.968272  0.784903  0.183369  1
  Gd  Gd10  1  0.031728  0.215097  0.816631  1
  Gd  Gd11  1  0.398467  0.215097  0.183369  1
  Tc  Tc12  1  0.826329  0.500000  0.326329  1
  Tc  Tc13  1  0.173671  0.500000  0.673671  1
  Ni  Ni14  1  0.000000  0.116578  0.116578  1
  Ni  Ni15  1  0.000000  0.883422  0.883422  1
  Sn  Sn16  1  0.500000  0.500000  0.000000  1
  Sn  Sn17  1  0.500000  0.000000  0.500000  1
