# generated using pymatgen
data_Yb2TmPaPt4
_symmetry_space_group_name_H-M   'P 1'
_cell_length_a   4.40218300
_cell_length_b   5.64418262
_cell_length_c   7.18251518
_cell_angle_alpha   88.79306463
_cell_angle_beta   90.00000000
_cell_angle_gamma   90.00000000
_symmetry_Int_Tables_number   1
_chemical_formula_structural   Yb2TmPaPt4
_chemical_formula_sum   'Yb2 Tm1 Pa1 Pt4'
_cell_volume   178.42238462
_cell_formula_units_Z   1
loop_
 _symmetry_equiv_pos_site_id
 _symmetry_equiv_pos_as_xyz
  1  'x, y, z'
loop_
 _atom_site_type_symbol
 _atom_site_label
 _atom_site_symmetry_multiplicity
 _atom_site_fract_x
 _atom_site_fract_y
 _atom_site_fract_z
 _atom_site_occupancy
  Yb  Yb0  1  0.750000  0.855462  0.814949  1
  Yb  Yb1  1  0.250000  0.357401  0.683173  1
  Tm  Tm2  1  0.750000  0.641936  0.322079  1
  Pa  Pa3  1  0.250000  0.141965  0.183300  1
  Pt  Pt4  1  0.750000  0.157514  0.435726  1
  Pt  Pt5  1  0.250000  0.846174  0.524997  1
  Pt  Pt6  1  0.250000  0.663771  0.061784  1
  Pt  Pt7  1  0.750000  0.335777  0.973992  1
