# generated using pymatgen
data_TiNb3Cu4Si4W
_symmetry_space_group_name_H-M   'P 1'
_cell_length_a   7.38257446
_cell_length_b   7.38257421
_cell_length_c   7.38230270
_cell_angle_alpha   93.61835600
_cell_angle_beta   93.29107058
_cell_angle_gamma   151.58039458
_symmetry_Int_Tables_number   1
_chemical_formula_structural   TiNb3Cu4Si4W
_chemical_formula_sum   'Ti1 Nb3 Cu4 Si4 W1'
_cell_volume   185.62979306
_cell_formula_units_Z   1
loop_
 _symmetry_equiv_pos_site_id
 _symmetry_equiv_pos_as_xyz
  1  'x, y, z'
loop_
 _atom_site_type_symbol
 _atom_site_label
 _atom_site_symmetry_multiplicity
 _atom_site_fract_x
 _atom_site_fract_y
 _atom_site_fract_z
 _atom_site_occupancy
  Ti  Ti0  1  0.125748  0.806636  0.932384  1
  Nb  Nb1  1  0.194632  0.126459  0.321091  1
  Nb  Nb2  1  0.806134  0.872512  0.678646  1
  Nb  Nb3  1  0.873429  0.193572  0.067001  1
  Cu  Cu4  1  0.394956  0.917582  0.312538  1
  Cu  Cu5  1  0.604439  0.083570  0.688009  1
  Cu  Cu6  1  0.917821  0.604473  0.522295  1
  Cu  Cu7  1  0.082799  0.396038  0.478837  1
  Si  Si8  1  0.248942  0.560837  0.809779  1
  Si  Si9  1  0.442613  0.249933  0.692547  1
  Si  Si10  1  0.559101  0.750585  0.309685  1
  Si  Si11  1  0.748953  0.438576  0.187529  1
  W  W12  1  0.500432  0.499226  0.999658  1
