# generated using pymatgen
data_Dy17Hf2CdIr12
_symmetry_space_group_name_H-M   'P 1'
_cell_length_a   10.84116800
_cell_length_b   10.84116800
_cell_length_c   6.27538500
_cell_angle_alpha   90.00000000
_cell_angle_beta   90.00000000
_cell_angle_gamma   90.00000000
_symmetry_Int_Tables_number   1
_chemical_formula_structural   Dy17Hf2CdIr12
_chemical_formula_sum   'Dy17 Hf2 Cd1 Ir12'
_cell_volume   737.55179502
_cell_formula_units_Z   1
loop_
 _symmetry_equiv_pos_site_id
 _symmetry_equiv_pos_as_xyz
  1  'x, y, z'
loop_
 _atom_site_type_symbol
 _atom_site_label
 _atom_site_symmetry_multiplicity
 _atom_site_fract_x
 _atom_site_fract_y
 _atom_site_fract_z
 _atom_site_occupancy
  Dy  Dy0  1  0.283004  0.082918  0.378886  1
  Dy  Dy1  1  0.292788  0.911599  0.878079  1
  Dy  Dy2  1  0.707212  0.088401  0.878079  1
  Dy  Dy3  1  0.716996  0.917082  0.378886  1
  Dy  Dy4  1  0.587512  0.789035  0.879297  1
  Dy  Dy5  1  0.585278  0.210619  0.375643  1
  Dy  Dy6  1  0.414722  0.789381  0.375643  1
  Dy  Dy7  1  0.412488  0.210965  0.879297  1
  Dy  Dy8  1  0.210619  0.414722  0.624357  1
  Dy  Dy9  1  0.210965  0.587512  0.120703  1
  Dy  Dy10  1  0.789035  0.412488  0.120703  1
  Dy  Dy11  1  0.789381  0.585278  0.624357  1
  Dy  Dy12  1  0.911599  0.707212  0.121921  1
  Dy  Dy13  1  0.917082  0.283004  0.621114  1
  Dy  Dy14  1  0.082918  0.716996  0.621114  1
  Dy  Dy15  1  0.088401  0.292788  0.121921  1
  Dy  Dy16  1  0.000000  0.000000  0.000000  1
  Hf  Hf17  1  0.500000  0.500000  0.000000  1
  Hf  Hf18  1  0.500000  0.500000  0.500000  1
  Cd  Cd19  1  0.000000  0.000000  0.500000  1
  Ir  Ir20  1  0.843036  0.159508  0.240448  1
  Ir  Ir21  1  0.840492  0.843036  0.759552  1
  Ir  Ir22  1  0.159508  0.156964  0.759552  1
  Ir  Ir23  1  0.156964  0.840492  0.240448  1
  Ir  Ir24  1  0.642176  0.358826  0.747513  1
  Ir  Ir25  1  0.641174  0.642176  0.252487  1
  Ir  Ir26  1  0.358826  0.357824  0.252487  1
  Ir  Ir27  1  0.357824  0.641174  0.747513  1
  Ir  Ir28  1  0.500000  0.000000  0.126516  1
  Ir  Ir29  1  0.500000  0.000000  0.621050  1
  Ir  Ir30  1  0.000000  0.500000  0.873484  1
  Ir  Ir31  1  0.000000  0.500000  0.378950  1
