# generated using pymatgen
data_Hf3MnAs3Ru2
_symmetry_space_group_name_H-M   'P 1'
_cell_length_a   7.68521586
_cell_length_b   7.68521655
_cell_length_c   7.68521701
_cell_angle_alpha   127.81909286
_cell_angle_beta   122.47659413
_cell_angle_gamma   81.36580170
_symmetry_Int_Tables_number   1
_chemical_formula_structural   Hf3MnAs3Ru2
_chemical_formula_sum   'Hf6 Mn2 As6 Ru4'
_cell_volume   291.35830507
_cell_formula_units_Z   2
loop_
 _symmetry_equiv_pos_site_id
 _symmetry_equiv_pos_as_xyz
  1  'x, y, z'
loop_
 _atom_site_type_symbol
 _atom_site_label
 _atom_site_symmetry_multiplicity
 _atom_site_fract_x
 _atom_site_fract_y
 _atom_site_fract_z
 _atom_site_occupancy
  Hf  Hf0  1  0.466975  0.689239  0.722264  1
  Hf  Hf1  1  0.533025  0.255290  0.222264  1
  Hf  Hf2  1  0.748279  0.838139  0.589861  1
  Hf  Hf3  1  0.251721  0.841583  0.089861  1
  Hf  Hf4  1  0.053416  0.257501  0.704085  1
  Hf  Hf5  1  0.946584  0.650670  0.204085  1
  Mn  Mn6  1  0.500000  0.500530  0.000530  1
  Mn  Mn7  1  0.000000  0.500530  0.500530  1
  As  As8  1  0.273897  0.280418  0.506522  1
  As  As9  1  0.726103  0.232625  0.006522  1
  As  As10  1  0.331870  0.585607  0.245150  1
  As  As11  1  0.668130  0.913280  0.253737  1
  As  As12  1  0.159543  0.913280  0.745150  1
  As  As13  1  0.840457  0.585607  0.753737  1
  Ru  Ru14  1  0.094975  0.253763  0.098862  1
  Ru  Ru15  1  0.905025  0.003887  0.158788  1
  Ru  Ru16  1  0.345099  0.003887  0.598862  1
  Ru  Ru17  1  0.654901  0.253763  0.658788  1
