# generated using pymatgen
data_Dy8Tl4Pt3Au5
_symmetry_space_group_name_H-M   'P 1'
_cell_length_a   7.96684316
_cell_length_b   7.96684354
_cell_length_c   7.30773900
_cell_angle_alpha   90.05107602
_cell_angle_beta   90.05106883
_cell_angle_gamma   90.60511774
_symmetry_Int_Tables_number   1
_chemical_formula_structural   Dy8Tl4Pt3Au5
_chemical_formula_sum   'Dy8 Tl4 Pt3 Au5'
_cell_volume   463.80028798
_cell_formula_units_Z   1
loop_
 _symmetry_equiv_pos_site_id
 _symmetry_equiv_pos_as_xyz
  1  'x, y, z'
loop_
 _atom_site_type_symbol
 _atom_site_label
 _atom_site_symmetry_multiplicity
 _atom_site_fract_x
 _atom_site_fract_y
 _atom_site_fract_z
 _atom_site_occupancy
  Dy  Dy0  1  0.165248  0.165248  0.005353  1
  Dy  Dy1  1  0.827911  0.827911  0.999073  1
  Dy  Dy2  1  0.661270  0.347738  0.495927  1
  Dy  Dy3  1  0.347738  0.661270  0.495927  1
  Dy  Dy4  1  0.675603  0.333276  0.002888  1
  Dy  Dy5  1  0.333276  0.675603  0.002888  1
  Dy  Dy6  1  0.812443  0.812443  0.500632  1
  Dy  Dy7  1  0.183208  0.183208  0.495820  1
  Tl  Tl8  1  0.500113  0.003513  0.249814  1
  Tl  Tl9  1  0.500980  0.997216  0.748967  1
  Tl  Tl10  1  0.003513  0.500113  0.249814  1
  Tl  Tl11  1  0.997216  0.500980  0.748967  1
  Pt  Pt12  1  0.371496  0.371496  0.235712  1
  Pt  Pt13  1  0.625696  0.625696  0.763885  1
  Pt  Pt14  1  0.627637  0.627637  0.235225  1
  Au  Au15  1  0.871438  0.127679  0.732553  1
  Au  Au16  1  0.870545  0.125616  0.267835  1
  Au  Au17  1  0.371375  0.371375  0.768332  1
  Au  Au18  1  0.125616  0.870545  0.267835  1
  Au  Au19  1  0.127679  0.871438  0.732553  1
