# generated using pymatgen
data_Er6Tm2Sc12Si15Au
_symmetry_space_group_name_H-M   'P 1'
_cell_length_a   7.09085037
_cell_length_b   7.35285619
_cell_length_c   14.00826702
_cell_angle_alpha   89.92323988
_cell_angle_beta   89.66951765
_cell_angle_gamma   90.16323263
_symmetry_Int_Tables_number   1
_chemical_formula_structural   Er6Tm2Sc12Si15Au
_chemical_formula_sum   'Er6 Tm2 Sc12 Si15 Au1'
_cell_volume   730.34728346
_cell_formula_units_Z   1
loop_
 _symmetry_equiv_pos_site_id
 _symmetry_equiv_pos_as_xyz
  1  'x, y, z'
loop_
 _atom_site_type_symbol
 _atom_site_label
 _atom_site_symmetry_multiplicity
 _atom_site_fract_x
 _atom_site_fract_y
 _atom_site_fract_z
 _atom_site_occupancy
  Er  Er0  1  0.012504  0.176140  0.097258  1
  Er  Er1  1  0.987302  0.824354  0.903726  1
  Er  Er2  1  0.487229  0.677505  0.903566  1
  Er  Er3  1  0.988065  0.826901  0.597512  1
  Er  Er4  1  0.512115  0.323018  0.096471  1
  Er  Er5  1  0.010913  0.174861  0.400178  1
  Tm  Tm6  1  0.509590  0.324056  0.401301  1
  Tm  Tm7  1  0.490827  0.676375  0.598644  1
  Sc  Sc8  1  0.162701  0.502215  0.751066  1
  Sc  Sc9  1  0.837520  0.497663  0.250777  1
  Sc  Sc10  1  0.338239  0.001644  0.249429  1
  Sc  Sc11  1  0.663443  0.995419  0.750672  1
  Sc  Sc12  1  0.337701  0.175952  0.625737  1
  Sc  Sc13  1  0.666820  0.823415  0.373690  1
  Sc  Sc14  1  0.169169  0.673801  0.373331  1
  Sc  Sc15  1  0.670038  0.824086  0.125344  1
  Sc  Sc16  1  0.828389  0.325456  0.625468  1
  Sc  Sc17  1  0.328913  0.175428  0.875781  1
  Sc  Sc18  1  0.830266  0.322679  0.875697  1
  Sc  Sc19  1  0.169356  0.676822  0.125201  1
  Si  Si20  1  0.034381  0.116800  0.750672  1
  Si  Si21  1  0.967051  0.886175  0.249266  1
  Si  Si22  1  0.467066  0.613558  0.248489  1
  Si  Si23  1  0.534306  0.386651  0.752161  1
  Si  Si24  1  0.284640  0.871872  0.750731  1
  Si  Si25  1  0.713675  0.129966  0.249127  1
  Si  Si26  1  0.214803  0.369116  0.248049  1
  Si  Si27  1  0.786661  0.629217  0.752504  1
  Si  Si28  1  0.833975  0.536206  0.459553  1
  Si  Si29  1  0.339898  0.963994  0.460008  1
  Si  Si30  1  0.842453  0.535068  0.038957  1
  Si  Si31  1  0.658977  0.035379  0.537990  1
  Si  Si32  1  0.157197  0.464811  0.961657  1
  Si  Si33  1  0.658119  0.034455  0.961121  1
  Si  Si34  1  0.342132  0.964868  0.039292  1
  Au  Au35  1  0.163568  0.464077  0.539577  1
