# generated using pymatgen
data_Fe5SnP6(PbO12)2
_symmetry_space_group_name_H-M   'P 1'
_cell_length_a   9.37036119
_cell_length_b   9.36640049
_cell_length_c   9.37036184
_cell_angle_alpha   138.45594692
_cell_angle_beta   109.80130704
_cell_angle_gamma   85.01322320
_symmetry_Int_Tables_number   1
_chemical_formula_structural   Fe5SnP6(PbO12)2
_chemical_formula_sum   'Fe5 Sn1 P6 Pb2 O24'
_cell_volume   494.53344868
_cell_formula_units_Z   1
loop_
 _symmetry_equiv_pos_site_id
 _symmetry_equiv_pos_as_xyz
  1  'x, y, z'
loop_
 _atom_site_type_symbol
 _atom_site_label
 _atom_site_symmetry_multiplicity
 _atom_site_fract_x
 _atom_site_fract_y
 _atom_site_fract_z
 _atom_site_occupancy
  Fe  Fe0  1  0.620208  0.622443  0.506909  1
  Fe  Fe1  1  0.379792  0.377557  0.493091  1
  Fe  Fe2  1  0.115534  0.622443  0.002236  1
  Fe  Fe3  1  0.884466  0.377557  0.997764  1
  Fe  Fe4  1  0.000000  0.000000  0.000000  1
  Sn  Sn5  1  0.500000  0.500000  0.000000  1
  P  P6  1  0.322947  0.824109  0.999811  1
  P  P7  1  0.747870  0.649600  0.901730  1
  P  P8  1  0.175701  0.175891  0.498838  1
  P  P9  1  0.677053  0.175891  0.000189  1
  P  P10  1  0.252130  0.350400  0.098270  1
  P  P11  1  0.824299  0.824109  0.501162  1
  Pb  Pb12  1  0.753651  0.148321  0.394670  1
  Pb  Pb13  1  0.246349  0.851679  0.605330  1
  O  O14  1  0.574813  0.932195  0.779610  1
  O  O15  1  0.081944  0.299839  0.652439  1
  O  O16  1  0.832943  0.883198  0.050255  1
  O  O17  1  0.352600  0.700161  0.782105  1
  O  O18  1  0.143935  0.207568  0.351078  1
  O  O19  1  0.347514  0.317683  0.970168  1
  O  O20  1  0.636621  0.709857  0.348771  1
  O  O21  1  0.856065  0.792432  0.648922  1
  O  O22  1  0.366722  0.489459  0.354804  1
  O  O23  1  0.152585  0.932195  0.357381  1
  O  O24  1  0.638914  0.290143  0.926764  1
  O  O25  1  0.633278  0.510541  0.645196  1
  O  O26  1  0.856490  0.207568  0.063634  1
  O  O27  1  0.847415  0.067805  0.642619  1
  O  O28  1  0.361086  0.709857  0.073236  1
  O  O29  1  0.363379  0.290143  0.651229  1
  O  O30  1  0.652486  0.682317  0.029832  1
  O  O31  1  0.918056  0.700161  0.347561  1
  O  O32  1  0.167057  0.116801  0.949745  1
  O  O33  1  0.865345  0.510541  0.877263  1
  O  O34  1  0.134655  0.489459  0.122737  1
  O  O35  1  0.143510  0.792432  0.936366  1
  O  O36  1  0.647400  0.299839  0.217895  1
  O  O37  1  0.425187  0.067805  0.220390  1
