# generated using pymatgen
data_Sc8PtPb4Au7
_symmetry_space_group_name_H-M   'P 1'
_cell_length_a   7.90850449
_cell_length_b   7.90850033
_cell_length_c   6.83389417
_cell_angle_alpha   89.99508907
_cell_angle_beta   89.99474200
_cell_angle_gamma   89.80929526
_symmetry_Int_Tables_number   1
_chemical_formula_structural   Sc8PtPb4Au7
_chemical_formula_sum   'Sc8 Pt1 Pb4 Au7'
_cell_volume   427.41951063
_cell_formula_units_Z   1
loop_
 _symmetry_equiv_pos_site_id
 _symmetry_equiv_pos_as_xyz
  1  'x, y, z'
loop_
 _atom_site_type_symbol
 _atom_site_label
 _atom_site_symmetry_multiplicity
 _atom_site_fract_x
 _atom_site_fract_y
 _atom_site_fract_z
 _atom_site_occupancy
  Sc  Sc0  1  0.157177  0.157173  0.005676  1
  Sc  Sc1  1  0.850186  0.850187  0.999355  1
  Sc  Sc2  1  0.643954  0.344109  0.492894  1
  Sc  Sc3  1  0.344110  0.643957  0.492893  1
  Sc  Sc4  1  0.669526  0.321294  0.005491  1
  Sc  Sc5  1  0.321299  0.669522  0.005497  1
  Sc  Sc6  1  0.824780  0.824782  0.500724  1
  Sc  Sc7  1  0.182286  0.182288  0.494797  1
  Pt  Pt8  1  0.373296  0.373301  0.229451  1
  Pb  Pb9  1  0.498914  0.002439  0.248813  1
  Pb  Pb10  1  0.500232  0.996998  0.750726  1
  Pb  Pb11  1  0.002442  0.498915  0.248814  1
  Pb  Pb12  1  0.996997  0.500231  0.750729  1
  Au  Au13  1  0.628055  0.628054  0.774280  1
  Au  Au14  1  0.630798  0.630799  0.222315  1
  Au  Au15  1  0.873263  0.130704  0.723049  1
  Au  Au16  1  0.872035  0.128994  0.276636  1
  Au  Au17  1  0.370952  0.370953  0.778175  1
  Au  Au18  1  0.128992  0.872035  0.276637  1
  Au  Au19  1  0.130702  0.873264  0.723047  1
