# generated using pymatgen
data_LiNdCo3P3Rh
_symmetry_space_group_name_H-M   'P 1'
_cell_length_a   3.75294800
_cell_length_b   10.46742000
_cell_length_c   12.29908800
_cell_angle_alpha   90.00000000
_cell_angle_beta   90.00000000
_cell_angle_gamma   90.00000000
_symmetry_Int_Tables_number   1
_chemical_formula_structural   LiNdCo3P3Rh
_chemical_formula_sum   'Li4 Nd4 Co12 P12 Rh4'
_cell_volume   483.15347362
_cell_formula_units_Z   4
loop_
 _symmetry_equiv_pos_site_id
 _symmetry_equiv_pos_as_xyz
  1  'x, y, z'
loop_
 _atom_site_type_symbol
 _atom_site_label
 _atom_site_symmetry_multiplicity
 _atom_site_fract_x
 _atom_site_fract_y
 _atom_site_fract_z
 _atom_site_occupancy
  Li  Li0  1  0.250000  0.702621  0.992291  1
  Li  Li1  1  0.250000  0.797379  0.492291  1
  Li  Li2  1  0.750000  0.297379  0.007709  1
  Li  Li3  1  0.750000  0.202621  0.507709  1
  Nd  Nd4  1  0.250000  0.580837  0.706229  1
  Nd  Nd5  1  0.250000  0.919163  0.206229  1
  Nd  Nd6  1  0.750000  0.419163  0.293771  1
  Nd  Nd7  1  0.750000  0.080837  0.793771  1
  Co  Co8  1  0.250000  0.222149  0.177751  1
  Co  Co9  1  0.250000  0.277851  0.677751  1
  Co  Co10  1  0.750000  0.777851  0.822249  1
  Co  Co11  1  0.750000  0.722149  0.322249  1
  Co  Co12  1  0.250000  0.881710  0.695021  1
  Co  Co13  1  0.250000  0.618290  0.195021  1
  Co  Co14  1  0.750000  0.118290  0.304979  1
  Co  Co15  1  0.750000  0.381710  0.804979  1
  Co  Co16  1  0.250000  0.468324  0.934817  1
  Co  Co17  1  0.250000  0.031676  0.434817  1
  Co  Co18  1  0.750000  0.531676  0.065183  1
  Co  Co19  1  0.750000  0.968324  0.565183  1
  P  P20  1  0.250000  0.423647  0.111934  1
  P  P21  1  0.250000  0.076353  0.611934  1
  P  P22  1  0.750000  0.576353  0.888066  1
  P  P23  1  0.750000  0.923647  0.388066  1
  P  P24  1  0.250000  0.279729  0.858664  1
  P  P25  1  0.250000  0.220271  0.358664  1
  P  P26  1  0.750000  0.720271  0.141336  1
  P  P27  1  0.750000  0.779729  0.641336  1
  P  P28  1  0.250000  0.611248  0.381611  1
  P  P29  1  0.250000  0.888752  0.881611  1
  P  P30  1  0.750000  0.388752  0.618389  1
  P  P31  1  0.750000  0.111248  0.118389  1
  Rh  Rh32  1  0.250000  0.400014  0.486061  1
  Rh  Rh33  1  0.250000  0.099986  0.986061  1
  Rh  Rh34  1  0.750000  0.599986  0.513939  1
  Rh  Rh35  1  0.750000  0.900014  0.013939  1
