# generated using pymatgen
data_Li6MoO6
_symmetry_space_group_name_H-M   'P 1'
_cell_length_a   5.13186538
_cell_length_b   5.13186655
_cell_length_c   5.13186638
_cell_angle_alpha   100.67452441
_cell_angle_beta   100.67452550
_cell_angle_gamma   100.67453504
_symmetry_Int_Tables_number   1
_chemical_formula_structural   Li6MoO6
_chemical_formula_sum   'Li6 Mo1 O6'
_cell_volume   127.09847166
_cell_formula_units_Z   1
loop_
 _symmetry_equiv_pos_site_id
 _symmetry_equiv_pos_as_xyz
  1  'x, y, z'
loop_
 _atom_site_type_symbol
 _atom_site_label
 _atom_site_symmetry_multiplicity
 _atom_site_fract_x
 _atom_site_fract_y
 _atom_site_fract_z
 _atom_site_occupancy
  Li  Li0  1  0.912453  0.705301  0.406721  1
  Li  Li1  1  0.294699  0.593279  0.087547  1
  Li  Li2  1  0.593279  0.087547  0.294699  1
  Li  Li3  1  0.087547  0.294699  0.593279  1
  Li  Li4  1  0.705301  0.406721  0.912453  1
  Li  Li5  1  0.406721  0.912453  0.705301  1
  Mo  Mo6  1  0.000000  0.000000  0.000000  1
  O  O7  1  0.675654  0.779135  0.067746  1
  O  O8  1  0.220865  0.932254  0.324346  1
  O  O9  1  0.932254  0.324346  0.220865  1
  O  O10  1  0.324346  0.220865  0.932254  1
  O  O11  1  0.779135  0.067746  0.675654  1
  O  O12  1  0.067746  0.675654  0.779135  1
