# generated using pymatgen
data_Nd6Sn12IrRh
_symmetry_space_group_name_H-M   'P 1'
_cell_length_a   8.74420867
_cell_length_b   8.74420875
_cell_length_c   13.40246600
_cell_angle_alpha   90.00000000
_cell_angle_beta   90.00000000
_cell_angle_gamma   148.76910352
_symmetry_Int_Tables_number   1
_chemical_formula_structural   Nd6Sn12IrRh
_chemical_formula_sum   'Nd6 Sn12 Ir1 Rh1'
_cell_volume   531.33033128
_cell_formula_units_Z   1
loop_
 _symmetry_equiv_pos_site_id
 _symmetry_equiv_pos_as_xyz
  1  'x, y, z'
loop_
 _atom_site_type_symbol
 _atom_site_label
 _atom_site_symmetry_multiplicity
 _atom_site_fract_x
 _atom_site_fract_y
 _atom_site_fract_z
 _atom_site_occupancy
  Nd  Nd0  1  0.602080  0.397920  0.250000  1
  Nd  Nd1  1  0.397580  0.602420  0.750000  1
  Nd  Nd2  1  0.399884  0.600116  0.405621  1
  Nd  Nd3  1  0.600532  0.399468  0.595546  1
  Nd  Nd4  1  0.399884  0.600116  0.094379  1
  Nd  Nd5  1  0.600532  0.399468  0.904454  1
  Sn  Sn6  1  0.927163  0.072837  0.925054  1
  Sn  Sn7  1  0.072913  0.927087  0.075711  1
  Sn  Sn8  1  0.927163  0.072837  0.574946  1
  Sn  Sn9  1  0.072913  0.927087  0.424289  1
  Sn  Sn10  1  0.960010  0.039990  0.250000  1
  Sn  Sn11  1  0.039125  0.960875  0.750000  1
  Sn  Sn12  1  0.745039  0.254962  0.432665  1
  Sn  Sn13  1  0.254938  0.745062  0.566191  1
  Sn  Sn14  1  0.745039  0.254962  0.067335  1
  Sn  Sn15  1  0.254938  0.745062  0.933809  1
  Sn  Sn16  1  0.232461  0.767539  0.250000  1
  Sn  Sn17  1  0.768420  0.231580  0.750000  1
  Ir  Ir18  1  0.196634  0.803366  0.750000  1
  Rh  Rh19  1  0.802752  0.197248  0.250000  1
