# generated using pymatgen
data_Sm2HoCo8P6Ru
_symmetry_space_group_name_H-M   'P 1'
_cell_length_a   3.72731900
_cell_length_b   10.55358500
_cell_length_c   12.30627300
_cell_angle_alpha   90.00000000
_cell_angle_beta   90.00000000
_cell_angle_gamma   90.00000000
_symmetry_Int_Tables_number   1
_chemical_formula_structural   Sm2HoCo8P6Ru
_chemical_formula_sum   'Sm4 Ho2 Co16 P12 Ru2'
_cell_volume   484.08666638
_cell_formula_units_Z   2
loop_
 _symmetry_equiv_pos_site_id
 _symmetry_equiv_pos_as_xyz
  1  'x, y, z'
loop_
 _atom_site_type_symbol
 _atom_site_label
 _atom_site_symmetry_multiplicity
 _atom_site_fract_x
 _atom_site_fract_y
 _atom_site_fract_z
 _atom_site_occupancy
  Sm  Sm0  1  0.000000  0.500000  0.525101  1
  Sm  Sm1  1  0.500000  0.000000  0.476326  1
  Sm  Sm2  1  0.500000  0.816351  0.206454  1
  Sm  Sm3  1  0.500000  0.183649  0.206454  1
  Ho  Ho4  1  0.000000  0.682959  0.793526  1
  Ho  Ho5  1  0.000000  0.317041  0.793526  1
  Co  Co6  1  0.000000  0.500000  0.984432  1
  Co  Co7  1  0.500000  0.000000  0.011521  1
  Co  Co8  1  0.500000  0.297587  0.432128  1
  Co  Co9  1  0.500000  0.702413  0.432128  1
  Co  Co10  1  0.000000  0.203216  0.571187  1
  Co  Co11  1  0.000000  0.796784  0.571187  1
  Co  Co12  1  0.500000  0.879216  0.709799  1
  Co  Co13  1  0.500000  0.120784  0.709799  1
  Co  Co14  1  0.000000  0.619352  0.291847  1
  Co  Co15  1  0.000000  0.380648  0.291847  1
  Co  Co16  1  0.500000  0.333151  0.989354  1
  Co  Co17  1  0.500000  0.666849  0.989354  1
  Co  Co18  1  0.000000  0.168358  0.006949  1
  Co  Co19  1  0.000000  0.831642  0.006949  1
  Co  Co20  1  0.500000  0.500000  0.706279  1
  Co  Co21  1  0.000000  0.000000  0.294727  1
  P  P22  1  0.500000  0.309898  0.618193  1
  P  P23  1  0.500000  0.690102  0.618193  1
  P  P24  1  0.000000  0.191410  0.385596  1
  P  P25  1  0.000000  0.808590  0.385596  1
  P  P26  1  0.500000  0.500000  0.881664  1
  P  P27  1  0.000000  0.000000  0.114574  1
  P  P28  1  0.500000  0.845620  0.893088  1
  P  P29  1  0.500000  0.154380  0.893088  1
  P  P30  1  0.000000  0.651748  0.104433  1
  P  P31  1  0.000000  0.348252  0.104433  1
  P  P32  1  0.500000  0.500000  0.347974  1
  P  P33  1  0.000000  0.000000  0.652580  1
  Ru  Ru34  1  0.500000  0.500000  0.158525  1
  Ru  Ru35  1  0.000000  0.000000  0.841187  1
