# generated using pymatgen
data_Ni2Ag3RhO6
_symmetry_space_group_name_H-M   'P 1'
_cell_length_a   5.25183100
_cell_length_b   5.25183020
_cell_length_c   18.46964300
_cell_angle_alpha   90.00000000
_cell_angle_beta   90.00000000
_cell_angle_gamma   119.99998617
_symmetry_Int_Tables_number   1
_chemical_formula_structural   Ni2Ag3RhO6
_chemical_formula_sum   'Ni6 Ag9 Rh3 O18'
_cell_volume   441.17471267
_cell_formula_units_Z   3
loop_
 _symmetry_equiv_pos_site_id
 _symmetry_equiv_pos_as_xyz
  1  'x, y, z'
loop_
 _atom_site_type_symbol
 _atom_site_label
 _atom_site_symmetry_multiplicity
 _atom_site_fract_x
 _atom_site_fract_y
 _atom_site_fract_z
 _atom_site_occupancy
  Ni  Ni0  1  0.107108  0.892892  0.333333  1
  Ni  Ni1  1  0.107108  0.214215  0.666667  1
  Ni  Ni2  1  0.785785  0.892892  0.000000  1
  Ni  Ni3  1  0.773889  0.226111  0.333333  1
  Ni  Ni4  1  0.773889  0.547775  0.666667  1
  Ni  Ni5  1  0.452225  0.226111  0.000000  1
  Ag  Ag6  1  0.441808  0.220903  0.500000  1
  Ag  Ag7  1  0.779097  0.220903  0.833333  1
  Ag  Ag8  1  0.779097  0.558192  0.166667  1
  Ag  Ag9  1  0.111808  0.555904  0.500000  1
  Ag  Ag10  1  0.444096  0.555904  0.833333  1
  Ag  Ag11  1  0.444096  0.888192  0.166667  1
  Ag  Ag12  1  0.769270  0.884634  0.500000  1
  Ag  Ag13  1  0.115366  0.884634  0.833333  1
  Ag  Ag14  1  0.115366  0.230730  0.166667  1
  Rh  Rh15  1  0.440000  0.560000  0.333333  1
  Rh  Rh16  1  0.440000  0.879999  0.666667  1
  Rh  Rh17  1  0.120001  0.560000  0.000000  1
  O  O18  1  0.768009  0.559322  0.278247  1
  O  O19  1  0.440678  0.208687  0.611580  1
  O  O20  1  0.791313  0.231991  0.944914  1
  O  O21  1  0.768009  0.208687  0.721753  1
  O  O22  1  0.440678  0.231991  0.388420  1
  O  O23  1  0.791313  0.559322  0.055086  1
  O  O24  1  0.440450  0.887793  0.278261  1
  O  O25  1  0.112207  0.552656  0.611594  1
  O  O26  1  0.447344  0.559550  0.944928  1
  O  O27  1  0.440450  0.552656  0.721739  1
  O  O28  1  0.112207  0.559550  0.388406  1
  O  O29  1  0.447344  0.887793  0.055072  1
  O  O30  1  0.112284  0.231412  0.278306  1
  O  O31  1  0.768588  0.880871  0.611639  1
  O  O32  1  0.119129  0.887716  0.944972  1
  O  O33  1  0.112284  0.880871  0.721694  1
  O  O34  1  0.768588  0.887716  0.388361  1
  O  O35  1  0.119129  0.231412  0.055028  1
