# generated using pymatgen
data_Tm3Zr2Sn3O
_symmetry_space_group_name_H-M   'P 1'
_cell_length_a   8.68983200
_cell_length_b   8.68960280
_cell_length_c   6.00062800
_cell_angle_alpha   90.00000000
_cell_angle_beta   90.00000000
_cell_angle_gamma   119.99912664
_symmetry_Int_Tables_number   1
_chemical_formula_structural   Tm3Zr2Sn3O
_chemical_formula_sum   'Tm6 Zr4 Sn6 O2'
_cell_volume   392.41216602
_cell_formula_units_Z   2
loop_
 _symmetry_equiv_pos_site_id
 _symmetry_equiv_pos_as_xyz
  1  'x, y, z'
loop_
 _atom_site_type_symbol
 _atom_site_label
 _atom_site_symmetry_multiplicity
 _atom_site_fract_x
 _atom_site_fract_y
 _atom_site_fract_z
 _atom_site_occupancy
  Tm  Tm0  1  0.000000  0.773629  0.750000  1
  Tm  Tm1  1  0.000000  0.226432  0.250000  1
  Tm  Tm2  1  0.226375  0.226462  0.750000  1
  Tm  Tm3  1  0.226396  0.999987  0.250000  1
  Tm  Tm4  1  0.773604  0.773591  0.250000  1
  Tm  Tm5  1  0.773625  0.000087  0.750000  1
  Zr  Zr6  1  0.333328  0.666672  0.999973  1
  Zr  Zr7  1  0.333328  0.666672  0.500027  1
  Zr  Zr8  1  0.666672  0.333343  0.999973  1
  Zr  Zr9  1  0.666672  0.333343  0.500027  1
  Sn  Sn10  1  0.000000  0.596529  0.250000  1
  Sn  Sn11  1  0.000000  0.403399  0.750000  1
  Sn  Sn12  1  0.403442  0.403422  0.250000  1
  Sn  Sn13  1  0.596564  0.596537  0.750000  1
  Sn  Sn14  1  0.403436  0.999973  0.750000  1
  Sn  Sn15  1  0.596558  0.999980  0.250000  1
  O  O16  1  0.000000  0.999972  0.999978  1
  O  O17  1  0.000000  0.999972  0.500022  1
