# generated using pymatgen
data_Pd(Rh2S3)4
_symmetry_space_group_name_H-M   'P 1'
_cell_length_a   7.59246033
_cell_length_b   7.59407635
_cell_length_c   6.33881437
_cell_angle_alpha   77.08193261
_cell_angle_beta   77.07320563
_cell_angle_gamma   91.78295107
_symmetry_Int_Tables_number   1
_chemical_formula_structural   Pd(Rh2S3)4
_chemical_formula_sum   'Pd1 Rh8 S12'
_cell_volume   345.93517223
_cell_formula_units_Z   1
loop_
 _symmetry_equiv_pos_site_id
 _symmetry_equiv_pos_as_xyz
  1  'x, y, z'
loop_
 _atom_site_type_symbol
 _atom_site_label
 _atom_site_symmetry_multiplicity
 _atom_site_fract_x
 _atom_site_fract_y
 _atom_site_fract_z
 _atom_site_occupancy
  Pd  Pd0  1  0.775843  0.490977  0.452100  1
  Rh  Rh1  1  0.162461  0.840180  0.999718  1
  Rh  Rh2  1  0.839607  0.160265  0.999684  1
  Rh  Rh3  1  0.003163  0.001153  0.499077  1
  Rh  Rh4  1  0.348092  0.348576  0.947395  1
  Rh  Rh5  1  0.650270  0.649099  0.053345  1
  Rh  Rh6  1  0.506355  0.217433  0.550154  1
  Rh  Rh7  1  0.218177  0.510028  0.549164  1
  Rh  Rh8  1  0.489325  0.781390  0.452030  1
  S  S9  1  0.860251  0.440266  0.092815  1
  S  S10  1  0.559033  0.140489  0.900660  1
  S  S11  1  0.141924  0.559960  0.898203  1
  S  S12  1  0.440669  0.857377  0.101871  1
  S  S13  1  0.116448  0.116059  0.110048  1
  S  S14  1  0.884920  0.883754  0.889693  1
  S  S15  1  0.036410  0.719048  0.386390  1
  S  S16  1  0.288176  0.969550  0.611190  1
  S  S17  1  0.971762  0.281899  0.613747  1
  S  S18  1  0.576761  0.585606  0.734724  1
  S  S19  1  0.413859  0.415137  0.270663  1
  S  S20  1  0.716493  0.031755  0.387330  1
