# generated using pymatgen
data_LiDy16In3Ir4
_symmetry_space_group_name_H-M   'P 1'
_cell_length_a   9.65419447
_cell_length_b   9.65419470
_cell_length_c   9.65419467
_cell_angle_alpha   59.86753361
_cell_angle_beta   59.86753337
_cell_angle_gamma   59.86753473
_symmetry_Int_Tables_number   1
_chemical_formula_structural   LiDy16In3Ir4
_chemical_formula_sum   'Li1 Dy16 In3 Ir4'
_cell_volume   634.34536125
_cell_formula_units_Z   1
loop_
 _symmetry_equiv_pos_site_id
 _symmetry_equiv_pos_as_xyz
  1  'x, y, z'
loop_
 _atom_site_type_symbol
 _atom_site_label
 _atom_site_symmetry_multiplicity
 _atom_site_fract_x
 _atom_site_fract_y
 _atom_site_fract_z
 _atom_site_occupancy
  Li  Li0  1  0.821565  0.821565  0.821565  1
  Dy  Dy1  1  0.599300  0.599300  0.599300  1
  Dy  Dy2  1  0.598511  0.598511  0.204952  1
  Dy  Dy3  1  0.598511  0.204952  0.598511  1
  Dy  Dy4  1  0.204952  0.598511  0.598511  1
  Dy  Dy5  1  0.058398  0.441790  0.441790  1
  Dy  Dy6  1  0.437237  0.062028  0.062028  1
  Dy  Dy7  1  0.441790  0.058398  0.441790  1
  Dy  Dy8  1  0.062028  0.437237  0.062028  1
  Dy  Dy9  1  0.441790  0.441790  0.058398  1
  Dy  Dy10  1  0.062028  0.062028  0.437237  1
  Dy  Dy11  1  0.189001  0.811446  0.811446  1
  Dy  Dy12  1  0.810491  0.189201  0.189201  1
  Dy  Dy13  1  0.811446  0.189001  0.811446  1
  Dy  Dy14  1  0.189201  0.810491  0.189201  1
  Dy  Dy15  1  0.811446  0.811446  0.189001  1
  Dy  Dy16  1  0.189201  0.189201  0.810491  1
  In  In17  1  0.833002  0.833002  0.504405  1
  In  In18  1  0.833002  0.504405  0.833002  1
  In  In19  1  0.504405  0.833002  0.833002  1
  Ir  Ir20  1  0.392090  0.392090  0.392090  1
  Ir  Ir21  1  0.392252  0.392252  0.826102  1
  Ir  Ir22  1  0.392252  0.826102  0.392252  1
  Ir  Ir23  1  0.826102  0.392252  0.392252  1
