# generated using pymatgen
data_DyLu3Os7W
_symmetry_space_group_name_H-M   'P 1'
_cell_length_a   5.43491100
_cell_length_b   5.24187223
_cell_length_c   8.86451900
_cell_angle_alpha   90.00161581
_cell_angle_beta   90.00000000
_cell_angle_gamma   121.22586247
_symmetry_Int_Tables_number   1
_chemical_formula_structural   DyLu3Os7W
_chemical_formula_sum   'Dy1 Lu3 Os7 W1'
_cell_volume   215.95653954
_cell_formula_units_Z   1
loop_
 _symmetry_equiv_pos_site_id
 _symmetry_equiv_pos_as_xyz
  1  'x, y, z'
loop_
 _atom_site_type_symbol
 _atom_site_label
 _atom_site_symmetry_multiplicity
 _atom_site_fract_x
 _atom_site_fract_y
 _atom_site_fract_z
 _atom_site_occupancy
  Dy  Dy0  1  0.334255  0.668512  0.434154  1
  Lu  Lu1  1  0.671466  0.342932  0.563885  1
  Lu  Lu2  1  0.671373  0.342745  0.936669  1
  Lu  Lu3  1  0.333764  0.667530  0.065507  1
  Os  Os4  1  0.173713  0.824084  0.751291  1
  Os  Os5  1  0.339319  0.166030  0.248515  1
  Os  Os6  1  0.823312  0.646625  0.248618  1
  Os  Os7  1  0.650370  0.824084  0.751291  1
  Os  Os8  1  0.006230  0.012462  0.002822  1
  Os  Os9  1  0.826712  0.166030  0.248515  1
  Os  Os10  1  0.005850  0.011701  0.497627  1
  W  W11  1  0.163633  0.327267  0.751106  1
