# generated using pymatgen
data_Er16In5HgPt2
_symmetry_space_group_name_H-M   'P 1'
_cell_length_a   10.37834700
_cell_length_b   10.38511958
_cell_length_c   6.94644736
_cell_angle_alpha   90.03188429
_cell_angle_beta   90.00000000
_cell_angle_gamma   119.97842009
_symmetry_Int_Tables_number   1
_chemical_formula_structural   Er16In5HgPt2
_chemical_formula_sum   'Er16 In5 Hg1 Pt2'
_cell_volume   648.52597816
_cell_formula_units_Z   1
loop_
 _symmetry_equiv_pos_site_id
 _symmetry_equiv_pos_as_xyz
  1  'x, y, z'
loop_
 _atom_site_type_symbol
 _atom_site_label
 _atom_site_symmetry_multiplicity
 _atom_site_fract_x
 _atom_site_fract_y
 _atom_site_fract_z
 _atom_site_occupancy
  Er  Er0  1  0.531045  0.062091  0.795401  1
  Er  Er1  1  0.935794  0.470584  0.796283  1
  Er  Er2  1  0.534790  0.470584  0.796283  1
  Er  Er3  1  0.468585  0.937170  0.293611  1
  Er  Er4  1  0.063365  0.531071  0.295731  1
  Er  Er5  1  0.467707  0.531071  0.295731  1
  Er  Er6  1  0.824944  0.649888  0.492114  1
  Er  Er7  1  0.350930  0.175448  0.501502  1
  Er  Er8  1  0.824518  0.175448  0.501502  1
  Er  Er9  1  0.175013  0.350025  0.000809  1
  Er  Er10  1  0.653049  0.822298  0.002623  1
  Er  Er11  1  0.169251  0.822298  0.002623  1
  Er  Er12  1  0.668795  0.337589  0.168909  1
  Er  Er13  1  0.333426  0.666853  0.670387  1
  Er  Er14  1  0.999487  0.998975  0.775968  1
  Er  Er15  1  0.000299  0.000597  0.276173  1
  In  In16  1  0.325775  0.162658  0.037883  1
  In  In17  1  0.836881  0.162658  0.037883  1
  In  In18  1  0.162681  0.325362  0.538113  1
  In  In19  1  0.674738  0.837441  0.537950  1
  In  In20  1  0.162704  0.837441  0.537950  1
  Hg  Hg21  1  0.836098  0.672197  0.043480  1
  Pt  Pt22  1  0.666717  0.333434  0.568548  1
  Pt  Pt23  1  0.333408  0.666818  0.068443  1
