# generated using pymatgen
data_Dy2Sn2IrPt
_symmetry_space_group_name_H-M   'P 1'
_cell_length_a   7.59061100
_cell_length_b   7.59061079
_cell_length_c   7.82083100
_cell_angle_alpha   90.00000000
_cell_angle_beta   90.00000000
_cell_angle_gamma   119.99999657
_symmetry_Int_Tables_number   1
_chemical_formula_structural   Dy2Sn2IrPt
_chemical_formula_sum   'Dy6 Sn6 Ir3 Pt3'
_cell_volume   390.24469403
_cell_formula_units_Z   3
loop_
 _symmetry_equiv_pos_site_id
 _symmetry_equiv_pos_as_xyz
  1  'x, y, z'
loop_
 _atom_site_type_symbol
 _atom_site_label
 _atom_site_symmetry_multiplicity
 _atom_site_fract_x
 _atom_site_fract_y
 _atom_site_fract_z
 _atom_site_occupancy
  Dy  Dy0  1  0.405393  0.006625  0.247503  1
  Dy  Dy1  1  0.601232  0.594607  0.247503  1
  Dy  Dy2  1  0.993375  0.398768  0.247503  1
  Dy  Dy3  1  0.403584  0.002931  0.752483  1
  Dy  Dy4  1  0.599347  0.596416  0.752483  1
  Dy  Dy5  1  0.997069  0.400653  0.752483  1
  Sn  Sn6  1  0.262070  0.260215  0.999890  1
  Sn  Sn7  1  0.998145  0.737930  0.999890  1
  Sn  Sn8  1  0.002617  0.742303  0.499923  1
  Sn  Sn9  1  0.739686  0.997383  0.499923  1
  Sn  Sn10  1  0.257697  0.260314  0.499923  1
  Sn  Sn11  1  0.739785  0.001855  0.999890  1
  Ir  Ir12  1  0.000000  0.000000  0.750681  1
  Ir  Ir13  1  0.000000  0.000000  0.249061  1
  Ir  Ir14  1  0.666667  0.333333  0.997712  1
  Pt  Pt15  1  0.333333  0.666667  0.496663  1
  Pt  Pt16  1  0.333333  0.666667  0.003234  1
  Pt  Pt17  1  0.666667  0.333333  0.503260  1
