# generated using pymatgen
data_Tb5Er5(AlSb2)2
_symmetry_space_group_name_H-M   'P 1'
_cell_length_a   8.88638200
_cell_length_b   8.88305217
_cell_length_c   6.38903200
_cell_angle_alpha   90.00000000
_cell_angle_beta   90.00000000
_cell_angle_gamma   120.06395951
_symmetry_Int_Tables_number   1
_chemical_formula_structural   Tb5Er5(AlSb2)2
_chemical_formula_sum   'Tb5 Er5 Al2 Sb4'
_cell_volume   436.48831632
_cell_formula_units_Z   1
loop_
 _symmetry_equiv_pos_site_id
 _symmetry_equiv_pos_as_xyz
  1  'x, y, z'
loop_
 _atom_site_type_symbol
 _atom_site_label
 _atom_site_symmetry_multiplicity
 _atom_site_fract_x
 _atom_site_fract_y
 _atom_site_fract_z
 _atom_site_occupancy
  Tb  Tb0  1  0.008703  0.765584  0.750000  1
  Tb  Tb1  1  0.008493  0.242890  0.250000  1
  Tb  Tb2  1  0.755457  0.756566  0.250000  1
  Tb  Tb3  1  0.755055  0.998846  0.750000  1
  Tb  Tb4  1  0.241967  0.232489  0.750000  1
  Er  Er5  1  0.242585  0.009555  0.250000  1
  Er  Er6  1  0.335644  0.667883  0.499924  1
  Er  Er7  1  0.655944  0.327918  0.000088  1
  Er  Er8  1  0.655944  0.327918  0.499912  1
  Er  Er9  1  0.335644  0.667883  0.000076  1
  Al  Al10  1  0.398660  0.997082  0.750000  1
  Al  Al11  1  0.398221  0.400455  0.250000  1
  Sb  Sb12  1  0.999694  0.607144  0.250000  1
  Sb  Sb13  1  0.999042  0.393125  0.750000  1
  Sb  Sb14  1  0.604880  0.603869  0.750000  1
  Sb  Sb15  1  0.604069  0.000792  0.250000  1
