# generated using pymatgen
data_Ho2TmZr2Sb3
_symmetry_space_group_name_H-M   'P 1'
_cell_length_a   8.78261000
_cell_length_b   8.77456148
_cell_length_c   5.99308000
_cell_angle_alpha   90.00000000
_cell_angle_beta   90.00000000
_cell_angle_gamma   119.96969058
_symmetry_Int_Tables_number   1
_chemical_formula_structural   Ho2TmZr2Sb3
_chemical_formula_sum   'Ho4 Tm2 Zr4 Sb6'
_cell_volume   400.09422799
_cell_formula_units_Z   2
loop_
 _symmetry_equiv_pos_site_id
 _symmetry_equiv_pos_as_xyz
  1  'x, y, z'
loop_
 _atom_site_type_symbol
 _atom_site_label
 _atom_site_symmetry_multiplicity
 _atom_site_fract_x
 _atom_site_fract_y
 _atom_site_fract_z
 _atom_site_occupancy
  Ho  Ho0  1  0.999751  0.248153  0.250000  1
  Ho  Ho1  1  0.999751  0.751599  0.750000  1
  Ho  Ho2  1  0.249001  0.248962  0.750000  1
  Ho  Ho3  1  0.249001  0.000040  0.250000  1
  Tm  Tm4  1  0.751146  0.999705  0.750000  1
  Tm  Tm5  1  0.751146  0.751442  0.250000  1
  Zr  Zr6  1  0.332930  0.666465  0.000000  1
  Zr  Zr7  1  0.666850  0.333425  0.500000  1
  Zr  Zr8  1  0.666850  0.333425  0.000000  1
  Zr  Zr9  1  0.332930  0.666465  0.500000  1
  Sb  Sb10  1  0.394262  0.999951  0.750000  1
  Sb  Sb11  1  0.394262  0.394310  0.250000  1
  Sb  Sb12  1  0.999279  0.606658  0.250000  1
  Sb  Sb13  1  0.999279  0.392622  0.750000  1
  Sb  Sb14  1  0.606780  0.607504  0.750000  1
  Sb  Sb15  1  0.606780  0.999276  0.250000  1
