# generated using pymatgen
data_SmEu(Ga3Pt)2
_symmetry_space_group_name_H-M   'P 1'
_cell_length_a   6.12900207
_cell_length_b   6.12900293
_cell_length_c   5.90436000
_cell_angle_alpha   90.00000000
_cell_angle_beta   90.00000000
_cell_angle_gamma   117.74352929
_symmetry_Int_Tables_number   1
_chemical_formula_structural   SmEu(Ga3Pt)2
_chemical_formula_sum   'Sm1 Eu1 Ga6 Pt2'
_cell_volume   196.29779988
_cell_formula_units_Z   1
loop_
 _symmetry_equiv_pos_site_id
 _symmetry_equiv_pos_as_xyz
  1  'x, y, z'
loop_
 _atom_site_type_symbol
 _atom_site_label
 _atom_site_symmetry_multiplicity
 _atom_site_fract_x
 _atom_site_fract_y
 _atom_site_fract_z
 _atom_site_occupancy
  Sm  Sm0  1  0.228701  0.771299  0.750000  1
  Eu  Eu1  1  0.767467  0.232533  0.250000  1
  Ga  Ga2  1  0.663560  0.336440  0.750000  1
  Ga  Ga3  1  0.337573  0.662427  0.250000  1
  Ga  Ga4  1  0.719137  0.718789  0.999232  1
  Ga  Ga5  1  0.719137  0.718789  0.500768  1
  Ga  Ga6  1  0.281211  0.280863  0.999232  1
  Ga  Ga7  1  0.281211  0.280863  0.500768  1
  Pt  Pt8  1  0.898682  0.101318  0.750000  1
  Pt  Pt9  1  0.103321  0.896679  0.250000  1
