# generated using pymatgen
data_La8Nd12Si15Tc
_symmetry_space_group_name_H-M   'P 1'
_cell_length_a   7.95936665
_cell_length_b   7.95308353
_cell_length_c   15.27778200
_cell_angle_alpha   89.94236621
_cell_angle_beta   89.55260650
_cell_angle_gamma   90.04507207
_symmetry_Int_Tables_number   1
_chemical_formula_structural   La8Nd12Si15Tc
_chemical_formula_sum   'La8 Nd12 Si15 Tc1'
_cell_volume   967.07635931
_cell_formula_units_Z   1
loop_
 _symmetry_equiv_pos_site_id
 _symmetry_equiv_pos_as_xyz
  1  'x, y, z'
loop_
 _atom_site_type_symbol
 _atom_site_label
 _atom_site_symmetry_multiplicity
 _atom_site_fract_x
 _atom_site_fract_y
 _atom_site_fract_z
 _atom_site_occupancy
  La  La0  1  0.987498  0.623750  0.051897  1
  La  La1  1  0.015402  0.384106  0.544468  1
  La  La2  1  0.627542  0.987329  0.951441  1
  La  La3  1  0.127537  0.512545  0.799381  1
  La  La4  1  0.874165  0.488645  0.304538  1
  La  La5  1  0.510883  0.125116  0.198537  1
  La  La6  1  0.492758  0.876410  0.698940  1
  La  La7  1  0.374933  0.009459  0.450184  1
  Nd  Nd8  1  0.365603  0.488689  0.377255  1
  Nd  Nd9  1  0.873204  0.012019  0.376604  1
  Nd  Nd10  1  0.981521  0.129433  0.124283  1
  Nd  Nd11  1  0.022427  0.869722  0.620466  1
  Nd  Nd12  1  0.629273  0.518456  0.874103  1
  Nd  Nd13  1  0.487513  0.373187  0.626622  1
  Nd  Nd14  1  0.514067  0.629171  0.126084  1
  Nd  Nd15  1  0.126555  0.981227  0.875809  1
  Nd  Nd16  1  0.699182  0.690530  0.497528  1
  Nd  Nd17  1  0.812283  0.188339  0.748206  1
  Nd  Nd18  1  0.182667  0.804114  0.258158  1
  Nd  Nd19  1  0.302996  0.306672  0.998857  1
  Si  Si20  1  0.920609  0.287897  0.938370  1
  Si  Si21  1  0.710514  0.079090  0.560579  1
  Si  Si22  1  0.215343  0.419680  0.189634  1
  Si  Si23  1  0.791295  0.578693  0.690083  1
  Si  Si24  1  0.425200  0.213025  0.810436  1
  Si  Si25  1  0.573896  0.789064  0.309071  1
  Si  Si26  1  0.287861  0.923305  0.061144  1
  Si  Si27  1  0.836038  0.802749  0.798746  1
  Si  Si28  1  0.167564  0.197760  0.298802  1
  Si  Si29  1  0.797109  0.835812  0.199257  1
  Si  Si30  1  0.306388  0.668136  0.550994  1
  Si  Si31  1  0.695405  0.334646  0.047752  1
  Si  Si32  1  0.661439  0.299414  0.451010  1
  Si  Si33  1  0.331624  0.696290  0.952414  1
  Si  Si34  1  0.201763  0.169055  0.700456  1
  Tc  Tc35  1  0.069946  0.706466  0.437896  1
