# generated using pymatgen
data_La4Pr16Ir11Ru
_symmetry_space_group_name_H-M   'P 1'
_cell_length_a   11.34561800
_cell_length_b   11.37875400
_cell_length_c   6.62895500
_cell_angle_alpha   90.00000000
_cell_angle_beta   90.00000000
_cell_angle_gamma   89.99872419
_symmetry_Int_Tables_number   1
_chemical_formula_structural   La4Pr16Ir11Ru
_chemical_formula_sum   'La4 Pr16 Ir11 Ru1'
_cell_volume   855.79143625
_cell_formula_units_Z   1
loop_
 _symmetry_equiv_pos_site_id
 _symmetry_equiv_pos_as_xyz
  1  'x, y, z'
loop_
 _atom_site_type_symbol
 _atom_site_label
 _atom_site_symmetry_multiplicity
 _atom_site_fract_x
 _atom_site_fract_y
 _atom_site_fract_z
 _atom_site_occupancy
  La  La0  1  0.292786  0.089845  0.383254  1
  La  La1  1  0.293159  0.910147  0.886676  1
  La  La2  1  0.706841  0.089853  0.886676  1
  La  La3  1  0.707214  0.910155  0.383254  1
  Pr  Pr4  1  0.589319  0.790990  0.884254  1
  Pr  Pr5  1  0.589235  0.209195  0.381440  1
  Pr  Pr6  1  0.410765  0.790805  0.381440  1
  Pr  Pr7  1  0.410681  0.209010  0.884254  1
  Pr  Pr8  1  0.208477  0.410597  0.618617  1
  Pr  Pr9  1  0.208335  0.588915  0.118069  1
  Pr  Pr10  1  0.791665  0.411085  0.118069  1
  Pr  Pr11  1  0.791523  0.589403  0.618617  1
  Pr  Pr12  1  0.910444  0.708307  0.117624  1
  Pr  Pr13  1  0.910005  0.291573  0.618093  1
  Pr  Pr14  1  0.089995  0.708427  0.618093  1
  Pr  Pr15  1  0.089556  0.291693  0.117624  1
  Pr  Pr16  1  0.000000  0.000000  0.498331  1
  Pr  Pr17  1  0.000000  0.000000  0.998078  1
  Pr  Pr18  1  0.500000  0.500000  0.999411  1
  Pr  Pr19  1  0.500000  0.500000  0.499568  1
  Ir  Ir20  1  0.845878  0.154128  0.248150  1
  Ir  Ir21  1  0.845817  0.846308  0.747829  1
  Ir  Ir22  1  0.154183  0.153692  0.747829  1
  Ir  Ir23  1  0.154122  0.845872  0.248150  1
  Ir  Ir24  1  0.654039  0.346553  0.749595  1
  Ir  Ir25  1  0.654387  0.653525  0.249950  1
  Ir  Ir26  1  0.345613  0.346475  0.249950  1
  Ir  Ir27  1  0.345961  0.653447  0.749595  1
  Ir  Ir28  1  0.500000  0.000000  0.617203  1
  Ir  Ir29  1  0.000000  0.500000  0.882496  1
  Ir  Ir30  1  0.000000  0.500000  0.383013  1
  Ru  Ru31  1  0.500000  0.000000  0.114803  1
