# generated using pymatgen
data_SmHo3SiBr6
_symmetry_space_group_name_H-M   'P 1'
_cell_length_a   4.06890500
_cell_length_b   13.29797897
_cell_length_c   14.06115433
_cell_angle_alpha   90.38165390
_cell_angle_beta   90.00000000
_cell_angle_gamma   90.00000000
_symmetry_Int_Tables_number   1
_chemical_formula_structural   SmHo3SiBr6
_chemical_formula_sum   'Sm2 Ho6 Si2 Br12'
_cell_volume   760.80705615
_cell_formula_units_Z   2
loop_
 _symmetry_equiv_pos_site_id
 _symmetry_equiv_pos_as_xyz
  1  'x, y, z'
loop_
 _atom_site_type_symbol
 _atom_site_label
 _atom_site_symmetry_multiplicity
 _atom_site_fract_x
 _atom_site_fract_y
 _atom_site_fract_z
 _atom_site_occupancy
  Sm  Sm0  1  0.000000  0.620251  0.919981  1
  Sm  Sm1  1  0.000000  0.379749  0.080019  1
  Ho  Ho2  1  0.500000  0.117240  0.342151  1
  Ho  Ho3  1  0.500000  0.882760  0.657849  1
  Ho  Ho4  1  0.500000  0.618089  0.158671  1
  Ho  Ho5  1  0.500000  0.381911  0.841329  1
  Ho  Ho6  1  0.000000  0.117022  0.577919  1
  Ho  Ho7  1  0.000000  0.882978  0.422081  1
  Si  Si8  1  0.500000  0.000000  0.500000  1
  Si  Si9  1  0.500000  0.500000  0.000000  1
  Br  Br10  1  0.500000  0.239263  0.166702  1
  Br  Br11  1  0.500000  0.760737  0.833298  1
  Br  Br12  1  0.500000  0.746352  0.337383  1
  Br  Br13  1  0.500000  0.253648  0.662617  1
  Br  Br14  1  0.000000  0.253403  0.411733  1
  Br  Br15  1  0.000000  0.746597  0.588267  1
  Br  Br16  1  0.000000  0.755236  0.092840  1
  Br  Br17  1  0.000000  0.244764  0.907160  1
  Br  Br18  1  0.000000  0.001836  0.244848  1
  Br  Br19  1  0.000000  0.998164  0.755152  1
  Br  Br20  1  0.000000  0.506309  0.258585  1
  Br  Br21  1  0.000000  0.493691  0.741415  1
