# generated using pymatgen
data_DyY16Er3Sn16
_symmetry_space_group_name_H-M   'P 1'
_cell_length_a   8.03160765
_cell_length_b   8.17299203
_cell_length_c   15.47592433
_cell_angle_alpha   90.00291158
_cell_angle_beta   89.99329763
_cell_angle_gamma   90.01109264
_symmetry_Int_Tables_number   1
_chemical_formula_structural   DyY16Er3Sn16
_chemical_formula_sum   'Dy1 Y16 Er3 Sn16'
_cell_volume   1015.87470326
_cell_formula_units_Z   1
loop_
 _symmetry_equiv_pos_site_id
 _symmetry_equiv_pos_as_xyz
  1  'x, y, z'
loop_
 _atom_site_type_symbol
 _atom_site_label
 _atom_site_symmetry_multiplicity
 _atom_site_fract_x
 _atom_site_fract_y
 _atom_site_fract_z
 _atom_site_occupancy
  Dy  Dy0  1  0.020925  0.179545  0.902526  1
  Y  Y1  1  0.367811  0.836359  0.877825  1
  Y  Y2  1  0.867559  0.663984  0.622060  1
  Y  Y3  1  0.632201  0.163794  0.377802  1
  Y  Y4  1  0.132275  0.336155  0.122238  1
  Y  Y5  1  0.632304  0.163806  0.122218  1
  Y  Y6  1  0.132202  0.336186  0.377745  1
  Y  Y7  1  0.367918  0.836325  0.622107  1
  Y  Y8  1  0.867517  0.663906  0.877864  1
  Y  Y9  1  0.521514  0.320372  0.902549  1
  Y  Y10  1  0.021354  0.179482  0.597487  1
  Y  Y11  1  0.478580  0.679595  0.402459  1
  Y  Y12  1  0.978636  0.820432  0.097519  1
  Y  Y13  1  0.478648  0.679589  0.097543  1
  Y  Y14  1  0.978580  0.820472  0.402492  1
  Y  Y15  1  0.521508  0.320363  0.597386  1
  Y  Y16  1  0.198300  0.502782  0.749974  1
  Er  Er17  1  0.698487  0.996942  0.749930  1
  Er  Er18  1  0.801604  0.497038  0.250090  1
  Er  Er19  1  0.301613  0.002992  0.250065  1
  Sn  Sn20  1  0.292720  0.035530  0.041934  1
  Sn  Sn21  1  0.792761  0.464443  0.458040  1
  Sn  Sn22  1  0.707297  0.964592  0.541986  1
  Sn  Sn23  1  0.207183  0.535695  0.958501  1
  Sn  Sn24  1  0.707274  0.964379  0.958053  1
  Sn  Sn25  1  0.207220  0.535671  0.541532  1
  Sn  Sn26  1  0.292772  0.035622  0.458050  1
  Sn  Sn27  1  0.792911  0.464317  0.041887  1
  Sn  Sn28  1  0.565703  0.618596  0.750012  1
  Sn  Sn29  1  0.064554  0.882245  0.750107  1
  Sn  Sn30  1  0.435246  0.381959  0.249990  1
  Sn  Sn31  1  0.935198  0.118042  0.249987  1
  Sn  Sn32  1  0.330300  0.147070  0.750058  1
  Sn  Sn33  1  0.829415  0.351540  0.750032  1
  Sn  Sn34  1  0.670001  0.851903  0.249968  1
  Sn  Sn35  1  0.169909  0.648279  0.249988  1
