# generated using pymatgen
data_Y20TlCd3(FeAg)2
_symmetry_space_group_name_H-M   'P 1'
_cell_length_a   9.69837373
_cell_length_b   9.69837500
_cell_length_c   9.72197100
_cell_angle_alpha   90.00000000
_cell_angle_beta   90.00000000
_cell_angle_gamma   120.20027871
_symmetry_Int_Tables_number   1
_chemical_formula_structural   Y20TlCd3(FeAg)2
_chemical_formula_sum   'Y20 Tl1 Cd3 Fe2 Ag2'
_cell_volume   790.31974349
_cell_formula_units_Z   1
loop_
 _symmetry_equiv_pos_site_id
 _symmetry_equiv_pos_as_xyz
  1  'x, y, z'
loop_
 _atom_site_type_symbol
 _atom_site_label
 _atom_site_symmetry_multiplicity
 _atom_site_fract_x
 _atom_site_fract_y
 _atom_site_fract_z
 _atom_site_occupancy
  Y  Y0  1  0.006322  0.993678  0.485699  1
  Y  Y1  1  0.006322  0.993678  0.014301  1
  Y  Y2  1  0.537417  0.462583  0.250000  1
  Y  Y3  1  0.533619  0.087616  0.250000  1
  Y  Y4  1  0.912384  0.466381  0.250000  1
  Y  Y5  1  0.455489  0.544511  0.750000  1
  Y  Y6  1  0.460122  0.919698  0.750000  1
  Y  Y7  1  0.080302  0.539878  0.750000  1
  Y  Y8  1  0.214413  0.785587  0.436342  1
  Y  Y9  1  0.208683  0.422451  0.435615  1
  Y  Y10  1  0.577549  0.791317  0.435615  1
  Y  Y11  1  0.788340  0.211660  0.561850  1
  Y  Y12  1  0.785782  0.575061  0.564601  1
  Y  Y13  1  0.424939  0.214218  0.564601  1
  Y  Y14  1  0.788340  0.211660  0.938150  1
  Y  Y15  1  0.785782  0.575061  0.935399  1
  Y  Y16  1  0.424939  0.214218  0.935399  1
  Y  Y17  1  0.214413  0.785587  0.063658  1
  Y  Y18  1  0.208683  0.422451  0.064385  1
  Y  Y19  1  0.577549  0.791317  0.064385  1
  Tl  Tl20  1  0.879359  0.120641  0.250000  1
  Cd  Cd21  1  0.113680  0.886320  0.750000  1
  Cd  Cd22  1  0.111527  0.222884  0.750000  1
  Cd  Cd23  1  0.777116  0.888473  0.750000  1
  Fe  Fe24  1  0.336935  0.663065  0.250000  1
  Fe  Fe25  1  0.668886  0.331114  0.750000  1
  Ag  Ag26  1  0.879749  0.758642  0.250000  1
  Ag  Ag27  1  0.241358  0.120251  0.250000  1
