# generated using pymatgen
data_Tb9Lu(GePb3)2
_symmetry_space_group_name_H-M   'P 1'
_cell_length_a   9.35895900
_cell_length_b   9.35898776
_cell_length_c   6.60104300
_cell_angle_alpha   90.00000000
_cell_angle_beta   90.00000000
_cell_angle_gamma   120.00009982
_symmetry_Int_Tables_number   1
_chemical_formula_structural   Tb9Lu(GePb3)2
_chemical_formula_sum   'Tb9 Lu1 Ge2 Pb6'
_cell_volume   500.72489090
_cell_formula_units_Z   1
loop_
 _symmetry_equiv_pos_site_id
 _symmetry_equiv_pos_as_xyz
  1  'x, y, z'
loop_
 _atom_site_type_symbol
 _atom_site_label
 _atom_site_symmetry_multiplicity
 _atom_site_fract_x
 _atom_site_fract_y
 _atom_site_fract_z
 _atom_site_occupancy
  Tb  Tb0  1  0.251615  0.999743  0.250093  1
  Tb  Tb1  1  0.748128  0.999743  0.749907  1
  Tb  Tb2  1  0.000257  0.251871  0.250093  1
  Tb  Tb3  1  0.000257  0.748386  0.749907  1
  Tb  Tb4  1  0.748129  0.748386  0.250093  1
  Tb  Tb5  1  0.251614  0.251871  0.749907  1
  Tb  Tb6  1  0.666667  0.333333  0.000000  1
  Tb  Tb7  1  0.666667  0.333333  0.500000  1
  Tb  Tb8  1  0.333333  0.666667  0.500000  1
  Lu  Lu9  1  0.333333  0.666667  0.000000  1
  Ge  Ge10  1  0.000000  0.000000  0.000000  1
  Ge  Ge11  1  0.000000  0.000000  0.500000  1
  Pb  Pb12  1  0.605736  0.999476  0.249396  1
  Pb  Pb13  1  0.393739  0.999476  0.750604  1
  Pb  Pb14  1  0.000524  0.606262  0.249396  1
  Pb  Pb15  1  0.000524  0.394263  0.750604  1
  Pb  Pb16  1  0.393739  0.394264  0.249396  1
  Pb  Pb17  1  0.605736  0.606261  0.750604  1
