# generated using pymatgen
data_Dy16In6IrRh
_symmetry_space_group_name_H-M   'P 1'
_cell_length_a   10.42891200
_cell_length_b   10.42891187
_cell_length_c   7.04755000
_cell_angle_alpha   90.00000000
_cell_angle_beta   90.00000000
_cell_angle_gamma   120.00000675
_symmetry_Int_Tables_number   1
_chemical_formula_structural   Dy16In6IrRh
_chemical_formula_sum   'Dy16 In6 Ir1 Rh1'
_cell_volume   663.81455132
_cell_formula_units_Z   1
loop_
 _symmetry_equiv_pos_site_id
 _symmetry_equiv_pos_as_xyz
  1  'x, y, z'
loop_
 _atom_site_type_symbol
 _atom_site_label
 _atom_site_symmetry_multiplicity
 _atom_site_fract_x
 _atom_site_fract_y
 _atom_site_fract_z
 _atom_site_occupancy
  Dy  Dy0  1  0.533279  0.066556  0.513447  1
  Dy  Dy1  1  0.933444  0.466721  0.513447  1
  Dy  Dy2  1  0.533279  0.466721  0.513447  1
  Dy  Dy3  1  0.466951  0.933904  0.014177  1
  Dy  Dy4  1  0.066096  0.533049  0.014177  1
  Dy  Dy5  1  0.466951  0.533049  0.014177  1
  Dy  Dy6  1  0.175873  0.351747  0.721315  1
  Dy  Dy7  1  0.648253  0.824127  0.721315  1
  Dy  Dy8  1  0.175873  0.824127  0.721315  1
  Dy  Dy9  1  0.823849  0.647699  0.221717  1
  Dy  Dy10  1  0.352301  0.176151  0.221717  1
  Dy  Dy11  1  0.823849  0.176151  0.221717  1
  Dy  Dy12  1  0.666667  0.333333  0.894656  1
  Dy  Dy13  1  0.333333  0.666667  0.394741  1
  Dy  Dy14  1  0.000000  0.000000  0.500593  1
  Dy  Dy15  1  0.000000  0.000000  0.000515  1
  In  In16  1  0.836989  0.673977  0.760563  1
  In  In17  1  0.326023  0.163011  0.760563  1
  In  In18  1  0.836989  0.163011  0.760563  1
  In  In19  1  0.163100  0.326199  0.260444  1
  In  In20  1  0.673801  0.836900  0.260444  1
  In  In21  1  0.163100  0.836900  0.260444  1
  Ir  Ir22  1  0.666667  0.333333  0.289916  1
  Rh  Rh23  1  0.333333  0.666667  0.788795  1
