# generated using pymatgen
data_Ca4TaV3(SiO5)4
_symmetry_space_group_name_H-M   'P 1'
_cell_length_a   5.52517553
_cell_length_b   7.56313793
_cell_length_c   10.07171034
_cell_angle_alpha   75.17448595
_cell_angle_beta   91.48225396
_cell_angle_gamma   72.44014568
_symmetry_Int_Tables_number   1
_chemical_formula_structural   Ca4TaV3(SiO5)4
_chemical_formula_sum   'Ca4 Ta1 V3 Si4 O20'
_cell_volume   385.47034986
_cell_formula_units_Z   1
loop_
 _symmetry_equiv_pos_site_id
 _symmetry_equiv_pos_as_xyz
  1  'x, y, z'
loop_
 _atom_site_type_symbol
 _atom_site_label
 _atom_site_symmetry_multiplicity
 _atom_site_fract_x
 _atom_site_fract_y
 _atom_site_fract_z
 _atom_site_occupancy
  Ca  Ca0  1  0.130883  0.535682  0.208922  1
  Ca  Ca1  1  0.612663  0.061318  0.723526  1
  Ca  Ca2  1  0.887277  0.438628  0.776467  1
  Ca  Ca3  1  0.369154  0.964408  0.291092  1
  Ta  Ta4  1  0.249913  0.750011  0.750033  1
  V  V5  1  0.493982  0.501980  0.492870  1
  V  V6  1  0.005948  0.998161  0.007208  1
  V  V7  1  0.750036  0.250093  0.250107  1
  Si  Si8  1  0.605763  0.714212  0.038799  1
  Si  Si9  1  0.098576  0.221967  0.533393  1
  Si  Si10  1  0.401464  0.277968  0.966608  1
  Si  Si11  1  0.894257  0.785772  0.461189  1
  O  O12  1  0.516492  0.410305  0.349236  1
  O  O13  1  0.012839  0.908990  0.843502  1
  O  O14  1  0.487083  0.590904  0.656534  1
  O  O15  1  0.983570  0.089795  0.150792  1
  O  O16  1  0.793149  0.827389  0.080760  1
  O  O17  1  0.277632  0.336120  0.585286  1
  O  O18  1  0.222407  0.163821  0.914666  1
  O  O19  1  0.706710  0.672705  0.419278  1
  O  O20  1  0.767461  0.486423  0.108706  1
  O  O21  1  0.264247  0.990394  0.611259  1
  O  O22  1  0.235733  0.509516  0.888668  1
  O  O23  1  0.732684  0.013545  0.391225  1
  O  O24  1  0.554895  0.752966  0.867100  1
  O  O25  1  0.070331  0.249494  0.366494  1
  O  O26  1  0.429841  0.250489  0.133494  1
  O  O27  1  0.945023  0.747098  0.632863  1
  O  O28  1  0.327189  0.778473  0.099311  1
  O  O29  1  0.823073  0.280971  0.598732  1
  O  O30  1  0.676959  0.218968  0.901232  1
  O  O31  1  0.172768  0.721437  0.400648  1
