# generated using pymatgen
data_Zr4Hg2IrPd3
_symmetry_space_group_name_H-M   'P 1'
_cell_length_a   7.59800215
_cell_length_b   7.59800293
_cell_length_c   6.77517234
_cell_angle_alpha   90.22930755
_cell_angle_beta   89.77068972
_cell_angle_gamma   89.73736899
_symmetry_Int_Tables_number   1
_chemical_formula_structural   Zr4Hg2IrPd3
_chemical_formula_sum   'Zr8 Hg4 Ir2 Pd6'
_cell_volume   391.11787463
_cell_formula_units_Z   2
loop_
 _symmetry_equiv_pos_site_id
 _symmetry_equiv_pos_as_xyz
  1  'x, y, z'
loop_
 _atom_site_type_symbol
 _atom_site_label
 _atom_site_symmetry_multiplicity
 _atom_site_fract_x
 _atom_site_fract_y
 _atom_site_fract_z
 _atom_site_occupancy
  Zr  Zr0  1  0.654325  0.654325  0.500000  1
  Zr  Zr1  1  0.811444  0.188556  0.494417  1
  Zr  Zr2  1  0.679503  0.679503  0.000000  1
  Zr  Zr3  1  0.840035  0.159965  0.008394  1
  Zr  Zr4  1  0.188556  0.811444  0.505583  1
  Zr  Zr5  1  0.320497  0.320497  0.000000  1
  Zr  Zr6  1  0.159965  0.840035  0.991606  1
  Zr  Zr7  1  0.345675  0.345675  0.500000  1
  Hg  Hg8  1  0.002900  0.500272  0.250978  1
  Hg  Hg9  1  0.500272  0.002900  0.749022  1
  Hg  Hg10  1  0.499728  0.997100  0.250978  1
  Hg  Hg11  1  0.997100  0.499728  0.749022  1
  Ir  Ir12  1  0.624517  0.375483  0.230588  1
  Ir  Ir13  1  0.375483  0.624517  0.769412  1
  Pd  Pd14  1  0.872774  0.872760  0.721508  1
  Pd  Pd15  1  0.633582  0.366418  0.784305  1
  Pd  Pd16  1  0.366418  0.633582  0.215695  1
  Pd  Pd17  1  0.127226  0.127240  0.278492  1
  Pd  Pd18  1  0.872760  0.872774  0.278492  1
  Pd  Pd19  1  0.127240  0.127226  0.721508  1
