# generated using pymatgen
data_La20Co4Si5As3
_symmetry_space_group_name_H-M   'P 1'
_cell_length_a   7.99376208
_cell_length_b   8.74269335
_cell_length_c   12.34982600
_cell_angle_alpha   90.15547689
_cell_angle_beta   90.11842970
_cell_angle_gamma   89.89656506
_symmetry_Int_Tables_number   1
_chemical_formula_structural   La20Co4Si5As3
_chemical_formula_sum   'La20 Co4 Si5 As3'
_cell_volume   863.08600043
_cell_formula_units_Z   1
loop_
 _symmetry_equiv_pos_site_id
 _symmetry_equiv_pos_as_xyz
  1  'x, y, z'
loop_
 _atom_site_type_symbol
 _atom_site_label
 _atom_site_symmetry_multiplicity
 _atom_site_fract_x
 _atom_site_fract_y
 _atom_site_fract_z
 _atom_site_occupancy
  La  La0  1  0.160708  0.752851  0.211693  1
  La  La1  1  0.660700  0.248232  0.289826  1
  La  La2  1  0.838984  0.251370  0.787157  1
  La  La3  1  0.338086  0.748881  0.711660  1
  La  La4  1  0.458612  0.751097  0.997493  1
  La  La5  1  0.959406  0.246886  0.503976  1
  La  La6  1  0.542949  0.249779  0.002525  1
  La  La7  1  0.044550  0.752734  0.498428  1
  La  La8  1  0.641403  0.751984  0.294684  1
  La  La9  1  0.140359  0.247146  0.204876  1
  La  La10  1  0.357771  0.249876  0.705997  1
  La  La11  1  0.861931  0.749319  0.793835  1
  La  La12  1  0.815028  0.966003  0.069771  1
  La  La13  1  0.318843  0.034830  0.431906  1
  La  La14  1  0.183837  0.470797  0.930276  1
  La  La15  1  0.682148  0.528265  0.569534  1
  La  La16  1  0.177753  0.033097  0.932395  1
  La  La17  1  0.682086  0.967396  0.565911  1
  La  La18  1  0.818528  0.529313  0.064580  1
  La  La19  1  0.316201  0.472179  0.435202  1
  Co  Co20  1  0.421757  0.747701  0.481063  1
  Co  Co21  1  0.922084  0.251227  0.016905  1
  Co  Co22  1  0.578811  0.253199  0.519334  1
  Co  Co23  1  0.078451  0.746495  0.982464  1
  Si  Si24  1  0.932336  0.996164  0.328564  1
  Si  Si25  1  0.433424  0.004005  0.170631  1
  Si  Si26  1  0.068321  0.495720  0.669976  1
  Si  Si27  1  0.567525  0.504613  0.829960  1
  Si  Si28  1  0.065971  0.003722  0.671306  1
  As  As29  1  0.566992  0.995715  0.828157  1
  As  As30  1  0.932366  0.503937  0.327230  1
  As  As31  1  0.432081  0.495462  0.172687  1
