# generated using pymatgen
data_Dy5Y11MgIn3Rh4
_symmetry_space_group_name_H-M   'P 1'
_cell_length_a   9.71042484
_cell_length_b   9.71486756
_cell_length_c   9.69592109
_cell_angle_alpha   60.01577443
_cell_angle_beta   59.95974212
_cell_angle_gamma   60.02557339
_symmetry_Int_Tables_number   1
_chemical_formula_structural   Dy5Y11MgIn3Rh4
_chemical_formula_sum   'Dy5 Y11 Mg1 In3 Rh4'
_cell_volume   646.77382165
_cell_formula_units_Z   1
loop_
 _symmetry_equiv_pos_site_id
 _symmetry_equiv_pos_as_xyz
  1  'x, y, z'
loop_
 _atom_site_type_symbol
 _atom_site_label
 _atom_site_symmetry_multiplicity
 _atom_site_fract_x
 _atom_site_fract_y
 _atom_site_fract_z
 _atom_site_occupancy
  Dy  Dy0  1  0.937252  0.564553  0.934445  1
  Dy  Dy1  1  0.149891  0.544872  0.149424  1
  Dy  Dy2  1  0.310634  0.690866  0.692312  1
  Dy  Dy3  1  0.690974  0.310799  0.691700  1
  Dy  Dy4  1  0.545143  0.149938  0.149454  1
  Y  Y5  1  0.689800  0.311452  0.311330  1
  Y  Y6  1  0.688436  0.687999  0.315044  1
  Y  Y7  1  0.311766  0.689418  0.310855  1
  Y  Y8  1  0.935081  0.934489  0.563878  1
  Y  Y9  1  0.146801  0.147042  0.553594  1
  Y  Y10  1  0.561299  0.938144  0.561052  1
  Y  Y11  1  0.153601  0.154034  0.151136  1
  Y  Y12  1  0.309519  0.309425  0.691082  1
  Y  Y13  1  0.938142  0.561667  0.561368  1
  Y  Y14  1  0.561759  0.561383  0.938031  1
  Y  Y15  1  0.564923  0.936731  0.934474  1
  Mg  Mg16  1  0.924075  0.924228  0.229952  1
  In  In17  1  0.249260  0.916735  0.919180  1
  In  In18  1  0.916371  0.248849  0.919878  1
  In  In19  1  0.916042  0.916510  0.918249  1
  Rh  Rh20  1  0.356152  0.356825  0.356788  1
  Rh  Rh21  1  0.925468  0.358162  0.360823  1
  Rh  Rh22  1  0.359965  0.360946  0.924182  1
  Rh  Rh23  1  0.357647  0.924935  0.361772  1
