# generated using pymatgen
data_Ho6Tm7Lu3(CdIr)4
_symmetry_space_group_name_H-M   'P 1'
_cell_length_a   9.53312214
_cell_length_b   9.54031087
_cell_length_c   9.52897416
_cell_angle_alpha   59.99004973
_cell_angle_beta   59.94200840
_cell_angle_gamma   59.94706640
_symmetry_Int_Tables_number   1
_chemical_formula_structural   Ho6Tm7Lu3(CdIr)4
_chemical_formula_sum   'Ho6 Tm7 Lu3 Cd4 Ir4'
_cell_volume   612.25400334
_cell_formula_units_Z   1
loop_
 _symmetry_equiv_pos_site_id
 _symmetry_equiv_pos_as_xyz
  1  'x, y, z'
loop_
 _atom_site_type_symbol
 _atom_site_label
 _atom_site_symmetry_multiplicity
 _atom_site_fract_x
 _atom_site_fract_y
 _atom_site_fract_z
 _atom_site_occupancy
  Ho  Ho0  1  0.189057  0.810891  0.811155  1
  Ho  Ho1  1  0.811152  0.188887  0.189063  1
  Ho  Ho2  1  0.811059  0.188936  0.811070  1
  Ho  Ho3  1  0.188967  0.811039  0.188964  1
  Ho  Ho4  1  0.811172  0.810928  0.189061  1
  Ho  Ho5  1  0.189074  0.188843  0.811161  1
  Tm  Tm6  1  0.598867  0.598497  0.599190  1
  Tm  Tm7  1  0.599435  0.598706  0.202873  1
  Tm  Tm8  1  0.599177  0.203454  0.598869  1
  Tm  Tm9  1  0.202884  0.598980  0.599430  1
  Tm  Tm10  1  0.061107  0.438805  0.438107  1
  Tm  Tm11  1  0.438115  0.061974  0.061105  1
  Tm  Tm12  1  0.438598  0.061402  0.438604  1
  Lu  Lu13  1  0.061672  0.438328  0.061679  1
  Lu  Lu14  1  0.438161  0.438841  0.061052  1
  Lu  Lu15  1  0.061046  0.061948  0.438161  1
  Cd  Cd16  1  0.830649  0.830652  0.830567  1
  Cd  Cd17  1  0.830750  0.830828  0.507685  1
  Cd  Cd18  1  0.830559  0.508132  0.830648  1
  Cd  Cd19  1  0.507692  0.830733  0.830742  1
  Ir  Ir20  1  0.392052  0.391481  0.391460  1
  Ir  Ir21  1  0.391636  0.391664  0.825661  1
  Ir  Ir22  1  0.391447  0.825011  0.392064  1
  Ir  Ir23  1  0.825674  0.391038  0.391630  1
