# generated using pymatgen
data_Y5IrRu
_symmetry_space_group_name_H-M   'P 1'
_cell_length_a   6.44859521
_cell_length_b   7.30828716
_cell_length_c   8.55711569
_cell_angle_alpha   96.56091517
_cell_angle_beta   112.13544111
_cell_angle_gamma   89.99999830
_symmetry_Int_Tables_number   1
_chemical_formula_structural   Y5IrRu
_chemical_formula_sum   'Y10 Ir2 Ru2'
_cell_volume   370.70496185
_cell_formula_units_Z   2
loop_
 _symmetry_equiv_pos_site_id
 _symmetry_equiv_pos_as_xyz
  1  'x, y, z'
loop_
 _atom_site_type_symbol
 _atom_site_label
 _atom_site_symmetry_multiplicity
 _atom_site_fract_x
 _atom_site_fract_y
 _atom_site_fract_z
 _atom_site_occupancy
  Y  Y0  1  0.978855  0.916849  0.185672  1
  Y  Y1  1  0.793183  0.583151  0.814328  1
  Y  Y2  1  0.023100  0.085668  0.815342  1
  Y  Y3  1  0.207758  0.414332  0.184658  1
  Y  Y4  1  0.645245  0.817643  0.436061  1
  Y  Y5  1  0.209184  0.682357  0.563939  1
  Y  Y6  1  0.352283  0.183763  0.562403  1
  Y  Y7  1  0.789880  0.316237  0.437597  1
  Y  Y8  1  0.424490  0.750000  0.000000  1
  Y  Y9  1  0.575202  0.250000  0.000000  1
  Ir  Ir10  1  0.825057  0.576559  0.221541  1
  Ir  Ir11  1  0.603516  0.923441  0.778459  1
  Ru  Ru12  1  0.175991  0.424910  0.779738  1
  Ru  Ru13  1  0.396253  0.075090  0.220262  1
