# generated using pymatgen
data_V5P3H
_symmetry_space_group_name_H-M   'P 1'
_cell_length_a   6.93400900
_cell_length_b   6.93400930
_cell_length_c   4.82306200
_cell_angle_alpha   90.00000000
_cell_angle_beta   90.00000000
_cell_angle_gamma   120.00000335
_symmetry_Int_Tables_number   1
_chemical_formula_structural   V5P3H
_chemical_formula_sum   'V10 P6 H2'
_cell_volume   200.82708408
_cell_formula_units_Z   2
loop_
 _symmetry_equiv_pos_site_id
 _symmetry_equiv_pos_as_xyz
  1  'x, y, z'
loop_
 _atom_site_type_symbol
 _atom_site_label
 _atom_site_symmetry_multiplicity
 _atom_site_fract_x
 _atom_site_fract_y
 _atom_site_fract_z
 _atom_site_occupancy
  V  V0  1  0.752388  0.752388  0.250000  1
  V  V1  1  0.752388  0.000000  0.750000  1
  V  V2  1  0.000000  0.247612  0.250000  1
  V  V3  1  0.000000  0.752388  0.750000  1
  V  V4  1  0.247612  0.247612  0.750000  1
  V  V5  1  0.247612  0.000000  0.250000  1
  V  V6  1  0.333333  0.666667  0.500000  1
  V  V7  1  0.666667  0.333333  0.000000  1
  V  V8  1  0.666667  0.333333  0.500000  1
  V  V9  1  0.333333  0.666667  0.000000  1
  P  P10  1  0.000000  0.608747  0.250000  1
  P  P11  1  0.000000  0.391253  0.750000  1
  P  P12  1  0.608747  0.608747  0.750000  1
  P  P13  1  0.608747  0.000000  0.250000  1
  P  P14  1  0.391253  0.391253  0.250000  1
  P  P15  1  0.391253  0.000000  0.750000  1
  H  H16  1  0.000000  0.000000  0.000000  1
  H  H17  1  0.000000  0.000000  0.500000  1
