# generated using pymatgen
data_TbY3MnCoC8
_symmetry_space_group_name_H-M   'P 1'
_cell_length_a   6.62477363
_cell_length_b   6.63405249
_cell_length_c   6.63415854
_cell_angle_alpha   135.06056590
_cell_angle_beta   111.10351510
_cell_angle_gamma   86.11170621
_symmetry_Int_Tables_number   1
_chemical_formula_structural   TbY3MnCoC8
_chemical_formula_sum   'Tb1 Y3 Mn1 Co1 C8'
_cell_volume   184.23400972
_cell_formula_units_Z   1
loop_
 _symmetry_equiv_pos_site_id
 _symmetry_equiv_pos_as_xyz
  1  'x, y, z'
loop_
 _atom_site_type_symbol
 _atom_site_label
 _atom_site_symmetry_multiplicity
 _atom_site_fract_x
 _atom_site_fract_y
 _atom_site_fract_z
 _atom_site_occupancy
  Tb  Tb0  1  0.512749  0.356857  0.159305  1
  Y  Y1  1  0.487332  0.645805  0.845002  1
  Y  Y2  1  0.198235  0.853929  0.340832  1
  Y  Y3  1  0.801344  0.142499  0.655380  1
  Mn  Mn4  1  0.000467  0.750385  0.750035  1
  Co  Co5  1  0.000130  0.250278  0.250031  1
  C  C6  1  0.245823  0.063109  0.151238  1
  C  C7  1  0.753985  0.905124  0.817272  1
  C  C8  1  0.912862  0.595268  0.349279  1
  C  C9  1  0.087202  0.436744  0.682033  1
  C  C10  1  0.465617  0.133966  0.343252  1
  C  C11  1  0.534249  0.877320  0.668185  1
  C  C12  1  0.791766  0.622877  0.157314  1
  C  C13  1  0.208236  0.365839  0.830842  1
