# generated using pymatgen
data_Dy8Sc12Ga9Sn7
_symmetry_space_group_name_H-M   'P 1'
_cell_length_a   7.35529016
_cell_length_b   7.77784073
_cell_length_c   14.76730552
_cell_angle_alpha   89.95124238
_cell_angle_beta   90.15756598
_cell_angle_gamma   90.05631422
_symmetry_Int_Tables_number   1
_chemical_formula_structural   Dy8Sc12Ga9Sn7
_chemical_formula_sum   'Dy8 Sc12 Ga9 Sn7'
_cell_volume   844.80817332
_cell_formula_units_Z   1
loop_
 _symmetry_equiv_pos_site_id
 _symmetry_equiv_pos_as_xyz
  1  'x, y, z'
loop_
 _atom_site_type_symbol
 _atom_site_label
 _atom_site_symmetry_multiplicity
 _atom_site_fract_x
 _atom_site_fract_y
 _atom_site_fract_z
 _atom_site_occupancy
  Dy  Dy0  1  0.996442  0.181498  0.100515  1
  Dy  Dy1  1  0.003174  0.818449  0.898986  1
  Dy  Dy2  1  0.503043  0.682385  0.899194  1
  Dy  Dy3  1  0.004724  0.814766  0.599875  1
  Dy  Dy4  1  0.496396  0.318473  0.100426  1
  Dy  Dy5  1  0.000331  0.184365  0.401791  1
  Dy  Dy6  1  0.494975  0.322078  0.401808  1
  Dy  Dy7  1  0.494110  0.675152  0.598009  1
  Sc  Sc8  1  0.174330  0.502746  0.746748  1
  Sc  Sc9  1  0.825897  0.497203  0.250859  1
  Sc  Sc10  1  0.326005  0.002128  0.250211  1
  Sc  Sc11  1  0.672883  0.996904  0.749318  1
  Sc  Sc12  1  0.327575  0.174636  0.628972  1
  Sc  Sc13  1  0.667005  0.834046  0.368087  1
  Sc  Sc14  1  0.169444  0.657807  0.370978  1
  Sc  Sc15  1  0.665053  0.836247  0.133510  1
  Sc  Sc16  1  0.841595  0.337005  0.631999  1
  Sc  Sc17  1  0.335470  0.163522  0.866412  1
  Sc  Sc18  1  0.834354  0.336044  0.866462  1
  Sc  Sc19  1  0.164956  0.663867  0.132988  1
  Ga  Ga20  1  0.034348  0.113720  0.750070  1
  Ga  Ga21  1  0.966257  0.884462  0.251349  1
  Ga  Ga22  1  0.464863  0.614777  0.250375  1
  Ga  Ga23  1  0.535631  0.385543  0.748525  1
  Ga  Ga24  1  0.293895  0.868784  0.748947  1
  Ga  Ga25  1  0.706323  0.133688  0.251029  1
  Ga  Ga26  1  0.206713  0.366444  0.249922  1
  Ga  Ga27  1  0.792399  0.633122  0.749821  1
  Ga  Ga28  1  0.172385  0.459226  0.541419  1
  Sn  Sn29  1  0.828610  0.541714  0.461743  1
  Sn  Sn30  1  0.321358  0.956731  0.459700  1
  Sn  Sn31  1  0.819754  0.543913  0.040099  1
  Sn  Sn32  1  0.679338  0.042264  0.540923  1
  Sn  Sn33  1  0.180141  0.456208  0.959096  1
  Sn  Sn34  1  0.680309  0.043724  0.959809  1
  Sn  Sn35  1  0.319914  0.956358  0.040026  1
