# generated using pymatgen
data_Dy3ThInRu
_symmetry_space_group_name_H-M   'P 1'
_cell_length_a   9.74772347
_cell_length_b   9.74772277
_cell_length_c   9.74772200
_cell_angle_alpha   59.99999582
_cell_angle_beta   59.99999820
_cell_angle_gamma   59.99999838
_symmetry_Int_Tables_number   1
_chemical_formula_structural   Dy3ThInRu
_chemical_formula_sum   'Dy12 Th4 In4 Ru4'
_cell_volume   654.92939238
_cell_formula_units_Z   4
loop_
 _symmetry_equiv_pos_site_id
 _symmetry_equiv_pos_as_xyz
  1  'x, y, z'
loop_
 _atom_site_type_symbol
 _atom_site_label
 _atom_site_symmetry_multiplicity
 _atom_site_fract_x
 _atom_site_fract_y
 _atom_site_fract_z
 _atom_site_occupancy
  Dy  Dy0  1  0.811326  0.188674  0.188674  1
  Dy  Dy1  1  0.188674  0.811326  0.811326  1
  Dy  Dy2  1  0.188674  0.811326  0.188674  1
  Dy  Dy3  1  0.811326  0.188674  0.811326  1
  Dy  Dy4  1  0.188674  0.188674  0.811326  1
  Dy  Dy5  1  0.811326  0.811326  0.188674  1
  Dy  Dy6  1  0.937949  0.562051  0.562051  1
  Dy  Dy7  1  0.562051  0.937949  0.937949  1
  Dy  Dy8  1  0.562051  0.937949  0.562051  1
  Dy  Dy9  1  0.937949  0.562051  0.937949  1
  Dy  Dy10  1  0.562051  0.562051  0.937949  1
  Dy  Dy11  1  0.937949  0.937949  0.562051  1
  Th  Th12  1  0.347507  0.347507  0.347507  1
  Th  Th13  1  0.347507  0.347507  0.957479  1
  Th  Th14  1  0.347507  0.957479  0.347507  1
  Th  Th15  1  0.957479  0.347507  0.347507  1
  In  In16  1  0.583591  0.583591  0.583591  1
  In  In17  1  0.583591  0.583591  0.249227  1
  In  In18  1  0.583591  0.249227  0.583591  1
  In  In19  1  0.249227  0.583591  0.583591  1
  Ru  Ru20  1  0.143705  0.143705  0.143705  1
  Ru  Ru21  1  0.143705  0.143705  0.568886  1
  Ru  Ru22  1  0.143705  0.568886  0.143705  1
  Ru  Ru23  1  0.568886  0.143705  0.143705  1
