# generated using pymatgen
data_Pr2Cr3Co9P7
_symmetry_space_group_name_H-M   'P 1'
_cell_length_a   9.06005800
_cell_length_b   9.06005853
_cell_length_c   3.68962200
_cell_angle_alpha   90.00000000
_cell_angle_beta   90.00000000
_cell_angle_gamma   119.99999806
_symmetry_Int_Tables_number   1
_chemical_formula_structural   Pr2Cr3Co9P7
_chemical_formula_sum   'Pr2 Cr3 Co9 P7'
_cell_volume   262.28562958
_cell_formula_units_Z   1
loop_
 _symmetry_equiv_pos_site_id
 _symmetry_equiv_pos_as_xyz
  1  'x, y, z'
loop_
 _atom_site_type_symbol
 _atom_site_label
 _atom_site_symmetry_multiplicity
 _atom_site_fract_x
 _atom_site_fract_y
 _atom_site_fract_z
 _atom_site_occupancy
  Pr  Pr0  1  0.333333  0.666667  0.000000  1
  Pr  Pr1  1  0.666667  0.333333  0.500000  1
  Cr  Cr2  1  0.213457  0.118032  0.500000  1
  Cr  Cr3  1  0.881968  0.095426  0.500000  1
  Cr  Cr4  1  0.904574  0.786543  0.500000  1
  Co  Co5  1  0.428854  0.369904  0.000000  1
  Co  Co6  1  0.630096  0.058950  0.000000  1
  Co  Co7  1  0.941050  0.571146  0.000000  1
  Co  Co8  1  0.153146  0.879941  0.000000  1
  Co  Co9  1  0.120059  0.273205  0.000000  1
  Co  Co10  1  0.726795  0.846854  0.000000  1
  Co  Co11  1  0.381995  0.952240  0.500000  1
  Co  Co12  1  0.047760  0.429756  0.500000  1
  Co  Co13  1  0.570244  0.618005  0.500000  1
  P  P14  1  0.403310  0.106771  0.000000  1
  P  P15  1  0.893229  0.296540  0.000000  1
  P  P16  1  0.703460  0.596690  0.000000  1
  P  P17  1  0.105543  0.708820  0.500000  1
  P  P18  1  0.291180  0.396724  0.500000  1
  P  P19  1  0.603276  0.894457  0.500000  1
  P  P20  1  0.000000  0.000000  0.000000  1
