# generated using pymatgen
data_HoTm5(Al3Ru)8
_symmetry_space_group_name_H-M   'P 1'
_cell_length_a   8.76774712
_cell_length_b   8.76774685
_cell_length_c   9.58239300
_cell_angle_alpha   90.00000000
_cell_angle_beta   90.00000000
_cell_angle_gamma   119.98079282
_symmetry_Int_Tables_number   1
_chemical_formula_structural   HoTm5(Al3Ru)8
_chemical_formula_sum   'Ho1 Tm5 Al24 Ru8'
_cell_volume   638.06459990
_cell_formula_units_Z   1
loop_
 _symmetry_equiv_pos_site_id
 _symmetry_equiv_pos_as_xyz
  1  'x, y, z'
loop_
 _atom_site_type_symbol
 _atom_site_label
 _atom_site_symmetry_multiplicity
 _atom_site_fract_x
 _atom_site_fract_y
 _atom_site_fract_z
 _atom_site_occupancy
  Ho  Ho0  1  0.806555  0.193445  0.750000  1
  Tm  Tm1  1  0.194158  0.805842  0.250000  1
  Tm  Tm2  1  0.388528  0.194308  0.750000  1
  Tm  Tm3  1  0.611535  0.805810  0.250000  1
  Tm  Tm4  1  0.805692  0.611472  0.750000  1
  Tm  Tm5  1  0.194190  0.388465  0.250000  1
  Al  Al6  1  0.666567  0.333433  0.981046  1
  Al  Al7  1  0.333297  0.666703  0.019590  1
  Al  Al8  1  0.333297  0.666703  0.480410  1
  Al  Al9  1  0.666567  0.333433  0.518954  1
  Al  Al10  1  0.837166  0.162834  0.421936  1
  Al  Al11  1  0.162764  0.837236  0.577377  1
  Al  Al12  1  0.325511  0.162815  0.422286  1
  Al  Al13  1  0.162764  0.837236  0.922623  1
  Al  Al14  1  0.674182  0.836843  0.577284  1
  Al  Al15  1  0.837166  0.162834  0.078064  1
  Al  Al16  1  0.837185  0.674489  0.422286  1
  Al  Al17  1  0.674182  0.836843  0.922716  1
  Al  Al18  1  0.163157  0.325818  0.577284  1
  Al  Al19  1  0.325511  0.162815  0.077714  1
  Al  Al20  1  0.163157  0.325818  0.922716  1
  Al  Al21  1  0.837185  0.674489  0.077714  1
  Al  Al22  1  0.438793  0.561207  0.750000  1
  Al  Al23  1  0.561180  0.438820  0.250000  1
  Al  Al24  1  0.122984  0.561785  0.750000  1
  Al  Al25  1  0.877471  0.438878  0.250000  1
  Al  Al26  1  0.438215  0.877016  0.750000  1
  Al  Al27  1  0.561122  0.122529  0.250000  1
  Al  Al28  1  0.000701  0.999299  0.750000  1
  Al  Al29  1  0.999953  0.000047  0.250000  1
  Ru  Ru30  1  0.499892  0.500108  0.000183  1
  Ru  Ru31  1  0.000300  0.500469  0.000393  1
  Ru  Ru32  1  0.499892  0.500108  0.499817  1
  Ru  Ru33  1  0.499531  0.999700  0.000393  1
  Ru  Ru34  1  0.000300  0.500469  0.499607  1
  Ru  Ru35  1  0.499531  0.999700  0.499607  1
  Ru  Ru36  1  0.999909  0.000091  0.000035  1
  Ru  Ru37  1  0.999909  0.000091  0.499965  1
