# generated using pymatgen
data_Ho2Ga4CuPd
_symmetry_space_group_name_H-M   'P 1'
_cell_length_a   5.51424452
_cell_length_b   5.51424472
_cell_length_c   6.55440800
_cell_angle_alpha   90.00000000
_cell_angle_beta   90.00000000
_cell_angle_gamma   133.20749668
_symmetry_Int_Tables_number   1
_chemical_formula_structural   Ho2Ga4CuPd
_chemical_formula_sum   'Ho2 Ga4 Cu1 Pd1'
_cell_volume   145.26500315
_cell_formula_units_Z   1
loop_
 _symmetry_equiv_pos_site_id
 _symmetry_equiv_pos_as_xyz
  1  'x, y, z'
loop_
 _atom_site_type_symbol
 _atom_site_label
 _atom_site_symmetry_multiplicity
 _atom_site_fract_x
 _atom_site_fract_y
 _atom_site_fract_z
 _atom_site_occupancy
  Ho  Ho0  1  0.088828  0.911172  0.250000  1
  Ho  Ho1  1  0.911607  0.088393  0.750000  1
  Ga  Ga2  1  0.372940  0.627060  0.054479  1
  Ga  Ga3  1  0.627305  0.372695  0.548672  1
  Ga  Ga4  1  0.627305  0.372695  0.951328  1
  Ga  Ga5  1  0.372940  0.627060  0.445521  1
  Cu  Cu6  1  0.798836  0.201164  0.250000  1
  Pd  Pd7  1  0.200238  0.799762  0.750000  1
