# generated using pymatgen
data_Er12Fe4SnPd
_symmetry_space_group_name_H-M   'P 1'
_cell_length_a   8.25745757
_cell_length_b   8.25745723
_cell_length_c   8.25745742
_cell_angle_alpha   110.70322111
_cell_angle_beta   110.80479453
_cell_angle_gamma   106.93503898
_symmetry_Int_Tables_number   1
_chemical_formula_structural   Er12Fe4SnPd
_chemical_formula_sum   'Er12 Fe4 Sn1 Pd1'
_cell_volume   432.79445973
_cell_formula_units_Z   1
loop_
 _symmetry_equiv_pos_site_id
 _symmetry_equiv_pos_as_xyz
  1  'x, y, z'
loop_
 _atom_site_type_symbol
 _atom_site_label
 _atom_site_symmetry_multiplicity
 _atom_site_fract_x
 _atom_site_fract_y
 _atom_site_fract_z
 _atom_site_occupancy
  Er  Er0  1  0.312114  0.613209  0.301093  1
  Er  Er1  1  0.687886  0.386792  0.698907  1
  Er  Er2  1  0.312114  0.011021  0.698907  1
  Er  Er3  1  0.687886  0.988979  0.301093  1
  Er  Er4  1  0.417014  0.215381  0.201633  1
  Er  Er5  1  0.582986  0.784619  0.798367  1
  Er  Er6  1  0.013748  0.215381  0.798367  1
  Er  Er7  1  0.986252  0.784619  0.201633  1
  Er  Er8  1  0.187876  0.291075  0.478951  1
  Er  Er9  1  0.812124  0.708925  0.521049  1
  Er  Er10  1  0.187876  0.708925  0.896800  1
  Er  Er11  1  0.812124  0.291075  0.103200  1
  Fe  Fe12  1  0.108450  0.608450  0.500000  1
  Fe  Fe13  1  0.891551  0.391551  0.500000  1
  Fe  Fe14  1  0.384902  0.000000  0.384902  1
  Fe  Fe15  1  0.615098  0.000000  0.615098  1
  Sn  Sn16  1  0.500000  0.500000  0.000000  1
  Pd  Pd17  1  0.000000  0.000000  0.000000  1
