# generated using pymatgen
data_Rb2Ba(RuO4)2
_symmetry_space_group_name_H-M   'P 1'
_cell_length_a   8.33776217
_cell_length_b   8.33760117
_cell_length_c   8.33725815
_cell_angle_alpha   43.10556596
_cell_angle_beta   43.10620083
_cell_angle_gamma   43.10800305
_symmetry_Int_Tables_number   1
_chemical_formula_structural   Rb2Ba(RuO4)2
_chemical_formula_sum   'Rb2 Ba1 Ru2 O8'
_cell_volume   245.37218608
_cell_formula_units_Z   1
loop_
 _symmetry_equiv_pos_site_id
 _symmetry_equiv_pos_as_xyz
  1  'x, y, z'
loop_
 _atom_site_type_symbol
 _atom_site_label
 _atom_site_symmetry_multiplicity
 _atom_site_fract_x
 _atom_site_fract_y
 _atom_site_fract_z
 _atom_site_occupancy
  Rb  Rb0  1  0.199426  0.199424  0.199420  1
  Rb  Rb1  1  0.800574  0.800576  0.800580  1
  Ba  Ba2  1  0.000000  0.000000  0.000000  1
  Ru  Ru3  1  0.402595  0.402591  0.402584  1
  Ru  Ru4  1  0.597405  0.597409  0.597416  1
  O  O5  1  0.734573  0.734570  0.249884  1
  O  O6  1  0.750105  0.265435  0.265428  1
  O  O7  1  0.265434  0.750102  0.265434  1
  O  O8  1  0.323558  0.323557  0.323558  1
  O  O9  1  0.676442  0.676443  0.676442  1
  O  O10  1  0.734567  0.249899  0.734564  1
  O  O11  1  0.249896  0.734566  0.734570  1
  O  O12  1  0.265427  0.265430  0.750116  1
