# generated using pymatgen
data_CeErTcB6
_symmetry_space_group_name_H-M   'P 1'
_cell_length_a   3.72135400
_cell_length_b   9.17239300
_cell_length_c   11.55880700
_cell_angle_alpha   90.00000000
_cell_angle_beta   90.00000000
_cell_angle_gamma   90.00000000
_symmetry_Int_Tables_number   1
_chemical_formula_structural   CeErTcB6
_chemical_formula_sum   'Ce4 Er4 Tc4 B24'
_cell_volume   394.54509762
_cell_formula_units_Z   4
loop_
 _symmetry_equiv_pos_site_id
 _symmetry_equiv_pos_as_xyz
  1  'x, y, z'
loop_
 _atom_site_type_symbol
 _atom_site_label
 _atom_site_symmetry_multiplicity
 _atom_site_fract_x
 _atom_site_fract_y
 _atom_site_fract_z
 _atom_site_occupancy
  Ce  Ce0  1  0.000000  0.323380  0.414017  1
  Ce  Ce1  1  0.000000  0.676620  0.585983  1
  Ce  Ce2  1  0.000000  0.823380  0.085983  1
  Ce  Ce3  1  0.000000  0.176620  0.914017  1
  Er  Er4  1  0.000000  0.944638  0.372478  1
  Er  Er5  1  0.000000  0.055362  0.627522  1
  Er  Er6  1  0.000000  0.444638  0.127522  1
  Er  Er7  1  0.000000  0.555362  0.872478  1
  Tc  Tc8  1  0.000000  0.639218  0.320486  1
  Tc  Tc9  1  0.000000  0.360782  0.679514  1
  Tc  Tc10  1  0.000000  0.139218  0.179514  1
  Tc  Tc11  1  0.000000  0.860782  0.820486  1
  B  B12  1  0.500000  0.554662  0.431501  1
  B  B13  1  0.500000  0.445338  0.568499  1
  B  B14  1  0.500000  0.054662  0.068499  1
  B  B15  1  0.500000  0.945338  0.931501  1
  B  B16  1  0.500000  0.749190  0.418786  1
  B  B17  1  0.500000  0.250810  0.581214  1
  B  B18  1  0.500000  0.249190  0.081214  1
  B  B19  1  0.500000  0.750810  0.918786  1
  B  B20  1  0.500000  0.792224  0.266321  1
  B  B21  1  0.500000  0.207776  0.733679  1
  B  B22  1  0.500000  0.292224  0.233679  1
  B  B23  1  0.500000  0.707776  0.766321  1
  B  B24  1  0.500000  0.632040  0.185644  1
  B  B25  1  0.500000  0.367960  0.814356  1
  B  B26  1  0.500000  0.132040  0.314356  1
  B  B27  1  0.500000  0.867960  0.685644  1
  B  B28  1  0.500000  0.984232  0.213315  1
  B  B29  1  0.500000  0.015768  0.786685  1
  B  B30  1  0.500000  0.484232  0.286685  1
  B  B31  1  0.500000  0.515768  0.713315  1
  B  B32  1  0.500000  0.606765  0.029382  1
  B  B33  1  0.500000  0.393235  0.970618  1
  B  B34  1  0.500000  0.106765  0.470618  1
  B  B35  1  0.500000  0.893235  0.529382  1
