# generated using pymatgen
data_Y3HoAl18(PdRh2)2
_symmetry_space_group_name_H-M   'P 1'
_cell_length_a   7.57935672
_cell_length_b   7.58043243
_cell_length_c   9.46677010
_cell_angle_alpha   90.03082912
_cell_angle_beta   90.03948511
_cell_angle_gamma   119.56639708
_symmetry_Int_Tables_number   1
_chemical_formula_structural   Y3HoAl18(PdRh2)2
_chemical_formula_sum   'Y3 Ho1 Al18 Pd2 Rh4'
_cell_volume   473.08533158
_cell_formula_units_Z   1
loop_
 _symmetry_equiv_pos_site_id
 _symmetry_equiv_pos_as_xyz
  1  'x, y, z'
loop_
 _atom_site_type_symbol
 _atom_site_label
 _atom_site_symmetry_multiplicity
 _atom_site_fract_x
 _atom_site_fract_y
 _atom_site_fract_z
 _atom_site_occupancy
  Y  Y0  1  0.995254  0.669928  0.249429  1
  Y  Y1  1  0.004819  0.330134  0.750579  1
  Y  Y2  1  0.669829  0.995196  0.249418  1
  Ho  Ho3  1  0.330027  0.004743  0.750675  1
  Al  Al4  1  0.126263  0.126234  0.248908  1
  Al  Al5  1  0.874023  0.873787  0.751083  1
  Al  Al6  1  0.999468  0.334674  0.074422  1
  Al  Al7  1  0.000804  0.665594  0.925365  1
  Al  Al8  1  0.998860  0.669147  0.577865  1
  Al  Al9  1  0.331144  0.001435  0.422617  1
  Al  Al10  1  0.001445  0.331127  0.422345  1
  Al  Al11  1  0.668584  0.998577  0.577867  1
  Al  Al12  1  0.665048  0.000536  0.925369  1
  Al  Al13  1  0.334665  0.999472  0.074144  1
  Al  Al14  1  0.330941  0.330675  0.557082  1
  Al  Al15  1  0.669099  0.669082  0.443202  1
  Al  Al16  1  0.667946  0.667942  0.049233  1
  Al  Al17  1  0.332065  0.331837  0.950498  1
  Al  Al18  1  0.340217  0.547379  0.245991  1
  Al  Al19  1  0.659423  0.452232  0.753986  1
  Al  Al20  1  0.547372  0.340181  0.245990  1
  Al  Al21  1  0.452568  0.660020  0.753986  1
  Pd  Pd22  1  0.327775  0.672292  0.500071  1
  Pd  Pd23  1  0.672173  0.327717  0.500075  1
  Rh  Rh24  1  0.672031  0.327807  0.999906  1
  Rh  Rh25  1  0.327887  0.672182  0.999903  1
  Rh  Rh26  1  0.000138  0.000029  0.999847  1
  Rh  Rh27  1  0.000134  0.000040  0.500141  1
