# generated using pymatgen
data_Pr5(CoO6)2
_symmetry_space_group_name_H-M   'P 1'
_cell_length_a   7.01178159
_cell_length_b   7.01126448
_cell_length_c   7.62291124
_cell_angle_alpha   74.46249546
_cell_angle_beta   74.45038641
_cell_angle_gamma   50.16479112
_symmetry_Int_Tables_number   1
_chemical_formula_structural   Pr5(CoO6)2
_chemical_formula_sum   'Pr5 Co2 O12'
_cell_volume   274.88527856
_cell_formula_units_Z   1
loop_
 _symmetry_equiv_pos_site_id
 _symmetry_equiv_pos_as_xyz
  1  'x, y, z'
loop_
 _atom_site_type_symbol
 _atom_site_label
 _atom_site_symmetry_multiplicity
 _atom_site_fract_x
 _atom_site_fract_y
 _atom_site_fract_z
 _atom_site_occupancy
  Pr  Pr0  1  0.311794  0.307530  0.353981  1
  Pr  Pr1  1  0.692441  0.688211  0.646024  1
  Pr  Pr2  1  0.693645  0.693288  0.162269  1
  Pr  Pr3  1  0.306676  0.306439  0.837751  1
  Pr  Pr4  1  0.000635  0.999343  0.499958  1
  Co  Co5  1  0.754000  0.245991  0.999961  1
  Co  Co6  1  0.238858  0.761159  0.000055  1
  O  O7  1  0.095512  0.597283  0.579009  1
  O  O8  1  0.999687  0.998427  0.162488  1
  O  O9  1  0.402697  0.904497  0.420975  1
  O  O10  1  0.500728  0.500974  0.163703  1
  O  O11  1  0.105397  0.592881  0.073694  1
  O  O12  1  0.904518  0.404499  0.419816  1
  O  O13  1  0.001165  0.000711  0.837757  1
  O  O14  1  0.595495  0.095514  0.580152  1
  O  O15  1  0.498719  0.499566  0.836099  1
  O  O16  1  0.590787  0.099843  0.074960  1
  O  O17  1  0.407125  0.894591  0.926236  1
  O  O18  1  0.900122  0.409251  0.925112  1
