# generated using pymatgen
data_Sc8SiPBr12
_symmetry_space_group_name_H-M   'P 1'
_cell_length_a   3.81926100
_cell_length_b   12.50380189
_cell_length_c   13.23778537
_cell_angle_alpha   89.94526101
_cell_angle_beta   90.00000000
_cell_angle_gamma   90.00000000
_symmetry_Int_Tables_number   1
_chemical_formula_structural   Sc8SiPBr12
_chemical_formula_sum   'Sc8 Si1 P1 Br12'
_cell_volume   632.17389680
_cell_formula_units_Z   1
loop_
 _symmetry_equiv_pos_site_id
 _symmetry_equiv_pos_as_xyz
  1  'x, y, z'
loop_
 _atom_site_type_symbol
 _atom_site_label
 _atom_site_symmetry_multiplicity
 _atom_site_fract_x
 _atom_site_fract_y
 _atom_site_fract_z
 _atom_site_occupancy
  Sc  Sc0  1  0.500000  0.115256  0.345723  1
  Sc  Sc1  1  0.500000  0.884744  0.654277  1
  Sc  Sc2  1  0.500000  0.618637  0.158678  1
  Sc  Sc3  1  0.500000  0.381363  0.841322  1
  Sc  Sc4  1  0.000000  0.112538  0.574957  1
  Sc  Sc5  1  0.000000  0.887462  0.425043  1
  Sc  Sc6  1  0.000000  0.618363  0.921076  1
  Sc  Sc7  1  0.000000  0.381637  0.078924  1
  Si  Si8  1  0.500000  0.500000  0.000000  1
  P  P9  1  0.500000  0.000000  0.500000  1
  Br  Br10  1  0.500000  0.244430  0.162450  1
  Br  Br11  1  0.500000  0.755570  0.837550  1
  Br  Br12  1  0.500000  0.746849  0.339245  1
  Br  Br13  1  0.500000  0.253151  0.660755  1
  Br  Br14  1  0.000000  0.254200  0.413329  1
  Br  Br15  1  0.000000  0.745800  0.586671  1
  Br  Br16  1  0.000000  0.755963  0.087502  1
  Br  Br17  1  0.000000  0.244037  0.912498  1
  Br  Br18  1  0.000000  0.000995  0.244613  1
  Br  Br19  1  0.000000  0.999005  0.755387  1
  Br  Br20  1  0.000000  0.501336  0.257432  1
  Br  Br21  1  0.000000  0.498664  0.742568  1
