# generated using pymatgen
data_PuThB10Ir
_symmetry_space_group_name_H-M   'P 1'
_cell_length_a   4.19957400
_cell_length_b   5.72077861
_cell_length_c   11.42496420
_cell_angle_alpha   90.11570360
_cell_angle_beta   90.00000000
_cell_angle_gamma   90.00000000
_symmetry_Int_Tables_number   1
_chemical_formula_structural   PuThB10Ir
_chemical_formula_sum   'Pu2 Th2 B20 Ir2'
_cell_volume   274.48229848
_cell_formula_units_Z   2
loop_
 _symmetry_equiv_pos_site_id
 _symmetry_equiv_pos_as_xyz
  1  'x, y, z'
loop_
 _atom_site_type_symbol
 _atom_site_label
 _atom_site_symmetry_multiplicity
 _atom_site_fract_x
 _atom_site_fract_y
 _atom_site_fract_z
 _atom_site_occupancy
  Pu  Pu0  1  0.500000  0.300095  0.863856  1
  Pu  Pu1  1  0.500000  0.699905  0.136144  1
  Th  Th2  1  0.500000  0.795726  0.636799  1
  Th  Th3  1  0.500000  0.204274  0.363201  1
  B  B4  1  0.000000  0.117989  0.543371  1
  B  B5  1  0.000000  0.882011  0.456629  1
  B  B6  1  0.000000  0.618556  0.957581  1
  B  B7  1  0.000000  0.381444  0.042419  1
  B  B8  1  0.000000  0.137578  0.698349  1
  B  B9  1  0.000000  0.862422  0.301651  1
  B  B10  1  0.302225  0.216966  0.117720  1
  B  B11  1  0.302225  0.783034  0.882280  1
  B  B12  1  0.697798  0.717386  0.379751  1
  B  B13  1  0.697798  0.282614  0.620249  1
  B  B14  1  0.697775  0.783034  0.882280  1
  B  B15  1  0.697775  0.216966  0.117720  1
  B  B16  1  0.302202  0.282614  0.620249  1
  B  B17  1  0.302202  0.717386  0.379751  1
  B  B18  1  0.000000  0.053154  0.192166  1
  B  B19  1  0.000000  0.946846  0.807834  1
  B  B20  1  0.000000  0.554184  0.305776  1
  B  B21  1  0.000000  0.445816  0.694224  1
  B  B22  1  0.000000  0.362001  0.196299  1
  B  B23  1  0.000000  0.637999  0.803701  1
  Ir  Ir24  1  0.000000  0.500000  0.500000  1
  Ir  Ir25  1  0.000000  0.000000  0.000000  1
