# generated using pymatgen
data_La4Cd2RhAu3
_symmetry_space_group_name_H-M   'P 1'
_cell_length_a   8.17200413
_cell_length_b   8.17200413
_cell_length_c   3.96306700
_cell_angle_alpha   90.00000000
_cell_angle_beta   90.00000000
_cell_angle_gamma   90.65409498
_symmetry_Int_Tables_number   1
_chemical_formula_structural   La4Cd2RhAu3
_chemical_formula_sum   'La4 Cd2 Rh1 Au3'
_cell_volume   264.64291315
_cell_formula_units_Z   1
loop_
 _symmetry_equiv_pos_site_id
 _symmetry_equiv_pos_as_xyz
  1  'x, y, z'
loop_
 _atom_site_type_symbol
 _atom_site_label
 _atom_site_symmetry_multiplicity
 _atom_site_fract_x
 _atom_site_fract_y
 _atom_site_fract_z
 _atom_site_occupancy
  La  La0  1  0.847901  0.676348  0.500000  1
  La  La1  1  0.312935  0.812935  0.500000  1
  La  La2  1  0.667992  0.167992  0.500000  1
  La  La3  1  0.176348  0.347901  0.500000  1
  Cd  Cd4  1  0.001895  0.997007  0.000000  1
  Cd  Cd5  1  0.497007  0.501895  0.000000  1
  Rh  Rh6  1  0.130626  0.630626  0.000000  1
  Au  Au7  1  0.872163  0.372163  0.000000  1
  Au  Au8  1  0.366679  0.126454  0.000000  1
  Au  Au9  1  0.626454  0.866679  0.000000  1
