# generated using pymatgen
data_U(GaCu)6
_symmetry_space_group_name_H-M   'P 1'
_cell_length_a   6.63866096
_cell_length_b   6.63866077
_cell_length_c   6.63866118
_cell_angle_alpha   134.33034283
_cell_angle_beta   99.79362427
_cell_angle_gamma   97.53350761
_symmetry_Int_Tables_number   1
_chemical_formula_structural   U(GaCu)6
_chemical_formula_sum   'U1 Ga6 Cu6'
_cell_volume   192.83437539
_cell_formula_units_Z   1
loop_
 _symmetry_equiv_pos_site_id
 _symmetry_equiv_pos_as_xyz
  1  'x, y, z'
loop_
 _atom_site_type_symbol
 _atom_site_label
 _atom_site_symmetry_multiplicity
 _atom_site_fract_x
 _atom_site_fract_y
 _atom_site_fract_z
 _atom_site_occupancy
  U  U0  1  0.000000  0.000000  0.000000  1
  Ga  Ga1  1  0.345651  0.345651  0.000000  1
  Ga  Ga2  1  0.190853  0.690853  0.500000  1
  Ga  Ga3  1  0.653375  0.000000  0.653375  1
  Ga  Ga4  1  0.809147  0.309147  0.500000  1
  Ga  Ga5  1  0.654349  0.654349  0.000000  1
  Ga  Ga6  1  0.346625  0.000000  0.346625  1
  Cu  Cu7  1  0.000000  0.500000  0.000000  1
  Cu  Cu8  1  0.766721  0.500000  0.266721  1
  Cu  Cu9  1  0.233279  0.500000  0.733279  1
  Cu  Cu10  1  0.500000  0.500000  0.500000  1
  Cu  Cu11  1  0.500000  0.000000  0.000000  1
  Cu  Cu12  1  0.000000  0.000000  0.500000  1
