# generated using pymatgen
data_Ca5LaPa2(Si3Pd)4
_symmetry_space_group_name_H-M   'P 1'
_cell_length_a   8.30252000
_cell_length_b   8.28324436
_cell_length_c   8.47870700
_cell_angle_alpha   90.00000000
_cell_angle_beta   90.00000000
_cell_angle_gamma   120.07700858
_symmetry_Int_Tables_number   1
_chemical_formula_structural   Ca5LaPa2(Si3Pd)4
_chemical_formula_sum   'Ca5 La1 Pa2 Si12 Pd4'
_cell_volume   504.58360087
_cell_formula_units_Z   1
loop_
 _symmetry_equiv_pos_site_id
 _symmetry_equiv_pos_as_xyz
  1  'x, y, z'
loop_
 _atom_site_type_symbol
 _atom_site_label
 _atom_site_symmetry_multiplicity
 _atom_site_fract_x
 _atom_site_fract_y
 _atom_site_fract_z
 _atom_site_occupancy
  Ca  Ca0  1  0.499281  0.500751  0.750000  1
  Ca  Ca1  1  0.500759  0.499639  0.250000  1
  Ca  Ca2  1  0.001469  0.500751  0.750000  1
  Ca  Ca3  1  0.998878  0.499639  0.250000  1
  Ca  Ca4  1  0.499151  0.998301  0.750000  1
  La  La5  1  0.500634  0.001268  0.250000  1
  Pa  Pa6  1  0.000001  0.000001  0.750000  1
  Pa  Pa7  1  0.999999  0.999999  0.250000  1
  Si  Si8  1  0.837715  0.164105  0.999200  1
  Si  Si9  1  0.162256  0.835888  0.000409  1
  Si  Si10  1  0.326390  0.164105  0.999200  1
  Si  Si11  1  0.162256  0.835888  0.499591  1
  Si  Si12  1  0.673633  0.835888  0.000409  1
  Si  Si13  1  0.837715  0.164105  0.500800  1
  Si  Si14  1  0.835734  0.671468  0.999976  1
  Si  Si15  1  0.673633  0.835888  0.499591  1
  Si  Si16  1  0.164225  0.328451  0.001100  1
  Si  Si17  1  0.326390  0.164105  0.500800  1
  Si  Si18  1  0.164225  0.328451  0.498900  1
  Si  Si19  1  0.835734  0.671468  0.500024  1
  Pd  Pd20  1  0.666540  0.333080  0.996829  1
  Pd  Pd21  1  0.333420  0.666843  0.999052  1
  Pd  Pd22  1  0.333420  0.666843  0.500948  1
  Pd  Pd23  1  0.666540  0.333080  0.503171  1
