# generated using pymatgen
data_Yb3Sm(Os3Ru)2
_symmetry_space_group_name_H-M   'P 1'
_cell_length_a   5.24008400
_cell_length_b   5.24008354
_cell_length_c   9.03327600
_cell_angle_alpha   90.00014121
_cell_angle_beta   89.99986003
_cell_angle_gamma   119.99793252
_symmetry_Int_Tables_number   1
_chemical_formula_structural   Yb3Sm(Os3Ru)2
_chemical_formula_sum   'Yb3 Sm1 Os6 Ru2'
_cell_volume   214.81342450
_cell_formula_units_Z   1
loop_
 _symmetry_equiv_pos_site_id
 _symmetry_equiv_pos_as_xyz
  1  'x, y, z'
loop_
 _atom_site_type_symbol
 _atom_site_label
 _atom_site_symmetry_multiplicity
 _atom_site_fract_x
 _atom_site_fract_y
 _atom_site_fract_z
 _atom_site_occupancy
  Yb  Yb0  1  0.333327  0.666673  0.430847  1
  Yb  Yb1  1  0.333326  0.666674  0.064765  1
  Yb  Yb2  1  0.666677  0.333323  0.939185  1
  Sm  Sm3  1  0.666678  0.333322  0.565502  1
  Os  Os4  1  0.171380  0.342759  0.752080  1
  Os  Os5  1  0.171344  0.828656  0.752080  1
  Os  Os6  1  0.657241  0.828620  0.752080  1
  Os  Os7  1  0.829024  0.658077  0.248450  1
  Os  Os8  1  0.829031  0.170969  0.248449  1
  Os  Os9  1  0.341923  0.170976  0.248450  1
  Ru  Ru10  1  0.000025  0.999975  0.498969  1
  Ru  Ru11  1  0.000022  0.999978  0.999143  1
