# generated using pymatgen
data_Hf2Sc8Si5As
_symmetry_space_group_name_H-M   'P 1'
_cell_length_a   7.90934100
_cell_length_b   7.88425421
_cell_length_c   5.71162700
_cell_angle_alpha   90.00000000
_cell_angle_beta   90.00000000
_cell_angle_gamma   120.10529923
_symmetry_Int_Tables_number   1
_chemical_formula_structural   Hf2Sc8Si5As
_chemical_formula_sum   'Hf2 Sc8 Si5 As1'
_cell_volume   308.12688629
_cell_formula_units_Z   1
loop_
 _symmetry_equiv_pos_site_id
 _symmetry_equiv_pos_as_xyz
  1  'x, y, z'
loop_
 _atom_site_type_symbol
 _atom_site_label
 _atom_site_symmetry_multiplicity
 _atom_site_fract_x
 _atom_site_fract_y
 _atom_site_fract_z
 _atom_site_occupancy
  Hf  Hf0  1  0.000180  0.244843  0.250000  1
  Hf  Hf1  1  0.755338  0.755157  0.250000  1
  Sc  Sc2  1  0.995113  0.750691  0.750000  1
  Sc  Sc3  1  0.756276  0.000000  0.750000  1
  Sc  Sc4  1  0.244423  0.249309  0.750000  1
  Sc  Sc5  1  0.244639  0.000000  0.250000  1
  Sc  Sc6  1  0.333080  0.664272  0.496135  1
  Sc  Sc7  1  0.668809  0.335728  0.003865  1
  Sc  Sc8  1  0.668809  0.335728  0.496135  1
  Sc  Sc9  1  0.333080  0.664272  0.003865  1
  Si  Si10  1  0.392205  0.392052  0.250000  1
  Si  Si11  1  0.000153  0.607948  0.250000  1
  Si  Si12  1  0.999414  0.392714  0.750000  1
  Si  Si13  1  0.606699  0.607286  0.750000  1
  Si  Si14  1  0.612694  0.000000  0.250000  1
  As  As15  1  0.389091  0.000000  0.750000  1
