# generated using pymatgen
data_Ho16Cd4TcPdPt2
_symmetry_space_group_name_H-M   'P 1'
_cell_length_a   9.69256135
_cell_length_b   9.69256158
_cell_length_c   9.67897928
_cell_angle_alpha   59.29526671
_cell_angle_beta   59.29526714
_cell_angle_gamma   59.31768329
_symmetry_Int_Tables_number   1
_chemical_formula_structural   Ho16Cd4TcPdPt2
_chemical_formula_sum   'Ho16 Cd4 Tc1 Pd1 Pt2'
_cell_volume   632.76329271
_cell_formula_units_Z   1
loop_
 _symmetry_equiv_pos_site_id
 _symmetry_equiv_pos_as_xyz
  1  'x, y, z'
loop_
 _atom_site_type_symbol
 _atom_site_label
 _atom_site_symmetry_multiplicity
 _atom_site_fract_x
 _atom_site_fract_y
 _atom_site_fract_z
 _atom_site_occupancy
  Ho  Ho0  1  0.602405  0.602405  0.600759  1
  Ho  Ho1  1  0.601079  0.601079  0.197816  1
  Ho  Ho2  1  0.602359  0.195965  0.600151  1
  Ho  Ho3  1  0.195965  0.602359  0.600151  1
  Ho  Ho4  1  0.065045  0.438436  0.437881  1
  Ho  Ho5  1  0.439215  0.058693  0.060918  1
  Ho  Ho6  1  0.438436  0.065045  0.437881  1
  Ho  Ho7  1  0.058693  0.439215  0.060918  1
  Ho  Ho8  1  0.437907  0.437907  0.066487  1
  Ho  Ho9  1  0.059787  0.059787  0.438970  1
  Ho  Ho10  1  0.185059  0.816238  0.815246  1
  Ho  Ho11  1  0.806490  0.187793  0.187736  1
  Ho  Ho12  1  0.816238  0.185059  0.815246  1
  Ho  Ho13  1  0.187793  0.806490  0.187736  1
  Ho  Ho14  1  0.815245  0.815245  0.185280  1
  Ho  Ho15  1  0.187343  0.187343  0.806791  1
  Cd  Cd16  1  0.829910  0.829910  0.829881  1
  Cd  Cd17  1  0.830889  0.830889  0.504031  1
  Cd  Cd18  1  0.830955  0.503986  0.830859  1
  Cd  Cd19  1  0.503986  0.830955  0.830859  1
  Tc  Tc20  1  0.394394  0.394394  0.394287  1
  Pd  Pd21  1  0.394676  0.394676  0.820461  1
  Pt  Pt22  1  0.394463  0.821665  0.394826  1
  Pt  Pt23  1  0.821665  0.394463  0.394826  1
