# generated using pymatgen
data_Tb2HoBe2Co9B4
_symmetry_space_group_name_H-M   'P 1'
_cell_length_a   5.03527201
_cell_length_b   5.03454758
_cell_length_c   9.34755800
_cell_angle_alpha   90.00008847
_cell_angle_beta   90.00015233
_cell_angle_gamma   119.98937287
_symmetry_Int_Tables_number   1
_chemical_formula_structural   Tb2HoBe2Co9B4
_chemical_formula_sum   'Tb2 Ho1 Be2 Co9 B4'
_cell_volume   205.23842991
_cell_formula_units_Z   1
loop_
 _symmetry_equiv_pos_site_id
 _symmetry_equiv_pos_as_xyz
  1  'x, y, z'
loop_
 _atom_site_type_symbol
 _atom_site_label
 _atom_site_symmetry_multiplicity
 _atom_site_fract_x
 _atom_site_fract_y
 _atom_site_fract_z
 _atom_site_occupancy
  Tb  Tb0  1  0.999991  0.999999  0.000079  1
  Tb  Tb1  1  0.999994  0.999999  0.337839  1
  Ho  Ho2  1  0.999999  0.999998  0.662130  1
  Be  Be3  1  0.333429  0.666627  0.000061  1
  Be  Be4  1  0.666554  0.333372  0.000062  1
  Co  Co5  1  0.499993  0.999998  0.500045  1
  Co  Co6  1  0.499990  0.500009  0.500008  1
  Co  Co7  1  0.999999  0.500001  0.500051  1
  Co  Co8  1  0.499996  0.000002  0.190205  1
  Co  Co9  1  0.499992  0.499999  0.190159  1
  Co  Co10  1  0.999994  0.499999  0.190220  1
  Co  Co11  1  0.499999  0.000000  0.809750  1
  Co  Co12  1  0.499999  0.500001  0.809738  1
  Co  Co13  1  0.999988  0.499996  0.809661  1
  B  B14  1  0.333391  0.666597  0.342192  1
  B  B15  1  0.666598  0.333404  0.342195  1
  B  B16  1  0.666604  0.333374  0.657800  1
  B  B17  1  0.333388  0.666627  0.657804  1
