# generated using pymatgen
data_Tb2Al2IrRu
_symmetry_space_group_name_H-M   'P 1'
_cell_length_a   4.10732800
_cell_length_b   7.00049000
_cell_length_c   8.08462000
_cell_angle_alpha   90.00000000
_cell_angle_beta   90.00000000
_cell_angle_gamma   90.00000000
_symmetry_Int_Tables_number   1
_chemical_formula_structural   Tb2Al2IrRu
_chemical_formula_sum   'Tb4 Al4 Ir2 Ru2'
_cell_volume   232.45957370
_cell_formula_units_Z   2
loop_
 _symmetry_equiv_pos_site_id
 _symmetry_equiv_pos_as_xyz
  1  'x, y, z'
loop_
 _atom_site_type_symbol
 _atom_site_label
 _atom_site_symmetry_multiplicity
 _atom_site_fract_x
 _atom_site_fract_y
 _atom_site_fract_z
 _atom_site_occupancy
  Tb  Tb0  1  0.250000  0.032262  0.681084  1
  Tb  Tb1  1  0.250000  0.532262  0.818916  1
  Tb  Tb2  1  0.750000  0.967372  0.320563  1
  Tb  Tb3  1  0.750000  0.467372  0.179437  1
  Al  Al4  1  0.250000  0.139658  0.060976  1
  Al  Al5  1  0.250000  0.639658  0.439024  1
  Al  Al6  1  0.750000  0.862138  0.939989  1
  Al  Al7  1  0.750000  0.362138  0.560011  1
  Ir  Ir8  1  0.250000  0.268465  0.379505  1
  Ir  Ir9  1  0.250000  0.768465  0.120495  1
  Ru  Ru10  1  0.750000  0.730105  0.619475  1
  Ru  Ru11  1  0.750000  0.230105  0.880525  1
