# generated using pymatgen
data_NdTm(CuP)3
_symmetry_space_group_name_H-M   'P 1'
_cell_length_a   3.91080100
_cell_length_b   10.73102300
_cell_length_c   12.94650200
_cell_angle_alpha   90.00000000
_cell_angle_beta   90.00000000
_cell_angle_gamma   90.00000000
_symmetry_Int_Tables_number   1
_chemical_formula_structural   NdTm(CuP)3
_chemical_formula_sum   'Nd4 Tm4 Cu12 P12'
_cell_volume   543.32449626
_cell_formula_units_Z   4
loop_
 _symmetry_equiv_pos_site_id
 _symmetry_equiv_pos_as_xyz
  1  'x, y, z'
loop_
 _atom_site_type_symbol
 _atom_site_label
 _atom_site_symmetry_multiplicity
 _atom_site_fract_x
 _atom_site_fract_y
 _atom_site_fract_z
 _atom_site_occupancy
  Nd  Nd0  1  0.250000  0.932184  0.792127  1
  Nd  Nd1  1  0.750000  0.432184  0.707873  1
  Nd  Nd2  1  0.250000  0.567816  0.292127  1
  Nd  Nd3  1  0.750000  0.067816  0.207873  1
  Tm  Tm4  1  0.250000  0.842143  0.502733  1
  Tm  Tm5  1  0.750000  0.342143  0.997267  1
  Tm  Tm6  1  0.250000  0.657857  0.002733  1
  Tm  Tm7  1  0.750000  0.157857  0.497267  1
  Cu  Cu8  1  0.250000  0.403730  0.511059  1
  Cu  Cu9  1  0.750000  0.903730  0.988941  1
  Cu  Cu10  1  0.250000  0.096270  0.011059  1
  Cu  Cu11  1  0.750000  0.596270  0.488941  1
  Cu  Cu12  1  0.250000  0.270466  0.331978  1
  Cu  Cu13  1  0.750000  0.770466  0.168022  1
  Cu  Cu14  1  0.250000  0.229534  0.831978  1
  Cu  Cu15  1  0.750000  0.729534  0.668022  1
  Cu  Cu16  1  0.250000  0.858909  0.282678  1
  Cu  Cu17  1  0.750000  0.358909  0.217322  1
  Cu  Cu18  1  0.250000  0.641091  0.782678  1
  Cu  Cu19  1  0.750000  0.141091  0.717322  1
  P  P20  1  0.250000  0.238062  0.640901  1
  P  P21  1  0.750000  0.738062  0.859099  1
  P  P22  1  0.250000  0.261938  0.140901  1
  P  P23  1  0.750000  0.761938  0.359099  1
  P  P24  1  0.250000  0.608393  0.600357  1
  P  P25  1  0.750000  0.108393  0.899643  1
  P  P26  1  0.250000  0.891607  0.100357  1
  P  P27  1  0.750000  0.391607  0.399643  1
  P  P28  1  0.250000  0.056975  0.374896  1
  P  P29  1  0.750000  0.556975  0.125104  1
  P  P30  1  0.250000  0.443025  0.874896  1
  P  P31  1  0.750000  0.943025  0.625104  1
