# generated using pymatgen
data_Sc16Cu5Pt3O4
_symmetry_space_group_name_H-M   'P 1'
_cell_length_a   8.69860749
_cell_length_b   8.67980588
_cell_length_c   8.71555700
_cell_angle_alpha   59.86365077
_cell_angle_beta   59.93551833
_cell_angle_gamma   59.83206347
_symmetry_Int_Tables_number   1
_chemical_formula_structural   Sc16Cu5Pt3O4
_chemical_formula_sum   'Sc16 Cu5 Pt3 O4'
_cell_volume   464.00874246
_cell_formula_units_Z   1
loop_
 _symmetry_equiv_pos_site_id
 _symmetry_equiv_pos_as_xyz
  1  'x, y, z'
loop_
 _atom_site_type_symbol
 _atom_site_label
 _atom_site_symmetry_multiplicity
 _atom_site_fract_x
 _atom_site_fract_y
 _atom_site_fract_z
 _atom_site_occupancy
  Sc  Sc0  1  0.818179  0.179217  0.818547  1
  Sc  Sc1  1  0.180464  0.817896  0.184389  1
  Sc  Sc2  1  0.433375  0.065047  0.432140  1
  Sc  Sc3  1  0.433375  0.065047  0.069438  1
  Sc  Sc4  1  0.066999  0.433099  0.431944  1
  Sc  Sc5  1  0.066999  0.433099  0.067959  1
  Sc  Sc6  1  0.182427  0.181617  0.817979  1
  Sc  Sc7  1  0.432056  0.431863  0.068040  1
  Sc  Sc8  1  0.127638  0.619549  0.626406  1
  Sc  Sc9  1  0.625245  0.621354  0.125582  1
  Sc  Sc10  1  0.625245  0.621354  0.627819  1
  Sc  Sc11  1  0.621089  0.132219  0.623346  1
  Sc  Sc12  1  0.180464  0.817896  0.817251  1
  Sc  Sc13  1  0.818179  0.179217  0.184058  1
  Sc  Sc14  1  0.067257  0.064342  0.434201  1
  Sc  Sc15  1  0.816585  0.817427  0.182994  1
  Cu  Cu16  1  0.497265  0.835720  0.833507  1
  Cu  Cu17  1  0.412228  0.415075  0.410762  1
  Cu  Cu18  1  0.412228  0.415075  0.761935  1
  Cu  Cu19  1  0.834942  0.494358  0.835350  1
  Cu  Cu20  1  0.758421  0.417624  0.411978  1
  Pt  Pt21  1  0.413456  0.762283  0.412130  1
  Pt  Pt22  1  0.837245  0.838982  0.485719  1
  Pt  Pt23  1  0.837245  0.838982  0.838053  1
  O  O24  1  0.125229  0.124803  0.625434  1
  O  O25  1  0.625945  0.125006  0.124525  1
  O  O26  1  0.125229  0.124803  0.124534  1
  O  O27  1  0.124989  0.627046  0.123982  1
