# generated using pymatgen
data_SmTlAg2(NO3)8
_symmetry_space_group_name_H-M   'P 1'
_cell_length_a   7.77356727
_cell_length_b   8.16552860
_cell_length_c   8.07388103
_cell_angle_alpha   89.80783205
_cell_angle_beta   87.20551560
_cell_angle_gamma   88.51052506
_symmetry_Int_Tables_number   1
_chemical_formula_structural   SmTlAg2(NO3)8
_chemical_formula_sum   'Sm1 Tl1 Ag2 N8 O24'
_cell_volume   511.70839547
_cell_formula_units_Z   1
loop_
 _symmetry_equiv_pos_site_id
 _symmetry_equiv_pos_as_xyz
  1  'x, y, z'
loop_
 _atom_site_type_symbol
 _atom_site_label
 _atom_site_symmetry_multiplicity
 _atom_site_fract_x
 _atom_site_fract_y
 _atom_site_fract_z
 _atom_site_occupancy
  Sm  Sm0  1  0.000000  0.000000  0.000000  1
  Tl  Tl1  1  0.000000  0.500000  0.500000  1
  Ag  Ag2  1  0.500000  0.500000  0.000000  1
  Ag  Ag3  1  0.500000  0.000000  0.500000  1
  N  N4  1  0.346895  0.352754  0.332600  1
  N  N5  1  0.306894  0.164378  0.854792  1
  N  N6  1  0.169519  0.819778  0.338257  1
  N  N7  1  0.885416  0.307692  0.181533  1
  N  N8  1  0.653105  0.647246  0.667400  1
  N  N9  1  0.114584  0.692308  0.818467  1
  N  N10  1  0.830481  0.180222  0.661743  1
  N  N11  1  0.693106  0.835622  0.145208  1
  O  O12  1  0.821093  0.273490  0.045256  1
  O  O13  1  0.191161  0.933037  0.232704  1
  O  O14  1  0.262612  0.801877  0.457976  1
  O  O15  1  0.221688  0.213626  0.986589  1
  O  O16  1  0.247026  0.337594  0.466758  1
  O  O17  1  0.462396  0.246685  0.306083  1
  O  O18  1  0.321556  0.472999  0.238247  1
  O  O19  1  0.157415  0.558350  0.745302  1
  O  O20  1  0.956476  0.277712  0.683645  1
  O  O21  1  0.751883  0.961356  0.217176  1
  O  O22  1  0.008095  0.791961  0.757185  1
  O  O23  1  0.562279  0.766366  0.198926  1
  O  O24  1  0.808839  0.066963  0.767296  1
  O  O25  1  0.737388  0.198123  0.542024  1
  O  O26  1  0.778312  0.786374  0.013411  1
  O  O27  1  0.178907  0.726510  0.954744  1
  O  O28  1  0.752974  0.662406  0.533242  1
  O  O29  1  0.537604  0.753315  0.693917  1
  O  O30  1  0.678444  0.527001  0.761753  1
  O  O31  1  0.842585  0.441650  0.254698  1
  O  O32  1  0.043524  0.722288  0.316355  1
  O  O33  1  0.248117  0.038644  0.782824  1
  O  O34  1  0.991905  0.208039  0.242815  1
  O  O35  1  0.437721  0.233634  0.801074  1
