# generated using pymatgen
data_Nb4Si2NiRu9
_symmetry_space_group_name_H-M   'P 1'
_cell_length_a   4.05850500
_cell_length_b   5.38588183
_cell_length_c   10.62088980
_cell_angle_alpha   89.06550869
_cell_angle_beta   90.00000000
_cell_angle_gamma   90.00000000
_symmetry_Int_Tables_number   1
_chemical_formula_structural   Nb4Si2NiRu9
_chemical_formula_sum   'Nb4 Si2 Ni1 Ru9'
_cell_volume   232.12720468
_cell_formula_units_Z   1
loop_
 _symmetry_equiv_pos_site_id
 _symmetry_equiv_pos_as_xyz
  1  'x, y, z'
loop_
 _atom_site_type_symbol
 _atom_site_label
 _atom_site_symmetry_multiplicity
 _atom_site_fract_x
 _atom_site_fract_y
 _atom_site_fract_z
 _atom_site_occupancy
  Nb  Nb0  1  0.500000  0.835947  0.359681  1
  Nb  Nb1  1  0.500000  0.172861  0.641184  1
  Nb  Nb2  1  0.500000  0.325001  0.139300  1
  Nb  Nb3  1  0.500000  0.666367  0.859307  1
  Si  Si4  1  0.000000  0.509406  0.497976  1
  Si  Si5  1  0.000000  0.993953  0.000557  1
  Ni  Ni6  1  0.000000  0.578930  0.250071  1
  Ru  Ru7  1  0.000000  0.491696  0.003206  1
  Ru  Ru8  1  0.000000  0.009483  0.500016  1
  Ru  Ru9  1  0.000000  0.416984  0.748675  1
  Ru  Ru10  1  0.000000  0.083589  0.245661  1
  Ru  Ru11  1  0.000000  0.915376  0.753052  1
  Ru  Ru12  1  0.500000  0.813970  0.108636  1
  Ru  Ru13  1  0.500000  0.172831  0.895836  1
  Ru  Ru14  1  0.500000  0.332781  0.391329  1
  Ru  Ru15  1  0.500000  0.680828  0.605512  1
