# generated using pymatgen
data_Dy16Lu4Si15Hg
_symmetry_space_group_name_H-M   'P 1'
_cell_length_a   7.39602962
_cell_length_b   7.68243903
_cell_length_c   14.62703718
_cell_angle_alpha   89.97315545
_cell_angle_beta   89.37169331
_cell_angle_gamma   90.12414660
_symmetry_Int_Tables_number   1
_chemical_formula_structural   Dy16Lu4Si15Hg
_chemical_formula_sum   'Dy16 Lu4 Si15 Hg1'
_cell_volume   831.04959829
_cell_formula_units_Z   1
loop_
 _symmetry_equiv_pos_site_id
 _symmetry_equiv_pos_as_xyz
  1  'x, y, z'
loop_
 _atom_site_type_symbol
 _atom_site_label
 _atom_site_symmetry_multiplicity
 _atom_site_fract_x
 _atom_site_fract_y
 _atom_site_fract_z
 _atom_site_occupancy
  Dy  Dy0  1  0.976379  0.822293  0.102114  1
  Dy  Dy1  1  0.471310  0.684055  0.401100  1
  Dy  Dy2  1  0.518580  0.312992  0.898918  1
  Dy  Dy3  1  0.029797  0.182415  0.598194  1
  Dy  Dy4  1  0.028472  0.176797  0.899547  1
  Dy  Dy5  1  0.529328  0.316459  0.598200  1
  Dy  Dy6  1  0.475646  0.682501  0.101199  1
  Dy  Dy7  1  0.970275  0.816381  0.400585  1
  Dy  Dy8  1  0.673672  0.829589  0.873536  1
  Dy  Dy9  1  0.182461  0.679557  0.621752  1
  Dy  Dy10  1  0.822163  0.320242  0.126470  1
  Dy  Dy11  1  0.318269  0.178624  0.377347  1
  Dy  Dy12  1  0.322628  0.177108  0.124729  1
  Dy  Dy13  1  0.818751  0.321278  0.377300  1
  Dy  Dy14  1  0.182762  0.675978  0.877033  1
  Dy  Dy15  1  0.682294  0.822109  0.621913  1
  Lu  Lu16  1  0.649184  0.989437  0.250671  1
  Lu  Lu17  1  0.151407  0.511519  0.249118  1
  Lu  Lu18  1  0.849258  0.489296  0.747602  1
  Lu  Lu19  1  0.348649  0.012165  0.748701  1
  Si  Si20  1  0.768917  0.630868  0.251948  1
  Si  Si21  1  0.268673  0.870221  0.251760  1
  Si  Si22  1  0.733216  0.129652  0.748079  1
  Si  Si23  1  0.229362  0.370822  0.747671  1
  Si  Si24  1  0.019859  0.102052  0.251734  1
  Si  Si25  1  0.520790  0.396893  0.252045  1
  Si  Si26  1  0.479262  0.602536  0.747672  1
  Si  Si27  1  0.980338  0.894167  0.748029  1
  Si  Si28  1  0.354293  0.972313  0.540634  1
  Si  Si29  1  0.650860  0.028914  0.042018  1
  Si  Si30  1  0.146407  0.471180  0.459568  1
  Si  Si31  1  0.160927  0.470706  0.043806  1
  Si  Si32  1  0.645489  0.027869  0.458466  1
  Si  Si33  1  0.349784  0.969281  0.961074  1
  Si  Si34  1  0.854645  0.529209  0.539886  1
  Hg  Hg35  1  0.835893  0.532518  0.959582  1
