# generated using pymatgen
data_Hf9ZrSn4(GeSb)2
_symmetry_space_group_name_H-M   'P 1'
_cell_length_a   8.62263839
_cell_length_b   8.64392025
_cell_length_c   5.84111200
_cell_angle_alpha   90.00000000
_cell_angle_beta   90.00000000
_cell_angle_gamma   120.03257264
_symmetry_Int_Tables_number   1
_chemical_formula_structural   Hf9ZrSn4(GeSb)2
_chemical_formula_sum   'Hf9 Zr1 Sn4 Ge2 Sb2'
_cell_volume   376.90721463
_cell_formula_units_Z   1
loop_
 _symmetry_equiv_pos_site_id
 _symmetry_equiv_pos_as_xyz
  1  'x, y, z'
loop_
 _atom_site_type_symbol
 _atom_site_label
 _atom_site_symmetry_multiplicity
 _atom_site_fract_x
 _atom_site_fract_y
 _atom_site_fract_z
 _atom_site_occupancy
  Hf  Hf0  1  0.666412  0.331928  0.998936  1
  Hf  Hf1  1  0.333011  0.666684  0.998933  1
  Hf  Hf2  1  0.333011  0.666684  0.501067  1
  Hf  Hf3  1  0.666412  0.331928  0.501064  1
  Hf  Hf4  1  0.733205  0.733955  0.750000  1
  Hf  Hf5  1  0.267390  0.001116  0.750000  1
  Hf  Hf6  1  0.000325  0.268324  0.750000  1
  Hf  Hf7  1  0.262313  0.262093  0.250000  1
  Hf  Hf8  1  0.736912  0.999440  0.250000  1
  Zr  Zr9  1  0.000338  0.736613  0.250000  1
  Sn  Sn10  1  0.392121  0.392108  0.750000  1
  Sn  Sn11  1  0.609250  0.999461  0.750000  1
  Sn  Sn12  1  0.999447  0.609586  0.750000  1
  Sn  Sn13  1  0.604790  0.604994  0.250000  1
  Ge  Ge14  1  0.999610  0.000617  0.996006  1
  Ge  Ge15  1  0.999610  0.000617  0.503994  1
  Sb  Sb16  1  0.396113  0.000163  0.250000  1
  Sb  Sb17  1  0.999731  0.393688  0.250000  1
