# generated using pymatgen
data_Th3As5PPd9
_symmetry_space_group_name_H-M   'P 1'
_cell_length_a   8.55827434
_cell_length_b   8.55827389
_cell_length_c   10.07232409
_cell_angle_alpha   73.60583717
_cell_angle_beta   73.60583773
_cell_angle_gamma   28.12283822
_symmetry_Int_Tables_number   1
_chemical_formula_structural   Th3As5PPd9
_chemical_formula_sum   'Th3 As5 P1 Pd9'
_cell_volume   332.69743581
_cell_formula_units_Z   1
loop_
 _symmetry_equiv_pos_site_id
 _symmetry_equiv_pos_as_xyz
  1  'x, y, z'
loop_
 _atom_site_type_symbol
 _atom_site_label
 _atom_site_symmetry_multiplicity
 _atom_site_fract_x
 _atom_site_fract_y
 _atom_site_fract_z
 _atom_site_occupancy
  Th  Th0  1  0.844206  0.844206  0.703969  1
  Th  Th1  1  0.999548  0.999548  0.000221  1
  Th  Th2  1  0.154059  0.154059  0.303905  1
  As  As3  1  0.462492  0.462492  0.792970  1
  As  As4  1  0.196909  0.196909  0.870330  1
  As  As5  1  0.366027  0.366027  0.465162  1
  As  As6  1  0.803225  0.803225  0.128393  1
  As  As7  1  0.536113  0.536113  0.205214  1
  P  P8  1  0.639108  0.639108  0.547683  1
  Pd  Pd9  1  0.321472  0.321472  0.970386  1
  Pd  Pd10  1  0.038860  0.038860  0.664838  1
  Pd  Pd11  1  0.774016  0.774016  0.393035  1
  Pd  Pd12  1  0.677647  0.677647  0.031293  1
  Pd  Pd13  1  0.628779  0.628779  0.786506  1
  Pd  Pd14  1  0.370908  0.370908  0.213028  1
  Pd  Pd15  1  0.955810  0.955810  0.340485  1
  Pd  Pd16  1  0.515445  0.515445  0.482332  1
  Pd  Pd17  1  0.215378  0.215378  0.600250  1
