# generated using pymatgen
data_Y9Tm3Sc8(GaO4)12
_symmetry_space_group_name_H-M   'P 1'
_cell_length_a   10.89810201
_cell_length_b   10.89386622
_cell_length_c   10.89394111
_cell_angle_alpha   109.46421602
_cell_angle_beta   109.47987392
_cell_angle_gamma   109.47749105
_symmetry_Int_Tables_number   1
_chemical_formula_structural   Y9Tm3Sc8(GaO4)12
_chemical_formula_sum   'Y9 Tm3 Sc8 Ga12 O48'
_cell_volume   995.52823111
_cell_formula_units_Z   1
loop_
 _symmetry_equiv_pos_site_id
 _symmetry_equiv_pos_as_xyz
  1  'x, y, z'
loop_
 _atom_site_type_symbol
 _atom_site_label
 _atom_site_symmetry_multiplicity
 _atom_site_fract_x
 _atom_site_fract_y
 _atom_site_fract_z
 _atom_site_occupancy
  Y  Y0  1  0.374840  0.124840  0.249680  1
  Y  Y1  1  0.125102  0.250101  0.374673  1
  Y  Y2  1  0.749569  0.124571  0.374671  1
  Y  Y3  1  0.874993  0.749892  0.624556  1
  Y  Y4  1  0.249562  0.874663  0.624553  1
  Y  Y5  1  0.125519  0.375517  0.751034  1
  Y  Y6  1  0.624945  0.874944  0.749888  1
  Y  Y7  1  0.625369  0.250611  0.875593  1
  Y  Y8  1  0.750223  0.624984  0.875593  1
  Tm  Tm9  1  0.250196  0.375576  0.124963  1
  Tm  Tm10  1  0.374766  0.749386  0.124963  1
  Tm  Tm11  1  0.874899  0.624898  0.249797  1
  Sc  Sc12  1  0.000247  0.000690  0.000218  1
  Sc  Sc13  1  0.499967  0.999525  0.000214  1
  Sc  Sc14  1  0.000980  0.500464  0.001336  1
  Sc  Sc15  1  0.500344  0.500863  0.001329  1
  Sc  Sc16  1  0.999399  0.999196  0.499254  1
  Sc  Sc17  1  0.499634  0.500058  0.499158  1
  Sc  Sc18  1  0.499538  0.999101  0.499166  1
  Sc  Sc19  1  0.999850  0.500055  0.499263  1
  Ga  Ga20  1  0.749391  0.874271  0.125141  1
  Ga  Ga21  1  0.875747  0.250870  0.125141  1
  Ga  Ga22  1  0.625142  0.375836  0.249864  1
  Ga  Ga23  1  0.124726  0.874029  0.249865  1
  Ga  Ga24  1  0.624159  0.749113  0.373543  1
  Ga  Ga25  1  0.249382  0.624430  0.373542  1
  Ga  Ga26  1  0.749978  0.374971  0.625007  1
  Ga  Ga27  1  0.375026  0.250035  0.625007  1
  Ga  Ga28  1  0.875572  0.125459  0.750761  1
  Ga  Ga29  1  0.375194  0.625303  0.750763  1
  Ga  Ga30  1  0.125688  0.749949  0.875654  1
  Ga  Ga31  1  0.249965  0.125705  0.875654  1
  O  O32  1  0.318819  0.902916  0.032188  1
  O  O33  1  0.213368  0.129273  0.032189  1
  O  O34  1  0.714714  0.682303  0.088467  1
  O  O35  1  0.873755  0.406166  0.088469  1
  O  O36  1  0.967944  0.680897  0.097425  1
  O  O37  1  0.629483  0.416531  0.097426  1
  O  O38  1  0.594044  0.911372  0.126309  1
  O  O39  1  0.032265  0.214937  0.126311  1
  O  O40  1  0.214988  0.585592  0.181159  1
  O  O41  1  0.466173  0.595569  0.181159  1
  O  O42  1  0.586639  0.182963  0.213223  1
  O  O43  1  0.126583  0.030260  0.213225  1
  O  O44  1  0.316908  0.910902  0.284959  1
  O  O45  1  0.468052  0.374056  0.284956  1
  O  O46  1  0.903961  0.030876  0.317543  1
  O  O47  1  0.913580  0.286669  0.317545  1
  O  O48  1  0.583680  0.902063  0.370213  1
  O  O49  1  0.286534  0.468149  0.370212  1
  O  O50  1  0.818738  0.532024  0.402587  1
  O  O51  1  0.083847  0.870562  0.402585  1
  O  O52  1  0.094357  0.626125  0.411195  1
  O  O53  1  0.816835  0.785065  0.411190  1
  O  O54  1  0.595497  0.182096  0.469069  1
  O  O55  1  0.373571  0.286972  0.469067  1
  O  O56  1  0.626722  0.713339  0.530376  1
  O  O57  1  0.403655  0.817037  0.530377  1
  O  O58  1  0.182339  0.212958  0.586787  1
  O  O59  1  0.904449  0.373829  0.586791  1
  O  O60  1  0.913149  0.126398  0.595845  1
  O  O61  1  0.182698  0.469450  0.595849  1
  O  O62  1  0.412997  0.095351  0.626057  1
  O  O63  1  0.713061  0.530705  0.626056  1
  O  O64  1  0.086788  0.713032  0.682611  1
  O  O65  1  0.095822  0.969579  0.682610  1
  O  O66  1  0.682436  0.086541  0.712866  1
  O  O67  1  0.530433  0.626327  0.712864  1
  O  O68  1  0.413430  0.817892  0.786853  1
  O  O69  1  0.873425  0.968962  0.786853  1
  O  O70  1  0.530460  0.404354  0.817955  1
  O  O71  1  0.787496  0.413604  0.817957  1
  O  O72  1  0.969883  0.787050  0.874025  1
  O  O73  1  0.404141  0.086976  0.874025  1
  O  O74  1  0.032318  0.317709  0.906216  1
  O  O75  1  0.373901  0.588510  0.906217  1
  O  O76  1  0.287168  0.319107  0.916510  1
  O  O77  1  0.129343  0.597403  0.916509  1
  O  O78  1  0.682789  0.096185  0.969632  1
  O  O79  1  0.786843  0.873449  0.969633  1
