# generated using pymatgen
data_YbDyGeRh3
_symmetry_space_group_name_H-M   'P 1'
_cell_length_a   5.06576416
_cell_length_b   5.06576369
_cell_length_c   5.06576400
_cell_angle_alpha   67.62043417
_cell_angle_beta   67.62042417
_cell_angle_gamma   67.62041289
_symmetry_Int_Tables_number   1
_chemical_formula_structural   YbDyGeRh3
_chemical_formula_sum   'Yb1 Dy1 Ge1 Rh3'
_cell_volume   106.84307433
_cell_formula_units_Z   1
loop_
 _symmetry_equiv_pos_site_id
 _symmetry_equiv_pos_as_xyz
  1  'x, y, z'
loop_
 _atom_site_type_symbol
 _atom_site_label
 _atom_site_symmetry_multiplicity
 _atom_site_fract_x
 _atom_site_fract_y
 _atom_site_fract_z
 _atom_site_occupancy
  Yb  Yb0  1  0.631433  0.631433  0.631433  1
  Dy  Dy1  1  0.371276  0.371276  0.371276  1
  Ge  Ge2  1  0.999368  0.999368  0.999368  1
  Rh  Rh3  1  0.998878  0.998878  0.500166  1
  Rh  Rh4  1  0.500166  0.998878  0.998878  1
  Rh  Rh5  1  0.998878  0.500166  0.998878  1
