# generated using pymatgen
data_Er8Ga3Fe
_symmetry_space_group_name_H-M   'P 1'
_cell_length_a   9.93372000
_cell_length_b   9.93399254
_cell_length_c   6.84694500
_cell_angle_alpha   90.00000000
_cell_angle_beta   90.00000000
_cell_angle_gamma   119.99909911
_symmetry_Int_Tables_number   1
_chemical_formula_structural   Er8Ga3Fe
_chemical_formula_sum   'Er16 Ga6 Fe2'
_cell_volume   585.14993010
_cell_formula_units_Z   2
loop_
 _symmetry_equiv_pos_site_id
 _symmetry_equiv_pos_as_xyz
  1  'x, y, z'
loop_
 _atom_site_type_symbol
 _atom_site_label
 _atom_site_symmetry_multiplicity
 _atom_site_fract_x
 _atom_site_fract_y
 _atom_site_fract_z
 _atom_site_occupancy
  Er  Er0  1  0.666671  0.333349  0.171954  1
  Er  Er1  1  0.000015  0.000023  0.269213  1
  Er  Er2  1  0.463748  0.927476  0.293467  1
  Er  Er3  1  0.072420  0.536242  0.293481  1
  Er  Er4  1  0.463820  0.536261  0.293484  1
  Er  Er5  1  0.346363  0.173196  0.491091  1
  Er  Er6  1  0.826821  0.173202  0.491087  1
  Er  Er7  1  0.826785  0.653574  0.491054  1
  Er  Er8  1  0.333329  0.666651  0.671953  1
  Er  Er9  1  0.999985  0.999977  0.769213  1
  Er  Er10  1  0.536252  0.072525  0.793468  1
  Er  Er11  1  0.536180  0.463738  0.793485  1
  Er  Er12  1  0.927580  0.463757  0.793482  1
  Er  Er13  1  0.173179  0.826798  0.991088  1
  Er  Er14  1  0.653637  0.826804  0.991092  1
  Er  Er15  1  0.173215  0.346426  0.991055  1
  Ga  Ga16  1  0.836341  0.672684  0.040277  1
  Ga  Ga17  1  0.327350  0.163667  0.040311  1
  Ga  Ga18  1  0.836324  0.163663  0.040291  1
  Ga  Ga19  1  0.163659  0.327315  0.540278  1
  Ga  Ga20  1  0.163677  0.836338  0.540291  1
  Ga  Ga21  1  0.672650  0.836334  0.540311  1
  Fe  Fe22  1  0.333292  0.666611  0.057289  1
  Fe  Fe23  1  0.666708  0.333388  0.557289  1
