# generated using pymatgen
data_Y12TlNi5
_symmetry_space_group_name_H-M   'P 1'
_cell_length_a   8.37727682
_cell_length_b   8.37727519
_cell_length_c   8.37727600
_cell_angle_alpha   107.34475473
_cell_angle_beta   109.57905121
_cell_angle_gamma   111.51669647
_symmetry_Int_Tables_number   1
_chemical_formula_structural   Y12TlNi5
_chemical_formula_sum   'Y12 Tl1 Ni5'
_cell_volume   451.97094040
_cell_formula_units_Z   1
loop_
 _symmetry_equiv_pos_site_id
 _symmetry_equiv_pos_as_xyz
  1  'x, y, z'
loop_
 _atom_site_type_symbol
 _atom_site_label
 _atom_site_symmetry_multiplicity
 _atom_site_fract_x
 _atom_site_fract_y
 _atom_site_fract_z
 _atom_site_occupancy
  Y  Y0  1  0.478007  0.295619  0.182390  1
  Y  Y1  1  0.113229  0.295619  0.817611  1
  Y  Y2  1  0.886771  0.704381  0.182389  1
  Y  Y3  1  0.521993  0.704381  0.817610  1
  Y  Y4  1  0.305199  0.627684  0.322485  1
  Y  Y5  1  0.305212  0.982735  0.677522  1
  Y  Y6  1  0.694801  0.372316  0.677515  1
  Y  Y7  1  0.694788  0.017265  0.322478  1
  Y  Y8  1  0.190749  0.211167  0.401915  1
  Y  Y9  1  0.809251  0.788833  0.598085  1
  Y  Y10  1  0.190748  0.788833  0.979581  1
  Y  Y11  1  0.809252  0.211167  0.020419  1
  Tl  Tl12  1  0.000000  0.500000  0.500000  1
  Ni  Ni13  1  0.500004  0.623684  0.123679  1
  Ni  Ni14  1  0.499996  0.376316  0.876321  1
  Ni  Ni15  1  0.365846  0.000000  0.365846  1
  Ni  Ni16  1  0.634154  0.000000  0.634154  1
  Ni  Ni17  1  0.000000  0.000000  0.000000  1
