# generated using pymatgen
data_YInNi5
_symmetry_space_group_name_H-M   'P 1'
_cell_length_a   10.26949508
_cell_length_b   10.26949483
_cell_length_c   10.26949395
_cell_angle_alpha   27.36747567
_cell_angle_beta   27.36747699
_cell_angle_gamma   27.36747339
_symmetry_Int_Tables_number   1
_chemical_formula_structural   YInNi5
_chemical_formula_sum   'Y2 In2 Ni10'
_cell_volume   201.97158366
_cell_formula_units_Z   2
loop_
 _symmetry_equiv_pos_site_id
 _symmetry_equiv_pos_as_xyz
  1  'x, y, z'
loop_
 _atom_site_type_symbol
 _atom_site_label
 _atom_site_symmetry_multiplicity
 _atom_site_fract_x
 _atom_site_fract_y
 _atom_site_fract_z
 _atom_site_occupancy
  Y  Y0  1  0.000000  0.000000  0.000000  1
  Y  Y1  1  0.500000  0.500000  0.500000  1
  In  In2  1  0.110352  0.110352  0.110352  1
  In  In3  1  0.889648  0.889648  0.889648  1
  Ni  Ni4  1  0.333654  0.333654  0.333654  1
  Ni  Ni5  1  0.567222  0.567222  0.069867  1
  Ni  Ni6  1  0.069867  0.567222  0.567222  1
  Ni  Ni7  1  0.567222  0.069867  0.567222  1
  Ni  Ni8  1  0.801910  0.801910  0.801910  1
  Ni  Ni9  1  0.198090  0.198090  0.198090  1
  Ni  Ni10  1  0.432778  0.930133  0.432778  1
  Ni  Ni11  1  0.930133  0.432778  0.432778  1
  Ni  Ni12  1  0.432778  0.432778  0.930133  1
  Ni  Ni13  1  0.666346  0.666346  0.666346  1
