# generated using pymatgen
data_Na2CePrB24
_symmetry_space_group_name_H-M   'P 1'
_cell_length_a   4.15320400
_cell_length_b   5.86996100
_cell_length_c   11.73123800
_cell_angle_alpha   90.00000000
_cell_angle_beta   90.00000000
_cell_angle_gamma   90.00000000
_symmetry_Int_Tables_number   1
_chemical_formula_structural   Na2CePrB24
_chemical_formula_sum   'Na2 Ce1 Pr1 B24'
_cell_volume   285.99755816
_cell_formula_units_Z   1
loop_
 _symmetry_equiv_pos_site_id
 _symmetry_equiv_pos_as_xyz
  1  'x, y, z'
loop_
 _atom_site_type_symbol
 _atom_site_label
 _atom_site_symmetry_multiplicity
 _atom_site_fract_x
 _atom_site_fract_y
 _atom_site_fract_z
 _atom_site_occupancy
  Na  Na0  1  0.000000  0.500000  0.249318  1
  Na  Na1  1  0.000000  0.500000  0.750682  1
  Ce  Ce2  1  0.000000  0.000000  0.500000  1
  Pr  Pr3  1  0.000000  0.000000  0.000000  1
  B  B4  1  0.201366  0.500000  0.500000  1
  B  B5  1  0.201519  0.000000  0.749074  1
  B  B6  1  0.201687  0.500000  0.000000  1
  B  B7  1  0.201519  0.000000  0.250926  1
  B  B8  1  0.500000  0.647987  0.575225  1
  B  B9  1  0.500000  0.150695  0.823466  1
  B  B10  1  0.500000  0.648093  0.075439  1
  B  B11  1  0.500000  0.150426  0.324744  1
  B  B12  1  0.500000  0.352013  0.575225  1
  B  B13  1  0.500000  0.849305  0.823466  1
  B  B14  1  0.500000  0.351907  0.075439  1
  B  B15  1  0.500000  0.849574  0.324744  1
  B  B16  1  0.500000  0.352013  0.424775  1
  B  B17  1  0.500000  0.849574  0.675256  1
  B  B18  1  0.500000  0.351907  0.924561  1
  B  B19  1  0.500000  0.849305  0.176534  1
  B  B20  1  0.500000  0.647987  0.424775  1
  B  B21  1  0.500000  0.150426  0.675256  1
  B  B22  1  0.500000  0.648093  0.924561  1
  B  B23  1  0.500000  0.150695  0.176534  1
  B  B24  1  0.798634  0.500000  0.500000  1
  B  B25  1  0.798481  0.000000  0.749074  1
  B  B26  1  0.798313  0.500000  0.000000  1
  B  B27  1  0.798481  0.000000  0.250926  1
