# generated using pymatgen
data_Y20Hg3Os2Pd3
_symmetry_space_group_name_H-M   'P 1'
_cell_length_a   9.56391000
_cell_length_b   9.56390998
_cell_length_c   9.63728800
_cell_angle_alpha   90.00000000
_cell_angle_beta   90.00000000
_cell_angle_gamma   120.00000006
_symmetry_Int_Tables_number   1
_chemical_formula_structural   Y20Hg3Os2Pd3
_chemical_formula_sum   'Y20 Hg3 Os2 Pd3'
_cell_volume   763.40751256
_cell_formula_units_Z   1
loop_
 _symmetry_equiv_pos_site_id
 _symmetry_equiv_pos_as_xyz
  1  'x, y, z'
loop_
 _atom_site_type_symbol
 _atom_site_label
 _atom_site_symmetry_multiplicity
 _atom_site_fract_x
 _atom_site_fract_y
 _atom_site_fract_z
 _atom_site_occupancy
  Y  Y0  1  0.000002  0.999998  0.454562  1
  Y  Y1  1  0.000002  0.999998  0.045438  1
  Y  Y2  1  0.208591  0.791409  0.441408  1
  Y  Y3  1  0.208623  0.417208  0.441454  1
  Y  Y4  1  0.582792  0.791377  0.441454  1
  Y  Y5  1  0.793133  0.206867  0.558615  1
  Y  Y6  1  0.793126  0.586291  0.558597  1
  Y  Y7  1  0.413709  0.206874  0.558597  1
  Y  Y8  1  0.793133  0.206867  0.941385  1
  Y  Y9  1  0.793126  0.586291  0.941403  1
  Y  Y10  1  0.413709  0.206874  0.941403  1
  Y  Y11  1  0.208591  0.791409  0.058592  1
  Y  Y12  1  0.208623  0.417208  0.058546  1
  Y  Y13  1  0.582792  0.791377  0.058546  1
  Y  Y14  1  0.539248  0.460752  0.250000  1
  Y  Y15  1  0.539289  0.078558  0.250000  1
  Y  Y16  1  0.921442  0.460711  0.250000  1
  Y  Y17  1  0.459897  0.540103  0.750000  1
  Y  Y18  1  0.459870  0.919761  0.750000  1
  Y  Y19  1  0.080239  0.540130  0.750000  1
  Hg  Hg20  1  0.112112  0.887888  0.750000  1
  Hg  Hg21  1  0.112104  0.224226  0.750000  1
  Hg  Hg22  1  0.775774  0.887896  0.750000  1
  Os  Os23  1  0.333376  0.666624  0.250000  1
  Os  Os24  1  0.666691  0.333309  0.750000  1
  Pd  Pd25  1  0.870082  0.129918  0.250000  1
  Pd  Pd26  1  0.870077  0.740149  0.250000  1
  Pd  Pd27  1  0.259851  0.129923  0.250000  1
