# generated using pymatgen
data_Dy4Al17GaIr6
_symmetry_space_group_name_H-M   'P 1'
_cell_length_a   7.54673256
_cell_length_b   7.54673184
_cell_length_c   9.50579600
_cell_angle_alpha   90.00000000
_cell_angle_beta   90.00000000
_cell_angle_gamma   119.41251567
_symmetry_Int_Tables_number   1
_chemical_formula_structural   Dy4Al17GaIr6
_chemical_formula_sum   'Dy4 Al17 Ga1 Ir6'
_cell_volume   471.60418546
_cell_formula_units_Z   1
loop_
 _symmetry_equiv_pos_site_id
 _symmetry_equiv_pos_as_xyz
  1  'x, y, z'
loop_
 _atom_site_type_symbol
 _atom_site_label
 _atom_site_symmetry_multiplicity
 _atom_site_fract_x
 _atom_site_fract_y
 _atom_site_fract_z
 _atom_site_occupancy
  Dy  Dy0  1  0.993817  0.674266  0.750000  1
  Dy  Dy1  1  0.005024  0.328203  0.250000  1
  Dy  Dy2  1  0.674266  0.993817  0.750000  1
  Dy  Dy3  1  0.328203  0.005024  0.250000  1
  Al  Al4  1  0.869818  0.869818  0.250000  1
  Al  Al5  1  0.001256  0.335731  0.573112  1
  Al  Al6  1  0.998611  0.664280  0.426063  1
  Al  Al7  1  0.998611  0.664280  0.073937  1
  Al  Al8  1  0.335731  0.001256  0.926888  1
  Al  Al9  1  0.001256  0.335731  0.926888  1
  Al  Al10  1  0.664280  0.998611  0.073937  1
  Al  Al11  1  0.664280  0.998611  0.426063  1
  Al  Al12  1  0.335731  0.001256  0.573112  1
  Al  Al13  1  0.333315  0.333315  0.053469  1
  Al  Al14  1  0.665787  0.665787  0.949438  1
  Al  Al15  1  0.665787  0.665787  0.550562  1
  Al  Al16  1  0.333315  0.333315  0.446531  1
  Al  Al17  1  0.338453  0.549398  0.750000  1
  Al  Al18  1  0.660895  0.451485  0.250000  1
  Al  Al19  1  0.549398  0.338453  0.750000  1
  Al  Al20  1  0.451485  0.660895  0.250000  1
  Ga  Ga21  1  0.134747  0.134747  0.750000  1
  Ir  Ir22  1  0.671322  0.327584  0.500143  1
  Ir  Ir23  1  0.327584  0.671322  0.500143  1
  Ir  Ir24  1  0.327584  0.671322  0.999857  1
  Ir  Ir25  1  0.671322  0.327584  0.999857  1
  Ir  Ir26  1  0.999060  0.999060  0.497550  1
  Ir  Ir27  1  0.999060  0.999060  0.002450  1
