# generated using pymatgen
data_La4LuPb4
_symmetry_space_group_name_H-M   'P 1'
_cell_length_a   8.50685100
_cell_length_b   8.60671900
_cell_length_c   16.43401700
_cell_angle_alpha   90.00000000
_cell_angle_beta   90.00000000
_cell_angle_gamma   90.00000000
_symmetry_Int_Tables_number   1
_chemical_formula_structural   La4LuPb4
_chemical_formula_sum   'La16 Lu4 Pb16'
_cell_volume   1203.23423982
_cell_formula_units_Z   4
loop_
 _symmetry_equiv_pos_site_id
 _symmetry_equiv_pos_as_xyz
  1  'x, y, z'
loop_
 _atom_site_type_symbol
 _atom_site_label
 _atom_site_symmetry_multiplicity
 _atom_site_fract_x
 _atom_site_fract_y
 _atom_site_fract_z
 _atom_site_occupancy
  La  La0  1  0.879039  0.658108  0.118030  1
  La  La1  1  0.379039  0.841892  0.381970  1
  La  La2  1  0.620961  0.158108  0.881970  1
  La  La3  1  0.120961  0.341892  0.618030  1
  La  La4  1  0.120961  0.341892  0.881970  1
  La  La5  1  0.620961  0.158108  0.618030  1
  La  La6  1  0.379039  0.841892  0.118030  1
  La  La7  1  0.879039  0.658108  0.381970  1
  La  La8  1  0.029448  0.179572  0.100079  1
  La  La9  1  0.529448  0.320428  0.399921  1
  La  La10  1  0.470552  0.679572  0.899921  1
  La  La11  1  0.970552  0.820428  0.600079  1
  La  La12  1  0.970552  0.820428  0.899921  1
  La  La13  1  0.470552  0.679572  0.600079  1
  La  La14  1  0.529448  0.320428  0.100079  1
  La  La15  1  0.029448  0.179572  0.399921  1
  Lu  Lu16  1  0.712160  0.996632  0.250000  1
  Lu  Lu17  1  0.212160  0.503368  0.250000  1
  Lu  Lu18  1  0.787840  0.496632  0.750000  1
  Lu  Lu19  1  0.287840  0.003368  0.750000  1
  Pb  Pb20  1  0.072695  0.877462  0.250000  1
  Pb  Pb21  1  0.572695  0.622538  0.250000  1
  Pb  Pb22  1  0.427305  0.377462  0.750000  1
  Pb  Pb23  1  0.927305  0.122538  0.750000  1
  Pb  Pb24  1  0.838044  0.348536  0.250000  1
  Pb  Pb25  1  0.338044  0.151464  0.250000  1
  Pb  Pb26  1  0.661956  0.848536  0.750000  1
  Pb  Pb27  1  0.161956  0.651464  0.750000  1
  Pb  Pb28  1  0.779958  0.469789  0.953265  1
  Pb  Pb29  1  0.279958  0.030211  0.546735  1
  Pb  Pb30  1  0.720042  0.969789  0.046735  1
  Pb  Pb31  1  0.220042  0.530211  0.453265  1
  Pb  Pb32  1  0.220042  0.530211  0.046735  1
  Pb  Pb33  1  0.720042  0.969789  0.453265  1
  Pb  Pb34  1  0.279958  0.030211  0.953265  1
  Pb  Pb35  1  0.779958  0.469789  0.546735  1
