# generated using pymatgen
data_TmUSnGeRu2
_symmetry_space_group_name_H-M   'P 1'
_cell_length_a   4.67897600
_cell_length_b   7.04296505
_cell_length_c   7.36106329
_cell_angle_alpha   83.92893650
_cell_angle_beta   90.00000000
_cell_angle_gamma   90.00000000
_symmetry_Int_Tables_number   1
_chemical_formula_structural   TmUSnGeRu2
_chemical_formula_sum   'Tm2 U2 Sn2 Ge2 Ru4'
_cell_volume   241.21499372
_cell_formula_units_Z   2
loop_
 _symmetry_equiv_pos_site_id
 _symmetry_equiv_pos_as_xyz
  1  'x, y, z'
loop_
 _atom_site_type_symbol
 _atom_site_label
 _atom_site_symmetry_multiplicity
 _atom_site_fract_x
 _atom_site_fract_y
 _atom_site_fract_z
 _atom_site_occupancy
  Tm  Tm0  1  0.250000  0.476259  0.696637  1
  Tm  Tm1  1  0.750000  0.523741  0.303363  1
  U  U2  1  0.250000  0.995655  0.803604  1
  U  U3  1  0.750000  0.004345  0.196396  1
  Sn  Sn4  1  0.250000  0.332566  0.111097  1
  Sn  Sn5  1  0.750000  0.667434  0.888903  1
  Ge  Ge6  1  0.250000  0.788560  0.402669  1
  Ge  Ge7  1  0.750000  0.211440  0.597331  1
  Ru  Ru8  1  0.750000  0.856427  0.520365  1
  Ru  Ru9  1  0.250000  0.143573  0.479635  1
  Ru  Ru10  1  0.750000  0.239251  0.943605  1
  Ru  Ru11  1  0.250000  0.760749  0.056395  1
