# generated using pymatgen
data_Hf4Zr12PdPt6RhN4
_symmetry_space_group_name_H-M   'P 1'
_cell_length_a   8.85390221
_cell_length_b   8.85390221
_cell_length_c   8.85390200
_cell_angle_alpha   59.97638535
_cell_angle_beta   59.97638534
_cell_angle_gamma   59.97638318
_symmetry_Int_Tables_number   1
_chemical_formula_structural   Hf4Zr12PdPt6RhN4
_chemical_formula_sum   'Hf4 Zr12 Pd1 Pt6 Rh1 N4'
_cell_volume   490.51978376
_cell_formula_units_Z   1
loop_
 _symmetry_equiv_pos_site_id
 _symmetry_equiv_pos_as_xyz
  1  'x, y, z'
loop_
 _atom_site_type_symbol
 _atom_site_label
 _atom_site_symmetry_multiplicity
 _atom_site_fract_x
 _atom_site_fract_y
 _atom_site_fract_z
 _atom_site_occupancy
  Hf  Hf0  1  0.126356  0.624487  0.624487  1
  Hf  Hf1  1  0.625695  0.129214  0.622518  1
  Hf  Hf2  1  0.625695  0.622518  0.129214  1
  Hf  Hf3  1  0.626292  0.623129  0.623129  1
  Zr  Zr4  1  0.818125  0.817639  0.182295  1
  Zr  Zr5  1  0.182724  0.182075  0.817493  1
  Zr  Zr6  1  0.818125  0.182295  0.817639  1
  Zr  Zr7  1  0.182724  0.817493  0.182075  1
  Zr  Zr8  1  0.182871  0.817727  0.817727  1
  Zr  Zr9  1  0.817979  0.182234  0.182234  1
  Zr  Zr10  1  0.432328  0.432750  0.067896  1
  Zr  Zr11  1  0.065853  0.070609  0.431886  1
  Zr  Zr12  1  0.432328  0.067896  0.432750  1
  Zr  Zr13  1  0.065853  0.431886  0.070609  1
  Zr  Zr14  1  0.065468  0.432540  0.432540  1
  Zr  Zr15  1  0.431494  0.068341  0.068341  1
  Pd  Pd16  1  0.838710  0.838786  0.838786  1
  Pt  Pt17  1  0.408473  0.776173  0.407937  1
  Pt  Pt18  1  0.408473  0.407937  0.776173  1
  Pt  Pt19  1  0.408792  0.408213  0.408213  1
  Pt  Pt20  1  0.476173  0.841545  0.841545  1
  Pt  Pt21  1  0.841852  0.475048  0.841973  1
  Pt  Pt22  1  0.841852  0.841973  0.475048  1
  Rh  Rh23  1  0.776868  0.407878  0.407878  1
  N  N24  1  0.624702  0.124958  0.124958  1
  N  N25  1  0.124779  0.625096  0.124868  1
  N  N26  1  0.124779  0.124868  0.625096  1
  N  N27  1  0.124635  0.124692  0.124692  1
