# generated using pymatgen
data_Hf18Ta3Re2Mo3P2
_symmetry_space_group_name_H-M   'P 1'
_cell_length_a   8.63253928
_cell_length_b   8.66361735
_cell_length_c   8.69610900
_cell_angle_alpha   90.00000000
_cell_angle_beta   90.00000000
_cell_angle_gamma   119.51572040
_symmetry_Int_Tables_number   1
_chemical_formula_structural   Hf18Ta3Re2Mo3P2
_chemical_formula_sum   'Hf18 Ta3 Re2 Mo3 P2'
_cell_volume   565.96834009
_cell_formula_units_Z   1
loop_
 _symmetry_equiv_pos_site_id
 _symmetry_equiv_pos_as_xyz
  1  'x, y, z'
loop_
 _atom_site_type_symbol
 _atom_site_label
 _atom_site_symmetry_multiplicity
 _atom_site_fract_x
 _atom_site_fract_y
 _atom_site_fract_z
 _atom_site_occupancy
  Hf  Hf0  1  0.197935  0.395567  0.049103  1
  Hf  Hf1  1  0.802896  0.605287  0.551211  1
  Hf  Hf2  1  0.605805  0.802828  0.047019  1
  Hf  Hf3  1  0.196955  0.803232  0.046330  1
  Hf  Hf4  1  0.803291  0.196408  0.548390  1
  Hf  Hf5  1  0.395405  0.197389  0.550098  1
  Hf  Hf6  1  0.802896  0.605287  0.948789  1
  Hf  Hf7  1  0.803291  0.196408  0.951610  1
  Hf  Hf8  1  0.395405  0.197389  0.949902  1
  Hf  Hf9  1  0.605805  0.802828  0.452981  1
  Hf  Hf10  1  0.196955  0.803232  0.453670  1
  Hf  Hf11  1  0.197935  0.395567  0.450897  1
  Hf  Hf12  1  0.539742  0.075407  0.250000  1
  Hf  Hf13  1  0.460784  0.920950  0.750000  1
  Hf  Hf14  1  0.923213  0.460002  0.250000  1
  Hf  Hf15  1  0.538470  0.462156  0.250000  1
  Hf  Hf16  1  0.461962  0.540666  0.750000  1
  Hf  Hf17  1  0.077580  0.539981  0.750000  1
  Ta  Ta18  1  0.887728  0.780150  0.250000  1
  Ta  Ta19  1  0.109395  0.218712  0.750000  1
  Ta  Ta20  1  0.219563  0.112104  0.250000  1
  Re  Re21  1  0.999148  0.999518  0.000323  1
  Re  Re22  1  0.999148  0.999518  0.499677  1
  Mo  Mo23  1  0.888296  0.110955  0.250000  1
  Mo  Mo24  1  0.109152  0.888314  0.750000  1
  Mo  Mo25  1  0.779180  0.888622  0.750000  1
  P  P26  1  0.334315  0.668018  0.250000  1
  P  P27  1  0.667749  0.333505  0.750000  1
