# generated using pymatgen
data_Li4TbYb3Au4
_symmetry_space_group_name_H-M   'P 1'
_cell_length_a   4.28408300
_cell_length_b   7.16600406
_cell_length_c   8.59001400
_cell_angle_alpha   90.00727590
_cell_angle_beta   90.00000000
_cell_angle_gamma   90.00000000
_symmetry_Int_Tables_number   1
_chemical_formula_structural   Li4TbYb3Au4
_chemical_formula_sum   'Li4 Tb1 Yb3 Au4'
_cell_volume   263.71133310
_cell_formula_units_Z   1
loop_
 _symmetry_equiv_pos_site_id
 _symmetry_equiv_pos_as_xyz
  1  'x, y, z'
loop_
 _atom_site_type_symbol
 _atom_site_label
 _atom_site_symmetry_multiplicity
 _atom_site_fract_x
 _atom_site_fract_y
 _atom_site_fract_z
 _atom_site_occupancy
  Li  Li0  1  0.250000  0.128077  0.942701  1
  Li  Li1  1  0.250000  0.633823  0.558005  1
  Li  Li2  1  0.750000  0.865417  0.054148  1
  Li  Li3  1  0.750000  0.372885  0.444293  1
  Tb  Tb4  1  0.250000  0.041536  0.321570  1
  Yb  Yb5  1  0.250000  0.539380  0.179754  1
  Yb  Yb6  1  0.750000  0.961207  0.679677  1
  Yb  Yb7  1  0.750000  0.458663  0.822171  1
  Au  Au8  1  0.250000  0.256739  0.622123  1
  Au  Au9  1  0.250000  0.753726  0.873394  1
  Au  Au10  1  0.750000  0.751120  0.370689  1
  Au  Au11  1  0.750000  0.237425  0.131473  1
