# generated using pymatgen
data_Ba16Ca8Mo3W5N32
_symmetry_space_group_name_H-M   'P 1'
_cell_length_a   10.04264253
_cell_length_b   10.48841100
_cell_length_c   12.09081081
_cell_angle_alpha   90.00101747
_cell_angle_beta   89.93700696
_cell_angle_gamma   90.00053632
_symmetry_Int_Tables_number   1
_chemical_formula_structural   Ba16Ca8Mo3W5N32
_chemical_formula_sum   'Ba16 Ca8 Mo3 W5 N32'
_cell_volume   1273.54080526
_cell_formula_units_Z   1
loop_
 _symmetry_equiv_pos_site_id
 _symmetry_equiv_pos_as_xyz
  1  'x, y, z'
loop_
 _atom_site_type_symbol
 _atom_site_label
 _atom_site_symmetry_multiplicity
 _atom_site_fract_x
 _atom_site_fract_y
 _atom_site_fract_z
 _atom_site_occupancy
  Ba  Ba0  1  0.618617  0.962268  0.855595  1
  Ba  Ba1  1  0.381641  0.038070  0.143784  1
  Ba  Ba2  1  0.881486  0.462202  0.144148  1
  Ba  Ba3  1  0.382686  0.538074  0.356605  1
  Ba  Ba4  1  0.118504  0.537288  0.855810  1
  Ba  Ba5  1  0.617393  0.462585  0.643369  1
  Ba  Ba6  1  0.117227  0.038102  0.643998  1
  Ba  Ba7  1  0.881424  0.963054  0.356628  1
  Ba  Ba8  1  0.803035  0.764357  0.616485  1
  Ba  Ba9  1  0.197310  0.237487  0.383146  1
  Ba  Ba10  1  0.697874  0.264552  0.383458  1
  Ba  Ba11  1  0.196220  0.736992  0.117655  1
  Ba  Ba12  1  0.301876  0.735464  0.617255  1
  Ba  Ba13  1  0.804286  0.262192  0.881513  1
  Ba  Ba14  1  0.304542  0.237663  0.881566  1
  Ba  Ba15  1  0.695771  0.762374  0.118271  1
  Ca  Ca16  1  0.965478  0.883774  0.896442  1
  Ca  Ca17  1  0.034763  0.115978  0.104024  1
  Ca  Ca18  1  0.534671  0.383897  0.103741  1
  Ca  Ca19  1  0.033823  0.615478  0.396141  1
  Ca  Ca20  1  0.465573  0.616148  0.896222  1
  Ca  Ca21  1  0.965935  0.384353  0.604193  1
  Ca  Ca22  1  0.465790  0.115316  0.603631  1
  Ca  Ca23  1  0.534532  0.883899  0.395882  1
  Mo  Mo24  1  0.781824  0.094319  0.621875  1
  Mo  Mo25  1  0.281881  0.405537  0.622007  1
  Mo  Mo26  1  0.718116  0.594264  0.378200  1
  W  W27  1  0.782238  0.593888  0.877604  1
  W  W28  1  0.217913  0.405923  0.122251  1
  W  W29  1  0.717879  0.093973  0.122267  1
  W  W30  1  0.217645  0.905841  0.378061  1
  W  W31  1  0.282327  0.906084  0.877680  1
  N  N32  1  0.912099  0.673674  0.968007  1
  N  N33  1  0.088061  0.326058  0.031929  1
  N  N34  1  0.588191  0.174022  0.031874  1
  N  N35  1  0.087441  0.825738  0.468372  1
  N  N36  1  0.412274  0.826213  0.967919  1
  N  N37  1  0.912039  0.173658  0.532089  1
  N  N38  1  0.411914  0.326330  0.532067  1
  N  N39  1  0.588029  0.673217  0.468301  1
  N  N40  1  0.668110  0.707783  0.803032  1
  N  N41  1  0.332376  0.292164  0.196578  1
  N  N42  1  0.832131  0.207657  0.196955  1
  N  N43  1  0.332493  0.792277  0.303647  1
  N  N44  1  0.167890  0.792052  0.803560  1
  N  N45  1  0.667373  0.207581  0.695634  1
  N  N46  1  0.167383  0.292456  0.696143  1
  N  N47  1  0.832074  0.707922  0.304356  1
  N  N48  1  0.671800  0.992862  0.530865  1
  N  N49  1  0.328329  0.006991  0.469214  1
  N  N50  1  0.828657  0.492815  0.468800  1
  N  N51  1  0.328673  0.507127  0.030905  1
  N  N52  1  0.171534  0.506650  0.531074  1
  N  N53  1  0.671179  0.493117  0.969028  1
  N  N54  1  0.171407  0.007006  0.969031  1
  N  N55  1  0.828857  0.993120  0.030908  1
  N  N56  1  0.867852  0.988199  0.726315  1
  N  N57  1  0.131564  0.012960  0.273873  1
  N  N58  1  0.631985  0.488088  0.273911  1
  N  N59  1  0.131328  0.512701  0.226645  1
  N  N60  1  0.367986  0.511766  0.726285  1
  N  N61  1  0.868688  0.486563  0.773505  1
  N  N62  1  0.368685  0.013270  0.773415  1
  N  N63  1  0.631313  0.986567  0.226255  1
