# generated using pymatgen
data_HfTa6GaS12
_symmetry_space_group_name_H-M   'P 1'
_cell_length_a   5.78678100
_cell_length_b   5.78678095
_cell_length_c   14.05645500
_cell_angle_alpha   90.00000000
_cell_angle_beta   90.00000000
_cell_angle_gamma   120.00000603
_symmetry_Int_Tables_number   1
_chemical_formula_structural   HfTa6GaS12
_chemical_formula_sum   'Hf1 Ta6 Ga1 S12'
_cell_volume   407.64348097
_cell_formula_units_Z   1
loop_
 _symmetry_equiv_pos_site_id
 _symmetry_equiv_pos_as_xyz
  1  'x, y, z'
loop_
 _atom_site_type_symbol
 _atom_site_label
 _atom_site_symmetry_multiplicity
 _atom_site_fract_x
 _atom_site_fract_y
 _atom_site_fract_z
 _atom_site_occupancy
  Hf  Hf0  1  0.666667  0.333333  0.750000  1
  Ta  Ta1  1  0.000000  0.000000  0.521533  1
  Ta  Ta2  1  0.000000  0.000000  0.978467  1
  Ta  Ta3  1  0.333333  0.666667  0.978120  1
  Ta  Ta4  1  0.666667  0.333333  0.978779  1
  Ta  Ta5  1  0.666667  0.333333  0.521221  1
  Ta  Ta6  1  0.333333  0.666667  0.521880  1
  Ga  Ga7  1  0.333333  0.666667  0.250000  1
  S  S8  1  0.332695  0.332991  0.410520  1
  S  S9  1  0.667009  0.999703  0.410520  1
  S  S10  1  0.000297  0.667305  0.410520  1
  S  S11  1  0.329849  0.332757  0.634941  1
  S  S12  1  0.002908  0.670151  0.634941  1
  S  S13  1  0.667243  0.997092  0.634941  1
  S  S14  1  0.667243  0.670151  0.865059  1
  S  S15  1  0.329849  0.997092  0.865059  1
  S  S16  1  0.002908  0.332757  0.865059  1
  S  S17  1  0.667009  0.667305  0.089480  1
  S  S18  1  0.000297  0.332991  0.089480  1
  S  S19  1  0.332695  0.999703  0.089480  1
