# generated using pymatgen
data_LiAl7(IrRh)4
_symmetry_space_group_name_H-M   'P 1'
_cell_length_a   6.00112074
_cell_length_b   6.00212474
_cell_length_c   6.00152000
_cell_angle_alpha   89.99984726
_cell_angle_beta   90.00001906
_cell_angle_gamma   89.94318750
_symmetry_Int_Tables_number   1
_chemical_formula_structural   LiAl7(IrRh)4
_chemical_formula_sum   'Li1 Al7 Ir4 Rh4'
_cell_volume   216.17149473
_cell_formula_units_Z   1
loop_
 _symmetry_equiv_pos_site_id
 _symmetry_equiv_pos_as_xyz
  1  'x, y, z'
loop_
 _atom_site_type_symbol
 _atom_site_label
 _atom_site_symmetry_multiplicity
 _atom_site_fract_x
 _atom_site_fract_y
 _atom_site_fract_z
 _atom_site_occupancy
  Li  Li0  1  0.499980  0.999997  0.249801  1
  Al  Al1  1  0.499985  0.499999  0.249870  1
  Al  Al2  1  0.000011  0.999997  0.250121  1
  Al  Al3  1  0.000008  0.500016  0.250122  1
  Al  Al4  1  0.999993  0.000004  0.749878  1
  Al  Al5  1  0.999996  0.499986  0.749889  1
  Al  Al6  1  0.500014  0.000010  0.750160  1
  Al  Al7  1  0.500015  0.500004  0.750140  1
  Ir  Ir8  1  0.751171  0.251111  0.999340  1
  Ir  Ir9  1  0.248829  0.748891  0.999364  1
  Ir  Ir10  1  0.751041  0.251111  0.500635  1
  Ir  Ir11  1  0.248960  0.748889  0.500668  1
  Rh  Rh12  1  0.750520  0.749582  0.999435  1
  Rh  Rh13  1  0.249710  0.250415  0.500571  1
  Rh  Rh14  1  0.750296  0.749572  0.500662  1
  Rh  Rh15  1  0.249472  0.250414  0.999343  1
