# generated using pymatgen
data_DyLu11Co5Bi
_symmetry_space_group_name_H-M   'P 1'
_cell_length_a   8.12650492
_cell_length_b   8.13282714
_cell_length_c   8.13282732
_cell_angle_alpha   111.09603848
_cell_angle_beta   111.03511527
_cell_angle_gamma   106.35725029
_symmetry_Int_Tables_number   1
_chemical_formula_structural   DyLu11Co5Bi
_chemical_formula_sum   'Dy1 Lu11 Co5 Bi1'
_cell_volume   412.70478025
_cell_formula_units_Z   1
loop_
 _symmetry_equiv_pos_site_id
 _symmetry_equiv_pos_as_xyz
  1  'x, y, z'
loop_
 _atom_site_type_symbol
 _atom_site_label
 _atom_site_symmetry_multiplicity
 _atom_site_fract_x
 _atom_site_fract_y
 _atom_site_fract_z
 _atom_site_occupancy
  Dy  Dy0  1  0.015488  0.211628  0.803860  1
  Lu  Lu1  1  0.816486  0.713174  0.531009  1
  Lu  Lu2  1  0.182792  0.284928  0.466722  1
  Lu  Lu3  1  0.182792  0.716070  0.897863  1
  Lu  Lu4  1  0.816486  0.285477  0.103313  1
  Lu  Lu5  1  0.687141  0.380356  0.691090  1
  Lu  Lu6  1  0.312690  0.621181  0.309629  1
  Lu  Lu7  1  0.687141  0.996051  0.306785  1
  Lu  Lu8  1  0.312690  0.003061  0.691510  1
  Lu  Lu9  1  0.592516  0.788768  0.803748  1
  Lu  Lu10  1  0.408252  0.210718  0.197534  1
  Lu  Lu11  1  0.985808  0.789381  0.196427  1
  Co  Co12  1  0.624433  0.999058  0.625375  1
  Co  Co13  1  0.374093  0.000338  0.373756  1
  Co  Co14  1  0.112689  0.612610  0.500078  1
  Co  Co15  1  0.887020  0.387928  0.499092  1
  Co  Co16  1  0.000081  0.998583  0.001498  1
  Bi  Bi17  1  0.501400  0.500691  0.000709  1
