# generated using pymatgen
data_La7YHo2Si8O3
_symmetry_space_group_name_H-M   'P 1'
_cell_length_a   10.78495500
_cell_length_b   10.78529399
_cell_length_c   4.54874200
_cell_angle_alpha   90.00000000
_cell_angle_beta   90.00000000
_cell_angle_gamma   120.00104743
_symmetry_Int_Tables_number   1
_chemical_formula_structural   La7YHo2Si8O3
_chemical_formula_sum   'La7 Y1 Ho2 Si8 O3'
_cell_volume   458.21328620
_cell_formula_units_Z   1
loop_
 _symmetry_equiv_pos_site_id
 _symmetry_equiv_pos_as_xyz
  1  'x, y, z'
loop_
 _atom_site_type_symbol
 _atom_site_label
 _atom_site_symmetry_multiplicity
 _atom_site_fract_x
 _atom_site_fract_y
 _atom_site_fract_z
 _atom_site_occupancy
  La  La0  1  0.211475  0.788548  0.000000  1
  La  La1  1  0.577106  0.788553  0.000000  1
  La  La2  1  0.788525  0.577073  0.000000  1
  La  La3  1  0.000000  0.000000  0.000000  1
  La  La4  1  0.211475  0.422927  0.000000  1
  La  La5  1  0.422894  0.211447  0.000000  1
  La  La6  1  0.788525  0.211452  0.000000  1
  Y  Y7  1  0.000000  0.500000  0.500000  1
  Ho  Ho8  1  0.500000  0.500000  0.500000  1
  Ho  Ho9  1  0.500000  0.000000  0.500000  1
  Si  Si10  1  0.000000  0.776846  0.500000  1
  Si  Si11  1  0.000000  0.223154  0.500000  1
  Si  Si12  1  0.223300  0.223248  0.500000  1
  Si  Si13  1  0.776700  0.999948  0.500000  1
  Si  Si14  1  0.333521  0.666761  0.500000  1
  Si  Si15  1  0.223300  0.000052  0.500000  1
  Si  Si16  1  0.666479  0.333239  0.500000  1
  Si  Si17  1  0.776700  0.776752  0.500000  1
  O  O18  1  0.000000  0.500000  0.000000  1
  O  O19  1  0.500000  0.500000  0.000000  1
  O  O20  1  0.500000  0.000000  0.000000  1
