# generated using pymatgen
data_Li2Th3AlRu2Pt
_symmetry_space_group_name_H-M   'P 1'
_cell_length_a   7.30113333
_cell_length_b   7.21407456
_cell_length_c   4.02315900
_cell_angle_alpha   90.00000000
_cell_angle_beta   90.00000000
_cell_angle_gamma   119.60633924
_symmetry_Int_Tables_number   1
_chemical_formula_structural   Li2Th3AlRu2Pt
_chemical_formula_sum   'Li2 Th3 Al1 Ru2 Pt1'
_cell_volume   184.23742558
_cell_formula_units_Z   1
loop_
 _symmetry_equiv_pos_site_id
 _symmetry_equiv_pos_as_xyz
  1  'x, y, z'
loop_
 _atom_site_type_symbol
 _atom_site_label
 _atom_site_symmetry_multiplicity
 _atom_site_fract_x
 _atom_site_fract_y
 _atom_site_fract_z
 _atom_site_occupancy
  Li  Li0  1  0.770837  0.772708  0.000000  1
  Li  Li1  1  0.229163  0.001870  0.000000  1
  Th  Th2  1  0.426484  0.430521  0.500000  1
  Th  Th3  1  0.573516  0.004037  0.500000  1
  Th  Th4  1  0.000000  0.577199  0.500000  1
  Al  Al5  1  0.000000  0.231393  0.000000  1
  Ru  Ru6  1  0.675521  0.321635  0.000000  1
  Ru  Ru7  1  0.324479  0.646115  0.000000  1
  Pt  Pt8  1  0.000000  0.014523  0.500000  1
