# generated using pymatgen
data_Nd2Pd(SeO3)4
_symmetry_space_group_name_H-M   'P 1'
_cell_length_a   7.10057900
_cell_length_b   8.30439541
_cell_length_c   11.02883928
_cell_angle_alpha   70.95876902
_cell_angle_beta   90.00000000
_cell_angle_gamma   90.00000000
_symmetry_Int_Tables_number   1
_chemical_formula_structural   Nd2Pd(SeO3)4
_chemical_formula_sum   'Nd4 Pd2 Se8 O24'
_cell_volume   614.74346384
_cell_formula_units_Z   2
loop_
 _symmetry_equiv_pos_site_id
 _symmetry_equiv_pos_as_xyz
  1  'x, y, z'
loop_
 _atom_site_type_symbol
 _atom_site_label
 _atom_site_symmetry_multiplicity
 _atom_site_fract_x
 _atom_site_fract_y
 _atom_site_fract_z
 _atom_site_occupancy
  Nd  Nd0  1  0.661559  0.761486  0.084237  1
  Nd  Nd1  1  0.161559  0.738514  0.915763  1
  Nd  Nd2  1  0.338441  0.238514  0.915763  1
  Nd  Nd3  1  0.838441  0.261486  0.084237  1
  Pd  Pd4  1  0.500000  0.500000  0.500000  1
  Pd  Pd5  1  0.000000  0.000000  0.500000  1
  Se  Se6  1  0.677801  0.630264  0.821544  1
  Se  Se7  1  0.177801  0.869736  0.178456  1
  Se  Se8  1  0.322199  0.369736  0.178456  1
  Se  Se9  1  0.822199  0.130264  0.821544  1
  Se  Se10  1  0.328757  0.121236  0.634743  1
  Se  Se11  1  0.828757  0.378764  0.365257  1
  Se  Se12  1  0.671243  0.878764  0.365257  1
  Se  Se13  1  0.171243  0.621236  0.634743  1
  O  O14  1  0.396177  0.314164  0.657199  1
  O  O15  1  0.896177  0.185836  0.342801  1
  O  O16  1  0.603823  0.685836  0.342801  1
  O  O17  1  0.103823  0.814164  0.657199  1
  O  O18  1  0.614217  0.424326  0.846066  1
  O  O19  1  0.114217  0.075674  0.153934  1
  O  O20  1  0.385783  0.575674  0.153934  1
  O  O21  1  0.885783  0.924326  0.846066  1
  O  O22  1  0.841555  0.587469  0.948528  1
  O  O23  1  0.341555  0.912531  0.051472  1
  O  O24  1  0.158445  0.412531  0.051472  1
  O  O25  1  0.658445  0.087469  0.948528  1
  O  O26  1  0.106473  0.181492  0.568670  1
  O  O27  1  0.606473  0.318508  0.431330  1
  O  O28  1  0.893527  0.818508  0.431330  1
  O  O29  1  0.393527  0.681492  0.568670  1
  O  O30  1  0.506194  0.715304  0.895279  1
  O  O31  1  0.006194  0.784696  0.104721  1
  O  O32  1  0.493806  0.284696  0.104721  1
  O  O33  1  0.993806  0.215304  0.895279  1
  O  O34  1  0.286748  0.027934  0.795976  1
  O  O35  1  0.786748  0.472066  0.204024  1
  O  O36  1  0.713252  0.972066  0.204024  1
  O  O37  1  0.213252  0.527934  0.795976  1
