# generated using pymatgen
data_Tb2PuCu3Sb4
_symmetry_space_group_name_H-M   'P 1'
_cell_length_a   8.31975148
_cell_length_b   8.31975165
_cell_length_c   8.31975164
_cell_angle_alpha   109.38869057
_cell_angle_beta   109.63640755
_cell_angle_gamma   109.38868975
_symmetry_Int_Tables_number   1
_chemical_formula_structural   Tb2PuCu3Sb4
_chemical_formula_sum   'Tb4 Pu2 Cu6 Sb8'
_cell_volume   443.30893149
_cell_formula_units_Z   2
loop_
 _symmetry_equiv_pos_site_id
 _symmetry_equiv_pos_as_xyz
  1  'x, y, z'
loop_
 _atom_site_type_symbol
 _atom_site_label
 _atom_site_symmetry_multiplicity
 _atom_site_fract_x
 _atom_site_fract_y
 _atom_site_fract_z
 _atom_site_occupancy
  Tb  Tb0  1  0.250000  0.124181  0.874181  1
  Tb  Tb1  1  0.750000  0.375819  0.625819  1
  Tb  Tb2  1  0.125819  0.875819  0.250000  1
  Tb  Tb3  1  0.374181  0.624181  0.750000  1
  Pu  Pu4  1  0.875000  0.250000  0.125000  1
  Pu  Pu5  1  0.625000  0.750000  0.375000  1
  Cu  Cu6  1  0.375000  0.250000  0.625000  1
  Cu  Cu7  1  0.125000  0.750000  0.875000  1
  Cu  Cu8  1  0.250000  0.626816  0.376816  1
  Cu  Cu9  1  0.750000  0.873184  0.123184  1
  Cu  Cu10  1  0.623184  0.373184  0.250000  1
  Cu  Cu11  1  0.876816  0.126816  0.750000  1
  Sb  Sb12  1  0.661264  0.499776  0.999607  1
  Sb  Sb13  1  0.499831  0.000224  0.661488  1
  Sb  Sb14  1  0.000169  0.661657  0.500393  1
  Sb  Sb15  1  0.838736  0.838343  0.838512  1
  Sb  Sb16  1  0.499607  0.999776  0.161264  1
  Sb  Sb17  1  0.161488  0.500224  0.999831  1
  Sb  Sb18  1  0.000393  0.161657  0.500169  1
  Sb  Sb19  1  0.338512  0.338343  0.338736  1
