# generated using pymatgen
data_Y8V3Si16W9
_symmetry_space_group_name_H-M   'P 1'
_cell_length_a   6.78409159
_cell_length_b   6.95701163
_cell_length_c   12.92329600
_cell_angle_alpha   89.96685135
_cell_angle_beta   90.02385884
_cell_angle_gamma   90.06494398
_symmetry_Int_Tables_number   1
_chemical_formula_structural   Y8V3Si16W9
_chemical_formula_sum   'Y8 V3 Si16 W9'
_cell_volume   609.94030753
_cell_formula_units_Z   1
loop_
 _symmetry_equiv_pos_site_id
 _symmetry_equiv_pos_as_xyz
  1  'x, y, z'
loop_
 _atom_site_type_symbol
 _atom_site_label
 _atom_site_symmetry_multiplicity
 _atom_site_fract_x
 _atom_site_fract_y
 _atom_site_fract_z
 _atom_site_occupancy
  Y  Y0  1  0.496602  0.332320  0.093294  1
  Y  Y1  1  0.995819  0.167817  0.406072  1
  Y  Y2  1  0.502917  0.668252  0.594483  1
  Y  Y3  1  0.003567  0.832119  0.905767  1
  Y  Y4  1  0.502027  0.669327  0.906121  1
  Y  Y5  1  0.001715  0.830638  0.594504  1
  Y  Y6  1  0.497545  0.331676  0.406173  1
  Y  Y7  1  0.996984  0.168859  0.092932  1
  V  V8  1  0.667445  0.836836  0.126116  1
  V  V9  1  0.833142  0.336638  0.873676  1
  V  V10  1  0.333502  0.163160  0.626234  1
  Si  Si11  1  0.658517  0.044927  0.545656  1
  Si  Si12  1  0.157777  0.455063  0.954459  1
  Si  Si13  1  0.341792  0.955491  0.045649  1
  Si  Si14  1  0.839451  0.543743  0.455234  1
  Si  Si15  1  0.337083  0.958138  0.456599  1
  Si  Si16  1  0.836610  0.545959  0.044913  1
  Si  Si17  1  0.664078  0.046128  0.955343  1
  Si  Si18  1  0.164238  0.451757  0.545978  1
  Si  Si19  1  0.535068  0.369719  0.750045  1
  Si  Si20  1  0.035181  0.130997  0.750188  1
  Si  Si21  1  0.468267  0.631032  0.248259  1
  Si  Si22  1  0.962910  0.869645  0.248303  1
  Si  Si23  1  0.801775  0.626548  0.752043  1
  Si  Si24  1  0.301601  0.873114  0.748494  1
  Si  Si25  1  0.197796  0.368621  0.249862  1
  Si  Si26  1  0.697607  0.127892  0.248285  1
  W  W27  1  0.831713  0.336256  0.624991  1
  W  W28  1  0.332206  0.164283  0.874647  1
  W  W29  1  0.169947  0.663099  0.125205  1
  W  W30  1  0.667434  0.836496  0.375493  1
  W  W31  1  0.169272  0.662962  0.374386  1
  W  W32  1  0.661242  0.009867  0.750180  1
  W  W33  1  0.161807  0.490913  0.750240  1
  W  W34  1  0.338115  0.992826  0.250123  1
  W  W35  1  0.837251  0.506885  0.250055  1
