# generated using pymatgen
data_Ho2PaTc2
_symmetry_space_group_name_H-M   'P 1'
_cell_length_a   4.23915445
_cell_length_b   5.89940822
_cell_length_c   5.89940844
_cell_angle_alpha   58.08459290
_cell_angle_beta   68.94361678
_cell_angle_gamma   68.94362331
_symmetry_Int_Tables_number   1
_chemical_formula_structural   Ho2PaTc2
_chemical_formula_sum   'Ho2 Pa1 Tc2'
_cell_volume   114.16853228
_cell_formula_units_Z   1
loop_
 _symmetry_equiv_pos_site_id
 _symmetry_equiv_pos_as_xyz
  1  'x, y, z'
loop_
 _atom_site_type_symbol
 _atom_site_label
 _atom_site_symmetry_multiplicity
 _atom_site_fract_x
 _atom_site_fract_y
 _atom_site_fract_z
 _atom_site_occupancy
  Ho  Ho0  1  0.198182  0.301818  0.301818  1
  Ho  Ho1  1  0.801818  0.698182  0.698182  1
  Pa  Pa2  1  0.000000  0.000000  0.000000  1
  Tc  Tc3  1  0.500000  0.258020  0.741980  1
  Tc  Tc4  1  0.500000  0.741980  0.258020  1
