# generated using pymatgen
data_Rb3PaF8
_symmetry_space_group_name_H-M   'P 1'
_cell_length_a   9.18275900
_cell_length_b   9.18275826
_cell_length_c   6.95400300
_cell_angle_alpha   90.00000000
_cell_angle_beta   90.00000000
_cell_angle_gamma   119.99999908
_symmetry_Int_Tables_number   1
_chemical_formula_structural   Rb3PaF8
_chemical_formula_sum   'Rb6 Pa2 F16'
_cell_volume   507.82239244
_cell_formula_units_Z   2
loop_
 _symmetry_equiv_pos_site_id
 _symmetry_equiv_pos_as_xyz
  1  'x, y, z'
loop_
 _atom_site_type_symbol
 _atom_site_label
 _atom_site_symmetry_multiplicity
 _atom_site_fract_x
 _atom_site_fract_y
 _atom_site_fract_z
 _atom_site_occupancy
  Rb  Rb0  1  0.149414  0.298827  0.241948  1
  Rb  Rb1  1  0.850586  0.701173  0.741949  1
  Rb  Rb2  1  0.701173  0.850586  0.241948  1
  Rb  Rb3  1  0.149414  0.850586  0.241948  1
  Rb  Rb4  1  0.850586  0.149414  0.741949  1
  Rb  Rb5  1  0.298827  0.149414  0.741949  1
  Pa  Pa6  1  0.333333  0.666667  0.736099  1
  Pa  Pa7  1  0.666667  0.333333  0.236099  1
  F  F8  1  0.000000  0.000000  0.006717  1
  F  F9  1  0.000000  0.000000  0.506717  1
  F  F10  1  0.438026  0.561974  0.537140  1
  F  F11  1  0.561974  0.438026  0.037140  1
  F  F12  1  0.438026  0.876051  0.537140  1
  F  F13  1  0.123949  0.561974  0.537140  1
  F  F14  1  0.876051  0.438026  0.037140  1
  F  F15  1  0.561974  0.123949  0.037140  1
  F  F16  1  0.333333  0.666667  0.049148  1
  F  F17  1  0.666667  0.333333  0.549148  1
  F  F18  1  0.200136  0.799864  0.818642  1
  F  F19  1  0.799864  0.200136  0.318642  1
  F  F20  1  0.200136  0.400271  0.818642  1
  F  F21  1  0.599729  0.799864  0.818642  1
  F  F22  1  0.400271  0.200136  0.318642  1
  F  F23  1  0.799864  0.599729  0.318642  1
