# generated using pymatgen
data_Ho12GaNi4Hg
_symmetry_space_group_name_H-M   'P 1'
_cell_length_a   8.28920163
_cell_length_b   8.28920090
_cell_length_c   8.28920153
_cell_angle_alpha   112.93422558
_cell_angle_beta   109.29740010
_cell_angle_gamma   106.25150715
_symmetry_Int_Tables_number   1
_chemical_formula_structural   Ho12GaNi4Hg
_chemical_formula_sum   'Ho12 Ga1 Ni4 Hg1'
_cell_volume   436.94689380
_cell_formula_units_Z   1
loop_
 _symmetry_equiv_pos_site_id
 _symmetry_equiv_pos_as_xyz
  1  'x, y, z'
loop_
 _atom_site_type_symbol
 _atom_site_label
 _atom_site_symmetry_multiplicity
 _atom_site_fract_x
 _atom_site_fract_y
 _atom_site_fract_z
 _atom_site_occupancy
  Ho  Ho0  1  0.431046  0.235097  0.195950  1
  Ho  Ho1  1  0.568954  0.764903  0.804050  1
  Ho  Ho2  1  0.039147  0.235097  0.804050  1
  Ho  Ho3  1  0.960853  0.764903  0.195950  1
  Ho  Ho4  1  0.180044  0.285187  0.465230  1
  Ho  Ho5  1  0.819956  0.714813  0.534770  1
  Ho  Ho6  1  0.180044  0.714813  0.894857  1
  Ho  Ho7  1  0.819956  0.285187  0.105143  1
  Ho  Ho8  1  0.325019  0.632275  0.307257  1
  Ho  Ho9  1  0.674981  0.367725  0.692743  1
  Ho  Ho10  1  0.325019  0.017761  0.692743  1
  Ho  Ho11  1  0.674981  0.982239  0.307257  1
  Ga  Ga12  1  0.000000  0.000000  0.000000  1
  Ni  Ni13  1  0.351972  0.000000  0.351972  1
  Ni  Ni14  1  0.648028  0.000000  0.648028  1
  Ni  Ni15  1  0.121989  0.621989  0.500000  1
  Ni  Ni16  1  0.878011  0.378011  0.500000  1
  Hg  Hg17  1  0.500000  0.500000  0.000000  1
