# generated using pymatgen
data_LiSc4Al2B4Ru9
_symmetry_space_group_name_H-M   'P 1'
_cell_length_a   9.38112296
_cell_length_b   9.38112296
_cell_length_c   3.05282000
_cell_angle_alpha   90.00000000
_cell_angle_beta   90.00000000
_cell_angle_gamma   87.96794464
_symmetry_Int_Tables_number   1
_chemical_formula_structural   LiSc4Al2B4Ru9
_chemical_formula_sum   'Li1 Sc4 Al2 B4 Ru9'
_cell_volume   268.49590146
_cell_formula_units_Z   1
loop_
 _symmetry_equiv_pos_site_id
 _symmetry_equiv_pos_as_xyz
  1  'x, y, z'
loop_
 _atom_site_type_symbol
 _atom_site_label
 _atom_site_symmetry_multiplicity
 _atom_site_fract_x
 _atom_site_fract_y
 _atom_site_fract_z
 _atom_site_occupancy
  Li  Li0  1  0.500000  0.000000  0.500000  1
  Sc  Sc1  1  0.688505  0.188505  0.000000  1
  Sc  Sc2  1  0.311495  0.811495  0.000000  1
  Sc  Sc3  1  0.170052  0.329948  0.000000  1
  Sc  Sc4  1  0.829948  0.670052  0.000000  1
  Al  Al5  1  0.000000  0.000000  0.000000  1
  Al  Al6  1  0.500000  0.500000  0.000000  1
  B  B7  1  0.121777  0.621777  0.000000  1
  B  B8  1  0.878223  0.378223  0.000000  1
  B  B9  1  0.641542  0.858458  0.000000  1
  B  B10  1  0.358458  0.141542  0.000000  1
  Ru  Ru11  1  0.224853  0.064755  0.500000  1
  Ru  Ru12  1  0.775147  0.935245  0.500000  1
  Ru  Ru13  1  0.065926  0.785317  0.500000  1
  Ru  Ru14  1  0.714683  0.434074  0.500000  1
  Ru  Ru15  1  0.934074  0.214683  0.500000  1
  Ru  Ru16  1  0.285317  0.565926  0.500000  1
  Ru  Ru17  1  0.564755  0.724853  0.500000  1
  Ru  Ru18  1  0.435245  0.275147  0.500000  1
  Ru  Ru19  1  0.000000  0.500000  0.500000  1
