# generated using pymatgen
data_Er2(PaGa5)3
_symmetry_space_group_name_H-M   'P 1'
_cell_length_a   12.53093230
_cell_length_b   12.53093252
_cell_length_c   12.53093250
_cell_angle_alpha   28.24512978
_cell_angle_beta   28.24512644
_cell_angle_gamma   28.24513208
_symmetry_Int_Tables_number   1
_chemical_formula_structural   Er2(PaGa5)3
_chemical_formula_sum   'Er2 Pa3 Ga15'
_cell_volume   389.35877009
_cell_formula_units_Z   1
loop_
 _symmetry_equiv_pos_site_id
 _symmetry_equiv_pos_as_xyz
  1  'x, y, z'
loop_
 _atom_site_type_symbol
 _atom_site_label
 _atom_site_symmetry_multiplicity
 _atom_site_fract_x
 _atom_site_fract_y
 _atom_site_fract_z
 _atom_site_occupancy
  Er  Er0  1  0.999064  0.999064  0.999064  1
  Er  Er1  1  0.599511  0.599511  0.599511  1
  Pa  Pa2  1  0.130212  0.130212  0.130212  1
  Pa  Pa3  1  0.870182  0.870182  0.870182  1
  Pa  Pa4  1  0.401069  0.401069  0.401069  1
  Ga  Ga5  1  0.132176  0.636007  0.636007  1
  Ga  Ga6  1  0.636007  0.636007  0.132176  1
  Ga  Ga7  1  0.636007  0.132176  0.636007  1
  Ga  Ga8  1  0.363931  0.872583  0.363931  1
  Ga  Ga9  1  0.363931  0.363931  0.872583  1
  Ga  Ga10  1  0.872583  0.363931  0.363931  1
  Ga  Ga11  1  0.431308  0.882145  0.882145  1
  Ga  Ga12  1  0.882145  0.882145  0.431308  1
  Ga  Ga13  1  0.882145  0.431308  0.882145  1
  Ga  Ga14  1  0.118478  0.563965  0.118478  1
  Ga  Ga15  1  0.118478  0.118478  0.563965  1
  Ga  Ga16  1  0.563965  0.118478  0.118478  1
  Ga  Ga17  1  0.497516  0.497516  0.003777  1
  Ga  Ga18  1  0.497516  0.003777  0.497516  1
  Ga  Ga19  1  0.003777  0.497516  0.497516  1
