# generated using pymatgen
data_Lu2Be25Co
_symmetry_space_group_name_H-M   'P 1'
_cell_length_a   7.18060814
_cell_length_b   7.16351566
_cell_length_c   7.22539097
_cell_angle_alpha   59.87088246
_cell_angle_beta   59.63669998
_cell_angle_gamma   59.93020034
_symmetry_Int_Tables_number   1
_chemical_formula_structural   Lu2Be25Co
_chemical_formula_sum   'Lu2 Be25 Co1'
_cell_volume   261.68329157
_cell_formula_units_Z   1
loop_
 _symmetry_equiv_pos_site_id
 _symmetry_equiv_pos_as_xyz
  1  'x, y, z'
loop_
 _atom_site_type_symbol
 _atom_site_label
 _atom_site_symmetry_multiplicity
 _atom_site_fract_x
 _atom_site_fract_y
 _atom_site_fract_z
 _atom_site_occupancy
  Lu  Lu0  1  0.253577  0.249933  0.244413  1
  Lu  Lu1  1  0.750067  0.746423  0.747923  1
  Be  Be2  1  0.933670  0.066330  0.711134  1
  Be  Be3  1  0.297135  0.702865  0.059996  1
  Be  Be4  1  0.065105  0.934895  0.293174  1
  Be  Be5  1  0.705875  0.938876  0.063085  1
  Be  Be6  1  0.707709  0.063614  0.293482  1
  Be  Be7  1  0.061124  0.294125  0.707836  1
  Be  Be8  1  0.936386  0.292291  0.064806  1
  Be  Be9  1  0.940033  0.705310  0.292045  1
  Be  Be10  1  0.294047  0.937797  0.703978  1
  Be  Be11  1  0.294690  0.059967  0.937387  1
  Be  Be12  1  0.062203  0.705953  0.935822  1
  Be  Be13  1  0.790396  0.436555  0.564500  1
  Be  Be14  1  0.563445  0.209604  0.791451  1
  Be  Be15  1  0.207987  0.565276  0.436740  1
  Be  Be16  1  0.434724  0.792013  0.210002  1
  Be  Be17  1  0.793251  0.206749  0.436010  1
  Be  Be18  1  0.790465  0.565402  0.214152  1
  Be  Be19  1  0.434187  0.565813  0.786839  1
  Be  Be20  1  0.564058  0.789538  0.435447  1
  Be  Be21  1  0.565684  0.434316  0.210058  1
  Be  Be22  1  0.210462  0.435942  0.789042  1
  Be  Be23  1  0.208323  0.791677  0.565585  1
  Be  Be24  1  0.434598  0.209535  0.570019  1
  Be  Be25  1  0.997451  0.002549  0.998413  1
  Be  Be26  1  0.501174  0.498826  0.497201  1
  Co  Co27  1  0.702173  0.297827  0.939457  1
