# generated using pymatgen
data_Dy7HoTm2(SiB4)4
_symmetry_space_group_name_H-M   'P 1'
_cell_length_a   7.21608101
_cell_length_b   7.21607401
_cell_length_c   8.04848200
_cell_angle_alpha   89.99944444
_cell_angle_beta   90.00129097
_cell_angle_gamma   90.00476401
_symmetry_Int_Tables_number   1
_chemical_formula_structural   Dy7HoTm2(SiB4)4
_chemical_formula_sum   'Dy7 Ho1 Tm2 Si4 B16'
_cell_volume   419.09873887
_cell_formula_units_Z   1
loop_
 _symmetry_equiv_pos_site_id
 _symmetry_equiv_pos_as_xyz
  1  'x, y, z'
loop_
 _atom_site_type_symbol
 _atom_site_label
 _atom_site_symmetry_multiplicity
 _atom_site_fract_x
 _atom_site_fract_y
 _atom_site_fract_z
 _atom_site_occupancy
  Dy  Dy0  1  0.680192  0.180193  0.224848  1
  Dy  Dy1  1  0.319820  0.819851  0.775147  1
  Dy  Dy2  1  0.319806  0.819806  0.224847  1
  Dy  Dy3  1  0.819728  0.680277  0.224797  1
  Dy  Dy4  1  0.819712  0.680290  0.775218  1
  Dy  Dy5  1  0.680147  0.180186  0.775145  1
  Dy  Dy6  1  0.180307  0.319692  0.775282  1
  Ho  Ho7  1  0.180255  0.319742  0.224192  1
  Tm  Tm8  1  0.000048  0.000093  0.499923  1
  Tm  Tm9  1  0.499911  0.499949  0.499927  1
  Si  Si10  1  0.115703  0.615464  0.499839  1
  Si  Si11  1  0.884535  0.384298  0.499839  1
  Si  Si12  1  0.384266  0.115737  0.499807  1
  Si  Si13  1  0.615545  0.884453  0.499959  1
  B  B14  1  0.172511  0.039279  0.000091  1
  B  B15  1  0.827581  0.960903  0.000042  1
  B  B16  1  0.961040  0.172540  0.000126  1
  B  B17  1  0.327461  0.538958  0.000125  1
  B  B18  1  0.039113  0.827571  0.000050  1
  B  B19  1  0.672427  0.460887  0.000053  1
  B  B20  1  0.539098  0.672418  0.000040  1
  B  B21  1  0.460721  0.327489  0.000091  1
  B  B22  1  0.089749  0.589576  0.000152  1
  B  B23  1  0.910424  0.410254  0.000152  1
  B  B24  1  0.410172  0.089825  0.000020  1
  B  B25  1  0.589799  0.910201  0.000014  1
  B  B26  1  0.000120  0.000223  0.163548  1
  B  B27  1  0.000047  0.000014  0.836589  1
  B  B28  1  0.499985  0.499953  0.836590  1
  B  B29  1  0.499778  0.499878  0.163547  1
