# generated using pymatgen
data_SrLi2TmSi4
_symmetry_space_group_name_H-M   'P 1'
_cell_length_a   3.82321400
_cell_length_b   7.90280698
_cell_length_c   10.57081063
_cell_angle_alpha   89.24078655
_cell_angle_beta   90.00000000
_cell_angle_gamma   90.00000000
_symmetry_Int_Tables_number   1
_chemical_formula_structural   SrLi2TmSi4
_chemical_formula_sum   'Sr2 Li4 Tm2 Si8'
_cell_volume   319.35972595
_cell_formula_units_Z   2
loop_
 _symmetry_equiv_pos_site_id
 _symmetry_equiv_pos_as_xyz
  1  'x, y, z'
loop_
 _atom_site_type_symbol
 _atom_site_label
 _atom_site_symmetry_multiplicity
 _atom_site_fract_x
 _atom_site_fract_y
 _atom_site_fract_z
 _atom_site_occupancy
  Sr  Sr0  1  0.250000  0.640502  0.635727  1
  Sr  Sr1  1  0.750000  0.359498  0.364273  1
  Li  Li2  1  0.250000  0.001124  0.388016  1
  Li  Li3  1  0.750000  0.998876  0.611984  1
  Li  Li4  1  0.250000  0.489640  0.106697  1
  Li  Li5  1  0.750000  0.510360  0.893303  1
  Tm  Tm6  1  0.250000  0.125355  0.867159  1
  Tm  Tm7  1  0.750000  0.874645  0.132841  1
  Si  Si8  1  0.750000  0.256245  0.056828  1
  Si  Si9  1  0.250000  0.743755  0.943172  1
  Si  Si10  1  0.750000  0.782138  0.416950  1
  Si  Si11  1  0.250000  0.217862  0.583050  1
  Si  Si12  1  0.750000  0.848601  0.833522  1
  Si  Si13  1  0.250000  0.151399  0.166478  1
  Si  Si14  1  0.750000  0.321940  0.691457  1
  Si  Si15  1  0.250000  0.678060  0.308543  1
