# generated using pymatgen
data_DyAgAu
_symmetry_space_group_name_H-M   'P 1'
_cell_length_a   5.26762451
_cell_length_b   5.26762452
_cell_length_c   5.26762496
_cell_angle_alpha   138.03937113
_cell_angle_beta   138.03937506
_cell_angle_gamma   60.84270482
_symmetry_Int_Tables_number   1
_chemical_formula_structural   DyAgAu
_chemical_formula_sum   'Dy1 Ag1 Au1'
_cell_volume   64.63323639
_cell_formula_units_Z   1
loop_
 _symmetry_equiv_pos_site_id
 _symmetry_equiv_pos_as_xyz
  1  'x, y, z'
loop_
 _atom_site_type_symbol
 _atom_site_label
 _atom_site_symmetry_multiplicity
 _atom_site_fract_x
 _atom_site_fract_y
 _atom_site_fract_z
 _atom_site_occupancy
  Dy  Dy0  1  0.995707  0.995707  0.000000  1
  Ag  Ag1  1  0.667688  0.667688  0.000000  1
  Au  Au2  1  0.336605  0.336605  0.000000  1
