# generated using pymatgen
data_CaLaB4OsRh4
_symmetry_space_group_name_H-M   'P 1'
_cell_length_a   7.55967265
_cell_length_b   6.34931908
_cell_length_c   5.67805423
_cell_angle_alpha   77.66318068
_cell_angle_beta   55.13478519
_cell_angle_gamma   47.24275181
_symmetry_Int_Tables_number   1
_chemical_formula_structural   CaLaB4OsRh4
_chemical_formula_sum   'Ca1 La1 B4 Os1 Rh4'
_cell_volume   157.15609233
_cell_formula_units_Z   1
loop_
 _symmetry_equiv_pos_site_id
 _symmetry_equiv_pos_as_xyz
  1  'x, y, z'
loop_
 _atom_site_type_symbol
 _atom_site_label
 _atom_site_symmetry_multiplicity
 _atom_site_fract_x
 _atom_site_fract_y
 _atom_site_fract_z
 _atom_site_occupancy
  Ca  Ca0  1  0.853109  0.853109  0.146891  1
  La  La1  1  0.139239  0.139239  0.860761  1
  B  B2  1  0.784856  0.481294  0.536785  1
  B  B3  1  0.199595  0.539199  0.478659  1
  B  B4  1  0.539199  0.199595  0.782548  1
  B  B5  1  0.481294  0.784856  0.197065  1
  Os  Os6  1  0.752144  0.752144  0.747856  1
  Rh  Rh7  1  0.498216  0.498216  0.001784  1
  Rh  Rh8  1  0.498862  0.498862  0.501138  1
  Rh  Rh9  1  0.001804  0.001804  0.498196  1
  Rh  Rh10  1  0.251683  0.251683  0.248317  1
