# generated using pymatgen
data_Dy10Y7Tm3Sn16
_symmetry_space_group_name_H-M   'P 1'
_cell_length_a   8.04090627
_cell_length_b   8.18364716
_cell_length_c   15.47023800
_cell_angle_alpha   89.99803265
_cell_angle_beta   90.01483537
_cell_angle_gamma   89.98869349
_symmetry_Int_Tables_number   1
_chemical_formula_structural   Dy10Y7Tm3Sn16
_chemical_formula_sum   'Dy10 Y7 Tm3 Sn16'
_cell_volume   1018.00255534
_cell_formula_units_Z   1
loop_
 _symmetry_equiv_pos_site_id
 _symmetry_equiv_pos_as_xyz
  1  'x, y, z'
loop_
 _atom_site_type_symbol
 _atom_site_label
 _atom_site_symmetry_multiplicity
 _atom_site_fract_x
 _atom_site_fract_y
 _atom_site_fract_z
 _atom_site_occupancy
  Dy  Dy0  1  0.367689  0.836841  0.877871  1
  Dy  Dy1  1  0.867239  0.663401  0.622196  1
  Dy  Dy2  1  0.632444  0.163289  0.377742  1
  Dy  Dy3  1  0.132279  0.336753  0.122294  1
  Dy  Dy4  1  0.632282  0.163412  0.122142  1
  Dy  Dy5  1  0.132457  0.336744  0.377667  1
  Dy  Dy6  1  0.367713  0.836854  0.622206  1
  Dy  Dy7  1  0.867359  0.663450  0.877905  1
  Dy  Dy8  1  0.521932  0.320815  0.902157  1
  Dy  Dy9  1  0.198866  0.502837  0.750051  1
  Y  Y10  1  0.022082  0.179121  0.597849  1
  Y  Y11  1  0.477928  0.679148  0.402168  1
  Y  Y12  1  0.977872  0.820880  0.097823  1
  Y  Y13  1  0.477872  0.679056  0.097843  1
  Y  Y14  1  0.977887  0.820849  0.402199  1
  Y  Y15  1  0.522090  0.320825  0.597849  1
  Y  Y16  1  0.022121  0.179126  0.902163  1
  Tm  Tm17  1  0.698976  0.997079  0.750081  1
  Tm  Tm18  1  0.801032  0.497002  0.249948  1
  Tm  Tm19  1  0.301104  0.002949  0.249978  1
  Sn  Sn20  1  0.292893  0.036085  0.042269  1
  Sn  Sn21  1  0.792940  0.464054  0.457670  1
  Sn  Sn22  1  0.707035  0.964023  0.542182  1
  Sn  Sn23  1  0.207585  0.535668  0.958147  1
  Sn  Sn24  1  0.707000  0.964375  0.957734  1
  Sn  Sn25  1  0.207051  0.536152  0.541775  1
  Sn  Sn26  1  0.292915  0.035988  0.457661  1
  Sn  Sn27  1  0.792775  0.463940  0.042148  1
  Sn  Sn28  1  0.565649  0.619463  0.750140  1
  Sn  Sn29  1  0.064453  0.881205  0.750050  1
  Sn  Sn30  1  0.435429  0.380671  0.249978  1
  Sn  Sn31  1  0.935365  0.119154  0.249960  1
  Sn  Sn32  1  0.330842  0.147088  0.750114  1
  Sn  Sn33  1  0.829975  0.351515  0.750079  1
  Sn  Sn34  1  0.669513  0.851829  0.249968  1
  Sn  Sn35  1  0.169354  0.648359  0.249994  1
