# generated using pymatgen
data_RbRh(CO3)2
_symmetry_space_group_name_H-M   'P 1'
_cell_length_a   7.23051284
_cell_length_b   7.23051240
_cell_length_c   7.23051214
_cell_angle_alpha   39.23380136
_cell_angle_beta   39.23380307
_cell_angle_gamma   39.23380313
_symmetry_Int_Tables_number   1
_chemical_formula_structural   RbRh(CO3)2
_chemical_formula_sum   'Rb1 Rh1 C2 O6'
_cell_volume   136.05458895
_cell_formula_units_Z   1
loop_
 _symmetry_equiv_pos_site_id
 _symmetry_equiv_pos_as_xyz
  1  'x, y, z'
loop_
 _atom_site_type_symbol
 _atom_site_label
 _atom_site_symmetry_multiplicity
 _atom_site_fract_x
 _atom_site_fract_y
 _atom_site_fract_z
 _atom_site_occupancy
  Rb  Rb0  1  0.500000  0.500000  0.500000  1
  Rh  Rh1  1  0.000000  0.000000  0.000000  1
  C  C2  1  0.277703  0.277703  0.277703  1
  C  C3  1  0.722297  0.722297  0.722297  1
  O  O4  1  0.247958  0.555241  0.022303  1
  O  O5  1  0.555242  0.022303  0.247958  1
  O  O6  1  0.977697  0.752041  0.444758  1
  O  O7  1  0.022302  0.247959  0.555242  1
  O  O8  1  0.444758  0.977697  0.752042  1
  O  O9  1  0.752041  0.444759  0.977696  1
