# generated using pymatgen
data_Sc2B2IrRh4Pb
_symmetry_space_group_name_H-M   'P 1'
_cell_length_a   9.46517700
_cell_length_b   9.46517700
_cell_length_c   3.25445000
_cell_angle_alpha   90.00000000
_cell_angle_beta   90.00000000
_cell_angle_gamma   90.00000000
_symmetry_Int_Tables_number   1
_chemical_formula_structural   Sc2B2IrRh4Pb
_chemical_formula_sum   'Sc4 B4 Ir2 Rh8 Pb2'
_cell_volume   291.56479445
_cell_formula_units_Z   2
loop_
 _symmetry_equiv_pos_site_id
 _symmetry_equiv_pos_as_xyz
  1  'x, y, z'
loop_
 _atom_site_type_symbol
 _atom_site_label
 _atom_site_symmetry_multiplicity
 _atom_site_fract_x
 _atom_site_fract_y
 _atom_site_fract_z
 _atom_site_occupancy
  Sc  Sc0  1  0.825503  0.325503  0.000000  1
  Sc  Sc1  1  0.325503  0.174497  0.000000  1
  Sc  Sc2  1  0.674497  0.825503  0.000000  1
  Sc  Sc3  1  0.174497  0.674497  0.000000  1
  B  B4  1  0.620102  0.120102  0.000000  1
  B  B5  1  0.120102  0.379898  0.000000  1
  B  B6  1  0.879898  0.620102  0.000000  1
  B  B7  1  0.379898  0.879898  0.000000  1
  Ir  Ir8  1  0.500000  0.000000  0.500000  1
  Ir  Ir9  1  0.000000  0.500000  0.500000  1
  Rh  Rh10  1  0.072705  0.225296  0.500000  1
  Rh  Rh11  1  0.225296  0.927295  0.500000  1
  Rh  Rh12  1  0.774704  0.072705  0.500000  1
  Rh  Rh13  1  0.927295  0.774704  0.500000  1
  Rh  Rh14  1  0.427295  0.725296  0.500000  1
  Rh  Rh15  1  0.572705  0.274704  0.500000  1
  Rh  Rh16  1  0.725296  0.572705  0.500000  1
  Rh  Rh17  1  0.274704  0.427295  0.500000  1
  Pb  Pb18  1  0.000000  0.000000  0.000000  1
  Pb  Pb19  1  0.500000  0.500000  0.000000  1
