# generated using pymatgen
data_YTm5Lu10(CdIr)4
_symmetry_space_group_name_H-M   'P 1'
_cell_length_a   9.47190705
_cell_length_b   9.47190635
_cell_length_c   9.49454200
_cell_angle_alpha   59.92091562
_cell_angle_beta   59.92091805
_cell_angle_gamma   59.78357299
_symmetry_Int_Tables_number   1
_chemical_formula_structural   YTm5Lu10(CdIr)4
_chemical_formula_sum   'Y1 Tm5 Lu10 Cd4 Ir4'
_cell_volume   600.62027032
_cell_formula_units_Z   1
loop_
 _symmetry_equiv_pos_site_id
 _symmetry_equiv_pos_as_xyz
  1  'x, y, z'
loop_
 _atom_site_type_symbol
 _atom_site_label
 _atom_site_symmetry_multiplicity
 _atom_site_fract_x
 _atom_site_fract_y
 _atom_site_fract_z
 _atom_site_occupancy
  Y  Y0  1  0.938451  0.938451  0.561549  1
  Tm  Tm1  1  0.939356  0.560373  0.561034  1
  Tm  Tm2  1  0.560373  0.939356  0.939237  1
  Tm  Tm3  1  0.560373  0.939356  0.561034  1
  Tm  Tm4  1  0.939356  0.560373  0.939237  1
  Tm  Tm5  1  0.561251  0.561251  0.938749  1
  Lu  Lu6  1  0.348846  0.348846  0.347976  1
  Lu  Lu7  1  0.348846  0.348846  0.954333  1
  Lu  Lu8  1  0.349498  0.953911  0.348296  1
  Lu  Lu9  1  0.953911  0.349498  0.348296  1
  Lu  Lu10  1  0.810700  0.188789  0.188568  1
  Lu  Lu11  1  0.188789  0.810700  0.811944  1
  Lu  Lu12  1  0.188789  0.810700  0.188568  1
  Lu  Lu13  1  0.810700  0.188789  0.811944  1
  Lu  Lu14  1  0.188797  0.188797  0.811203  1
  Lu  Lu15  1  0.811386  0.811386  0.188614  1
  Cd  Cd16  1  0.580556  0.580556  0.580673  1
  Cd  Cd17  1  0.580556  0.580556  0.258217  1
  Cd  Cd18  1  0.580146  0.258153  0.580851  1
  Cd  Cd19  1  0.258153  0.580146  0.580851  1
  Ir  Ir20  1  0.142032  0.142032  0.140809  1
  Ir  Ir21  1  0.142032  0.142032  0.575127  1
  Ir  Ir22  1  0.141939  0.575166  0.141448  1
  Ir  Ir23  1  0.575166  0.141939  0.141448  1
