# generated using pymatgen
data_Rb3ErIr2O9
_symmetry_space_group_name_H-M   'P 1'
_cell_length_a   6.06731202
_cell_length_b   6.06425143
_cell_length_c   14.60727100
_cell_angle_alpha   90.00000000
_cell_angle_beta   90.00000000
_cell_angle_gamma   59.97403081
_symmetry_Int_Tables_number   1
_chemical_formula_structural   Rb3ErIr2O9
_chemical_formula_sum   'Rb6 Er2 Ir4 O18'
_cell_volume   465.32837965
_cell_formula_units_Z   2
loop_
 _symmetry_equiv_pos_site_id
 _symmetry_equiv_pos_as_xyz
  1  'x, y, z'
loop_
 _atom_site_type_symbol
 _atom_site_label
 _atom_site_symmetry_multiplicity
 _atom_site_fract_x
 _atom_site_fract_y
 _atom_site_fract_z
 _atom_site_occupancy
  Rb  Rb0  1  0.334131  0.331757  0.105964  1
  Rb  Rb1  1  0.000042  0.999916  0.255402  1
  Rb  Rb2  1  0.332589  0.334832  0.406056  1
  Rb  Rb3  1  0.665869  0.668242  0.605965  1
  Rb  Rb4  1  0.999958  0.000083  0.755403  1
  Rb  Rb5  1  0.667412  0.665168  0.906056  1
  Er  Er6  1  0.000637  0.998575  0.005778  1
  Er  Er7  1  0.999364  0.001425  0.505778  1
  Ir  Ir8  1  0.667181  0.665638  0.158485  1
  Ir  Ir9  1  0.666111  0.667801  0.352902  1
  Ir  Ir10  1  0.332819  0.334363  0.658484  1
  Ir  Ir11  1  0.333889  0.332198  0.852902  1
  O  O12  1  0.357834  0.819642  0.089323  1
  O  O13  1  0.822522  0.819700  0.089334  1
  O  O14  1  0.822419  0.355196  0.089626  1
  O  O15  1  0.531729  0.936531  0.255368  1
  O  O16  1  0.531896  0.531618  0.255884  1
  O  O17  1  0.936498  0.531606  0.255865  1
  O  O18  1  0.355994  0.823435  0.421934  1
  O  O19  1  0.820537  0.823387  0.421919  1
  O  O20  1  0.820795  0.358333  0.422260  1
  O  O21  1  0.177479  0.180299  0.589334  1
  O  O22  1  0.642166  0.180357  0.589323  1
  O  O23  1  0.177581  0.644804  0.589626  1
  O  O24  1  0.468272  0.063469  0.755369  1
  O  O25  1  0.063501  0.468396  0.755863  1
  O  O26  1  0.468103  0.468384  0.755882  1
  O  O27  1  0.179463  0.176612  0.921919  1
  O  O28  1  0.644006  0.176564  0.921934  1
  O  O29  1  0.179205  0.641667  0.922261  1
