# generated using pymatgen
data_Lu5(GaBi)2
_symmetry_space_group_name_H-M   'P 1'
_cell_length_a   8.58738040
_cell_length_b   8.58738162
_cell_length_c   7.86995300
_cell_angle_alpha   90.00000000
_cell_angle_beta   90.00000000
_cell_angle_gamma   125.53228224
_symmetry_Int_Tables_number   1
_chemical_formula_structural   Lu5(GaBi)2
_chemical_formula_sum   'Lu10 Ga4 Bi4'
_cell_volume   472.28591421
_cell_formula_units_Z   2
loop_
 _symmetry_equiv_pos_site_id
 _symmetry_equiv_pos_as_xyz
  1  'x, y, z'
loop_
 _atom_site_type_symbol
 _atom_site_label
 _atom_site_symmetry_multiplicity
 _atom_site_fract_x
 _atom_site_fract_y
 _atom_site_fract_z
 _atom_site_occupancy
  Lu  Lu0  1  0.000000  0.000000  0.000000  1
  Lu  Lu1  1  0.500000  0.500000  0.500000  1
  Lu  Lu2  1  0.787198  0.540190  0.163891  1
  Lu  Lu3  1  0.459810  0.212802  0.836109  1
  Lu  Lu4  1  0.959810  0.712802  0.663891  1
  Lu  Lu5  1  0.287198  0.040190  0.336109  1
  Lu  Lu6  1  0.212802  0.459810  0.836109  1
  Lu  Lu7  1  0.540190  0.787198  0.163891  1
  Lu  Lu8  1  0.040190  0.287198  0.336109  1
  Lu  Lu9  1  0.712802  0.959810  0.663891  1
  Ga  Ga10  1  0.864960  0.864960  0.365659  1
  Ga  Ga11  1  0.135040  0.135040  0.634341  1
  Ga  Ga12  1  0.635040  0.635040  0.865659  1
  Ga  Ga13  1  0.364960  0.364960  0.134341  1
  Bi  Bi14  1  0.207312  0.792688  0.000000  1
  Bi  Bi15  1  0.707312  0.292688  0.500000  1
  Bi  Bi16  1  0.792688  0.207312  0.000000  1
  Bi  Bi17  1  0.292688  0.707312  0.500000  1
