# generated using pymatgen
data_HoLuMnAl3
_symmetry_space_group_name_H-M   'P 1'
_cell_length_a   5.40753422
_cell_length_b   5.40753454
_cell_length_c   5.40753283
_cell_angle_alpha   61.39452862
_cell_angle_beta   61.39452678
_cell_angle_gamma   61.39452995
_symmetry_Int_Tables_number   1
_chemical_formula_structural   HoLuMnAl3
_chemical_formula_sum   'Ho1 Lu1 Mn1 Al3'
_cell_volume   115.31318963
_cell_formula_units_Z   1
loop_
 _symmetry_equiv_pos_site_id
 _symmetry_equiv_pos_as_xyz
  1  'x, y, z'
loop_
 _atom_site_type_symbol
 _atom_site_label
 _atom_site_symmetry_multiplicity
 _atom_site_fract_x
 _atom_site_fract_y
 _atom_site_fract_z
 _atom_site_occupancy
  Ho  Ho0  1  0.998684  0.998684  0.998684  1
  Lu  Lu1  1  0.251683  0.251683  0.251683  1
  Mn  Mn2  1  0.624821  0.624821  0.624821  1
  Al  Al3  1  0.624892  0.624892  0.125027  1
  Al  Al4  1  0.624892  0.125027  0.624892  1
  Al  Al5  1  0.125027  0.624892  0.624892  1
