# generated using pymatgen
data_Yb6Tm2BiSb5
_symmetry_space_group_name_H-M   'P 1'
_cell_length_a   7.98274626
_cell_length_b   8.17903629
_cell_length_c   8.18680000
_cell_angle_alpha   109.97997651
_cell_angle_beta   108.96645890
_cell_angle_gamma   108.98201631
_symmetry_Int_Tables_number   1
_chemical_formula_structural   Yb6Tm2BiSb5
_chemical_formula_sum   'Yb6 Tm2 Bi1 Sb5'
_cell_volume   413.89173439
_cell_formula_units_Z   1
loop_
 _symmetry_equiv_pos_site_id
 _symmetry_equiv_pos_as_xyz
  1  'x, y, z'
loop_
 _atom_site_type_symbol
 _atom_site_label
 _atom_site_symmetry_multiplicity
 _atom_site_fract_x
 _atom_site_fract_y
 _atom_site_fract_z
 _atom_site_occupancy
  Yb  Yb0  1  0.498440  0.995786  0.646031  1
  Yb  Yb1  1  0.351530  0.352192  0.352272  1
  Yb  Yb2  1  0.500868  0.000276  0.145022  1
  Yb  Yb3  1  0.003739  0.649315  0.500764  1
  Yb  Yb4  1  0.855377  0.856925  0.854161  1
  Yb  Yb5  1  0.001743  0.144449  0.497831  1
  Tm  Tm6  1  0.146694  0.501046  0.003516  1
  Tm  Tm7  1  0.641963  0.500814  0.002210  1
  Bi  Bi8  1  0.754200  0.377468  0.634998  1
  Sb  Sb9  1  0.377068  0.621461  0.758827  1
  Sb  Sb10  1  0.876853  0.259250  0.121942  1
  Sb  Sb11  1  0.618241  0.741489  0.363484  1
  Sb  Sb12  1  0.118085  0.862585  0.240734  1
  Sb  Sb13  1  0.255199  0.136944  0.878205  1
