# generated using pymatgen
data_Pr6TiCo16TcP12
_symmetry_space_group_name_H-M   'P 1'
_cell_length_a   3.79370400
_cell_length_b   10.78152200
_cell_length_c   12.52433600
_cell_angle_alpha   90.00000000
_cell_angle_beta   90.00000000
_cell_angle_gamma   90.00000000
_symmetry_Int_Tables_number   1
_chemical_formula_structural   Pr6TiCo16TcP12
_chemical_formula_sum   'Pr6 Ti1 Co16 Tc1 P12'
_cell_volume   512.26917793
_cell_formula_units_Z   1
loop_
 _symmetry_equiv_pos_site_id
 _symmetry_equiv_pos_as_xyz
  1  'x, y, z'
loop_
 _atom_site_type_symbol
 _atom_site_label
 _atom_site_symmetry_multiplicity
 _atom_site_fract_x
 _atom_site_fract_y
 _atom_site_fract_z
 _atom_site_occupancy
  Pr  Pr0  1  0.000000  0.500000  0.523535  1
  Pr  Pr1  1  0.500000  0.000000  0.476249  1
  Pr  Pr2  1  0.500000  0.818069  0.204672  1
  Pr  Pr3  1  0.500000  0.181931  0.204672  1
  Pr  Pr4  1  0.000000  0.680728  0.793968  1
  Pr  Pr5  1  0.000000  0.319272  0.793968  1
  Ti  Ti6  1  0.000000  0.000000  0.851300  1
  Co  Co7  1  0.500000  0.500000  0.704628  1
  Co  Co8  1  0.000000  0.000000  0.295117  1
  Co  Co9  1  0.000000  0.500000  0.989779  1
  Co  Co10  1  0.500000  0.000000  0.012109  1
  Co  Co11  1  0.500000  0.334324  0.993843  1
  Co  Co12  1  0.500000  0.665676  0.993843  1
  Co  Co13  1  0.000000  0.169436  0.006643  1
  Co  Co14  1  0.000000  0.830564  0.006643  1
  Co  Co15  1  0.500000  0.296770  0.429976  1
  Co  Co16  1  0.500000  0.703230  0.429976  1
  Co  Co17  1  0.000000  0.204502  0.568130  1
  Co  Co18  1  0.000000  0.795498  0.568130  1
  Co  Co19  1  0.500000  0.880590  0.708206  1
  Co  Co20  1  0.500000  0.119410  0.708206  1
  Co  Co21  1  0.000000  0.617610  0.290754  1
  Co  Co22  1  0.000000  0.382390  0.290754  1
  Tc  Tc23  1  0.500000  0.500000  0.155044  1
  P  P24  1  0.500000  0.500000  0.887218  1
  P  P25  1  0.000000  0.000000  0.112301  1
  P  P26  1  0.500000  0.500000  0.342440  1
  P  P27  1  0.000000  0.000000  0.653439  1
  P  P28  1  0.500000  0.305624  0.613056  1
  P  P29  1  0.500000  0.694376  0.613056  1
  P  P30  1  0.000000  0.194560  0.385562  1
  P  P31  1  0.000000  0.805440  0.385562  1
  P  P32  1  0.500000  0.844338  0.898030  1
  P  P33  1  0.500000  0.155662  0.898030  1
  P  P34  1  0.000000  0.651093  0.105582  1
  P  P35  1  0.000000  0.348907  0.105582  1
