# generated using pymatgen
data_HoAl2(Fe4Re)2
_symmetry_space_group_name_H-M   'P 1'
_cell_length_a   4.74205939
_cell_length_b   6.51192254
_cell_length_c   6.51192277
_cell_angle_alpha   96.70783676
_cell_angle_beta   111.35257347
_cell_angle_gamma   68.64741696
_symmetry_Int_Tables_number   1
_chemical_formula_structural   HoAl2(Fe4Re)2
_chemical_formula_sum   'Ho1 Al2 Fe8 Re2'
_cell_volume   174.40001952
_cell_formula_units_Z   1
loop_
 _symmetry_equiv_pos_site_id
 _symmetry_equiv_pos_as_xyz
  1  'x, y, z'
loop_
 _atom_site_type_symbol
 _atom_site_label
 _atom_site_symmetry_multiplicity
 _atom_site_fract_x
 _atom_site_fract_y
 _atom_site_fract_z
 _atom_site_occupancy
  Ho  Ho0  1  0.000000  0.000000  0.000000  1
  Al  Al1  1  0.711705  0.788295  0.211705  1
  Al  Al2  1  0.288295  0.211705  0.788295  1
  Fe  Fe3  1  0.500000  0.000000  0.500000  1
  Fe  Fe4  1  0.000000  0.000000  0.500000  1
  Fe  Fe5  1  0.500000  0.500000  0.000000  1
  Fe  Fe6  1  0.000000  0.500000  0.000000  1
  Fe  Fe7  1  0.500000  0.770811  0.770811  1
  Fe  Fe8  1  0.500000  0.229189  0.229189  1
  Fe  Fe9  1  0.639021  0.360979  0.639021  1
  Fe  Fe10  1  0.360979  0.639021  0.360979  1
  Re  Re11  1  0.000000  0.357073  0.357073  1
  Re  Re12  1  0.000000  0.642927  0.642927  1
