# generated using pymatgen
data_Dy5Er5AlSb5
_symmetry_space_group_name_H-M   'P 1'
_cell_length_a   8.89175200
_cell_length_b   8.88604021
_cell_length_c   6.36349700
_cell_angle_alpha   90.00000000
_cell_angle_beta   90.00000000
_cell_angle_gamma   120.02126536
_symmetry_Int_Tables_number   1
_chemical_formula_structural   Dy5Er5AlSb5
_chemical_formula_sum   'Dy5 Er5 Al1 Sb5'
_cell_volume   435.34041660
_cell_formula_units_Z   1
loop_
 _symmetry_equiv_pos_site_id
 _symmetry_equiv_pos_as_xyz
  1  'x, y, z'
loop_
 _atom_site_type_symbol
 _atom_site_label
 _atom_site_symmetry_multiplicity
 _atom_site_fract_x
 _atom_site_fract_y
 _atom_site_fract_z
 _atom_site_occupancy
  Dy  Dy0  1  0.009169  0.763109  0.750000  1
  Dy  Dy1  1  0.999168  0.243918  0.250000  1
  Dy  Dy2  1  0.755251  0.756082  0.250000  1
  Dy  Dy3  1  0.752330  0.000000  0.750000  1
  Dy  Dy4  1  0.246059  0.236891  0.750000  1
  Er  Er5  1  0.242540  0.000000  0.250000  1
  Er  Er6  1  0.334704  0.673144  0.501092  1
  Er  Er7  1  0.661560  0.326856  0.998908  1
  Er  Er8  1  0.661560  0.326856  0.501092  1
  Er  Er9  1  0.334704  0.673144  0.998908  1
  Al  Al10  1  0.396861  0.000000  0.750000  1
  Sb  Sb11  1  0.389867  0.392142  0.250000  1
  Sb  Sb12  1  0.997726  0.607858  0.250000  1
  Sb  Sb13  1  0.001915  0.391194  0.750000  1
  Sb  Sb14  1  0.610720  0.608806  0.750000  1
  Sb  Sb15  1  0.605868  0.000000  0.250000  1
