# generated using pymatgen
data_Yb4Al18GaRh5
_symmetry_space_group_name_H-M   'P 1'
_cell_length_a   7.59679519
_cell_length_b   7.59679518
_cell_length_c   9.58587300
_cell_angle_alpha   90.09382375
_cell_angle_beta   90.09383129
_cell_angle_gamma   119.69983984
_symmetry_Int_Tables_number   1
_chemical_formula_structural   Yb4Al18GaRh5
_chemical_formula_sum   'Yb4 Al18 Ga1 Rh5'
_cell_volume   480.53660086
_cell_formula_units_Z   1
loop_
 _symmetry_equiv_pos_site_id
 _symmetry_equiv_pos_as_xyz
  1  'x, y, z'
loop_
 _atom_site_type_symbol
 _atom_site_label
 _atom_site_symmetry_multiplicity
 _atom_site_fract_x
 _atom_site_fract_y
 _atom_site_fract_z
 _atom_site_occupancy
  Yb  Yb0  1  0.997352  0.676048  0.249956  1
  Yb  Yb1  1  0.002648  0.323952  0.750044  1
  Yb  Yb2  1  0.676048  0.997352  0.249956  1
  Yb  Yb3  1  0.323952  0.002648  0.750044  1
  Al  Al4  1  0.139522  0.139522  0.261043  1
  Al  Al5  1  0.860478  0.860478  0.738957  1
  Al  Al6  1  0.002177  0.346689  0.077983  1
  Al  Al7  1  0.997823  0.653311  0.922017  1
  Al  Al8  1  0.001214  0.663521  0.569868  1
  Al  Al9  1  0.336479  0.998786  0.430132  1
  Al  Al10  1  0.998786  0.336479  0.430132  1
  Al  Al11  1  0.663521  0.001214  0.569868  1
  Al  Al12  1  0.653311  0.997823  0.922017  1
  Al  Al13  1  0.346689  0.002177  0.077983  1
  Al  Al14  1  0.333394  0.333394  0.548392  1
  Al  Al15  1  0.666606  0.666606  0.451608  1
  Al  Al16  1  0.654938  0.654938  0.057793  1
  Al  Al17  1  0.345062  0.345062  0.942207  1
  Al  Al18  1  0.338567  0.551050  0.251402  1
  Al  Al19  1  0.661433  0.448950  0.748598  1
  Al  Al20  1  0.551050  0.338567  0.251402  1
  Al  Al21  1  0.448950  0.661433  0.748598  1
  Ga  Ga22  1  0.000000  0.000000  0.000000  1
  Rh  Rh23  1  0.670628  0.329372  0.000000  1
  Rh  Rh24  1  0.329372  0.670628  0.000000  1
  Rh  Rh25  1  0.329557  0.670443  0.500000  1
  Rh  Rh26  1  0.670443  0.329557  0.500000  1
  Rh  Rh27  1  0.000000  0.000000  0.500000  1
