# generated using pymatgen
data_Pr5Nd7(IrCl3)4
_symmetry_space_group_name_H-M   'P 1'
_cell_length_a   10.26819511
_cell_length_b   10.29195256
_cell_length_c   10.26768873
_cell_angle_alpha   109.52381882
_cell_angle_beta   109.42638634
_cell_angle_gamma   109.51907941
_symmetry_Int_Tables_number   1
_chemical_formula_structural   Pr5Nd7(IrCl3)4
_chemical_formula_sum   'Pr5 Nd7 Ir4 Cl12'
_cell_volume   834.72593773
_cell_formula_units_Z   1
loop_
 _symmetry_equiv_pos_site_id
 _symmetry_equiv_pos_as_xyz
  1  'x, y, z'
loop_
 _atom_site_type_symbol
 _atom_site_label
 _atom_site_symmetry_multiplicity
 _atom_site_fract_x
 _atom_site_fract_y
 _atom_site_fract_z
 _atom_site_occupancy
  Pr  Pr0  1  0.261511  0.009582  0.021137  1
  Pr  Pr1  1  0.750600  0.239232  0.261072  1
  Pr  Pr2  1  0.748497  0.010889  0.488294  1
  Pr  Pr3  1  0.478606  0.489493  0.239430  1
  Pr  Pr4  1  0.021698  0.261195  0.010692  1
  Nd  Nd5  1  0.261822  0.750861  0.239349  1
  Nd  Nd6  1  0.487781  0.747641  0.010389  1
  Nd  Nd7  1  0.238443  0.476753  0.489074  1
  Nd  Nd8  1  0.011837  0.022865  0.260687  1
  Nd  Nd9  1  0.237676  0.260857  0.748200  1
  Nd  Nd10  1  0.012070  0.488725  0.751317  1
  Nd  Nd11  1  0.487687  0.239369  0.477165  1
  Ir  Ir12  1  0.499790  0.999859  0.249741  1
  Ir  Ir13  1  0.250093  0.499828  0.000185  1
  Ir  Ir14  1  0.999795  0.249889  0.499793  1
  Ir  Ir15  1  0.249989  0.250028  0.249830  1
  Cl  Cl16  1  0.250183  0.001419  0.499930  1
  Cl  Cl17  1  0.499368  0.499814  0.749798  1
  Cl  Cl18  1  0.250463  0.746998  0.748888  1
  Cl  Cl19  1  0.000028  0.748718  0.002888  1
  Cl  Cl20  1  0.004637  0.505324  0.254468  1
  Cl  Cl21  1  0.748964  0.994777  0.999168  1
  Cl  Cl22  1  0.751061  0.750537  0.246145  1
  Cl  Cl23  1  0.495762  0.750157  0.501381  1
  Cl  Cl24  1  0.499291  0.249891  0.996683  1
  Cl  Cl25  1  0.751777  0.501080  0.506062  1
  Cl  Cl26  1  0.748510  0.254361  0.749999  1
  Cl  Cl27  1  0.002062  0.999855  0.748233  1
