# generated using pymatgen
data_Ho3Lu(CuPt)2
_symmetry_space_group_name_H-M   'P 1'
_cell_length_a   4.41463300
_cell_length_b   5.48310355
_cell_length_c   7.06652911
_cell_angle_alpha   89.68915829
_cell_angle_beta   90.00000000
_cell_angle_gamma   90.00000000
_symmetry_Int_Tables_number   1
_chemical_formula_structural   Ho3Lu(CuPt)2
_chemical_formula_sum   'Ho3 Lu1 Cu2 Pt2'
_cell_volume   171.04910809
_cell_formula_units_Z   1
loop_
 _symmetry_equiv_pos_site_id
 _symmetry_equiv_pos_as_xyz
  1  'x, y, z'
loop_
 _atom_site_type_symbol
 _atom_site_label
 _atom_site_symmetry_multiplicity
 _atom_site_fract_x
 _atom_site_fract_y
 _atom_site_fract_z
 _atom_site_occupancy
  Ho  Ho0  1  0.000000  0.115805  0.683779  1
  Ho  Ho1  1  0.000000  0.883286  0.182667  1
  Ho  Ho2  1  0.500000  0.393621  0.316375  1
  Lu  Lu3  1  0.500000  0.606717  0.817192  1
  Cu  Cu4  1  0.500000  0.888969  0.464811  1
  Cu  Cu5  1  0.500000  0.107557  0.961181  1
  Pt  Pt6  1  0.000000  0.614999  0.541484  1
  Pt  Pt7  1  0.000000  0.389047  0.032511  1
