# generated using pymatgen
data_YTm2Mg3Sn2Ir
_symmetry_space_group_name_H-M   'P 1'
_cell_length_a   7.39866900
_cell_length_b   7.40317970
_cell_length_c   4.46279700
_cell_angle_alpha   90.00000000
_cell_angle_beta   90.00000000
_cell_angle_gamma   119.97985128
_symmetry_Int_Tables_number   1
_chemical_formula_structural   YTm2Mg3Sn2Ir
_chemical_formula_sum   'Y1 Tm2 Mg3 Sn2 Ir1'
_cell_volume   211.73750619
_cell_formula_units_Z   1
loop_
 _symmetry_equiv_pos_site_id
 _symmetry_equiv_pos_as_xyz
  1  'x, y, z'
loop_
 _atom_site_type_symbol
 _atom_site_label
 _atom_site_symmetry_multiplicity
 _atom_site_fract_x
 _atom_site_fract_y
 _atom_site_fract_z
 _atom_site_occupancy
  Y  Y0  1  0.604135  0.000000  0.000000  1
  Tm  Tm1  1  0.000076  0.608212  0.000000  1
  Tm  Tm2  1  0.391864  0.391788  0.000000  1
  Mg  Mg3  1  0.229036  0.000000  0.500000  1
  Mg  Mg4  1  0.000619  0.229466  0.500000  1
  Mg  Mg5  1  0.771154  0.770534  0.500000  1
  Sn  Sn6  1  0.331602  0.664363  0.500000  1
  Sn  Sn7  1  0.667241  0.335637  0.500000  1
  Ir  Ir8  1  0.004273  0.000000  0.000000  1
