# generated using pymatgen
data_Rb4Li2CrCoH12
_symmetry_space_group_name_H-M   'P 1'
_cell_length_a   9.77395921
_cell_length_b   9.77395921
_cell_length_c   9.77395939
_cell_angle_alpha   34.87808216
_cell_angle_beta   34.87808233
_cell_angle_gamma   34.87808246
_symmetry_Int_Tables_number   1
_chemical_formula_structural   Rb4Li2CrCoH12
_chemical_formula_sum   'Rb4 Li2 Cr1 Co1 H12'
_cell_volume   272.55347876
_cell_formula_units_Z   1
loop_
 _symmetry_equiv_pos_site_id
 _symmetry_equiv_pos_as_xyz
  1  'x, y, z'
loop_
 _atom_site_type_symbol
 _atom_site_label
 _atom_site_symmetry_multiplicity
 _atom_site_fract_x
 _atom_site_fract_y
 _atom_site_fract_z
 _atom_site_occupancy
  Rb  Rb0  1  0.129872  0.129872  0.129872  1
  Rb  Rb1  1  0.870128  0.870128  0.870128  1
  Rb  Rb2  1  0.283222  0.283222  0.283222  1
  Rb  Rb3  1  0.716778  0.716778  0.716778  1
  Li  Li4  1  0.411061  0.411061  0.411061  1
  Li  Li5  1  0.588939  0.588939  0.588939  1
  Cr  Cr6  1  0.000000  0.000000  0.000000  1
  Co  Co7  1  0.500000  0.500000  0.500000  1
  H  H8  1  0.182127  0.182127  0.744418  1
  H  H9  1  0.744418  0.182127  0.182127  1
  H  H10  1  0.182127  0.744418  0.182127  1
  H  H11  1  0.817873  0.255582  0.817873  1
  H  H12  1  0.817873  0.817873  0.255582  1
  H  H13  1  0.255582  0.817873  0.817873  1
  H  H14  1  0.409166  0.409166  0.782397  1
  H  H15  1  0.782397  0.409166  0.409166  1
  H  H16  1  0.217603  0.590834  0.590834  1
  H  H17  1  0.590834  0.590834  0.217603  1
  H  H18  1  0.590834  0.217603  0.590834  1
  H  H19  1  0.409166  0.782397  0.409166  1
