# generated using pymatgen
data_Lu8Ta4Nb5Si16Mo3
_symmetry_space_group_name_H-M   'P 1'
_cell_length_a   6.73481788
_cell_length_b   6.98379008
_cell_length_c   13.22755969
_cell_angle_alpha   89.99311238
_cell_angle_beta   90.03636648
_cell_angle_gamma   90.03053967
_symmetry_Int_Tables_number   1
_chemical_formula_structural   Lu8Ta4Nb5Si16Mo3
_chemical_formula_sum   'Lu8 Ta4 Nb5 Si16 Mo3'
_cell_volume   622.15215660
_cell_formula_units_Z   1
loop_
 _symmetry_equiv_pos_site_id
 _symmetry_equiv_pos_as_xyz
  1  'x, y, z'
loop_
 _atom_site_type_symbol
 _atom_site_label
 _atom_site_symmetry_multiplicity
 _atom_site_fract_x
 _atom_site_fract_y
 _atom_site_fract_z
 _atom_site_occupancy
  Lu  Lu0  1  0.501035  0.326990  0.094223  1
  Lu  Lu1  1  0.001302  0.173212  0.405533  1
  Lu  Lu2  1  0.498419  0.673104  0.595101  1
  Lu  Lu3  1  0.998145  0.826936  0.905611  1
  Lu  Lu4  1  0.498529  0.672405  0.905060  1
  Lu  Lu5  1  0.998040  0.827419  0.594748  1
  Lu  Lu6  1  0.501446  0.326796  0.405650  1
  Lu  Lu7  1  0.001135  0.172471  0.094295  1
  Ta  Ta8  1  0.835315  0.329494  0.625751  1
  Ta  Ta9  1  0.334382  0.171879  0.874923  1
  Ta  Ta10  1  0.165290  0.670447  0.126310  1
  Ta  Ta11  1  0.660750  0.007552  0.749969  1
  Nb  Nb12  1  0.666363  0.829988  0.373698  1
  Nb  Nb13  1  0.165277  0.669694  0.373913  1
  Nb  Nb14  1  0.666067  0.829536  0.126074  1
  Nb  Nb15  1  0.834557  0.329448  0.874745  1
  Nb  Nb16  1  0.334366  0.171346  0.624984  1
  Si  Si17  1  0.666591  0.036651  0.541292  1
  Si  Si18  1  0.166296  0.463082  0.958415  1
  Si  Si19  1  0.333888  0.962544  0.041922  1
  Si  Si20  1  0.834396  0.537158  0.458035  1
  Si  Si21  1  0.334687  0.962610  0.457178  1
  Si  Si22  1  0.834366  0.536895  0.042517  1
  Si  Si23  1  0.665743  0.036001  0.958458  1
  Si  Si24  1  0.165417  0.463136  0.542284  1
  Si  Si25  1  0.533181  0.383422  0.749654  1
  Si  Si26  1  0.037990  0.118558  0.750423  1
  Si  Si27  1  0.466130  0.618336  0.249973  1
  Si  Si28  1  0.966000  0.882675  0.250288  1
  Si  Si29  1  0.796683  0.632963  0.749948  1
  Si  Si30  1  0.293255  0.863703  0.750289  1
  Si  Si31  1  0.203327  0.364489  0.249759  1
  Si  Si32  1  0.702798  0.135511  0.249766  1
  Mo  Mo33  1  0.160358  0.493638  0.750163  1
  Mo  Mo34  1  0.338636  0.994189  0.249333  1
  Mo  Mo35  1  0.839842  0.505728  0.249712  1
