# generated using pymatgen
data_Tb2Sm4Cd23Ge
_symmetry_space_group_name_H-M   'P 1'
_cell_length_a   10.01045136
_cell_length_b   10.01754157
_cell_length_c   10.01754121
_cell_angle_alpha   59.95895004
_cell_angle_beta   60.02341254
_cell_angle_gamma   60.02341115
_symmetry_Int_Tables_number   1
_chemical_formula_structural   Tb2Sm4Cd23Ge
_chemical_formula_sum   'Tb2 Sm4 Cd23 Ge1'
_cell_volume   710.36169823
_cell_formula_units_Z   1
loop_
 _symmetry_equiv_pos_site_id
 _symmetry_equiv_pos_as_xyz
  1  'x, y, z'
loop_
 _atom_site_type_symbol
 _atom_site_label
 _atom_site_symmetry_multiplicity
 _atom_site_fract_x
 _atom_site_fract_y
 _atom_site_fract_z
 _atom_site_occupancy
  Tb  Tb0  1  0.794728  0.794381  0.205619  1
  Tb  Tb1  1  0.205272  0.794381  0.205619  1
  Sm  Sm2  1  0.793778  0.205948  0.206496  1
  Sm  Sm3  1  0.206390  0.206052  0.793948  1
  Sm  Sm4  1  0.793610  0.206052  0.793948  1
  Sm  Sm5  1  0.206222  0.793504  0.794052  1
  Cd  Cd6  1  0.838147  0.836405  0.487299  1
  Cd  Cd7  1  0.836383  0.491130  0.836103  1
  Cd  Cd8  1  0.489273  0.836472  0.838008  1
  Cd  Cd9  1  0.836245  0.836472  0.838008  1
  Cd  Cd10  1  0.163617  0.163897  0.508870  1
  Cd  Cd11  1  0.161853  0.512701  0.163595  1
  Cd  Cd12  1  0.510727  0.161992  0.163528  1
  Cd  Cd13  1  0.163755  0.161992  0.163528  1
  Cd  Cd14  1  0.621276  0.622803  0.134647  1
  Cd  Cd15  1  0.622871  0.132399  0.621862  1
  Cd  Cd16  1  0.133537  0.623352  0.620743  1
  Cd  Cd17  1  0.622370  0.623352  0.620743  1
  Cd  Cd18  1  0.377129  0.378138  0.867601  1
  Cd  Cd19  1  0.378724  0.865353  0.377197  1
  Cd  Cd20  1  0.866463  0.379257  0.376648  1
  Cd  Cd21  1  0.377630  0.379257  0.376648  1
  Cd  Cd22  1  0.999886  0.999537  0.500252  1
  Cd  Cd23  1  0.500325  0.999537  0.500252  1
  Cd  Cd24  1  0.000000  0.500153  0.499847  1
  Cd  Cd25  1  0.499675  0.499748  0.000463  1
  Cd  Cd26  1  0.000114  0.499748  0.000463  1
  Cd  Cd27  1  0.500000  0.999560  0.000440  1
  Cd  Cd28  1  0.500000  0.498885  0.501115  1
  Ge  Ge29  1  0.000000  0.997541  0.002459  1
