# generated using pymatgen
data_Hf4IrRu10RhC3
_symmetry_space_group_name_H-M   'P 1'
_cell_length_a   4.07573500
_cell_length_b   4.07733700
_cell_length_c   16.04719600
_cell_angle_alpha   90.00000000
_cell_angle_beta   90.00000000
_cell_angle_gamma   90.00000000
_symmetry_Int_Tables_number   1
_chemical_formula_structural   Hf4IrRu10RhC3
_chemical_formula_sum   'Hf4 Ir1 Ru10 Rh1 C3'
_cell_volume   266.67463186
_cell_formula_units_Z   1
loop_
 _symmetry_equiv_pos_site_id
 _symmetry_equiv_pos_as_xyz
  1  'x, y, z'
loop_
 _atom_site_type_symbol
 _atom_site_label
 _atom_site_symmetry_multiplicity
 _atom_site_fract_x
 _atom_site_fract_y
 _atom_site_fract_z
 _atom_site_occupancy
  Hf  Hf0  1  0.000000  0.000000  0.882696  1
  Hf  Hf1  1  0.000000  0.000000  0.117304  1
  Hf  Hf2  1  0.000000  0.000000  0.372640  1
  Hf  Hf3  1  0.000000  0.000000  0.627360  1
  Ir  Ir4  1  0.000000  0.500000  0.000000  1
  Ru  Ru5  1  0.500000  0.500000  0.881771  1
  Ru  Ru6  1  0.500000  0.500000  0.118229  1
  Ru  Ru7  1  0.500000  0.500000  0.373048  1
  Ru  Ru8  1  0.500000  0.500000  0.626952  1
  Ru  Ru9  1  0.500000  0.000000  0.248257  1
  Ru  Ru10  1  0.500000  0.000000  0.500000  1
  Ru  Ru11  1  0.500000  0.000000  0.751743  1
  Ru  Ru12  1  0.000000  0.500000  0.248783  1
  Ru  Ru13  1  0.000000  0.500000  0.500000  1
  Ru  Ru14  1  0.000000  0.500000  0.751217  1
  Rh  Rh15  1  0.500000  0.000000  0.000000  1
  C  C16  1  0.500000  0.500000  0.240390  1
  C  C17  1  0.500000  0.500000  0.500000  1
  C  C18  1  0.500000  0.500000  0.759610  1
