# generated using pymatgen
data_Tc4B8Mo5W3
_symmetry_space_group_name_H-M   'P 1'
_cell_length_a   3.11118700
_cell_length_b   7.53895816
_cell_length_c   9.67466521
_cell_angle_alpha   89.97617194
_cell_angle_beta   90.00000000
_cell_angle_gamma   90.00000000
_symmetry_Int_Tables_number   1
_chemical_formula_structural   Tc4B8Mo5W3
_chemical_formula_sum   'Tc4 B8 Mo5 W3'
_cell_volume   226.92030382
_cell_formula_units_Z   1
loop_
 _symmetry_equiv_pos_site_id
 _symmetry_equiv_pos_as_xyz
  1  'x, y, z'
loop_
 _atom_site_type_symbol
 _atom_site_label
 _atom_site_symmetry_multiplicity
 _atom_site_fract_x
 _atom_site_fract_y
 _atom_site_fract_z
 _atom_site_occupancy
  Tc  Tc0  1  0.500000  0.623148  0.396059  1
  Tc  Tc1  1  0.500000  0.377837  0.604685  1
  Tc  Tc2  1  0.000000  0.877258  0.895614  1
  Tc  Tc3  1  0.000000  0.123155  0.104561  1
  B  B4  1  0.500000  0.115331  0.459371  1
  B  B5  1  0.500000  0.884982  0.540429  1
  B  B6  1  0.000000  0.384959  0.959613  1
  B  B7  1  0.000000  0.615098  0.040706  1
  B  B8  1  0.500000  0.121997  0.266566  1
  B  B9  1  0.500000  0.877749  0.733461  1
  B  B10  1  0.000000  0.377633  0.766313  1
  B  B11  1  0.000000  0.622628  0.233637  1
  Mo  Mo12  1  0.000000  0.309131  0.369254  1
  Mo  Mo13  1  0.500000  0.577352  0.862073  1
  Mo  Mo14  1  0.500000  0.422646  0.138196  1
  Mo  Mo15  1  0.000000  0.922161  0.361776  1
  Mo  Mo16  1  0.000000  0.078116  0.637776  1
  W  W17  1  0.500000  0.811189  0.130209  1
  W  W18  1  0.500000  0.188877  0.869636  1
  W  W19  1  0.000000  0.688752  0.630064  1
