# generated using pymatgen
data_Er3IrPdRu
_symmetry_space_group_name_H-M   'P 1'
_cell_length_a   3.40819400
_cell_length_b   3.40819400
_cell_length_c   10.34030900
_cell_angle_alpha   90.00000000
_cell_angle_beta   90.00000000
_cell_angle_gamma   90.00000000
_symmetry_Int_Tables_number   1
_chemical_formula_structural   Er3IrPdRu
_chemical_formula_sum   'Er3 Ir1 Pd1 Ru1'
_cell_volume   120.11082005
_cell_formula_units_Z   1
loop_
 _symmetry_equiv_pos_site_id
 _symmetry_equiv_pos_as_xyz
  1  'x, y, z'
loop_
 _atom_site_type_symbol
 _atom_site_label
 _atom_site_symmetry_multiplicity
 _atom_site_fract_x
 _atom_site_fract_y
 _atom_site_fract_z
 _atom_site_occupancy
  Er  Er0  1  0.499999  0.499999  0.996256  1
  Er  Er1  1  0.499999  0.499999  0.325423  1
  Er  Er2  1  0.499999  0.499999  0.677322  1
  Ir  Ir3  1  0.000000  0.000000  0.168756  1
  Pd  Pd4  1  0.000000  0.000000  0.500362  1
  Ru  Ru5  1  0.000000  0.000000  0.831881  1
