# generated using pymatgen
data_YbEr3(Ni5Sn)4
_symmetry_space_group_name_H-M   'P 1'
_cell_length_a   4.84141900
_cell_length_b   8.01174587
_cell_length_c   10.23706565
_cell_angle_alpha   89.90313656
_cell_angle_beta   90.00000000
_cell_angle_gamma   90.00000000
_symmetry_Int_Tables_number   1
_chemical_formula_structural   YbEr3(Ni5Sn)4
_chemical_formula_sum   'Yb1 Er3 Ni20 Sn4'
_cell_volume   397.07697352
_cell_formula_units_Z   1
loop_
 _symmetry_equiv_pos_site_id
 _symmetry_equiv_pos_as_xyz
  1  'x, y, z'
loop_
 _atom_site_type_symbol
 _atom_site_label
 _atom_site_symmetry_multiplicity
 _atom_site_fract_x
 _atom_site_fract_y
 _atom_site_fract_z
 _atom_site_occupancy
  Yb  Yb0  1  0.250000  0.753812  0.440550  1
  Er  Er1  1  0.750000  0.246994  0.560008  1
  Er  Er2  1  0.250000  0.252861  0.060413  1
  Er  Er3  1  0.750000  0.746966  0.939609  1
  Ni  Ni4  1  0.750000  0.913477  0.482493  1
  Ni  Ni5  1  0.250000  0.586129  0.982635  1
  Ni  Ni6  1  0.750000  0.413985  0.017254  1
  Ni  Ni7  1  0.250000  0.085187  0.516491  1
  Ni  Ni8  1  0.250000  0.188371  0.742296  1
  Ni  Ni9  1  0.750000  0.310859  0.242853  1
  Ni  Ni10  1  0.250000  0.688645  0.757654  1
  Ni  Ni11  1  0.750000  0.811291  0.257292  1
  Ni  Ni12  1  0.750000  0.546816  0.400139  1
  Ni  Ni13  1  0.250000  0.952359  0.900982  1
  Ni  Ni14  1  0.750000  0.047622  0.099104  1
  Ni  Ni15  1  0.250000  0.452080  0.600096  1
  Ni  Ni16  1  0.498809  0.066014  0.309622  1
  Ni  Ni17  1  0.501746  0.434276  0.809364  1
  Ni  Ni18  1  0.001324  0.565940  0.190291  1
  Ni  Ni19  1  0.998578  0.934152  0.690555  1
  Ni  Ni20  1  0.501422  0.934152  0.690555  1
  Ni  Ni21  1  0.498676  0.565940  0.190291  1
  Ni  Ni22  1  0.998254  0.434276  0.809364  1
  Ni  Ni23  1  0.001191  0.066014  0.309622  1
  Sn  Sn24  1  0.750000  0.640408  0.637844  1
  Sn  Sn25  1  0.250000  0.859508  0.140646  1
  Sn  Sn26  1  0.750000  0.139915  0.860761  1
  Sn  Sn27  1  0.250000  0.361952  0.361213  1
