# generated using pymatgen
data_Li2Nd2Si2Sn
_symmetry_space_group_name_H-M   'P 1'
_cell_length_a   9.78859102
_cell_length_b   9.78859129
_cell_length_c   6.86884200
_cell_angle_alpha   90.00000000
_cell_angle_beta   90.00000000
_cell_angle_gamma   153.21545696
_symmetry_Int_Tables_number   1
_chemical_formula_structural   Li2Nd2Si2Sn
_chemical_formula_sum   'Li4 Nd4 Si4 Sn2'
_cell_volume   296.58589252
_cell_formula_units_Z   2
loop_
 _symmetry_equiv_pos_site_id
 _symmetry_equiv_pos_as_xyz
  1  'x, y, z'
loop_
 _atom_site_type_symbol
 _atom_site_label
 _atom_site_symmetry_multiplicity
 _atom_site_fract_x
 _atom_site_fract_y
 _atom_site_fract_z
 _atom_site_occupancy
  Li  Li0  1  0.184316  0.815684  0.055205  1
  Li  Li1  1  0.184316  0.815684  0.444795  1
  Li  Li2  1  0.815684  0.184316  0.944795  1
  Li  Li3  1  0.815684  0.184316  0.555205  1
  Nd  Nd4  1  0.350254  0.649746  0.250000  1
  Nd  Nd5  1  0.649746  0.350254  0.750000  1
  Nd  Nd6  1  0.548257  0.451743  0.250000  1
  Nd  Nd7  1  0.451743  0.548257  0.750000  1
  Si  Si8  1  0.056979  0.943021  0.925464  1
  Si  Si9  1  0.943021  0.056979  0.074536  1
  Si  Si10  1  0.943021  0.056979  0.425464  1
  Si  Si11  1  0.056979  0.943021  0.574536  1
  Sn  Sn12  1  0.719244  0.280756  0.250000  1
  Sn  Sn13  1  0.280756  0.719244  0.750000  1
