# generated using pymatgen
data_Yb10Ga2Cu3Ir
_symmetry_space_group_name_H-M   'P 1'
_cell_length_a   8.82169683
_cell_length_b   8.82169708
_cell_length_c   8.81556255
_cell_angle_alpha   128.57580852
_cell_angle_beta   128.57581192
_cell_angle_gamma   75.74534758
_symmetry_Int_Tables_number   1
_chemical_formula_structural   Yb10Ga2Cu3Ir
_chemical_formula_sum   'Yb10 Ga2 Cu3 Ir1'
_cell_volume   407.73318446
_cell_formula_units_Z   1
loop_
 _symmetry_equiv_pos_site_id
 _symmetry_equiv_pos_as_xyz
  1  'x, y, z'
loop_
 _atom_site_type_symbol
 _atom_site_label
 _atom_site_symmetry_multiplicity
 _atom_site_fract_x
 _atom_site_fract_y
 _atom_site_fract_z
 _atom_site_occupancy
  Yb  Yb0  1  0.494025  0.502279  0.996305  1
  Yb  Yb1  1  0.002279  0.994025  0.996305  1
  Yb  Yb2  1  0.529400  0.029400  0.839268  1
  Yb  Yb3  1  0.184066  0.684066  0.145863  1
  Yb  Yb4  1  0.031782  0.197629  0.508342  1
  Yb  Yb5  1  0.697629  0.531782  0.508342  1
  Yb  Yb6  1  0.461798  0.961798  0.145863  1
  Yb  Yb7  1  0.809867  0.309867  0.839268  1
  Yb  Yb8  1  0.976560  0.810712  0.508342  1
  Yb  Yb9  1  0.310712  0.476560  0.508342  1
  Ga  Ga10  1  0.251596  0.251596  0.003190  1
  Ga  Ga11  1  0.751596  0.751596  0.003190  1
  Cu  Cu12  1  0.879427  0.379427  0.258851  1
  Cu  Cu13  1  0.616114  0.882876  0.498990  1
  Cu  Cu14  1  0.382876  0.116114  0.498990  1
  Ir  Ir15  1  0.120272  0.620272  0.740544  1
