# generated using pymatgen
data_Ca3Pr16NdGa12
_symmetry_space_group_name_H-M   'P 1'
_cell_length_a   7.94446300
_cell_length_b   7.94446300
_cell_length_c   14.63750600
_cell_angle_alpha   90.00000000
_cell_angle_beta   90.00000000
_cell_angle_gamma   90.00000000
_symmetry_Int_Tables_number   1
_chemical_formula_structural   Ca3Pr16NdGa12
_chemical_formula_sum   'Ca3 Pr16 Nd1 Ga12'
_cell_volume   923.83876058
_cell_formula_units_Z   1
loop_
 _symmetry_equiv_pos_site_id
 _symmetry_equiv_pos_as_xyz
  1  'x, y, z'
loop_
 _atom_site_type_symbol
 _atom_site_label
 _atom_site_symmetry_multiplicity
 _atom_site_fract_x
 _atom_site_fract_y
 _atom_site_fract_z
 _atom_site_occupancy
  Ca  Ca0  1  0.000000  0.500000  0.735029  1
  Ca  Ca1  1  0.000000  0.500000  0.238326  1
  Ca  Ca2  1  0.500000  0.000000  0.258319  1
  Pr  Pr3  1  0.818569  0.834127  0.602718  1
  Pr  Pr4  1  0.177338  0.833502  0.101346  1
  Pr  Pr5  1  0.166858  0.821430  0.396928  1
  Pr  Pr6  1  0.833142  0.178570  0.396928  1
  Pr  Pr7  1  0.678570  0.666858  0.396928  1
  Pr  Pr8  1  0.665873  0.318569  0.602718  1
  Pr  Pr9  1  0.334127  0.681431  0.602718  1
  Pr  Pr10  1  0.666498  0.677338  0.101346  1
  Pr  Pr11  1  0.679227  0.339534  0.897618  1
  Pr  Pr12  1  0.839534  0.820773  0.897618  1
  Pr  Pr13  1  0.321430  0.333142  0.396928  1
  Pr  Pr14  1  0.181431  0.165873  0.602718  1
  Pr  Pr15  1  0.822662  0.166498  0.101346  1
  Pr  Pr16  1  0.320773  0.660466  0.897618  1
  Pr  Pr17  1  0.333502  0.322662  0.101346  1
  Pr  Pr18  1  0.160466  0.179227  0.897618  1
  Nd  Nd19  1  0.500000  0.000000  0.784006  1
  Ga  Ga20  1  0.617569  0.382807  0.249435  1
  Ga  Ga21  1  0.119509  0.882549  0.748355  1
  Ga  Ga22  1  0.382549  0.380491  0.748355  1
  Ga  Ga23  1  0.382431  0.617193  0.249435  1
  Ga  Ga24  1  0.882807  0.882431  0.249435  1
  Ga  Ga25  1  0.617451  0.619509  0.748355  1
  Ga  Ga26  1  0.000000  0.500000  0.503798  1
  Ga  Ga27  1  0.880491  0.117451  0.748355  1
  Ga  Ga28  1  0.500000  0.000000  0.491905  1
  Ga  Ga29  1  0.500000  0.000000  0.998971  1
  Ga  Ga30  1  0.117193  0.117569  0.249435  1
  Ga  Ga31  1  0.000000  0.500000  0.004052  1
