# generated using pymatgen
data_Ca2Al9NiRh2
_symmetry_space_group_name_H-M   'P 1'
_cell_length_a   7.53411616
_cell_length_b   7.53405840
_cell_length_c   9.55995796
_cell_angle_alpha   90.16540353
_cell_angle_beta   90.16223228
_cell_angle_gamma   119.44526560
_symmetry_Int_Tables_number   1
_chemical_formula_structural   Ca2Al9NiRh2
_chemical_formula_sum   'Ca4 Al18 Ni2 Rh4'
_cell_volume   472.54321810
_cell_formula_units_Z   2
loop_
 _symmetry_equiv_pos_site_id
 _symmetry_equiv_pos_as_xyz
  1  'x, y, z'
loop_
 _atom_site_type_symbol
 _atom_site_label
 _atom_site_symmetry_multiplicity
 _atom_site_fract_x
 _atom_site_fract_y
 _atom_site_fract_z
 _atom_site_occupancy
  Ca  Ca0  1  0.995718  0.671232  0.250117  1
  Ca  Ca1  1  0.006774  0.330298  0.750175  1
  Ca  Ca2  1  0.669669  0.993237  0.249831  1
  Ca  Ca3  1  0.328742  0.004280  0.749900  1
  Al  Al4  1  0.127446  0.127515  0.246670  1
  Al  Al5  1  0.872469  0.872524  0.753302  1
  Al  Al6  1  0.996518  0.332195  0.070148  1
  Al  Al7  1  0.996609  0.665862  0.929737  1
  Al  Al8  1  0.999053  0.665306  0.571170  1
  Al  Al9  1  0.334655  0.000944  0.428839  1
  Al  Al10  1  0.001722  0.334284  0.428295  1
  Al  Al11  1  0.665684  0.998274  0.571738  1
  Al  Al12  1  0.667822  0.003503  0.929834  1
  Al  Al13  1  0.334136  0.003409  0.070252  1
  Al  Al14  1  0.334484  0.333937  0.546194  1
  Al  Al15  1  0.666071  0.665500  0.453825  1
  Al  Al16  1  0.669132  0.667657  0.043426  1
  Al  Al17  1  0.332393  0.330910  0.956566  1
  Al  Al18  1  0.337577  0.545765  0.248781  1
  Al  Al19  1  0.662870  0.451217  0.753935  1
  Al  Al20  1  0.548753  0.337139  0.246065  1
  Al  Al21  1  0.454225  0.662416  0.751230  1
  Ni  Ni22  1  0.669296  0.330729  0.000005  1
  Ni  Ni23  1  0.999207  0.000836  0.999965  1
  Rh  Rh24  1  0.328379  0.671667  0.000008  1
  Rh  Rh25  1  0.329479  0.670526  0.500011  1
  Rh  Rh26  1  0.671064  0.328901  0.499994  1
  Rh  Rh27  1  0.000053  0.999934  0.499988  1
