# generated using pymatgen
data_YTiP7Ru12
_symmetry_space_group_name_H-M   'P 1'
_cell_length_a   9.38667300
_cell_length_b   9.38667251
_cell_length_c   3.90770200
_cell_angle_alpha   90.00000000
_cell_angle_beta   90.00000000
_cell_angle_gamma   120.00000430
_symmetry_Int_Tables_number   1
_chemical_formula_structural   YTiP7Ru12
_chemical_formula_sum   'Y1 Ti1 P7 Ru12'
_cell_volume   298.17786788
_cell_formula_units_Z   1
loop_
 _symmetry_equiv_pos_site_id
 _symmetry_equiv_pos_as_xyz
  1  'x, y, z'
loop_
 _atom_site_type_symbol
 _atom_site_label
 _atom_site_symmetry_multiplicity
 _atom_site_fract_x
 _atom_site_fract_y
 _atom_site_fract_z
 _atom_site_occupancy
  Y  Y0  1  0.333333  0.666667  0.000000  1
  Ti  Ti1  1  0.666667  0.333333  0.500000  1
  P  P2  1  0.600146  0.719332  0.500000  1
  P  P3  1  0.000000  0.000000  0.000000  1
  P  P4  1  0.280668  0.880814  0.500000  1
  P  P5  1  0.119186  0.399854  0.500000  1
  P  P6  1  0.884112  0.570963  0.000000  1
  P  P7  1  0.429037  0.313149  0.000000  1
  P  P8  1  0.686851  0.115888  0.000000  1
  Ru  Ru9  1  0.557873  0.955874  0.500000  1
  Ru  Ru10  1  0.398000  0.442127  0.500000  1
  Ru  Ru11  1  0.913780  0.121613  0.500000  1
  Ru  Ru12  1  0.207833  0.086220  0.500000  1
  Ru  Ru13  1  0.878387  0.792167  0.500000  1
  Ru  Ru14  1  0.725991  0.889782  0.000000  1
  Ru  Ru15  1  0.110218  0.836208  0.000000  1
  Ru  Ru16  1  0.163792  0.274009  0.000000  1
  Ru  Ru17  1  0.428546  0.075923  0.000000  1
  Ru  Ru18  1  0.924077  0.352623  0.000000  1
  Ru  Ru19  1  0.647377  0.571454  0.000000  1
  Ru  Ru20  1  0.044126  0.602000  0.500000  1
