# generated using pymatgen
data_NdIn2(SnRh)4
_symmetry_space_group_name_H-M   'P 1'
_cell_length_a   7.01097661
_cell_length_b   7.01097623
_cell_length_c   6.97804840
_cell_angle_alpha   120.34328624
_cell_angle_beta   120.34328112
_cell_angle_gamma   89.67832636
_symmetry_Int_Tables_number   1
_chemical_formula_structural   NdIn2(SnRh)4
_chemical_formula_sum   'Nd1 In2 Sn4 Rh4'
_cell_volume   240.69066711
_cell_formula_units_Z   1
loop_
 _symmetry_equiv_pos_site_id
 _symmetry_equiv_pos_as_xyz
  1  'x, y, z'
loop_
 _atom_site_type_symbol
 _atom_site_label
 _atom_site_symmetry_multiplicity
 _atom_site_fract_x
 _atom_site_fract_y
 _atom_site_fract_z
 _atom_site_occupancy
  Nd  Nd0  1  0.000608  0.000608  0.000000  1
  In  In1  1  0.465461  0.122827  0.000000  1
  In  In2  1  0.122827  0.465461  0.000000  1
  Sn  Sn3  1  0.874308  0.874308  0.339277  1
  Sn  Sn4  1  0.501011  0.001011  0.500000  1
  Sn  Sn5  1  0.001011  0.501011  0.500000  1
  Sn  Sn6  1  0.535032  0.535032  0.660724  1
  Rh  Rh7  1  0.750513  0.398522  0.000000  1
  Rh  Rh8  1  0.398522  0.750513  0.000000  1
  Rh  Rh9  1  0.609734  0.609734  0.368760  1
  Rh  Rh10  1  0.240975  0.240975  0.631241  1
