# generated using pymatgen
data_Na3Yb(Al3Pd)6
_symmetry_space_group_name_H-M   'P 1'
_cell_length_a   7.64239800
_cell_length_b   7.63765769
_cell_length_c   9.46947400
_cell_angle_alpha   90.00000000
_cell_angle_beta   90.00000000
_cell_angle_gamma   119.53227885
_symmetry_Int_Tables_number   1
_chemical_formula_structural   Na3Yb(Al3Pd)6
_chemical_formula_sum   'Na3 Yb1 Al18 Pd6'
_cell_volume   480.92123611
_cell_formula_units_Z   1
loop_
 _symmetry_equiv_pos_site_id
 _symmetry_equiv_pos_as_xyz
  1  'x, y, z'
loop_
 _atom_site_type_symbol
 _atom_site_label
 _atom_site_symmetry_multiplicity
 _atom_site_fract_x
 _atom_site_fract_y
 _atom_site_fract_z
 _atom_site_occupancy
  Na  Na0  1  0.993763  0.669973  0.250000  1
  Na  Na1  1  0.003989  0.329291  0.750000  1
  Na  Na2  1  0.673231  0.996517  0.250000  1
  Yb  Yb3  1  0.328821  0.000891  0.750000  1
  Al  Al4  1  0.130384  0.132200  0.250000  1
  Al  Al5  1  0.868641  0.866925  0.750000  1
  Al  Al6  1  0.998662  0.334720  0.075309  1
  Al  Al7  1  0.998724  0.661734  0.925670  1
  Al  Al8  1  0.998724  0.661734  0.574330  1
  Al  Al9  1  0.334435  0.999683  0.421357  1
  Al  Al10  1  0.998662  0.334720  0.424691  1
  Al  Al11  1  0.669344  0.001742  0.573877  1
  Al  Al12  1  0.669344  0.001742  0.926123  1
  Al  Al13  1  0.334435  0.999683  0.078643  1
  Al  Al14  1  0.331305  0.333058  0.555401  1
  Al  Al15  1  0.667011  0.667476  0.446624  1
  Al  Al16  1  0.667011  0.667476  0.053376  1
  Al  Al17  1  0.331305  0.333058  0.944599  1
  Al  Al18  1  0.338733  0.546764  0.250000  1
  Al  Al19  1  0.659800  0.456189  0.750000  1
  Al  Al20  1  0.546889  0.340156  0.250000  1
  Al  Al21  1  0.456922  0.663770  0.750000  1
  Pd  Pd22  1  0.668965  0.327677  0.998563  1
  Pd  Pd23  1  0.328655  0.671688  0.997653  1
  Pd  Pd24  1  0.328655  0.671688  0.502347  1
  Pd  Pd25  1  0.668965  0.327677  0.501437  1
  Pd  Pd26  1  0.002314  0.000887  0.998040  1
  Pd  Pd27  1  0.002314  0.000887  0.501960  1
