# generated using pymatgen
data_Mg3Zn6InRh2
_symmetry_space_group_name_H-M   'P 1'
_cell_length_a   5.18864002
_cell_length_b   5.26803856
_cell_length_c   8.39202581
_cell_angle_alpha   90.32851026
_cell_angle_beta   90.21935877
_cell_angle_gamma   120.62620390
_symmetry_Int_Tables_number   1
_chemical_formula_structural   Mg3Zn6InRh2
_chemical_formula_sum   'Mg3 Zn6 In1 Rh2'
_cell_volume   197.38051668
_cell_formula_units_Z   1
loop_
 _symmetry_equiv_pos_site_id
 _symmetry_equiv_pos_as_xyz
  1  'x, y, z'
loop_
 _atom_site_type_symbol
 _atom_site_label
 _atom_site_symmetry_multiplicity
 _atom_site_fract_x
 _atom_site_fract_y
 _atom_site_fract_z
 _atom_site_occupancy
  Mg  Mg0  1  0.676439  0.330730  0.566703  1
  Mg  Mg1  1  0.674535  0.330511  0.931412  1
  Mg  Mg2  1  0.323045  0.655040  0.437471  1
  Zn  Zn3  1  0.000591  0.010875  0.998951  1
  Zn  Zn4  1  0.001458  0.018512  0.500144  1
  Zn  Zn5  1  0.339064  0.166333  0.253789  1
  Zn  Zn6  1  0.663052  0.829252  0.745493  1
  Zn  Zn7  1  0.169261  0.832427  0.745610  1
  Zn  Zn8  1  0.829880  0.660676  0.253533  1
  In  In9  1  0.321886  0.656861  0.065851  1
  Rh  Rh10  1  0.179698  0.344774  0.753143  1
  Rh  Rh11  1  0.821090  0.164007  0.247900  1
