# generated using pymatgen
data_Er2TmZnSi2Ag3
_symmetry_space_group_name_H-M   'P 1'
_cell_length_a   7.08911300
_cell_length_b   7.08916477
_cell_length_c   4.12499300
_cell_angle_alpha   90.00000000
_cell_angle_beta   90.00000000
_cell_angle_gamma   120.00023889
_symmetry_Int_Tables_number   1
_chemical_formula_structural   Er2TmZnSi2Ag3
_chemical_formula_sum   'Er2 Tm1 Zn1 Si2 Ag3'
_cell_volume   179.53113292
_cell_formula_units_Z   1
loop_
 _symmetry_equiv_pos_site_id
 _symmetry_equiv_pos_as_xyz
  1  'x, y, z'
loop_
 _atom_site_type_symbol
 _atom_site_label
 _atom_site_symmetry_multiplicity
 _atom_site_fract_x
 _atom_site_fract_y
 _atom_site_fract_z
 _atom_site_occupancy
  Er  Er0  1  0.420212  0.420240  0.500000  1
  Er  Er1  1  0.579788  0.000028  0.500000  1
  Tm  Tm2  1  0.000000  0.579882  0.500000  1
  Zn  Zn3  1  0.000000  0.999826  0.500000  1
  Si  Si4  1  0.666911  0.333476  0.000000  1
  Si  Si5  1  0.333089  0.666566  0.000000  1
  Ag  Ag6  1  0.746593  0.746468  0.000000  1
  Ag  Ag7  1  0.253407  0.999875  0.000000  1
  Ag  Ag8  1  0.000000  0.253639  0.000000  1
