# generated using pymatgen
data_Zr4Fe4SiAs3
_symmetry_space_group_name_H-M   'P 1'
_cell_length_a   3.93180100
_cell_length_b   6.48046023
_cell_length_c   7.24803645
_cell_angle_alpha   90.16773000
_cell_angle_beta   90.00000000
_cell_angle_gamma   90.00000000
_symmetry_Int_Tables_number   1
_chemical_formula_structural   Zr4Fe4SiAs3
_chemical_formula_sum   'Zr4 Fe4 Si1 As3'
_cell_volume   184.67830770
_cell_formula_units_Z   1
loop_
 _symmetry_equiv_pos_site_id
 _symmetry_equiv_pos_as_xyz
  1  'x, y, z'
loop_
 _atom_site_type_symbol
 _atom_site_label
 _atom_site_symmetry_multiplicity
 _atom_site_fract_x
 _atom_site_fract_y
 _atom_site_fract_z
 _atom_site_occupancy
  Zr  Zr0  1  0.250000  0.015094  0.307175  1
  Zr  Zr1  1  0.250000  0.505344  0.191023  1
  Zr  Zr2  1  0.750000  0.989249  0.693977  1
  Zr  Zr3  1  0.750000  0.487178  0.809654  1
  Fe  Fe4  1  0.250000  0.152132  0.939711  1
  Fe  Fe5  1  0.250000  0.649512  0.567180  1
  Fe  Fe6  1  0.750000  0.854366  0.063903  1
  Fe  Fe7  1  0.750000  0.349852  0.428839  1
  Si  Si8  1  0.750000  0.215564  0.108517  1
  As  As9  1  0.250000  0.279385  0.611362  1
  As  As10  1  0.250000  0.779995  0.891530  1
  As  As11  1  0.750000  0.722328  0.387128  1
