# generated using pymatgen
data_Ac(TaS2)3
_symmetry_space_group_name_H-M   'P 1'
_cell_length_a   5.81996900
_cell_length_b   5.81996849
_cell_length_c   15.11223900
_cell_angle_alpha   90.00000000
_cell_angle_beta   90.00000000
_cell_angle_gamma   119.99840622
_symmetry_Int_Tables_number   1
_chemical_formula_structural   Ac(TaS2)3
_chemical_formula_sum   'Ac2 Ta6 S12'
_cell_volume   443.31020042
_cell_formula_units_Z   2
loop_
 _symmetry_equiv_pos_site_id
 _symmetry_equiv_pos_as_xyz
  1  'x, y, z'
loop_
 _atom_site_type_symbol
 _atom_site_label
 _atom_site_symmetry_multiplicity
 _atom_site_fract_x
 _atom_site_fract_y
 _atom_site_fract_z
 _atom_site_occupancy
  Ac  Ac0  1  0.000000  0.000000  0.250000  1
  Ac  Ac1  1  0.000000  0.000000  0.750000  1
  Ta  Ta2  1  0.666525  0.333180  0.000000  1
  Ta  Ta3  1  0.333181  0.666528  0.000000  1
  Ta  Ta4  1  0.999849  0.999849  0.000000  1
  Ta  Ta5  1  0.000151  0.000152  0.500000  1
  Ta  Ta6  1  0.666821  0.333475  0.500000  1
  Ta  Ta7  1  0.333474  0.666820  0.500000  1
  S  S8  1  0.999840  0.660935  0.104037  1
  S  S9  1  0.660935  0.999841  0.104037  1
  S  S10  1  0.338792  0.338794  0.104029  1
  S  S11  1  0.661206  0.661207  0.395971  1
  S  S12  1  0.339066  0.000160  0.395963  1
  S  S13  1  0.000158  0.339064  0.395963  1
  S  S14  1  0.339066  0.000160  0.604037  1
  S  S15  1  0.000158  0.339064  0.604037  1
  S  S16  1  0.661206  0.661207  0.604029  1
  S  S17  1  0.338792  0.338794  0.895971  1
  S  S18  1  0.999840  0.660935  0.895962  1
  S  S19  1  0.660935  0.999841  0.895962  1
