# generated using pymatgen
data_NdHo3(TmRh9)2
_symmetry_space_group_name_H-M   'P 1'
_cell_length_a   5.26755600
_cell_length_b   5.26755573
_cell_length_c   17.52765100
_cell_angle_alpha   90.00000000
_cell_angle_beta   90.00000000
_cell_angle_gamma   120.00000170
_symmetry_Int_Tables_number   1
_chemical_formula_structural   NdHo3(TmRh9)2
_chemical_formula_sum   'Nd1 Ho3 Tm2 Rh18'
_cell_volume   421.18475367
_cell_formula_units_Z   1
loop_
 _symmetry_equiv_pos_site_id
 _symmetry_equiv_pos_as_xyz
  1  'x, y, z'
loop_
 _atom_site_type_symbol
 _atom_site_label
 _atom_site_symmetry_multiplicity
 _atom_site_fract_x
 _atom_site_fract_y
 _atom_site_fract_z
 _atom_site_occupancy
  Nd  Nd0  1  0.666667  0.333333  0.250029  1
  Ho  Ho1  1  0.333333  0.666667  0.541887  1
  Ho  Ho2  1  0.666667  0.333333  0.040795  1
  Ho  Ho3  1  0.333333  0.666667  0.750040  1
  Tm  Tm4  1  0.666667  0.333333  0.459107  1
  Tm  Tm5  1  0.333333  0.666667  0.957997  1
  Rh  Rh6  1  0.167463  0.334924  0.124355  1
  Rh  Rh7  1  0.832511  0.665021  0.625284  1
  Rh  Rh8  1  0.665076  0.832537  0.124355  1
  Rh  Rh9  1  0.167463  0.832537  0.124355  1
  Rh  Rh10  1  0.832511  0.167489  0.625284  1
  Rh  Rh11  1  0.334979  0.167489  0.625284  1
  Rh  Rh12  1  0.832546  0.665092  0.874782  1
  Rh  Rh13  1  0.832546  0.167454  0.874782  1
  Rh  Rh14  1  0.334908  0.167454  0.874782  1
  Rh  Rh15  1  0.665098  0.832548  0.375684  1
  Rh  Rh16  1  0.167452  0.832548  0.375684  1
  Rh  Rh17  1  0.167452  0.334902  0.375684  1
  Rh  Rh18  1  0.000000  0.000000  0.249981  1
  Rh  Rh19  1  0.000000  0.000000  0.749970  1
  Rh  Rh20  1  0.333333  0.666667  0.250018  1
  Rh  Rh21  1  0.666667  0.333333  0.749996  1
  Rh  Rh22  1  0.000000  0.000000  0.999575  1
  Rh  Rh23  1  0.000000  0.000000  0.500291  1
