# generated using pymatgen
data_AlZn5(FeRh2)6
_symmetry_space_group_name_H-M   'P 1'
_cell_length_a   4.25479700
_cell_length_b   6.06989100
_cell_length_c   12.75753100
_cell_angle_alpha   90.00153706
_cell_angle_beta   89.99760238
_cell_angle_gamma   89.99982080
_symmetry_Int_Tables_number   1
_chemical_formula_structural   AlZn5(FeRh2)6
_chemical_formula_sum   'Al1 Zn5 Fe6 Rh12'
_cell_volume   329.47796028
_cell_formula_units_Z   1
loop_
 _symmetry_equiv_pos_site_id
 _symmetry_equiv_pos_as_xyz
  1  'x, y, z'
loop_
 _atom_site_type_symbol
 _atom_site_label
 _atom_site_symmetry_multiplicity
 _atom_site_fract_x
 _atom_site_fract_y
 _atom_site_fract_z
 _atom_site_occupancy
  Al  Al0  1  0.500340  0.500135  0.833325  1
  Zn  Zn1  1  0.000019  0.000001  0.999429  1
  Zn  Zn2  1  0.499721  0.500032  0.166432  1
  Zn  Zn3  1  0.999700  0.999986  0.333345  1
  Zn  Zn4  1  0.499990  0.500014  0.500230  1
  Zn  Zn5  1  0.000265  0.999998  0.667233  1
  Fe  Fe6  1  0.999984  0.499680  0.002193  1
  Fe  Fe7  1  0.500411  0.000521  0.166957  1
  Fe  Fe8  1  0.998935  0.499560  0.333168  1
  Fe  Fe9  1  0.499689  0.999992  0.499765  1
  Fe  Fe10  1  0.999899  0.499932  0.664346  1
  Fe  Fe11  1  0.500945  0.000153  0.833335  1
  Rh  Rh12  1  0.499843  0.251747  0.997848  1
  Rh  Rh13  1  0.499879  0.748303  0.997895  1
  Rh  Rh14  1  0.000021  0.249796  0.166172  1
  Rh  Rh15  1  0.000020  0.750224  0.166139  1
  Rh  Rh16  1  0.499618  0.249766  0.333429  1
  Rh  Rh17  1  0.499605  0.750202  0.333346  1
  Rh  Rh18  1  0.000027  0.249904  0.500506  1
  Rh  Rh19  1  0.000031  0.750057  0.500458  1
  Rh  Rh20  1  0.500053  0.251746  0.668744  1
  Rh  Rh21  1  0.500045  0.748161  0.668888  1
  Rh  Rh22  1  0.000498  0.254897  0.833352  1
  Rh  Rh23  1  0.000464  0.745202  0.833463  1
