# generated using pymatgen
data_Dy3YAl4(Ga7Ir3)2
_symmetry_space_group_name_H-M   'P 1'
_cell_length_a   7.56858003
_cell_length_b   7.56838816
_cell_length_c   9.51758500
_cell_angle_alpha   90.00004586
_cell_angle_beta   90.00001359
_cell_angle_gamma   119.73732847
_symmetry_Int_Tables_number   1
_chemical_formula_structural   Dy3YAl4(Ga7Ir3)2
_chemical_formula_sum   'Dy3 Y1 Al4 Ga14 Ir6'
_cell_volume   473.38952042
_cell_formula_units_Z   1
loop_
 _symmetry_equiv_pos_site_id
 _symmetry_equiv_pos_as_xyz
  1  'x, y, z'
loop_
 _atom_site_type_symbol
 _atom_site_label
 _atom_site_symmetry_multiplicity
 _atom_site_fract_x
 _atom_site_fract_y
 _atom_site_fract_z
 _atom_site_occupancy
  Dy  Dy0  1  0.000791  0.669727  0.250000  1
  Dy  Dy1  1  0.999210  0.330275  0.750000  1
  Dy  Dy2  1  0.669722  0.000789  0.250000  1
  Y  Y3  1  0.330287  0.999262  0.750000  1
  Al  Al4  1  0.331850  0.331880  0.553110  1
  Al  Al5  1  0.668150  0.668148  0.446858  1
  Al  Al6  1  0.668150  0.668148  0.053142  1
  Al  Al7  1  0.331850  0.331880  0.946890  1
  Ga  Ga8  1  0.127199  0.127198  0.250000  1
  Ga  Ga9  1  0.872748  0.872807  0.750000  1
  Ga  Ga10  1  0.000314  0.335214  0.079410  1
  Ga  Ga11  1  0.999637  0.664736  0.920632  1
  Ga  Ga12  1  0.999637  0.664737  0.579368  1
  Ga  Ga13  1  0.335216  0.000306  0.420549  1
  Ga  Ga14  1  0.000314  0.335214  0.420590  1
  Ga  Ga15  1  0.664834  0.999687  0.579367  1
  Ga  Ga16  1  0.664834  0.999686  0.920633  1
  Ga  Ga17  1  0.335216  0.000306  0.079451  1
  Ga  Ga18  1  0.346496  0.549538  0.250000  1
  Ga  Ga19  1  0.653581  0.450535  0.750000  1
  Ga  Ga20  1  0.549537  0.346500  0.250000  1
  Ga  Ga21  1  0.450460  0.653459  0.750000  1
  Ir  Ir22  1  0.669398  0.330641  0.000015  1
  Ir  Ir23  1  0.330621  0.669346  0.000024  1
  Ir  Ir24  1  0.330621  0.669346  0.499976  1
  Ir  Ir25  1  0.669398  0.330641  0.499985  1
  Ir  Ir26  1  0.999966  0.999996  0.000027  1
  Ir  Ir27  1  0.999965  0.999995  0.499973  1
