# generated using pymatgen
data_La4Y6IrRu3
_symmetry_space_group_name_H-M   'P 1'
_cell_length_a   6.57031621
_cell_length_b   7.28474725
_cell_length_c   8.90976017
_cell_angle_alpha   96.40763852
_cell_angle_beta   112.22607458
_cell_angle_gamma   89.93390927
_symmetry_Int_Tables_number   1
_chemical_formula_structural   La4Y6IrRu3
_chemical_formula_sum   'La4 Y6 Ir1 Ru3'
_cell_volume   391.90586412
_cell_formula_units_Z   1
loop_
 _symmetry_equiv_pos_site_id
 _symmetry_equiv_pos_as_xyz
  1  'x, y, z'
loop_
 _atom_site_type_symbol
 _atom_site_label
 _atom_site_symmetry_multiplicity
 _atom_site_fract_x
 _atom_site_fract_y
 _atom_site_fract_z
 _atom_site_occupancy
  La  La0  1  0.988616  0.914409  0.192177  1
  La  La1  1  0.788196  0.593612  0.804094  1
  La  La2  1  0.015782  0.092958  0.805898  1
  La  La3  1  0.214034  0.406526  0.194430  1
  Y  Y4  1  0.636472  0.815156  0.429345  1
  Y  Y5  1  0.208278  0.684290  0.570223  1
  Y  Y6  1  0.364253  0.185238  0.571118  1
  Y  Y7  1  0.793910  0.315293  0.431767  1
  Y  Y8  1  0.430107  0.749084  0.000348  1
  Y  Y9  1  0.571032  0.250635  0.998961  1
  Ir  Ir10  1  0.821712  0.577620  0.227963  1
  Ru  Ru11  1  0.608273  0.916552  0.777312  1
  Ru  Ru12  1  0.165927  0.416675  0.773677  1
  Ru  Ru13  1  0.393409  0.081953  0.222687  1
