# generated using pymatgen
data_Nd3Sm(AlAu2)6
_symmetry_space_group_name_H-M   'P 1'
_cell_length_a   8.78079306
_cell_length_b   8.78079233
_cell_length_c   8.78079295
_cell_angle_alpha   57.00505262
_cell_angle_beta   57.00505896
_cell_angle_gamma   57.00504495
_symmetry_Int_Tables_number   1
_chemical_formula_structural   Nd3Sm(AlAu2)6
_chemical_formula_sum   'Nd3 Sm1 Al6 Au12'
_cell_volume   445.66677645
_cell_formula_units_Z   1
loop_
 _symmetry_equiv_pos_site_id
 _symmetry_equiv_pos_as_xyz
  1  'x, y, z'
loop_
 _atom_site_type_symbol
 _atom_site_label
 _atom_site_symmetry_multiplicity
 _atom_site_fract_x
 _atom_site_fract_y
 _atom_site_fract_z
 _atom_site_occupancy
  Nd  Nd0  1  0.908730  0.908730  0.908730  1
  Nd  Nd1  1  0.408913  0.408913  0.408913  1
  Nd  Nd2  1  0.091301  0.091301  0.091301  1
  Sm  Sm3  1  0.591786  0.591786  0.591786  1
  Al  Al4  1  0.553602  0.750409  0.946117  1
  Al  Al5  1  0.946117  0.553602  0.750409  1
  Al  Al6  1  0.750409  0.946117  0.553602  1
  Al  Al7  1  0.446326  0.250567  0.053296  1
  Al  Al8  1  0.053296  0.446326  0.250567  1
  Al  Al9  1  0.250567  0.053296  0.446326  1
  Au  Au10  1  0.484331  0.863099  0.203635  1
  Au  Au11  1  0.203635  0.484331  0.863099  1
  Au  Au12  1  0.863099  0.203635  0.484331  1
  Au  Au13  1  0.701396  0.365174  0.982437  1
  Au  Au14  1  0.982437  0.701396  0.365174  1
  Au  Au15  1  0.365174  0.982437  0.701396  1
  Au  Au16  1  0.516469  0.134711  0.798698  1
  Au  Au17  1  0.798698  0.516469  0.134711  1
  Au  Au18  1  0.134711  0.798698  0.516469  1
  Au  Au19  1  0.299131  0.634710  0.015162  1
  Au  Au20  1  0.015162  0.299131  0.634710  1
  Au  Au21  1  0.634710  0.015162  0.299131  1
