# generated using pymatgen
data_Li4B4IrOs2Rh
_symmetry_space_group_name_H-M   'P 1'
_cell_length_a   6.86329621
_cell_length_b   6.05631805
_cell_length_c   5.52787708
_cell_angle_alpha   72.50253718
_cell_angle_beta   57.30859486
_cell_angle_gamma   50.70595387
_symmetry_Int_Tables_number   1
_chemical_formula_structural   Li4B4IrOs2Rh
_chemical_formula_sum   'Li4 B4 Ir1 Os2 Rh1'
_cell_volume   149.35190865
_cell_formula_units_Z   1
loop_
 _symmetry_equiv_pos_site_id
 _symmetry_equiv_pos_as_xyz
  1  'x, y, z'
loop_
 _atom_site_type_symbol
 _atom_site_label
 _atom_site_symmetry_multiplicity
 _atom_site_fract_x
 _atom_site_fract_y
 _atom_site_fract_z
 _atom_site_occupancy
  Li  Li0  1  0.125102  0.625395  0.625887  1
  Li  Li1  1  0.623614  0.625877  0.624985  1
  Li  Li2  1  0.625877  0.623614  0.125524  1
  Li  Li3  1  0.625395  0.125102  0.623616  1
  B  B4  1  0.435145  0.067444  0.421097  1
  B  B5  1  0.179344  0.815501  0.185587  1
  B  B6  1  0.067444  0.435145  0.076315  1
  B  B7  1  0.815501  0.179344  0.819567  1
  Ir  Ir8  1  0.114115  0.114115  0.385885  1
  Os  Os9  1  0.384213  0.384213  0.115787  1
  Os  Os10  1  0.867267  0.867267  0.132733  1
  Rh  Rh11  1  0.136983  0.136983  0.863017  1
