# generated using pymatgen
data_AcYbZn2(SiIr2)2
_symmetry_space_group_name_H-M   'P 1'
_cell_length_a   4.16762800
_cell_length_b   4.16762800
_cell_length_c   10.49235700
_cell_angle_alpha   90.00000000
_cell_angle_beta   90.00000000
_cell_angle_gamma   90.00000000
_symmetry_Int_Tables_number   1
_chemical_formula_structural   AcYbZn2(SiIr2)2
_chemical_formula_sum   'Ac1 Yb1 Zn2 Si2 Ir4'
_cell_volume   182.24304083
_cell_formula_units_Z   1
loop_
 _symmetry_equiv_pos_site_id
 _symmetry_equiv_pos_as_xyz
  1  'x, y, z'
loop_
 _atom_site_type_symbol
 _atom_site_label
 _atom_site_symmetry_multiplicity
 _atom_site_fract_x
 _atom_site_fract_y
 _atom_site_fract_z
 _atom_site_occupancy
  Ac  Ac0  1  0.500000  0.000000  0.744584  1
  Yb  Yb1  1  0.000000  0.500000  0.253061  1
  Zn  Zn2  1  0.000000  0.000000  0.487724  1
  Zn  Zn3  1  0.500000  0.500000  0.487724  1
  Si  Si4  1  0.000000  0.500000  0.888101  1
  Si  Si5  1  0.500000  0.000000  0.124550  1
  Ir  Ir6  1  0.000000  0.000000  0.006911  1
  Ir  Ir7  1  0.500000  0.500000  0.006911  1
  Ir  Ir8  1  0.000000  0.500000  0.655104  1
  Ir  Ir9  1  0.500000  0.000000  0.345330  1
