# generated using pymatgen
data_Gd2TiIr3
_symmetry_space_group_name_H-M   'P 1'
_cell_length_a   5.66886106
_cell_length_b   5.20848316
_cell_length_c   5.66886100
_cell_angle_alpha   57.03033654
_cell_angle_beta   60.00000621
_cell_angle_gamma   57.03033800
_symmetry_Int_Tables_number   1
_chemical_formula_structural   Gd2TiIr3
_chemical_formula_sum   'Gd2 Ti1 Ir3'
_cell_volume   112.76127830
_cell_formula_units_Z   1
loop_
 _symmetry_equiv_pos_site_id
 _symmetry_equiv_pos_as_xyz
  1  'x, y, z'
loop_
 _atom_site_type_symbol
 _atom_site_label
 _atom_site_symmetry_multiplicity
 _atom_site_fract_x
 _atom_site_fract_y
 _atom_site_fract_z
 _atom_site_occupancy
  Gd  Gd0  1  0.751463  0.745611  0.751463  1
  Gd  Gd1  1  0.498537  0.504389  0.498537  1
  Ti  Ti2  1  0.125000  0.625000  0.125000  1
  Ir  Ir3  1  0.125000  0.125000  0.625000  1
  Ir  Ir4  1  0.625000  0.125000  0.125000  1
  Ir  Ir5  1  0.125000  0.125000  0.125000  1
