# generated using pymatgen
data_Tb11Y(OsRu)2
_symmetry_space_group_name_H-M   'P 1'
_cell_length_a   6.35673614
_cell_length_b   7.35938541
_cell_length_c   9.20335812
_cell_angle_alpha   89.98257510
_cell_angle_beta   89.99338528
_cell_angle_gamma   90.13460022
_symmetry_Int_Tables_number   1
_chemical_formula_structural   Tb11Y(OsRu)2
_chemical_formula_sum   'Tb11 Y1 Os2 Ru2'
_cell_volume   430.54726226
_cell_formula_units_Z   1
loop_
 _symmetry_equiv_pos_site_id
 _symmetry_equiv_pos_as_xyz
  1  'x, y, z'
loop_
 _atom_site_type_symbol
 _atom_site_label
 _atom_site_symmetry_multiplicity
 _atom_site_fract_x
 _atom_site_fract_y
 _atom_site_fract_z
 _atom_site_occupancy
  Tb  Tb0  1  0.635496  0.040234  0.249963  1
  Tb  Tb1  1  0.364673  0.959811  0.749925  1
  Tb  Tb2  1  0.133595  0.457967  0.749913  1
  Tb  Tb3  1  0.866144  0.541747  0.249983  1
  Tb  Tb4  1  0.171296  0.176279  0.065551  1
  Tb  Tb5  1  0.828689  0.823813  0.934388  1
  Tb  Tb6  1  0.669372  0.324804  0.936643  1
  Tb  Tb7  1  0.828624  0.823765  0.565507  1
  Tb  Tb8  1  0.330593  0.675173  0.063212  1
  Tb  Tb9  1  0.171384  0.176241  0.434460  1
  Tb  Tb10  1  0.330599  0.674954  0.436862  1
  Y  Y11  1  0.669231  0.324815  0.563084  1
  Os  Os12  1  0.460285  0.384711  0.250028  1
  Os  Os13  1  0.539528  0.615760  0.750383  1
  Ru  Ru14  1  0.962055  0.114399  0.750150  1
  Ru  Ru15  1  0.038435  0.885524  0.249950  1
