# generated using pymatgen
data_Dy4ErTi3(P3Ir4)4
_symmetry_space_group_name_H-M   'P 1'
_cell_length_a   12.75655400
_cell_length_b   12.75624815
_cell_length_c   3.95337300
_cell_angle_alpha   90.00000000
_cell_angle_beta   90.00000000
_cell_angle_gamma   119.99920012
_symmetry_Int_Tables_number   1
_chemical_formula_structural   Dy4ErTi3(P3Ir4)4
_chemical_formula_sum   'Dy4 Er1 Ti3 P12 Ir16'
_cell_volume   557.13219395
_cell_formula_units_Z   1
loop_
 _symmetry_equiv_pos_site_id
 _symmetry_equiv_pos_as_xyz
  1  'x, y, z'
loop_
 _atom_site_type_symbol
 _atom_site_label
 _atom_site_symmetry_multiplicity
 _atom_site_fract_x
 _atom_site_fract_y
 _atom_site_fract_z
 _atom_site_occupancy
  Dy  Dy0  1  0.333327  0.666656  0.500000  1
  Dy  Dy1  1  0.666673  0.333328  0.500000  1
  Dy  Dy2  1  0.187677  0.187686  0.000000  1
  Dy  Dy3  1  0.812323  0.000009  0.000000  1
  Er  Er4  1  0.000000  0.812350  0.000000  1
  Ti  Ti5  1  0.000000  0.447965  0.500000  1
  Ti  Ti6  1  0.552129  0.552128  0.500000  1
  Ti  Ti7  1  0.447871  0.000000  0.500000  1
  P  P8  1  0.000000  0.640710  0.500000  1
  P  P9  1  0.359628  0.359633  0.500000  1
  P  P10  1  0.640372  0.000004  0.500000  1
  P  P11  1  0.517042  0.684424  0.000000  1
  P  P12  1  0.315600  0.832562  0.000000  1
  P  P13  1  0.167377  0.483015  0.000000  1
  P  P14  1  0.482958  0.167382  0.000000  1
  P  P15  1  0.684400  0.516961  0.000000  1
  P  P16  1  0.832623  0.315637  0.000000  1
  P  P17  1  0.000000  0.176487  0.500000  1
  P  P18  1  0.823543  0.823321  0.500000  1
  P  P19  1  0.176457  0.999777  0.500000  1
  Ir  Ir20  1  0.509166  0.866555  0.000000  1
  Ir  Ir21  1  0.133499  0.642682  0.000000  1
  Ir  Ir22  1  0.357431  0.490871  0.000000  1
  Ir  Ir23  1  0.490834  0.357388  0.000000  1
  Ir  Ir24  1  0.866501  0.509182  0.000000  1
  Ir  Ir25  1  0.642569  0.133439  0.000000  1
  Ir  Ir26  1  0.000000  0.282991  0.000000  1
  Ir  Ir27  1  0.717221  0.717040  0.000000  1
  Ir  Ir28  1  0.282779  0.999820  0.000000  1
  Ir  Ir29  1  0.626693  0.805097  0.500000  1
  Ir  Ir30  1  0.194275  0.821510  0.500000  1
  Ir  Ir31  1  0.178468  0.373313  0.500000  1
  Ir  Ir32  1  0.373307  0.178404  0.500000  1
  Ir  Ir33  1  0.805725  0.627234  0.500000  1
  Ir  Ir34  1  0.821532  0.194845  0.500000  1
  Ir  Ir35  1  0.000000  0.999595  0.500000  1
