# generated using pymatgen
data_YHo(CoC2)2
_symmetry_space_group_name_H-M   'P 1'
_cell_length_a   3.67044318
_cell_length_b   3.67459023
_cell_length_c   7.32712531
_cell_angle_alpha   82.53804016
_cell_angle_beta   82.49606344
_cell_angle_gamma   90.06805975
_symmetry_Int_Tables_number   1
_chemical_formula_structural   YHo(CoC2)2
_chemical_formula_sum   'Y1 Ho1 Co2 C4'
_cell_volume   97.13105109
_cell_formula_units_Z   1
loop_
 _symmetry_equiv_pos_site_id
 _symmetry_equiv_pos_as_xyz
  1  'x, y, z'
loop_
 _atom_site_type_symbol
 _atom_site_label
 _atom_site_symmetry_multiplicity
 _atom_site_fract_x
 _atom_site_fract_y
 _atom_site_fract_z
 _atom_site_occupancy
  Y  Y0  1  0.067705  0.931393  0.000117  1
  Ho  Ho1  1  0.932129  0.067350  0.500034  1
  Co  Co2  1  0.374500  0.511013  0.692808  1
  Co  Co3  1  0.510711  0.374205  0.194407  1
  C  C4  1  0.443037  0.591819  0.428924  1
  C  C5  1  0.592367  0.443242  0.928547  1
  C  C6  1  0.489671  0.857868  0.275366  1
  C  C7  1  0.856878  0.490110  0.773597  1
