# generated using pymatgen
data_Nd3Co8TcP6
_symmetry_space_group_name_H-M   'P 1'
_cell_length_a   3.77646300
_cell_length_b   10.65240500
_cell_length_c   12.42274200
_cell_angle_alpha   90.00000000
_cell_angle_beta   90.00000000
_cell_angle_gamma   90.00000000
_symmetry_Int_Tables_number   1
_chemical_formula_structural   Nd3Co8TcP6
_chemical_formula_sum   'Nd6 Co16 Tc2 P12'
_cell_volume   499.74720004
_cell_formula_units_Z   2
loop_
 _symmetry_equiv_pos_site_id
 _symmetry_equiv_pos_as_xyz
  1  'x, y, z'
loop_
 _atom_site_type_symbol
 _atom_site_label
 _atom_site_symmetry_multiplicity
 _atom_site_fract_x
 _atom_site_fract_y
 _atom_site_fract_z
 _atom_site_occupancy
  Nd  Nd0  1  0.000000  0.500000  0.522589  1
  Nd  Nd1  1  0.500000  0.000000  0.477411  1
  Nd  Nd2  1  0.500000  0.817589  0.206044  1
  Nd  Nd3  1  0.500000  0.182411  0.206044  1
  Nd  Nd4  1  0.000000  0.682411  0.793956  1
  Nd  Nd5  1  0.000000  0.317589  0.793956  1
  Co  Co6  1  0.500000  0.500000  0.704997  1
  Co  Co7  1  0.000000  0.000000  0.295003  1
  Co  Co8  1  0.000000  0.500000  0.988301  1
  Co  Co9  1  0.500000  0.000000  0.011699  1
  Co  Co10  1  0.500000  0.331929  0.991751  1
  Co  Co11  1  0.500000  0.668071  0.991751  1
  Co  Co12  1  0.000000  0.168071  0.008249  1
  Co  Co13  1  0.000000  0.831929  0.008249  1
  Co  Co14  1  0.500000  0.296656  0.430424  1
  Co  Co15  1  0.500000  0.703344  0.430424  1
  Co  Co16  1  0.000000  0.203344  0.569576  1
  Co  Co17  1  0.000000  0.796656  0.569576  1
  Co  Co18  1  0.500000  0.881323  0.709610  1
  Co  Co19  1  0.500000  0.118677  0.709610  1
  Co  Co20  1  0.000000  0.618677  0.290390  1
  Co  Co21  1  0.000000  0.381323  0.290390  1
  Tc  Tc22  1  0.500000  0.500000  0.154714  1
  Tc  Tc23  1  0.000000  0.000000  0.845286  1
  P  P24  1  0.500000  0.500000  0.885827  1
  P  P25  1  0.000000  0.000000  0.114173  1
  P  P26  1  0.500000  0.500000  0.343850  1
  P  P27  1  0.000000  0.000000  0.656150  1
  P  P28  1  0.500000  0.307285  0.614243  1
  P  P29  1  0.500000  0.692715  0.614243  1
  P  P30  1  0.000000  0.192715  0.385757  1
  P  P31  1  0.000000  0.807285  0.385757  1
  P  P32  1  0.500000  0.847721  0.895069  1
  P  P33  1  0.500000  0.152279  0.895069  1
  P  P34  1  0.000000  0.652279  0.104931  1
  P  P35  1  0.000000  0.347721  0.104931  1
