# generated using pymatgen
data_SrSm7(US5)4
_symmetry_space_group_name_H-M   'P 1'
_cell_length_a   7.49092007
_cell_length_b   8.01039742
_cell_length_c   11.83589100
_cell_angle_alpha   89.92316593
_cell_angle_beta   89.93331099
_cell_angle_gamma   90.01310725
_symmetry_Int_Tables_number   1
_chemical_formula_structural   SrSm7(US5)4
_chemical_formula_sum   'Sr1 Sm7 U4 S20'
_cell_volume   710.21442202
_cell_formula_units_Z   1
loop_
 _symmetry_equiv_pos_site_id
 _symmetry_equiv_pos_as_xyz
  1  'x, y, z'
loop_
 _atom_site_type_symbol
 _atom_site_label
 _atom_site_symmetry_multiplicity
 _atom_site_fract_x
 _atom_site_fract_y
 _atom_site_fract_z
 _atom_site_occupancy
  Sr  Sr0  1  0.530176  0.503216  0.325000  1
  Sm  Sm1  1  0.976617  0.000519  0.823128  1
  Sm  Sm2  1  0.475761  0.999638  0.678794  1
  Sm  Sm3  1  0.024123  0.500398  0.177836  1
  Sm  Sm4  1  0.475887  0.500870  0.677513  1
  Sm  Sm5  1  0.027388  0.999807  0.175967  1
  Sm  Sm6  1  0.522907  0.001242  0.321762  1
  Sm  Sm7  1  0.973883  0.499605  0.824206  1
  U  U8  1  0.071016  0.751125  0.490827  1
  U  U9  1  0.429302  0.749268  0.991023  1
  U  U10  1  0.926961  0.248480  0.508607  1
  U  U11  1  0.569557  0.249624  0.009760  1
  S  S12  1  0.839749  0.955453  0.597416  1
  S  S13  1  0.669037  0.543884  0.086137  1
  S  S14  1  0.153589  0.458776  0.405400  1
  S  S15  1  0.336718  0.042078  0.904078  1
  S  S16  1  0.163888  0.043720  0.406094  1
  S  S17  1  0.336181  0.457330  0.904072  1
  S  S18  1  0.836204  0.542249  0.596365  1
  S  S19  1  0.663153  0.956082  0.093919  1
  S  S20  1  0.839882  0.757609  0.311621  1
  S  S21  1  0.668596  0.750669  0.813179  1
  S  S22  1  0.166243  0.250744  0.687317  1
  S  S23  1  0.324981  0.241813  0.182240  1
  S  S24  1  0.451811  0.758704  0.505019  1
  S  S25  1  0.045389  0.748661  0.998630  1
  S  S26  1  0.546306  0.240608  0.505689  1
  S  S27  1  0.954403  0.249166  0.999176  1
  S  S28  1  0.193495  0.748630  0.716118  1
  S  S29  1  0.302042  0.756951  0.212176  1
  S  S30  1  0.810068  0.242472  0.283989  1
  S  S31  1  0.694685  0.250610  0.786942  1
