# generated using pymatgen
data_Pr2Fe2CoN3
_symmetry_space_group_name_H-M   'P 1'
_cell_length_a   6.33715039
_cell_length_b   6.33714942
_cell_length_c   6.20246634
_cell_angle_alpha   88.67797198
_cell_angle_beta   88.67796828
_cell_angle_gamma   117.88895978
_symmetry_Int_Tables_number   1
_chemical_formula_structural   Pr2Fe2CoN3
_chemical_formula_sum   'Pr4 Fe4 Co2 N6'
_cell_volume   219.93735626
_cell_formula_units_Z   2
loop_
 _symmetry_equiv_pos_site_id
 _symmetry_equiv_pos_as_xyz
  1  'x, y, z'
loop_
 _atom_site_type_symbol
 _atom_site_label
 _atom_site_symmetry_multiplicity
 _atom_site_fract_x
 _atom_site_fract_y
 _atom_site_fract_z
 _atom_site_occupancy
  Pr  Pr0  1  0.829963  0.670516  0.900972  1
  Pr  Pr1  1  0.329484  0.170037  0.599028  1
  Pr  Pr2  1  0.170037  0.329484  0.099028  1
  Pr  Pr3  1  0.670516  0.829963  0.400972  1
  Fe  Fe4  1  0.568392  0.166404  0.106270  1
  Fe  Fe5  1  0.431608  0.833596  0.893730  1
  Fe  Fe6  1  0.833596  0.431608  0.393730  1
  Fe  Fe7  1  0.166404  0.568392  0.606270  1
  Co  Co8  1  0.815195  0.184805  0.750000  1
  Co  Co9  1  0.184805  0.815195  0.250000  1
  N  N10  1  0.426788  0.573212  0.750000  1
  N  N11  1  0.573212  0.426788  0.250000  1
  N  N12  1  0.008652  0.738980  0.509854  1
  N  N13  1  0.738980  0.008652  0.009854  1
  N  N14  1  0.991348  0.261020  0.490146  1
  N  N15  1  0.261020  0.991348  0.990146  1
