# generated using pymatgen
data_Ta6Mn3Si3C2
_symmetry_space_group_name_H-M   'P 1'
_cell_length_a   8.07521424
_cell_length_b   8.07497028
_cell_length_c   8.07490852
_cell_angle_alpha   119.75358842
_cell_angle_beta   120.28933882
_cell_angle_gamma   89.96093507
_symmetry_Int_Tables_number   1
_chemical_formula_structural   Ta6Mn3Si3C2
_chemical_formula_sum   'Ta12 Mn6 Si6 C4'
_cell_volume   372.19818521
_cell_formula_units_Z   2
loop_
 _symmetry_equiv_pos_site_id
 _symmetry_equiv_pos_as_xyz
  1  'x, y, z'
loop_
 _atom_site_type_symbol
 _atom_site_label
 _atom_site_symmetry_multiplicity
 _atom_site_fract_x
 _atom_site_fract_y
 _atom_site_fract_z
 _atom_site_occupancy
  Ta  Ta0  1  0.069396  0.069427  0.999986  1
  Ta  Ta1  1  0.677050  0.677062  0.999992  1
  Ta  Ta2  1  0.678934  0.071495  0.001905  1
  Ta  Ta3  1  0.069612  0.677018  0.998147  1
  Ta  Ta4  1  0.069590  0.071479  0.392528  1
  Ta  Ta5  1  0.678824  0.676989  0.607313  1
  Ta  Ta6  1  0.427412  0.927400  0.499987  1
  Ta  Ta7  1  0.819394  0.319432  0.499948  1
  Ta  Ta8  1  0.823458  0.930545  0.502465  1
  Ta  Ta9  1  0.428059  0.320975  0.497490  1
  Ta  Ta10  1  0.428096  0.930501  0.107089  1
  Ta  Ta11  1  0.823535  0.321010  0.892969  1
  Mn  Mn12  1  0.248946  0.501377  0.747569  1
  Mn  Mn13  1  0.753902  0.501512  0.252385  1
  Mn  Mn14  1  0.249379  0.504018  0.254634  1
  Mn  Mn15  1  0.249472  0.995066  0.745613  1
  Mn  Mn16  1  0.445940  0.298276  0.147805  1
  Mn  Mn17  1  0.150518  0.298343  0.852406  1
  Si  Si18  1  0.455437  0.291903  0.836579  1
  Si  Si19  1  0.455307  0.618761  0.163563  1
  Si  Si20  1  0.040266  0.708692  0.331312  1
  Si  Si21  1  0.377407  0.708665  0.668448  1
  Si  Si22  1  0.040679  0.707494  0.666747  1
  Si  Si23  1  0.040807  0.374021  0.333174  1
  C  C24  1  0.748574  0.999990  0.748535  1
  C  C25  1  0.251439  0.999999  0.251422  1
  C  C26  1  0.749278  0.000228  0.250963  1
  C  C27  1  0.749291  0.498321  0.749027  1
