# generated using pymatgen
data_TiCr3GeSe8
_symmetry_space_group_name_H-M   'P 1'
_cell_length_a   7.39811294
_cell_length_b   7.39811216
_cell_length_c   7.39811216
_cell_angle_alpha   60.82171479
_cell_angle_beta   60.82172409
_cell_angle_gamma   60.82171958
_symmetry_Int_Tables_number   1
_chemical_formula_structural   TiCr3GeSe8
_chemical_formula_sum   'Ti1 Cr3 Ge1 Se8'
_cell_volume   291.62327047
_cell_formula_units_Z   1
loop_
 _symmetry_equiv_pos_site_id
 _symmetry_equiv_pos_as_xyz
  1  'x, y, z'
loop_
 _atom_site_type_symbol
 _atom_site_label
 _atom_site_symmetry_multiplicity
 _atom_site_fract_x
 _atom_site_fract_y
 _atom_site_fract_z
 _atom_site_occupancy
  Ti  Ti0  1  0.397658  0.397658  0.397658  1
  Cr  Cr1  1  0.851795  0.380758  0.380758  1
  Cr  Cr2  1  0.380758  0.851795  0.380758  1
  Cr  Cr3  1  0.380758  0.380758  0.851795  1
  Ge  Ge4  1  0.994153  0.994153  0.994153  1
  Se  Se5  1  0.133577  0.133577  0.133577  1
  Se  Se6  1  0.578249  0.140524  0.140524  1
  Se  Se7  1  0.140524  0.578249  0.140524  1
  Se  Se8  1  0.140524  0.140524  0.578249  1
  Se  Se9  1  0.617186  0.617186  0.617186  1
  Se  Se10  1  0.128271  0.628273  0.628273  1
  Se  Se11  1  0.628273  0.128271  0.628273  1
  Se  Se12  1  0.628273  0.628273  0.128271  1
