# generated using pymatgen
data_Nd4SiCl6
_symmetry_space_group_name_H-M   'P 1'
_cell_length_a   4.12942600
_cell_length_b   13.19618700
_cell_length_c   14.06987900
_cell_angle_alpha   90.00000000
_cell_angle_beta   90.00000000
_cell_angle_gamma   90.00000000
_symmetry_Int_Tables_number   1
_chemical_formula_structural   Nd4SiCl6
_chemical_formula_sum   'Nd8 Si2 Cl12'
_cell_volume   766.70538161
_cell_formula_units_Z   2
loop_
 _symmetry_equiv_pos_site_id
 _symmetry_equiv_pos_as_xyz
  1  'x, y, z'
loop_
 _atom_site_type_symbol
 _atom_site_label
 _atom_site_symmetry_multiplicity
 _atom_site_fract_x
 _atom_site_fract_y
 _atom_site_fract_z
 _atom_site_occupancy
  Nd  Nd0  1  0.500000  0.121678  0.336036  1
  Nd  Nd1  1  0.500000  0.878322  0.663964  1
  Nd  Nd2  1  0.500000  0.621678  0.163964  1
  Nd  Nd3  1  0.500000  0.378322  0.836036  1
  Nd  Nd4  1  0.000000  0.124556  0.581910  1
  Nd  Nd5  1  0.000000  0.875444  0.418090  1
  Nd  Nd6  1  0.000000  0.624556  0.918090  1
  Nd  Nd7  1  0.000000  0.375444  0.081910  1
  Si  Si8  1  0.500000  0.000000  0.500000  1
  Si  Si9  1  0.500000  0.500000  0.000000  1
  Cl  Cl10  1  0.500000  0.244023  0.163045  1
  Cl  Cl11  1  0.500000  0.755977  0.836955  1
  Cl  Cl12  1  0.500000  0.744023  0.336955  1
  Cl  Cl13  1  0.500000  0.255977  0.663045  1
  Cl  Cl14  1  0.000000  0.249478  0.408848  1
  Cl  Cl15  1  0.000000  0.750522  0.591152  1
  Cl  Cl16  1  0.000000  0.749478  0.091152  1
  Cl  Cl17  1  0.000000  0.250522  0.908848  1
  Cl  Cl18  1  0.000000  0.005135  0.248383  1
  Cl  Cl19  1  0.000000  0.994865  0.751617  1
  Cl  Cl20  1  0.000000  0.505135  0.251617  1
  Cl  Cl21  1  0.000000  0.494865  0.748383  1
