# generated using pymatgen
data_Ho8Al2IrRu
_symmetry_space_group_name_H-M   'P 1'
_cell_length_a   9.51063385
_cell_length_b   9.48891349
_cell_length_c   9.48891437
_cell_angle_alpha   59.84832319
_cell_angle_beta   59.92424495
_cell_angle_gamma   59.92424687
_symmetry_Int_Tables_number   1
_chemical_formula_structural   Ho8Al2IrRu
_chemical_formula_sum   'Ho16 Al4 Ir2 Ru2'
_cell_volume   604.12956138
_cell_formula_units_Z   2
loop_
 _symmetry_equiv_pos_site_id
 _symmetry_equiv_pos_as_xyz
  1  'x, y, z'
loop_
 _atom_site_type_symbol
 _atom_site_label
 _atom_site_symmetry_multiplicity
 _atom_site_fract_x
 _atom_site_fract_y
 _atom_site_fract_z
 _atom_site_occupancy
  Ho  Ho0  1  0.437868  0.439692  0.061749  1
  Ho  Ho1  1  0.648941  0.649409  0.052711  1
  Ho  Ho2  1  0.195319  0.806352  0.193955  1
  Ho  Ho3  1  0.060692  0.439692  0.061749  1
  Ho  Ho4  1  0.193759  0.806241  0.806241  1
  Ho  Ho5  1  0.061579  0.438421  0.438421  1
  Ho  Ho6  1  0.804249  0.195751  0.195751  1
  Ho  Ho7  1  0.648200  0.648629  0.648629  1
  Ho  Ho8  1  0.804374  0.193955  0.806352  1
  Ho  Ho9  1  0.195319  0.193955  0.806352  1
  Ho  Ho10  1  0.054545  0.648629  0.648629  1
  Ho  Ho11  1  0.439642  0.060358  0.060358  1
  Ho  Ho12  1  0.060692  0.061749  0.439692  1
  Ho  Ho13  1  0.648941  0.052711  0.649409  1
  Ho  Ho14  1  0.804374  0.806352  0.193955  1
  Ho  Ho15  1  0.437868  0.061749  0.439692  1
  Al  Al16  1  0.423139  0.422651  0.422651  1
  Al  Al17  1  0.422525  0.422063  0.732887  1
  Al  Al18  1  0.422525  0.732887  0.422063  1
  Al  Al19  1  0.731560  0.422651  0.422651  1
  Ir  Ir20  1  0.860297  0.422210  0.857193  1
  Ir  Ir21  1  0.860297  0.857193  0.422210  1
  Ru  Ru22  1  0.420892  0.858351  0.858351  1
  Ru  Ru23  1  0.862404  0.858351  0.858351  1
