# generated using pymatgen
data_Li8Tb8Hg3Sb5
_symmetry_space_group_name_H-M   'P 1'
_cell_length_a   9.41969263
_cell_length_b   9.42130236
_cell_length_c   7.19076900
_cell_angle_alpha   90.00000000
_cell_angle_beta   89.91808015
_cell_angle_gamma   120.00566019
_symmetry_Int_Tables_number   1
_chemical_formula_structural   Li8Tb8Hg3Sb5
_chemical_formula_sum   'Li8 Tb8 Hg3 Sb5'
_cell_volume   552.62213666
_cell_formula_units_Z   1
loop_
 _symmetry_equiv_pos_site_id
 _symmetry_equiv_pos_as_xyz
  1  'x, y, z'
loop_
 _atom_site_type_symbol
 _atom_site_label
 _atom_site_symmetry_multiplicity
 _atom_site_fract_x
 _atom_site_fract_y
 _atom_site_fract_z
 _atom_site_occupancy
  Li  Li0  1  0.169036  0.335940  0.282188  1
  Li  Li1  1  0.169036  0.833098  0.282188  1
  Li  Li2  1  0.663692  0.831847  0.283643  1
  Li  Li3  1  0.831712  0.664057  0.783090  1
  Li  Li4  1  0.831712  0.167654  0.783090  1
  Li  Li5  1  0.337000  0.168499  0.779836  1
  Li  Li6  1  0.332675  0.666338  0.677946  1
  Li  Li7  1  0.664939  0.332469  0.178464  1
  Tb  Tb8  1  0.510184  0.023705  0.492008  1
  Tb  Tb9  1  0.510184  0.486477  0.492008  1
  Tb  Tb10  1  0.974993  0.487497  0.495791  1
  Tb  Tb11  1  0.485282  0.972933  0.998716  1
  Tb  Tb12  1  0.485282  0.512350  0.998716  1
  Tb  Tb13  1  0.027037  0.513519  0.996452  1
  Tb  Tb14  1  0.003364  0.001683  0.496820  1
  Tb  Tb15  1  0.005756  0.002878  0.005857  1
  Hg  Hg16  1  0.336503  0.168251  0.232204  1
  Hg  Hg17  1  0.332164  0.666082  0.259746  1
  Hg  Hg18  1  0.663958  0.331979  0.762336  1
  Sb  Sb19  1  0.165460  0.331989  0.732203  1
  Sb  Sb20  1  0.165460  0.833472  0.732203  1
  Sb  Sb21  1  0.668297  0.834149  0.731552  1
  Sb  Sb22  1  0.833134  0.666629  0.232456  1
  Sb  Sb23  1  0.833134  0.166505  0.232456  1
