# generated using pymatgen
data_Ba2LaCe(Ge4N7)2
_symmetry_space_group_name_H-M   'P 1'
_cell_length_a   6.45246800
_cell_length_b   6.45246696
_cell_length_c   10.54186500
_cell_angle_alpha   90.00000000
_cell_angle_beta   90.00000000
_cell_angle_gamma   120.00000535
_symmetry_Int_Tables_number   1
_chemical_formula_structural   Ba2LaCe(Ge4N7)2
_chemical_formula_sum   'Ba2 La1 Ce1 Ge8 N14'
_cell_volume   380.10160825
_cell_formula_units_Z   1
loop_
 _symmetry_equiv_pos_site_id
 _symmetry_equiv_pos_as_xyz
  1  'x, y, z'
loop_
 _atom_site_type_symbol
 _atom_site_label
 _atom_site_symmetry_multiplicity
 _atom_site_fract_x
 _atom_site_fract_y
 _atom_site_fract_z
 _atom_site_occupancy
  Ba  Ba0  1  0.333333  0.666667  0.365069  1
  Ba  Ba1  1  0.666667  0.333333  0.865727  1
  La  La2  1  0.666667  0.333333  0.235578  1
  Ce  Ce3  1  0.333333  0.666667  0.735522  1
  Ge  Ge4  1  0.827313  0.654625  0.548456  1
  Ge  Ge5  1  0.173763  0.826237  0.045082  1
  Ge  Ge6  1  0.652472  0.826237  0.045082  1
  Ge  Ge7  1  0.345375  0.172687  0.548456  1
  Ge  Ge8  1  0.827313  0.172687  0.548456  1
  Ge  Ge9  1  0.173763  0.347528  0.045082  1
  Ge  Ge10  1  0.000000  0.000000  0.812550  1
  Ge  Ge11  1  0.000000  0.000000  0.315473  1
  N  N12  1  0.000000  0.000000  0.623924  1
  N  N13  1  0.000000  0.000000  0.122474  1
  N  N14  1  0.156400  0.312802  0.868907  1
  N  N15  1  0.844890  0.155110  0.374052  1
  N  N16  1  0.310220  0.155110  0.374052  1
  N  N17  1  0.687198  0.843600  0.868907  1
  N  N18  1  0.156400  0.843600  0.868907  1
  N  N19  1  0.844890  0.689780  0.374052  1
  N  N20  1  0.982965  0.491483  0.603050  1
  N  N21  1  0.490605  0.981209  0.097616  1
  N  N22  1  0.490605  0.509395  0.097616  1
  N  N23  1  0.508517  0.491483  0.603050  1
  N  N24  1  0.018791  0.509395  0.097616  1
  N  N25  1  0.508517  0.017035  0.603050  1
