# generated using pymatgen
data_CaLa3Er3CoBr12
_symmetry_space_group_name_H-M   'P 1'
_cell_length_a   9.42542686
_cell_length_b   9.43374831
_cell_length_c   9.24341100
_cell_angle_alpha   107.41939078
_cell_angle_beta   106.52188757
_cell_angle_gamma   107.00703551
_symmetry_Int_Tables_number   1
_chemical_formula_structural   CaLa3Er3CoBr12
_chemical_formula_sum   'Ca1 La3 Er3 Co1 Br12'
_cell_volume   684.77284057
_cell_formula_units_Z   1
loop_
 _symmetry_equiv_pos_site_id
 _symmetry_equiv_pos_as_xyz
  1  'x, y, z'
loop_
 _atom_site_type_symbol
 _atom_site_label
 _atom_site_symmetry_multiplicity
 _atom_site_fract_x
 _atom_site_fract_y
 _atom_site_fract_z
 _atom_site_occupancy
  Ca  Ca0  1  0.501018  0.498100  0.502857  1
  La  La1  1  0.976779  0.895074  0.695692  1
  La  La2  1  0.021190  0.097421  0.299992  1
  La  La3  1  0.105800  0.325076  0.026756  1
  Er  Er4  1  0.307190  0.028090  0.102255  1
  Er  Er5  1  0.897085  0.695372  0.972157  1
  Er  Er6  1  0.692119  0.973337  0.896541  1
  Co  Co7  1  0.999353  0.000345  0.997614  1
  Br  Br8  1  0.552921  0.629082  0.849848  1
  Br  Br9  1  0.462383  0.369938  0.160635  1
  Br  Br10  1  0.333144  0.933210  0.790963  1
  Br  Br11  1  0.385612  0.157613  0.451792  1
  Br  Br12  1  0.921216  0.760603  0.303329  1
  Br  Br13  1  0.666849  0.065021  0.208252  1
  Br  Br14  1  0.073736  0.224613  0.675789  1
  Br  Br15  1  0.768775  0.313433  0.925572  1
  Br  Br16  1  0.216947  0.695848  0.071881  1
  Br  Br17  1  0.834549  0.531900  0.627341  1
  Br  Br18  1  0.169823  0.467700  0.393532  1
  Br  Br19  1  0.613510  0.838224  0.547200  1
