# generated using pymatgen
data_La4FeCoB20
_symmetry_space_group_name_H-M   'P 1'
_cell_length_a   4.22837800
_cell_length_b   5.68850110
_cell_length_c   11.32382346
_cell_angle_alpha   90.26080449
_cell_angle_beta   90.00000000
_cell_angle_gamma   90.00000000
_symmetry_Int_Tables_number   1
_chemical_formula_structural   La4FeCoB20
_chemical_formula_sum   'La4 Fe1 Co1 B20'
_cell_volume   272.37060873
_cell_formula_units_Z   1
loop_
 _symmetry_equiv_pos_site_id
 _symmetry_equiv_pos_as_xyz
  1  'x, y, z'
loop_
 _atom_site_type_symbol
 _atom_site_label
 _atom_site_symmetry_multiplicity
 _atom_site_fract_x
 _atom_site_fract_y
 _atom_site_fract_z
 _atom_site_occupancy
  La  La0  1  0.500000  0.206059  0.368032  1
  La  La1  1  0.500000  0.793941  0.631968  1
  La  La2  1  0.500000  0.298077  0.865136  1
  La  La3  1  0.500000  0.701923  0.134864  1
  Fe  Fe4  1  0.000000  0.500000  0.500000  1
  Co  Co5  1  0.000000  0.000000  0.000000  1
  B  B6  1  0.000000  0.372159  0.040783  1
  B  B7  1  0.000000  0.627841  0.959217  1
  B  B8  1  0.000000  0.128515  0.540821  1
  B  B9  1  0.000000  0.871485  0.459179  1
  B  B10  1  0.000000  0.345179  0.196540  1
  B  B11  1  0.000000  0.654821  0.803460  1
  B  B12  1  0.000000  0.154536  0.697654  1
  B  B13  1  0.000000  0.845464  0.302346  1
  B  B14  1  0.000000  0.037005  0.186785  1
  B  B15  1  0.000000  0.962995  0.813215  1
  B  B16  1  0.000000  0.463575  0.687247  1
  B  B17  1  0.000000  0.536425  0.312753  1
  B  B18  1  0.297793  0.201805  0.112168  1
  B  B19  1  0.702207  0.798195  0.887832  1
  B  B20  1  0.297793  0.798195  0.887832  1
  B  B21  1  0.702754  0.297929  0.613055  1
  B  B22  1  0.702207  0.201805  0.112168  1
  B  B23  1  0.297246  0.702071  0.386945  1
  B  B24  1  0.702754  0.702071  0.386945  1
  B  B25  1  0.297246  0.297929  0.613055  1
