# generated using pymatgen
data_Ce4Ho3Au10
_symmetry_space_group_name_H-M   'P 1'
_cell_length_a   8.84353400
_cell_length_b   8.84353650
_cell_length_c   10.56601900
_cell_angle_alpha   90.00000000
_cell_angle_beta   90.00000000
_cell_angle_gamma   106.79033434
_symmetry_Int_Tables_number   1
_chemical_formula_structural   Ce4Ho3Au10
_chemical_formula_sum   'Ce8 Ho6 Au20'
_cell_volume   791.11975080
_cell_formula_units_Z   2
loop_
 _symmetry_equiv_pos_site_id
 _symmetry_equiv_pos_as_xyz
  1  'x, y, z'
loop_
 _atom_site_type_symbol
 _atom_site_label
 _atom_site_symmetry_multiplicity
 _atom_site_fract_x
 _atom_site_fract_y
 _atom_site_fract_z
 _atom_site_occupancy
  Ce  Ce0  1  0.696093  0.303907  0.000000  1
  Ce  Ce1  1  0.196093  0.803907  0.500000  1
  Ce  Ce2  1  0.806323  0.806323  0.304348  1
  Ce  Ce3  1  0.306323  0.306323  0.195652  1
  Ce  Ce4  1  0.803907  0.196093  0.500000  1
  Ce  Ce5  1  0.303907  0.696093  0.000000  1
  Ce  Ce6  1  0.693677  0.693677  0.804348  1
  Ce  Ce7  1  0.193677  0.193677  0.695652  1
  Ho  Ho8  1  0.504397  0.004397  0.250000  1
  Ho  Ho9  1  0.995603  0.495603  0.750000  1
  Ho  Ho10  1  0.000000  0.000000  0.000000  1
  Ho  Ho11  1  0.004397  0.504397  0.250000  1
  Ho  Ho12  1  0.495603  0.995603  0.750000  1
  Ho  Ho13  1  0.500000  0.500000  0.500000  1
  Au  Au14  1  0.146985  0.437803  0.495563  1
  Au  Au15  1  0.899410  0.899410  0.597748  1
  Au  Au16  1  0.562197  0.853015  0.504437  1
  Au  Au17  1  0.863968  0.152332  0.207799  1
  Au  Au18  1  0.363968  0.652332  0.292201  1
  Au  Au19  1  0.652332  0.363968  0.292201  1
  Au  Au20  1  0.399410  0.399410  0.902252  1
  Au  Au21  1  0.937803  0.646985  0.004437  1
  Au  Au22  1  0.347668  0.636032  0.707799  1
  Au  Au23  1  0.353015  0.062197  0.995563  1
  Au  Au24  1  0.600590  0.600590  0.097748  1
  Au  Au25  1  0.646985  0.937803  0.004437  1
  Au  Au26  1  0.100590  0.100590  0.402252  1
  Au  Au27  1  0.636032  0.347668  0.707799  1
  Au  Au28  1  0.136032  0.847668  0.792201  1
  Au  Au29  1  0.062197  0.353015  0.995563  1
  Au  Au30  1  0.853015  0.562197  0.504437  1
  Au  Au31  1  0.152332  0.863968  0.207799  1
  Au  Au32  1  0.437803  0.146985  0.495563  1
  Au  Au33  1  0.847668  0.136032  0.792201  1
