# generated using pymatgen
data_YEr4ReRuC7
_symmetry_space_group_name_H-M   'P 1'
_cell_length_a   8.20580215
_cell_length_b   8.20580204
_cell_length_c   3.44525700
_cell_angle_alpha   90.00000000
_cell_angle_beta   90.00000000
_cell_angle_gamma   122.00448480
_symmetry_Int_Tables_number   1
_chemical_formula_structural   YEr4ReRuC7
_chemical_formula_sum   'Y1 Er4 Re1 Ru1 C7'
_cell_volume   196.72653409
_cell_formula_units_Z   1
loop_
 _symmetry_equiv_pos_site_id
 _symmetry_equiv_pos_as_xyz
  1  'x, y, z'
loop_
 _atom_site_type_symbol
 _atom_site_label
 _atom_site_symmetry_multiplicity
 _atom_site_fract_x
 _atom_site_fract_y
 _atom_site_fract_z
 _atom_site_occupancy
  Y  Y0  1  0.500815  0.499185  0.000000  1
  Er  Er1  1  0.075775  0.336951  0.500000  1
  Er  Er2  1  0.921474  0.660114  0.500000  1
  Er  Er3  1  0.663049  0.924225  0.500000  1
  Er  Er4  1  0.339886  0.078526  0.500000  1
  Re  Re5  1  0.284654  0.715346  0.000000  1
  Ru  Ru6  1  0.713519  0.286481  0.000000  1
  C  C7  1  0.629666  0.370334  0.500000  1
  C  C8  1  0.373493  0.626507  0.500000  1
  C  C9  1  0.999192  0.000808  0.000000  1
  C  C10  1  0.170340  0.170680  0.000000  1
  C  C11  1  0.829320  0.829660  0.000000  1
  C  C12  1  0.001649  0.502829  0.000000  1
  C  C13  1  0.497171  0.998351  0.000000  1
