# generated using pymatgen
data_La7Nd5(RhBr3)4
_symmetry_space_group_name_H-M   'P 1'
_cell_length_a   10.60830244
_cell_length_b   10.62281565
_cell_length_c   10.57120233
_cell_angle_alpha   108.64506370
_cell_angle_beta   110.54739696
_cell_angle_gamma   109.14546163
_symmetry_Int_Tables_number   1
_chemical_formula_structural   La7Nd5(RhBr3)4
_chemical_formula_sum   'La7 Nd5 Rh4 Br12'
_cell_volume   917.69097894
_cell_formula_units_Z   1
loop_
 _symmetry_equiv_pos_site_id
 _symmetry_equiv_pos_as_xyz
  1  'x, y, z'
loop_
 _atom_site_type_symbol
 _atom_site_label
 _atom_site_symmetry_multiplicity
 _atom_site_fract_x
 _atom_site_fract_y
 _atom_site_fract_z
 _atom_site_occupancy
  La  La0  1  0.021087  0.486005  0.758178  1
  La  La1  1  0.478484  0.239666  0.468313  1
  La  La2  1  0.270924  0.011697  0.031991  1
  La  La3  1  0.753713  0.236229  0.266420  1
  La  La4  1  0.744368  0.014204  0.480818  1
  La  La5  1  0.466563  0.488505  0.228142  1
  La  La6  1  0.034582  0.262193  0.020757  1
  Nd  Nd7  1  0.267860  0.752913  0.236711  1
  Nd  Nd8  1  0.482193  0.747266  0.015458  1
  Nd  Nd9  1  0.231752  0.465843  0.485270  1
  Nd  Nd10  1  0.015810  0.034010  0.268158  1
  Nd  Nd11  1  0.230559  0.262924  0.743545  1
  Rh  Rh12  1  0.501104  0.003048  0.250936  1
  Rh  Rh13  1  0.248926  0.497833  0.999959  1
  Rh  Rh14  1  0.995187  0.249029  0.498021  1
  Rh  Rh15  1  0.251609  0.250254  0.249265  1
  Br  Br16  1  0.245287  0.992699  0.500090  1
  Br  Br17  1  0.505268  0.505478  0.756406  1
  Br  Br18  1  0.255721  0.750765  0.744119  1
  Br  Br19  1  0.994792  0.748928  0.004559  1
  Br  Br20  1  0.004622  0.510565  0.254983  1
  Br  Br21  1  0.744543  0.989333  0.992607  1
  Br  Br22  1  0.755228  0.748465  0.244963  1
  Br  Br23  1  0.496656  0.751261  0.506794  1
  Br  Br24  1  0.500678  0.249696  0.990730  1
  Br  Br25  1  0.753744  0.507395  0.502676  1
  Br  Br26  1  0.746624  0.249477  0.754515  1
  Br  Br27  1  0.002114  0.994319  0.745614  1
