# generated using pymatgen
data_Ho5NiSe4
_symmetry_space_group_name_H-M   'P 1'
_cell_length_a   7.00190214
_cell_length_b   7.00190189
_cell_length_c   7.00190163
_cell_angle_alpha   99.78738192
_cell_angle_beta   99.78738411
_cell_angle_gamma   131.30100213
_symmetry_Int_Tables_number   1
_chemical_formula_structural   Ho5NiSe4
_chemical_formula_sum   'Ho5 Ni1 Se4'
_cell_volume   234.94979922
_cell_formula_units_Z   1
loop_
 _symmetry_equiv_pos_site_id
 _symmetry_equiv_pos_as_xyz
  1  'x, y, z'
loop_
 _atom_site_type_symbol
 _atom_site_label
 _atom_site_symmetry_multiplicity
 _atom_site_fract_x
 _atom_site_fract_y
 _atom_site_fract_z
 _atom_site_occupancy
  Ho  Ho0  1  0.403970  0.777894  0.181864  1
  Ho  Ho1  1  0.000000  0.000000  0.000000  1
  Ho  Ho2  1  0.596030  0.222106  0.818136  1
  Ho  Ho3  1  0.222106  0.403970  0.626075  1
  Ho  Ho4  1  0.777894  0.596030  0.373925  1
  Ni  Ni5  1  0.500000  0.500000  0.000000  1
  Se  Se6  1  0.091682  0.693026  0.784707  1
  Se  Se7  1  0.693026  0.908318  0.601343  1
  Se  Se8  1  0.306974  0.091682  0.398657  1
  Se  Se9  1  0.908318  0.306974  0.215293  1
