# generated using pymatgen
data_Sc8V4Re8Si15Ge
_symmetry_space_group_name_H-M   'P 1'
_cell_length_a   6.49729030
_cell_length_b   6.69150182
_cell_length_c   12.49586561
_cell_angle_alpha   90.07090634
_cell_angle_beta   90.02270781
_cell_angle_gamma   89.97021813
_symmetry_Int_Tables_number   1
_chemical_formula_structural   Sc8V4Re8Si15Ge
_chemical_formula_sum   'Sc8 V4 Re8 Si15 Ge1'
_cell_volume   543.27759226
_cell_formula_units_Z   1
loop_
 _symmetry_equiv_pos_site_id
 _symmetry_equiv_pos_as_xyz
  1  'x, y, z'
loop_
 _atom_site_type_symbol
 _atom_site_label
 _atom_site_symmetry_multiplicity
 _atom_site_fract_x
 _atom_site_fract_y
 _atom_site_fract_z
 _atom_site_occupancy
  Sc  Sc0  1  0.006829  0.168791  0.091347  1
  Sc  Sc1  1  0.504314  0.329859  0.406179  1
  Sc  Sc2  1  0.493021  0.667856  0.908989  1
  Sc  Sc3  1  0.992355  0.832360  0.591854  1
  Sc  Sc4  1  0.992840  0.831934  0.909251  1
  Sc  Sc5  1  0.488149  0.671317  0.592102  1
  Sc  Sc6  1  0.507735  0.332025  0.091448  1
  Sc  Sc7  1  0.008713  0.166731  0.408121  1
  V  V8  1  0.171794  0.337131  0.874094  1
  V  V9  1  0.668437  0.156728  0.627964  1
  V  V10  1  0.329642  0.837211  0.125856  1
  V  V11  1  0.831211  0.666340  0.371652  1
  Re  Re12  1  0.668615  0.012422  0.249620  1
  Re  Re13  1  0.168514  0.488400  0.249932  1
  Re  Re14  1  0.832730  0.511365  0.752499  1
  Re  Re15  1  0.331248  0.988102  0.750582  1
  Re  Re16  1  0.824206  0.655399  0.119928  1
  Re  Re17  1  0.323532  0.845988  0.379034  1
  Re  Re18  1  0.676678  0.153953  0.880111  1
  Re  Re19  1  0.181400  0.345174  0.620755  1
  Si  Si20  1  0.803540  0.362022  0.251393  1
  Si  Si21  1  0.302800  0.138499  0.247338  1
  Si  Si22  1  0.697012  0.859643  0.749595  1
  Si  Si23  1  0.195984  0.639139  0.752244  1
  Si  Si24  1  0.029981  0.870927  0.246458  1
  Si  Si25  1  0.530259  0.630678  0.252232  1
  Si  Si26  1  0.471406  0.370172  0.753276  1
  Si  Si27  1  0.971174  0.131025  0.747315  1
  Si  Si28  1  0.840633  0.454379  0.952916  1
  Si  Si29  1  0.339923  0.045459  0.547092  1
  Si  Si30  1  0.659918  0.954854  0.047545  1
  Si  Si31  1  0.162675  0.546072  0.451980  1
  Si  Si32  1  0.167312  0.540101  0.042786  1
  Si  Si33  1  0.666869  0.959170  0.457411  1
  Si  Si34  1  0.333548  0.040608  0.957216  1
  Ge  Ge35  1  0.824998  0.458161  0.541888  1
