# generated using pymatgen
data_LiHfZrBIr5
_symmetry_space_group_name_H-M   'P 1'
_cell_length_a   5.69450355
_cell_length_b   5.69450340
_cell_length_c   5.78660900
_cell_angle_alpha   59.46347709
_cell_angle_beta   59.46347803
_cell_angle_gamma   60.77344883
_symmetry_Int_Tables_number   1
_chemical_formula_structural   LiHfZrBIr5
_chemical_formula_sum   'Li1 Hf1 Zr1 B1 Ir5'
_cell_volume   132.33740565
_cell_formula_units_Z   1
loop_
 _symmetry_equiv_pos_site_id
 _symmetry_equiv_pos_as_xyz
  1  'x, y, z'
loop_
 _atom_site_type_symbol
 _atom_site_label
 _atom_site_symmetry_multiplicity
 _atom_site_fract_x
 _atom_site_fract_y
 _atom_site_fract_z
 _atom_site_occupancy
  Li  Li0  1  0.728201  0.728201  0.271799  1
  Hf  Hf1  1  0.749027  0.749027  0.750973  1
  Zr  Zr2  1  0.249472  0.249472  0.250528  1
  B  B3  1  0.001138  0.001138  0.998862  1
  Ir  Ir4  1  0.257609  0.746262  0.253565  1
  Ir  Ir5  1  0.746262  0.257609  0.253565  1
  Ir  Ir6  1  0.264420  0.264420  0.735580  1
  Ir  Ir7  1  0.746262  0.257609  0.742565  1
  Ir  Ir8  1  0.257609  0.746262  0.742565  1
