# generated using pymatgen
data_ThSb12IrOs3
_symmetry_space_group_name_H-M   'P 1'
_cell_length_a   8.19117199
_cell_length_b   8.19117288
_cell_length_c   8.19117200
_cell_angle_alpha   109.57138790
_cell_angle_beta   109.57140495
_cell_angle_gamma   109.57139310
_symmetry_Int_Tables_number   1
_chemical_formula_structural   ThSb12IrOs3
_chemical_formula_sum   'Th1 Sb12 Ir1 Os3'
_cell_volume   421.49752907
_cell_formula_units_Z   1
loop_
 _symmetry_equiv_pos_site_id
 _symmetry_equiv_pos_as_xyz
  1  'x, y, z'
loop_
 _atom_site_type_symbol
 _atom_site_label
 _atom_site_symmetry_multiplicity
 _atom_site_fract_x
 _atom_site_fract_y
 _atom_site_fract_z
 _atom_site_occupancy
  Th  Th0  1  0.000000  0.000000  0.000000  1
  Sb  Sb1  1  0.337332  0.180590  0.844133  1
  Sb  Sb2  1  0.662668  0.819410  0.155867  1
  Sb  Sb3  1  0.662890  0.506108  0.845291  1
  Sb  Sb4  1  0.337110  0.493892  0.154709  1
  Sb  Sb5  1  0.180590  0.844133  0.337332  1
  Sb  Sb6  1  0.819410  0.155867  0.662668  1
  Sb  Sb7  1  0.506108  0.845291  0.662890  1
  Sb  Sb8  1  0.493892  0.154709  0.337110  1
  Sb  Sb9  1  0.844133  0.337332  0.180590  1
  Sb  Sb10  1  0.155867  0.662668  0.819410  1
  Sb  Sb11  1  0.845291  0.662890  0.506108  1
  Sb  Sb12  1  0.154709  0.337110  0.493892  1
  Ir  Ir13  1  0.500000  0.500000  0.500000  1
  Os  Os14  1  0.000000  0.000000  0.500000  1
  Os  Os15  1  0.500000  0.000000  0.000000  1
  Os  Os16  1  0.000000  0.500000  0.000000  1
