# generated using pymatgen
data_Ta2Nb2Ga3BMo
_symmetry_space_group_name_H-M   'P 1'
_cell_length_a   7.78229634
_cell_length_b   7.78229518
_cell_length_c   5.30356002
_cell_angle_alpha   89.99463804
_cell_angle_beta   89.99464227
_cell_angle_gamma   120.03357236
_symmetry_Int_Tables_number   1
_chemical_formula_structural   Ta2Nb2Ga3BMo
_chemical_formula_sum   'Ta4 Nb4 Ga6 B2 Mo2'
_cell_volume   278.07795175
_cell_formula_units_Z   2
loop_
 _symmetry_equiv_pos_site_id
 _symmetry_equiv_pos_as_xyz
  1  'x, y, z'
loop_
 _atom_site_type_symbol
 _atom_site_label
 _atom_site_symmetry_multiplicity
 _atom_site_fract_x
 _atom_site_fract_y
 _atom_site_fract_z
 _atom_site_occupancy
  Ta  Ta0  1  0.757243  0.757243  0.254838  1
  Ta  Ta1  1  0.242757  0.242757  0.745162  1
  Ta  Ta2  1  0.666451  0.333549  0.500000  1
  Ta  Ta3  1  0.333549  0.666451  0.500000  1
  Nb  Nb4  1  0.243010  0.000209  0.254837  1
  Nb  Nb5  1  0.756990  0.999791  0.745163  1
  Nb  Nb6  1  0.000209  0.243010  0.254837  1
  Nb  Nb7  1  0.999791  0.756990  0.745163  1
  Ga  Ga8  1  0.597201  0.000066  0.241154  1
  Ga  Ga9  1  0.402799  0.999934  0.758846  1
  Ga  Ga10  1  0.000066  0.597201  0.241154  1
  Ga  Ga11  1  0.999934  0.402799  0.758846  1
  Ga  Ga12  1  0.402718  0.402718  0.241149  1
  Ga  Ga13  1  0.597282  0.597282  0.758851  1
  B  B14  1  0.000000  0.000000  0.000000  1
  B  B15  1  0.000000  0.000000  0.500000  1
  Mo  Mo16  1  0.333534  0.666466  0.000000  1
  Mo  Mo17  1  0.666466  0.333534  0.000000  1
