# generated using pymatgen
data_Sm12Si12PdAu11
_symmetry_space_group_name_H-M   'P 1'
_cell_length_a   4.36185900
_cell_length_b   7.50944278
_cell_length_c   23.71355607
_cell_angle_alpha   90.27841313
_cell_angle_beta   90.00000000
_cell_angle_gamma   90.00000000
_symmetry_Int_Tables_number   1
_chemical_formula_structural   Sm12Si12PdAu11
_chemical_formula_sum   'Sm12 Si12 Pd1 Au11'
_cell_volume   776.73145535
_cell_formula_units_Z   1
loop_
 _symmetry_equiv_pos_site_id
 _symmetry_equiv_pos_as_xyz
  1  'x, y, z'
loop_
 _atom_site_type_symbol
 _atom_site_label
 _atom_site_symmetry_multiplicity
 _atom_site_fract_x
 _atom_site_fract_y
 _atom_site_fract_z
 _atom_site_occupancy
  Sm  Sm0  1  0.250000  0.751257  0.335100  1
  Sm  Sm1  1  0.750000  0.244207  0.663923  1
  Sm  Sm2  1  0.750000  0.250872  0.166689  1
  Sm  Sm3  1  0.250000  0.747942  0.831990  1
  Sm  Sm4  1  0.250000  0.749224  0.166696  1
  Sm  Sm5  1  0.750000  0.251362  0.832189  1
  Sm  Sm6  1  0.750000  0.249667  0.335059  1
  Sm  Sm7  1  0.250000  0.755584  0.663898  1
  Sm  Sm8  1  0.250000  0.751652  0.999374  1
  Sm  Sm9  1  0.750000  0.247943  0.999138  1
  Sm  Sm10  1  0.750000  0.246941  0.502828  1
  Sm  Sm11  1  0.250000  0.754360  0.502876  1
  Si  Si12  1  0.250000  0.082795  0.080063  1
  Si  Si13  1  0.750000  0.916659  0.918300  1
  Si  Si14  1  0.750000  0.583056  0.420462  1
  Si  Si15  1  0.250000  0.411104  0.582114  1
  Si  Si16  1  0.250000  0.084076  0.250466  1
  Si  Si17  1  0.750000  0.915372  0.748582  1
  Si  Si18  1  0.750000  0.584140  0.251622  1
  Si  Si19  1  0.250000  0.416551  0.748221  1
  Si  Si20  1  0.250000  0.084351  0.418920  1
  Si  Si21  1  0.750000  0.922138  0.581710  1
  Si  Si22  1  0.750000  0.582970  0.079255  1
  Si  Si23  1  0.250000  0.416657  0.918342  1
  Pd  Pd24  1  0.250000  0.081830  0.584956  1
  Au  Au25  1  0.250000  0.417174  0.250602  1
  Au  Au26  1  0.750000  0.582167  0.747955  1
  Au  Au27  1  0.750000  0.917140  0.249927  1
  Au  Au28  1  0.250000  0.083201  0.749999  1
  Au  Au29  1  0.250000  0.417685  0.418452  1
  Au  Au30  1  0.750000  0.584292  0.584459  1
  Au  Au31  1  0.750000  0.916044  0.086050  1
  Au  Au32  1  0.250000  0.083219  0.912710  1
  Au  Au33  1  0.250000  0.416402  0.084941  1
  Au  Au34  1  0.750000  0.583284  0.914003  1
  Au  Au35  1  0.750000  0.916682  0.418131  1
