# generated using pymatgen
data_Ac(As3Ru)4
_symmetry_space_group_name_H-M   'P 1'
_cell_length_a   7.47881545
_cell_length_b   7.47881537
_cell_length_c   7.47881500
_cell_angle_alpha   109.47121693
_cell_angle_beta   109.47121670
_cell_angle_gamma   109.47122863
_symmetry_Int_Tables_number   1
_chemical_formula_structural   Ac(As3Ru)4
_chemical_formula_sum   'Ac1 As12 Ru4'
_cell_volume   322.01531418
_cell_formula_units_Z   1
loop_
 _symmetry_equiv_pos_site_id
 _symmetry_equiv_pos_as_xyz
  1  'x, y, z'
loop_
 _atom_site_type_symbol
 _atom_site_label
 _atom_site_symmetry_multiplicity
 _atom_site_fract_x
 _atom_site_fract_y
 _atom_site_fract_z
 _atom_site_occupancy
  Ac  Ac0  1  0.000000  0.000000  0.000000  1
  As  As1  1  0.150968  0.799742  0.648775  1
  As  As2  1  0.849032  0.200258  0.351225  1
  As  As3  1  0.150968  0.502192  0.351225  1
  As  As4  1  0.849032  0.497808  0.648775  1
  As  As5  1  0.648775  0.150968  0.799742  1
  As  As6  1  0.351225  0.849032  0.200258  1
  As  As7  1  0.351225  0.150968  0.502192  1
  As  As8  1  0.648775  0.849032  0.497808  1
  As  As9  1  0.799742  0.648775  0.150968  1
  As  As10  1  0.200258  0.351225  0.849032  1
  As  As11  1  0.502192  0.351225  0.150968  1
  As  As12  1  0.497808  0.648775  0.849032  1
  Ru  Ru13  1  0.500000  0.000000  0.000000  1
  Ru  Ru14  1  0.000000  0.000000  0.500000  1
  Ru  Ru15  1  0.000000  0.500000  0.000000  1
  Ru  Ru16  1  0.500000  0.500000  0.500000  1
