# generated using pymatgen
data_Lu9HfIr6
_symmetry_space_group_name_H-M   'P 1'
_cell_length_a   6.19475500
_cell_length_b   10.65862800
_cell_length_c   10.65862800
_cell_angle_alpha   90.00000000
_cell_angle_beta   90.00000000
_cell_angle_gamma   90.00000000
_symmetry_Int_Tables_number   1
_chemical_formula_structural   Lu9HfIr6
_chemical_formula_sum   'Lu18 Hf2 Ir12'
_cell_volume   703.76350991
_cell_formula_units_Z   2
loop_
 _symmetry_equiv_pos_site_id
 _symmetry_equiv_pos_as_xyz
  1  'x, y, z'
loop_
 _atom_site_type_symbol
 _atom_site_label
 _atom_site_symmetry_multiplicity
 _atom_site_fract_x
 _atom_site_fract_y
 _atom_site_fract_z
 _atom_site_occupancy
  Lu  Lu0  1  0.371449  0.836458  0.541939  1
  Lu  Lu1  1  0.871449  0.663542  0.541939  1
  Lu  Lu2  1  0.871449  0.836458  0.958061  1
  Lu  Lu3  1  0.371449  0.663542  0.958061  1
  Lu  Lu4  1  0.871617  0.539014  0.835324  1
  Lu  Lu5  1  0.371617  0.960986  0.835324  1
  Lu  Lu6  1  0.371617  0.539014  0.664676  1
  Lu  Lu7  1  0.871617  0.960986  0.664676  1
  Lu  Lu8  1  0.628383  0.164676  0.460987  1
  Lu  Lu9  1  0.128383  0.335324  0.460987  1
  Lu  Lu10  1  0.128383  0.164676  0.039014  1
  Lu  Lu11  1  0.628383  0.335324  0.039014  1
  Lu  Lu12  1  0.128551  0.458062  0.163542  1
  Lu  Lu13  1  0.628551  0.041939  0.163542  1
  Lu  Lu14  1  0.628551  0.458062  0.336458  1
  Lu  Lu15  1  0.128551  0.041939  0.336458  1
  Lu  Lu16  1  0.500000  0.750000  0.250000  1
  Lu  Lu17  1  0.000000  0.750000  0.250000  1
  Hf  Hf18  1  0.000000  0.250000  0.750000  1
  Hf  Hf19  1  0.500000  0.250000  0.750000  1
  Ir  Ir20  1  0.250000  0.904687  0.095313  1
  Ir  Ir21  1  0.750000  0.595313  0.095313  1
  Ir  Ir22  1  0.750000  0.904687  0.404687  1
  Ir  Ir23  1  0.250000  0.595313  0.404687  1
  Ir  Ir24  1  0.750000  0.104024  0.895976  1
  Ir  Ir25  1  0.250000  0.395976  0.895976  1
  Ir  Ir26  1  0.250000  0.104024  0.604024  1
  Ir  Ir27  1  0.750000  0.395976  0.604024  1
  Ir  Ir28  1  0.118019  0.750000  0.750000  1
  Ir  Ir29  1  0.618019  0.750000  0.750000  1
  Ir  Ir30  1  0.881981  0.250000  0.250000  1
  Ir  Ir31  1  0.381981  0.250000  0.250000  1
