# generated using pymatgen
data_CdAg3Au16
_symmetry_space_group_name_H-M   'P 1'
_cell_length_a   5.09227381
_cell_length_b   4.86376200
_cell_length_c   14.69450537
_cell_angle_alpha   90.00000000
_cell_angle_beta   90.03548152
_cell_angle_gamma   90.00000000
_symmetry_Int_Tables_number   1
_chemical_formula_structural   CdAg3Au16
_chemical_formula_sum   'Cd1 Ag3 Au16'
_cell_volume   363.94767685
_cell_formula_units_Z   1
loop_
 _symmetry_equiv_pos_site_id
 _symmetry_equiv_pos_as_xyz
  1  'x, y, z'
loop_
 _atom_site_type_symbol
 _atom_site_label
 _atom_site_symmetry_multiplicity
 _atom_site_fract_x
 _atom_site_fract_y
 _atom_site_fract_z
 _atom_site_occupancy
  Cd  Cd0  1  0.836136  0.250000  0.900941  1
  Ag  Ag1  1  0.162582  0.749999  0.100315  1
  Ag  Ag2  1  0.663701  0.749999  0.400166  1
  Ag  Ag3  1  0.337382  0.250000  0.599025  1
  Au  Au4  1  0.665092  0.749999  0.000988  1
  Au  Au5  1  0.834135  0.250000  0.101388  1
  Au  Au6  1  0.335747  0.250000  0.201012  1
  Au  Au7  1  0.665555  0.749999  0.200477  1
  Au  Au8  1  0.165703  0.749999  0.300420  1
  Au  Au9  1  0.835989  0.250000  0.299587  1
  Au  Au10  1  0.334033  0.250000  0.399682  1
  Au  Au11  1  0.166766  0.749999  0.500045  1
  Au  Au12  1  0.834484  0.250000  0.499320  1
  Au  Au13  1  0.666305  0.749999  0.599142  1
  Au  Au14  1  0.163925  0.749999  0.699682  1
  Au  Au15  1  0.834546  0.250000  0.698822  1
  Au  Au16  1  0.333373  0.250000  0.799543  1
  Au  Au17  1  0.663714  0.749999  0.798127  1
  Au  Au18  1  0.168111  0.749999  0.899672  1
  Au  Au19  1  0.332715  0.250000  0.001647  1
