# generated using pymatgen
data_DyThSe3
_symmetry_space_group_name_H-M   'P 1'
_cell_length_a   11.23053900
_cell_length_b   4.08684700
_cell_length_c   11.01540600
_cell_angle_alpha   90.00000000
_cell_angle_beta   90.00000000
_cell_angle_gamma   90.00000000
_symmetry_Int_Tables_number   1
_chemical_formula_structural   DyThSe3
_chemical_formula_sum   'Dy4 Th4 Se12'
_cell_volume   505.57953763
_cell_formula_units_Z   4
loop_
 _symmetry_equiv_pos_site_id
 _symmetry_equiv_pos_as_xyz
  1  'x, y, z'
loop_
 _atom_site_type_symbol
 _atom_site_label
 _atom_site_symmetry_multiplicity
 _atom_site_fract_x
 _atom_site_fract_y
 _atom_site_fract_z
 _atom_site_occupancy
  Dy  Dy0  1  0.482597  0.250000  0.187026  1
  Dy  Dy1  1  0.982597  0.250000  0.312974  1
  Dy  Dy2  1  0.517403  0.750000  0.812974  1
  Dy  Dy3  1  0.017403  0.750000  0.687026  1
  Th  Th4  1  0.698078  0.750000  0.497461  1
  Th  Th5  1  0.198078  0.750000  0.002539  1
  Th  Th6  1  0.301922  0.250000  0.502539  1
  Th  Th7  1  0.801922  0.250000  0.997461  1
  Se  Se8  1  0.546850  0.250000  0.627422  1
  Se  Se9  1  0.046850  0.250000  0.872578  1
  Se  Se10  1  0.453150  0.750000  0.372578  1
  Se  Se11  1  0.953150  0.750000  0.127422  1
  Se  Se12  1  0.615900  0.750000  0.055080  1
  Se  Se13  1  0.115900  0.750000  0.444920  1
  Se  Se14  1  0.384100  0.250000  0.944920  1
  Se  Se15  1  0.884100  0.250000  0.555080  1
  Se  Se16  1  0.724377  0.250000  0.295433  1
  Se  Se17  1  0.224377  0.250000  0.204567  1
  Se  Se18  1  0.275623  0.750000  0.704567  1
  Se  Se19  1  0.775623  0.750000  0.795433  1
