# generated using pymatgen
data_Li2Nb8Fe5Si14Tc
_symmetry_space_group_name_H-M   'P 1'
_cell_length_a   9.31749226
_cell_length_b   9.29805507
_cell_length_c   9.29464859
_cell_angle_alpha   94.37235029
_cell_angle_beta   94.25316267
_cell_angle_gamma   148.00798941
_symmetry_Int_Tables_number   1
_chemical_formula_structural   Li2Nb8Fe5Si14Tc
_chemical_formula_sum   'Li2 Nb8 Fe5 Si14 Tc1'
_cell_volume   410.42327945
_cell_formula_units_Z   1
loop_
 _symmetry_equiv_pos_site_id
 _symmetry_equiv_pos_as_xyz
  1  'x, y, z'
loop_
 _atom_site_type_symbol
 _atom_site_label
 _atom_site_symmetry_multiplicity
 _atom_site_fract_x
 _atom_site_fract_y
 _atom_site_fract_z
 _atom_site_occupancy
  Li  Li0  1  0.101486  0.602422  0.206229  1
  Li  Li1  1  0.100965  0.898262  0.500935  1
  Nb  Nb2  1  0.133090  0.135419  0.270193  1
  Nb  Nb3  1  0.866961  0.867165  0.732715  1
  Nb  Nb4  1  0.866207  0.134610  0.001006  1
  Nb  Nb5  1  0.134340  0.863346  0.999525  1
  Nb  Nb6  1  0.500345  0.689451  0.191763  1
  Nb  Nb7  1  0.496919  0.306587  0.809265  1
  Nb  Nb8  1  0.315040  0.502925  0.810906  1
  Nb  Nb9  1  0.696350  0.503417  0.194279  1
  Fe  Fe10  1  0.388032  0.617275  0.503026  1
  Fe  Fe11  1  0.594374  0.399656  0.500765  1
  Fe  Fe12  1  0.910877  0.094617  0.501362  1
  Fe  Fe13  1  0.910221  0.407305  0.814939  1
  Fe  Fe14  1  0.597118  0.094236  0.197098  1
  Si  Si15  1  0.313932  0.320003  0.583842  1
  Si  Si16  1  0.680770  0.687448  0.418837  1
  Si  Si17  1  0.690780  0.273729  0.998689  1
  Si  Si18  1  0.308133  0.721703  0.999790  1
  Si  Si19  1  0.983074  0.275533  0.297880  1
  Si  Si20  1  0.970796  0.680918  0.707351  1
  Si  Si21  1  0.742910  0.029931  0.706130  1
  Si  Si22  1  0.311644  0.020122  0.292003  1
  Si  Si23  1  0.554379  0.952199  0.407141  1
  Si  Si24  1  0.562665  0.156059  0.593859  1
  Si  Si25  1  0.035052  0.439290  0.586696  1
  Si  Si26  1  0.844377  0.442998  0.401797  1
  Si  Si27  1  0.753145  0.751368  0.002091  1
  Si  Si28  1  0.251151  0.249546  0.001703  1
  Tc  Tc29  1  0.384864  0.882458  0.768187  1
