# generated using pymatgen
data_Sm3Dy(B4W)4
_symmetry_space_group_name_H-M   'P 1'
_cell_length_a   6.07885508
_cell_length_b   11.75801009
_cell_length_c   3.66327000
_cell_angle_alpha   90.00000000
_cell_angle_beta   90.00000000
_cell_angle_gamma   89.93171237
_symmetry_Int_Tables_number   1
_chemical_formula_structural   Sm3Dy(B4W)4
_chemical_formula_sum   'Sm3 Dy1 B16 W4'
_cell_volume   261.83291407
_cell_formula_units_Z   1
loop_
 _symmetry_equiv_pos_site_id
 _symmetry_equiv_pos_as_xyz
  1  'x, y, z'
loop_
 _atom_site_type_symbol
 _atom_site_label
 _atom_site_symmetry_multiplicity
 _atom_site_fract_x
 _atom_site_fract_y
 _atom_site_fract_z
 _atom_site_occupancy
  Sm  Sm0  1  0.626107  0.349934  0.000000  1
  Sm  Sm1  1  0.373910  0.650461  0.000000  1
  Sm  Sm2  1  0.126042  0.149737  0.000000  1
  Dy  Dy3  1  0.873746  0.850460  0.000000  1
  B  B4  1  0.784274  0.184998  0.500000  1
  B  B5  1  0.213355  0.814641  0.500000  1
  B  B6  1  0.284232  0.314334  0.500000  1
  B  B7  1  0.716061  0.687074  0.500000  1
  B  B8  1  0.865195  0.030660  0.500000  1
  B  B9  1  0.134552  0.966889  0.500000  1
  B  B10  1  0.364591  0.468274  0.500000  1
  B  B11  1  0.635550  0.532742  0.500000  1
  B  B12  1  0.887162  0.453836  0.500000  1
  B  B13  1  0.112362  0.547317  0.500000  1
  B  B14  1  0.387786  0.045703  0.500000  1
  B  B15  1  0.614550  0.952109  0.500000  1
  B  B16  1  0.975777  0.308154  0.500000  1
  B  B17  1  0.022894  0.693575  0.500000  1
  B  B18  1  0.475902  0.191347  0.500000  1
  B  B19  1  0.525569  0.807920  0.500000  1
  W  W20  1  0.630222  0.083010  0.000000  1
  W  W21  1  0.370406  0.915463  0.000000  1
  W  W22  1  0.129525  0.416433  0.000000  1
  W  W23  1  0.870232  0.584927  0.000000  1
