# generated using pymatgen
data_Eu2SeBrF2
_symmetry_space_group_name_H-M   'P 1'
_cell_length_a   4.10742500
_cell_length_b   4.10742500
_cell_length_c   7.33855400
_cell_angle_alpha   90.00000000
_cell_angle_beta   90.00000000
_cell_angle_gamma   90.00000000
_symmetry_Int_Tables_number   1
_chemical_formula_structural   Eu2SeBrF2
_chemical_formula_sum   'Eu2 Se1 Br1 F2'
_cell_volume   123.80830518
_cell_formula_units_Z   1
loop_
 _symmetry_equiv_pos_site_id
 _symmetry_equiv_pos_as_xyz
  1  'x, y, z'
loop_
 _atom_site_type_symbol
 _atom_site_label
 _atom_site_symmetry_multiplicity
 _atom_site_fract_x
 _atom_site_fract_y
 _atom_site_fract_z
 _atom_site_occupancy
  Eu  Eu0  1  0.500001  0.000000  0.212618  1
  Eu  Eu1  1  0.000000  0.500001  0.805764  1
  Se  Se2  1  0.000000  0.500001  0.354536  1
  Br  Br3  1  0.500001  0.000000  0.647523  1
  F  F4  1  0.000000  0.000000  0.989780  1
  F  F5  1  0.500001  0.500001  0.989780  1
