# generated using pymatgen
data_La3Nd(AuBr6)4
_symmetry_space_group_name_H-M   'P 1'
_cell_length_a   8.30015321
_cell_length_b   10.67012641
_cell_length_c   15.35735466
_cell_angle_alpha   103.47118624
_cell_angle_beta   95.88217284
_cell_angle_gamma   112.19384427
_symmetry_Int_Tables_number   1
_chemical_formula_structural   La3Nd(AuBr6)4
_chemical_formula_sum   'La3 Nd1 Au4 Br24'
_cell_volume   1196.97151571
_cell_formula_units_Z   1
loop_
 _symmetry_equiv_pos_site_id
 _symmetry_equiv_pos_as_xyz
  1  'x, y, z'
loop_
 _atom_site_type_symbol
 _atom_site_label
 _atom_site_symmetry_multiplicity
 _atom_site_fract_x
 _atom_site_fract_y
 _atom_site_fract_z
 _atom_site_occupancy
  La  La0  1  0.580328  0.922502  0.621603  1
  La  La1  1  0.419473  0.077262  0.378252  1
  La  La2  1  0.976588  0.312143  0.871055  1
  Nd  Nd3  1  0.023575  0.687904  0.129031  1
  Au  Au4  1  0.295588  0.631288  0.762442  1
  Au  Au5  1  0.704647  0.368964  0.237484  1
  Au  Au6  1  0.499990  0.499978  0.499971  1
  Au  Au7  1  0.000002  0.999745  0.000112  1
  Br  Br8  1  0.610539  0.730691  0.748020  1
  Br  Br9  1  0.389521  0.269336  0.251997  1
  Br  Br10  1  0.274332  0.845081  0.735854  1
  Br  Br11  1  0.725732  0.154980  0.264158  1
  Br  Br12  1  0.978316  0.535261  0.773117  1
  Br  Br13  1  0.021520  0.466595  0.226037  1
  Br  Br14  1  0.316614  0.414249  0.785018  1
  Br  Br15  1  0.685773  0.586409  0.214393  1
  Br  Br16  1  0.693405  0.371302  0.507568  1
  Br  Br17  1  0.306607  0.628709  0.492424  1
  Br  Br18  1  0.763201  0.725922  0.524110  1
  Br  Br19  1  0.236726  0.274000  0.475865  1
  Br  Br20  1  0.783189  0.104088  0.976576  1
  Br  Br21  1  0.215051  0.894218  0.024349  1
  Br  Br22  1  0.768038  0.795423  0.030575  1
  Br  Br23  1  0.233634  0.203904  0.970092  1
  Br  Br24  1  0.614141  0.193429  0.746793  1
  Br  Br25  1  0.383244  0.805702  0.252330  1
  Br  Br26  1  0.955573  0.054214  0.727365  1
  Br  Br27  1  0.044011  0.943572  0.271394  1
  Br  Br28  1  0.731729  0.050490  0.480199  1
  Br  Br29  1  0.268224  0.949460  0.519735  1
  Br  Br30  1  0.759895  0.436764  0.979059  1
  Br  Br31  1  0.240793  0.566415  0.023023  1
