# generated using pymatgen
data_Ho5InGa2
_symmetry_space_group_name_H-M   'P 1'
_cell_length_a   7.70384900
_cell_length_b   7.70384900
_cell_length_c   14.28764200
_cell_angle_alpha   90.00000000
_cell_angle_beta   90.00000000
_cell_angle_gamma   90.00000000
_symmetry_Int_Tables_number   1
_chemical_formula_structural   Ho5InGa2
_chemical_formula_sum   'Ho20 In4 Ga8'
_cell_volume   847.96140011
_cell_formula_units_Z   4
loop_
 _symmetry_equiv_pos_site_id
 _symmetry_equiv_pos_as_xyz
  1  'x, y, z'
loop_
 _atom_site_type_symbol
 _atom_site_label
 _atom_site_symmetry_multiplicity
 _atom_site_fract_x
 _atom_site_fract_y
 _atom_site_fract_z
 _atom_site_occupancy
  Ho  Ho0  1  0.000000  0.500000  0.760339  1
  Ho  Ho1  1  0.000000  0.500000  0.260339  1
  Ho  Ho2  1  0.500000  0.000000  0.239661  1
  Ho  Ho3  1  0.500000  0.000000  0.739661  1
  Ho  Ho4  1  0.673652  0.660796  0.605656  1
  Ho  Ho5  1  0.673652  0.339204  0.105656  1
  Ho  Ho6  1  0.826348  0.839204  0.394344  1
  Ho  Ho7  1  0.173652  0.839204  0.894344  1
  Ho  Ho8  1  0.326348  0.339204  0.605656  1
  Ho  Ho9  1  0.326348  0.660796  0.105656  1
  Ho  Ho10  1  0.173652  0.160796  0.394344  1
  Ho  Ho11  1  0.826348  0.160796  0.894344  1
  Ho  Ho12  1  0.660796  0.326348  0.394344  1
  Ho  Ho13  1  0.339204  0.326348  0.894344  1
  Ho  Ho14  1  0.160796  0.826348  0.605656  1
  Ho  Ho15  1  0.839204  0.826348  0.105656  1
  Ho  Ho16  1  0.339204  0.673652  0.394344  1
  Ho  Ho17  1  0.660796  0.673652  0.894344  1
  Ho  Ho18  1  0.839204  0.173652  0.605656  1
  Ho  Ho19  1  0.160796  0.173652  0.105656  1
  In  In20  1  0.000000  0.500000  0.496169  1
  In  In21  1  0.000000  0.500000  0.996169  1
  In  In22  1  0.500000  0.000000  0.503831  1
  In  In23  1  0.500000  0.000000  0.003831  1
  Ga  Ga24  1  0.876255  0.876255  0.750000  1
  Ga  Ga25  1  0.876255  0.123745  0.250000  1
  Ga  Ga26  1  0.623745  0.623745  0.250000  1
  Ga  Ga27  1  0.376255  0.623745  0.750000  1
  Ga  Ga28  1  0.123745  0.123745  0.750000  1
  Ga  Ga29  1  0.123745  0.876255  0.250000  1
  Ga  Ga30  1  0.376255  0.376255  0.250000  1
  Ga  Ga31  1  0.623745  0.376255  0.750000  1
