# generated using pymatgen
data_Rb3NaMnBr6
_symmetry_space_group_name_H-M   'P 1'
_cell_length_a   9.15852190
_cell_length_b   9.15852119
_cell_length_c   9.15852152
_cell_angle_alpha   92.89973269
_cell_angle_beta   92.89973566
_cell_angle_gamma   92.89973183
_symmetry_Int_Tables_number   1
_chemical_formula_structural   Rb3NaMnBr6
_chemical_formula_sum   'Rb6 Na2 Mn2 Br12'
_cell_volume   765.14872413
_cell_formula_units_Z   2
loop_
 _symmetry_equiv_pos_site_id
 _symmetry_equiv_pos_as_xyz
  1  'x, y, z'
loop_
 _atom_site_type_symbol
 _atom_site_label
 _atom_site_symmetry_multiplicity
 _atom_site_fract_x
 _atom_site_fract_y
 _atom_site_fract_z
 _atom_site_occupancy
  Rb  Rb0  1  0.128260  0.371740  0.750000  1
  Rb  Rb1  1  0.750000  0.128260  0.371740  1
  Rb  Rb2  1  0.371740  0.750000  0.128260  1
  Rb  Rb3  1  0.250000  0.871740  0.628260  1
  Rb  Rb4  1  0.628260  0.250000  0.871740  1
  Rb  Rb5  1  0.871740  0.628260  0.250000  1
  Na  Na6  1  0.250000  0.250000  0.250000  1
  Na  Na7  1  0.750000  0.750000  0.750000  1
  Mn  Mn8  1  0.500000  0.500000  0.500000  1
  Mn  Mn9  1  0.000000  0.000000  0.000000  1
  Br  Br10  1  0.215153  0.541430  0.418231  1
  Br  Br11  1  0.418231  0.215153  0.541430  1
  Br  Br12  1  0.541430  0.418231  0.215153  1
  Br  Br13  1  0.918231  0.041430  0.715153  1
  Br  Br14  1  0.715153  0.918231  0.041430  1
  Br  Br15  1  0.041430  0.715153  0.918231  1
  Br  Br16  1  0.784847  0.458570  0.581769  1
  Br  Br17  1  0.581769  0.784847  0.458570  1
  Br  Br18  1  0.458570  0.581769  0.784847  1
  Br  Br19  1  0.081769  0.958570  0.284847  1
  Br  Br20  1  0.284847  0.081769  0.958570  1
  Br  Br21  1  0.958570  0.284847  0.081769  1
