# generated using pymatgen
data_Ta4Nb6Si5Au
_symmetry_space_group_name_H-M   'P 1'
_cell_length_a   7.59031640
_cell_length_b   7.59031561
_cell_length_c   7.59521337
_cell_angle_alpha   127.82366368
_cell_angle_beta   127.82394447
_cell_angle_gamma   76.86407253
_symmetry_Int_Tables_number   1
_chemical_formula_structural   Ta4Nb6Si5Au
_chemical_formula_sum   'Ta4 Nb6 Si5 Au1'
_cell_volume   265.14889270
_cell_formula_units_Z   1
loop_
 _symmetry_equiv_pos_site_id
 _symmetry_equiv_pos_as_xyz
  1  'x, y, z'
loop_
 _atom_site_type_symbol
 _atom_site_label
 _atom_site_symmetry_multiplicity
 _atom_site_fract_x
 _atom_site_fract_y
 _atom_site_fract_z
 _atom_site_occupancy
  Ta  Ta0  1  0.479114  0.991860  0.173503  1
  Ta  Ta1  1  0.818357  0.305612  0.826497  1
  Ta  Ta2  1  0.998120  0.998120  0.000000  1
  Ta  Ta3  1  0.502003  0.502003  0.000000  1
  Nb  Nb4  1  0.021880  0.194701  0.514088  1
  Nb  Nb5  1  0.680613  0.507792  0.485912  1
  Nb  Nb6  1  0.509560  0.023621  0.828162  1
  Nb  Nb7  1  0.195458  0.681398  0.171838  1
  Nb  Nb8  1  0.991237  0.819197  0.514799  1
  Nb  Nb9  1  0.304397  0.476437  0.485201  1
  Si  Si10  1  0.249647  0.249647  0.000000  1
  Si  Si11  1  0.369818  0.130036  0.499928  1
  Si  Si12  1  0.630109  0.869890  0.500072  1
  Si  Si13  1  0.869835  0.370021  0.239816  1
  Si  Si14  1  0.130205  0.630019  0.760184  1
  Au  Au15  1  0.749646  0.749646  0.000000  1
