# generated using pymatgen
data_Bi11SbS18
_symmetry_space_group_name_H-M   'P 1'
_cell_length_a   4.06560700
_cell_length_b   10.95683427
_cell_length_c   18.60649644
_cell_angle_alpha   80.92686445
_cell_angle_beta   90.00000000
_cell_angle_gamma   90.00000000
_symmetry_Int_Tables_number   1
_chemical_formula_structural   Bi11SbS18
_chemical_formula_sum   'Bi11 Sb1 S18'
_cell_volume   818.47770726
_cell_formula_units_Z   1
loop_
 _symmetry_equiv_pos_site_id
 _symmetry_equiv_pos_as_xyz
  1  'x, y, z'
loop_
 _atom_site_type_symbol
 _atom_site_label
 _atom_site_symmetry_multiplicity
 _atom_site_fract_x
 _atom_site_fract_y
 _atom_site_fract_z
 _atom_site_occupancy
  Bi  Bi0  1  0.750000  0.905047  0.414839  1
  Bi  Bi1  1  0.250000  0.090115  0.586553  1
  Bi  Bi2  1  0.750000  0.436860  0.101738  1
  Bi  Bi3  1  0.250000  0.568264  0.892636  1
  Bi  Bi4  1  0.750000  0.816749  0.038906  1
  Bi  Bi5  1  0.250000  0.189370  0.961283  1
  Bi  Bi6  1  0.750000  0.525102  0.408862  1
  Bi  Bi7  1  0.250000  0.469569  0.594600  1
  Bi  Bi8  1  0.250000  0.829348  0.225339  1
  Bi  Bi9  1  0.750000  0.165042  0.775542  1
  Bi  Bi10  1  0.250000  0.203854  0.276535  1
  Sb  Sb11  1  0.750000  0.796116  0.724772  1
  S  S12  1  0.750000  0.388773  0.965327  1
  S  S13  1  0.250000  0.619139  0.028700  1
  S  S14  1  0.250000  0.718194  0.370542  1
  S  S15  1  0.750000  0.276026  0.632162  1
  S  S16  1  0.250000  0.999283  0.732103  1
  S  S17  1  0.750000  0.995739  0.268989  1
  S  S18  1  0.250000  0.373353  0.471441  1
  S  S19  1  0.750000  0.620829  0.532991  1
  S  S20  1  0.750000  0.362851  0.285088  1
  S  S21  1  0.250000  0.645822  0.716281  1
  S  S22  1  0.250000  0.268229  0.124784  1
  S  S23  1  0.750000  0.738232  0.868711  1
  S  S24  1  0.750000  0.046176  0.923061  1
  S  S25  1  0.250000  0.956446  0.080745  1
  S  S26  1  0.750000  0.930145  0.575019  1
  S  S27  1  0.250000  0.066948  0.423986  1
  S  S28  1  0.250000  0.309232  0.821020  1
  S  S29  1  0.750000  0.689148  0.177444  1
