# generated using pymatgen
data_Tb5Ge3P9Ir19
_symmetry_space_group_name_H-M   'P 1'
_cell_length_a   12.90730200
_cell_length_b   12.79051235
_cell_length_c   3.98814900
_cell_angle_alpha   90.00000000
_cell_angle_beta   90.00000000
_cell_angle_gamma   119.92844797
_symmetry_Int_Tables_number   1
_chemical_formula_structural   Tb5Ge3P9Ir19
_chemical_formula_sum   'Tb5 Ge3 P9 Ir19'
_cell_volume   570.60831707
_cell_formula_units_Z   1
loop_
 _symmetry_equiv_pos_site_id
 _symmetry_equiv_pos_as_xyz
  1  'x, y, z'
loop_
 _atom_site_type_symbol
 _atom_site_label
 _atom_site_symmetry_multiplicity
 _atom_site_fract_x
 _atom_site_fract_y
 _atom_site_fract_z
 _atom_site_occupancy
  Tb  Tb0  1  0.662926  0.334054  0.000000  1
  Tb  Tb1  1  0.334260  0.665957  0.000000  1
  Tb  Tb2  1  0.821018  0.818529  0.500000  1
  Tb  Tb3  1  0.179747  0.999821  0.500000  1
  Tb  Tb4  1  0.999307  0.185262  0.500000  1
  Ge  Ge5  1  0.677253  0.163148  0.500000  1
  Ge  Ge6  1  0.642907  0.643586  0.000000  1
  Ge  Ge7  1  0.356827  0.997392  0.000000  1
  P  P8  1  0.833411  0.516978  0.500000  1
  P  P9  1  0.479129  0.322767  0.500000  1
  P  P10  1  0.180845  0.694587  0.500000  1
  P  P11  1  0.518345  0.823498  0.500000  1
  P  P12  1  0.305156  0.482957  0.500000  1
  P  P13  1  0.998961  0.358073  0.000000  1
  P  P14  1  0.172651  0.181219  0.000000  1
  P  P15  1  0.822379  0.998955  0.000000  1
  P  P16  1  0.003134  0.819805  0.000000  1
  Ir  Ir17  1  0.815843  0.180889  0.000000  1
  Ir  Ir18  1  0.828261  0.623841  0.000000  1
  Ir  Ir19  1  0.359123  0.191456  0.000000  1
  Ir  Ir20  1  0.175662  0.790127  0.000000  1
  Ir  Ir21  1  0.616410  0.825082  0.000000  1
  Ir  Ir22  1  0.190907  0.378774  0.000000  1
  Ir  Ir23  1  0.467674  0.439877  0.000000  1
  Ir  Ir24  1  0.557104  0.020215  0.000000  1
  Ir  Ir25  1  0.995068  0.534879  0.000000  1
  Ir  Ir26  1  0.282362  0.288788  0.500000  1
  Ir  Ir27  1  0.723524  0.996585  0.500000  1
  Ir  Ir28  1  0.002387  0.716128  0.500000  1
  Ir  Ir29  1  0.868590  0.359988  0.500000  1
  Ir  Ir30  1  0.649158  0.510615  0.500000  1
  Ir  Ir31  1  0.478620  0.140799  0.500000  1
  Ir  Ir32  1  0.370490  0.872044  0.500000  1
  Ir  Ir33  1  0.502259  0.629923  0.500000  1
  Ir  Ir34  1  0.128582  0.496100  0.500000  1
  Ir  Ir35  1  0.999715  0.997304  0.000000  1
