# generated using pymatgen
data_Tb15Dy(ZnRh)4
_symmetry_space_group_name_H-M   'P 1'
_cell_length_a   9.53578683
_cell_length_b   9.53578623
_cell_length_c   9.54332600
_cell_angle_alpha   59.97383407
_cell_angle_beta   59.97383617
_cell_angle_gamma   59.92531872
_symmetry_Int_Tables_number   1
_chemical_formula_structural   Tb15Dy(ZnRh)4
_chemical_formula_sum   'Tb15 Dy1 Zn4 Rh4'
_cell_volume   613.02813969
_cell_formula_units_Z   1
loop_
 _symmetry_equiv_pos_site_id
 _symmetry_equiv_pos_as_xyz
  1  'x, y, z'
loop_
 _atom_site_type_symbol
 _atom_site_label
 _atom_site_symmetry_multiplicity
 _atom_site_fract_x
 _atom_site_fract_y
 _atom_site_fract_z
 _atom_site_occupancy
  Tb  Tb0  1  0.935945  0.935945  0.564055  1
  Tb  Tb1  1  0.563785  0.563785  0.936215  1
  Tb  Tb2  1  0.691585  0.691585  0.308415  1
  Tb  Tb3  1  0.145477  0.561651  0.146435  1
  Tb  Tb4  1  0.691683  0.308833  0.691365  1
  Tb  Tb5  1  0.146355  0.146355  0.147012  1
  Tb  Tb6  1  0.561651  0.145477  0.146435  1
  Tb  Tb7  1  0.691683  0.308833  0.308119  1
  Tb  Tb8  1  0.146355  0.146355  0.560276  1
  Tb  Tb9  1  0.308833  0.691683  0.308119  1
  Tb  Tb10  1  0.308833  0.691683  0.691365  1
  Tb  Tb11  1  0.936665  0.563452  0.564234  1
  Tb  Tb12  1  0.936665  0.563452  0.935649  1
  Tb  Tb13  1  0.563452  0.936665  0.564234  1
  Tb  Tb14  1  0.563452  0.936665  0.935649  1
  Dy  Dy15  1  0.308384  0.308384  0.691616  1
  Zn  Zn16  1  0.920389  0.920389  0.239145  1
  Zn  Zn17  1  0.239566  0.920411  0.920012  1
  Zn  Zn18  1  0.920389  0.920389  0.920077  1
  Zn  Zn19  1  0.920411  0.239566  0.920012  1
  Rh  Rh20  1  0.356370  0.356370  0.929220  1
  Rh  Rh21  1  0.355962  0.929739  0.357149  1
  Rh  Rh22  1  0.929739  0.355962  0.357149  1
  Rh  Rh23  1  0.356370  0.356370  0.358040  1
