# generated using pymatgen
data_Tb2ThIr8Pt
_symmetry_space_group_name_H-M   'P 1'
_cell_length_a   9.31939931
_cell_length_b   9.31940061
_cell_length_c   9.31940100
_cell_angle_alpha   33.39058032
_cell_angle_beta   33.39056819
_cell_angle_gamma   33.39057601
_symmetry_Int_Tables_number   1
_chemical_formula_structural   Tb2ThIr8Pt
_chemical_formula_sum   'Tb2 Th1 Ir8 Pt1'
_cell_volume   218.30091040
_cell_formula_units_Z   1
loop_
 _symmetry_equiv_pos_site_id
 _symmetry_equiv_pos_as_xyz
  1  'x, y, z'
loop_
 _atom_site_type_symbol
 _atom_site_label
 _atom_site_symmetry_multiplicity
 _atom_site_fract_x
 _atom_site_fract_y
 _atom_site_fract_z
 _atom_site_occupancy
  Tb  Tb0  1  0.860364  0.860364  0.860364  1
  Tb  Tb1  1  0.139636  0.139636  0.139636  1
  Th  Th2  1  0.000000  0.000000  0.000000  1
  Ir  Ir3  1  0.417433  0.919149  0.417433  1
  Ir  Ir4  1  0.417433  0.417433  0.919149  1
  Ir  Ir5  1  0.919149  0.417433  0.417433  1
  Ir  Ir6  1  0.582567  0.080851  0.582567  1
  Ir  Ir7  1  0.582567  0.582567  0.080851  1
  Ir  Ir8  1  0.080851  0.582567  0.582567  1
  Ir  Ir9  1  0.666998  0.666998  0.666998  1
  Ir  Ir10  1  0.333002  0.333002  0.333002  1
  Pt  Pt11  1  0.500000  0.500000  0.500000  1
