# generated using pymatgen
data_Y2NpTc3
_symmetry_space_group_name_H-M   'P 1'
_cell_length_a   5.80840300
_cell_length_b   5.80840277
_cell_length_c   8.14519400
_cell_angle_alpha   90.00000000
_cell_angle_beta   90.00000000
_cell_angle_gamma   120.00000700
_symmetry_Int_Tables_number   1
_chemical_formula_structural   Y2NpTc3
_chemical_formula_sum   'Y4 Np2 Tc6'
_cell_volume   237.98276097
_cell_formula_units_Z   2
loop_
 _symmetry_equiv_pos_site_id
 _symmetry_equiv_pos_as_xyz
  1  'x, y, z'
loop_
 _atom_site_type_symbol
 _atom_site_label
 _atom_site_symmetry_multiplicity
 _atom_site_fract_x
 _atom_site_fract_y
 _atom_site_fract_z
 _atom_site_occupancy
  Y  Y0  1  0.333333  0.666667  0.443081  1
  Y  Y1  1  0.666667  0.333333  0.556919  1
  Y  Y2  1  0.666667  0.333333  0.943081  1
  Y  Y3  1  0.333333  0.666667  0.056919  1
  Np  Np4  1  0.000000  0.000000  0.500000  1
  Np  Np5  1  0.000000  0.000000  0.000000  1
  Tc  Tc6  1  0.838427  0.161573  0.250000  1
  Tc  Tc7  1  0.838427  0.676853  0.250000  1
  Tc  Tc8  1  0.323147  0.161573  0.250000  1
  Tc  Tc9  1  0.161573  0.838427  0.750000  1
  Tc  Tc10  1  0.161573  0.323147  0.750000  1
  Tc  Tc11  1  0.676853  0.838427  0.750000  1
