# generated using pymatgen
data_Er2TmLu3ReBi2
_symmetry_space_group_name_H-M   'P 1'
_cell_length_a   8.13811900
_cell_length_b   8.13769978
_cell_length_c   4.30570700
_cell_angle_alpha   90.00000000
_cell_angle_beta   90.00000000
_cell_angle_gamma   120.00170009
_symmetry_Int_Tables_number   1
_chemical_formula_structural   Er2TmLu3ReBi2
_chemical_formula_sum   'Er2 Tm1 Lu3 Re1 Bi2'
_cell_volume   246.94109182
_cell_formula_units_Z   1
loop_
 _symmetry_equiv_pos_site_id
 _symmetry_equiv_pos_as_xyz
  1  'x, y, z'
loop_
 _atom_site_type_symbol
 _atom_site_label
 _atom_site_symmetry_multiplicity
 _atom_site_fract_x
 _atom_site_fract_y
 _atom_site_fract_z
 _atom_site_occupancy
  Er  Er0  1  0.000244  0.615111  0.000000  1
  Er  Er1  1  0.385134  0.384889  0.000000  1
  Tm  Tm2  1  0.617508  0.000000  0.000000  1
  Lu  Lu3  1  0.229375  0.000000  0.500000  1
  Lu  Lu4  1  0.999744  0.230638  0.500000  1
  Lu  Lu5  1  0.769106  0.769362  0.500000  1
  Re  Re6  1  0.998722  0.000000  0.000000  1
  Bi  Bi7  1  0.333875  0.667583  0.500000  1
  Bi  Bi8  1  0.666294  0.332417  0.500000  1
