# generated using pymatgen
data_Tm4LuPPb3
_symmetry_space_group_name_H-M   'P 1'
_cell_length_a   9.01450300
_cell_length_b   9.01450310
_cell_length_c   6.69864600
_cell_angle_alpha   90.00000000
_cell_angle_beta   90.00000000
_cell_angle_gamma   119.99999598
_symmetry_Int_Tables_number   1
_chemical_formula_structural   Tm4LuPPb3
_chemical_formula_sum   'Tm8 Lu2 P2 Pb6'
_cell_volume   471.41267633
_cell_formula_units_Z   2
loop_
 _symmetry_equiv_pos_site_id
 _symmetry_equiv_pos_as_xyz
  1  'x, y, z'
loop_
 _atom_site_type_symbol
 _atom_site_label
 _atom_site_symmetry_multiplicity
 _atom_site_fract_x
 _atom_site_fract_y
 _atom_site_fract_z
 _atom_site_occupancy
  Tm  Tm0  1  0.238170  0.000000  0.249940  1
  Tm  Tm1  1  0.761830  0.000000  0.750060  1
  Tm  Tm2  1  0.000000  0.238170  0.249940  1
  Tm  Tm3  1  0.333333  0.666667  0.500000  1
  Tm  Tm4  1  0.666667  0.333333  0.500000  1
  Tm  Tm5  1  0.000000  0.761830  0.750060  1
  Tm  Tm6  1  0.238170  0.238170  0.750060  1
  Tm  Tm7  1  0.761830  0.761830  0.249940  1
  Lu  Lu8  1  0.666667  0.333333  0.000000  1
  Lu  Lu9  1  0.333333  0.666667  0.000000  1
  P  P10  1  0.000000  0.000000  0.000000  1
  P  P11  1  0.000000  0.000000  0.500000  1
  Pb  Pb12  1  0.400276  0.000000  0.750127  1
  Pb  Pb13  1  0.000000  0.400276  0.750127  1
  Pb  Pb14  1  0.400276  0.400276  0.249873  1
  Pb  Pb15  1  0.599724  0.000000  0.249873  1
  Pb  Pb16  1  0.000000  0.599724  0.249873  1
  Pb  Pb17  1  0.599724  0.599724  0.750127  1
