# generated using pymatgen
data_Rb8Ni3PtO8
_symmetry_space_group_name_H-M   'P 1'
_cell_length_a   7.35952853
_cell_length_b   9.44539773
_cell_length_c   8.45095401
_cell_angle_alpha   63.42638171
_cell_angle_beta   73.32066633
_cell_angle_gamma   97.36573194
_symmetry_Int_Tables_number   1
_chemical_formula_structural   Rb8Ni3PtO8
_chemical_formula_sum   'Rb8 Ni3 Pt1 O8'
_cell_volume   480.18828145
_cell_formula_units_Z   1
loop_
 _symmetry_equiv_pos_site_id
 _symmetry_equiv_pos_as_xyz
  1  'x, y, z'
loop_
 _atom_site_type_symbol
 _atom_site_label
 _atom_site_symmetry_multiplicity
 _atom_site_fract_x
 _atom_site_fract_y
 _atom_site_fract_z
 _atom_site_occupancy
  Rb  Rb0  1  0.687916  0.674577  0.494041  1
  Rb  Rb1  1  0.702193  0.678232  0.981926  1
  Rb  Rb2  1  0.688676  0.169809  0.239588  1
  Rb  Rb3  1  0.688044  0.169163  0.746735  1
  Rb  Rb4  1  0.297807  0.321768  0.518074  1
  Rb  Rb5  1  0.312084  0.325423  0.005959  1
  Rb  Rb6  1  0.311324  0.830191  0.260412  1
  Rb  Rb7  1  0.311956  0.830837  0.753265  1
  Ni  Ni8  1  0.000016  0.001510  0.498614  1
  Ni  Ni9  1  0.000000  0.500000  0.750000  1
  Ni  Ni10  1  0.999984  0.998490  0.001386  1
  Pt  Pt11  1  0.000000  0.500000  0.250000  1
  O  O12  1  0.722437  0.430538  0.354121  1
  O  O13  1  0.743409  0.435688  0.846234  1
  O  O14  1  0.743771  0.936827  0.095536  1
  O  O15  1  0.743761  0.935561  0.596256  1
  O  O16  1  0.256591  0.564312  0.653766  1
  O  O17  1  0.277563  0.569462  0.145879  1
  O  O18  1  0.256229  0.063173  0.404464  1
  O  O19  1  0.256239  0.064439  0.903744  1
