# generated using pymatgen
data_Ho12Tl7In
_symmetry_space_group_name_H-M   'P 1'
_cell_length_a   11.57090316
_cell_length_b   11.57090284
_cell_length_c   11.57090314
_cell_angle_alpha   95.74176277
_cell_angle_beta   116.74224017
_cell_angle_gamma   116.74223703
_symmetry_Int_Tables_number   1
_chemical_formula_structural   Ho12Tl7In
_chemical_formula_sum   'Ho24 Tl14 In2'
_cell_volume   1143.16161304
_cell_formula_units_Z   2
loop_
 _symmetry_equiv_pos_site_id
 _symmetry_equiv_pos_as_xyz
  1  'x, y, z'
loop_
 _atom_site_type_symbol
 _atom_site_label
 _atom_site_symmetry_multiplicity
 _atom_site_fract_x
 _atom_site_fract_y
 _atom_site_fract_z
 _atom_site_occupancy
  Ho  Ho0  1  0.136647  0.839818  0.568765  1
  Ho  Ho1  1  0.136647  0.567884  0.296829  1
  Ho  Ho2  1  0.863353  0.160182  0.431235  1
  Ho  Ho3  1  0.728947  0.932116  0.068765  1
  Ho  Ho4  1  0.728947  0.296829  0.160182  1
  Ho  Ho5  1  0.271053  0.431235  0.567884  1
  Ho  Ho6  1  0.728947  0.660182  0.796830  1
  Ho  Ho7  1  0.136647  0.796830  0.067884  1
  Ho  Ho8  1  0.863353  0.931235  0.660182  1
  Ho  Ho9  1  0.863353  0.432116  0.703170  1
  Ho  Ho10  1  0.839637  0.669819  0.169819  1
  Ho  Ho11  1  0.271053  0.067884  0.931235  1
  Ho  Ho12  1  0.271053  0.703170  0.839818  1
  Ho  Ho13  1  0.728947  0.568765  0.432116  1
  Ho  Ho14  1  0.500000  0.645246  0.145246  1
  Ho  Ho15  1  0.500000  0.145246  0.645246  1
  Ho  Ho16  1  0.500000  0.854754  0.354754  1
  Ho  Ho17  1  0.500000  0.354754  0.854754  1
  Ho  Ho18  1  0.500000  0.169819  0.330181  1
  Ho  Ho19  1  0.863353  0.203170  0.932116  1
  Ho  Ho20  1  0.500000  0.830181  0.669819  1
  Ho  Ho21  1  0.160363  0.330181  0.830181  1
  Ho  Ho22  1  0.271053  0.339818  0.203170  1
  Ho  Ho23  1  0.136647  0.068765  0.339818  1
  Tl  Tl24  1  0.500000  0.027924  0.871313  1
  Tl  Tl25  1  0.500000  0.972076  0.128687  1
  Tl  Tl26  1  0.500000  0.628687  0.472076  1
  Tl  Tl27  1  0.156611  0.527924  0.027924  1
  Tl  Tl28  1  0.156611  0.128687  0.628687  1
  Tl  Tl29  1  0.843389  0.472076  0.972076  1
  Tl  Tl30  1  0.741064  0.120532  0.620532  1
  Tl  Tl31  1  0.500000  0.620532  0.879468  1
  Tl  Tl32  1  0.500000  0.379468  0.120532  1
  Tl  Tl33  1  0.258936  0.879468  0.379468  1
  Tl  Tl34  1  0.000000  0.250000  0.250000  1
  Tl  Tl35  1  0.000000  0.750000  0.750000  1
  Tl  Tl36  1  0.500000  0.371313  0.527924  1
  Tl  Tl37  1  0.843389  0.871313  0.371313  1
  In  In38  1  0.000000  0.500000  0.500000  1
  In  In39  1  0.000000  0.000000  0.000000  1
