# generated using pymatgen
data_AcCoP2Os
_symmetry_space_group_name_H-M   'P 1'
_cell_length_a   6.57755515
_cell_length_b   6.57755500
_cell_length_c   6.57755484
_cell_angle_alpha   145.55278902
_cell_angle_beta   145.55278872
_cell_angle_gamma   49.51150098
_symmetry_Int_Tables_number   1
_chemical_formula_structural   AcCoP2Os
_chemical_formula_sum   'Ac1 Co1 P2 Os1'
_cell_volume   90.62941458
_cell_formula_units_Z   1
loop_
 _symmetry_equiv_pos_site_id
 _symmetry_equiv_pos_as_xyz
  1  'x, y, z'
loop_
 _atom_site_type_symbol
 _atom_site_label
 _atom_site_symmetry_multiplicity
 _atom_site_fract_x
 _atom_site_fract_y
 _atom_site_fract_z
 _atom_site_occupancy
  Ac  Ac0  1  0.000000  0.000000  0.000000  1
  Co  Co1  1  0.250000  0.750000  0.500000  1
  P  P2  1  0.647597  0.647597  0.000000  1
  P  P3  1  0.352403  0.352403  0.000000  1
  Os  Os4  1  0.750000  0.250000  0.500000  1
