# generated using pymatgen
data_Y5BeP11Ir19
_symmetry_space_group_name_H-M   'P 1'
_cell_length_a   12.71330913
_cell_length_b   12.67500071
_cell_length_c   3.97244700
_cell_angle_alpha   90.00000000
_cell_angle_beta   90.00000000
_cell_angle_gamma   120.18140501
_symmetry_Int_Tables_number   1
_chemical_formula_structural   Y5BeP11Ir19
_chemical_formula_sum   'Y5 Be1 P11 Ir19'
_cell_volume   553.34828128
_cell_formula_units_Z   1
loop_
 _symmetry_equiv_pos_site_id
 _symmetry_equiv_pos_as_xyz
  1  'x, y, z'
loop_
 _atom_site_type_symbol
 _atom_site_label
 _atom_site_symmetry_multiplicity
 _atom_site_fract_x
 _atom_site_fract_y
 _atom_site_fract_z
 _atom_site_occupancy
  Y  Y0  1  0.344522  0.667338  0.500000  1
  Y  Y1  1  0.666940  0.333532  0.500000  1
  Y  Y2  1  0.998533  0.816261  0.000000  1
  Y  Y3  1  0.183355  0.184225  0.000000  1
  Y  Y4  1  0.810499  0.994650  0.000000  1
  Be  Be5  1  0.520230  0.685301  0.000000  1
  P  P6  1  0.001173  0.643614  0.500000  1
  P  P7  1  0.360446  0.364033  0.500000  1
  P  P8  1  0.638635  0.994677  0.500000  1
  P  P9  1  0.315505  0.828204  0.000000  1
  P  P10  1  0.174092  0.484331  0.000000  1
  P  P11  1  0.482615  0.174187  0.000000  1
  P  P12  1  0.689673  0.517392  0.000000  1
  P  P13  1  0.828409  0.311084  0.000000  1
  P  P14  1  0.996625  0.176570  0.500000  1
  P  P15  1  0.818539  0.818296  0.500000  1
  P  P16  1  0.178354  0.999352  0.500000  1
  Ir  Ir17  1  0.510465  0.869895  0.000000  1
  Ir  Ir18  1  0.133122  0.638971  0.000000  1
  Ir  Ir19  1  0.356108  0.484466  0.000000  1
  Ir  Ir20  1  0.492642  0.364634  0.000000  1
  Ir  Ir21  1  0.869496  0.507193  0.000000  1
  Ir  Ir22  1  0.637750  0.134092  0.000000  1
  Ir  Ir23  1  0.000663  0.462743  0.500000  1
  Ir  Ir24  1  0.536133  0.552671  0.500000  1
  Ir  Ir25  1  0.461456  0.001150  0.500000  1
  Ir  Ir26  1  0.998974  0.284482  0.000000  1
  Ir  Ir27  1  0.713507  0.712115  0.000000  1
  Ir  Ir28  1  0.285616  0.999752  0.000000  1
  Ir  Ir29  1  0.625670  0.804736  0.500000  1
  Ir  Ir30  1  0.196857  0.819092  0.500000  1
  Ir  Ir31  1  0.176880  0.374967  0.500000  1
  Ir  Ir32  1  0.375185  0.182046  0.500000  1
  Ir  Ir33  1  0.805249  0.621901  0.500000  1
  Ir  Ir34  1  0.816485  0.192680  0.500000  1
  Ir  Ir35  1  0.999597  0.999367  0.500000  1
