# generated using pymatgen
data_TmLu3ReB12Ir
_symmetry_space_group_name_H-M   'P 1'
_cell_length_a   3.61352200
_cell_length_b   9.04611393
_cell_length_c   11.42478400
_cell_angle_alpha   90.29046798
_cell_angle_beta   90.00000000
_cell_angle_gamma   90.00000000
_symmetry_Int_Tables_number   1
_chemical_formula_structural   TmLu3ReB12Ir
_chemical_formula_sum   'Tm2 Lu6 Re2 B24 Ir2'
_cell_volume   373.45232978
_cell_formula_units_Z   2
loop_
 _symmetry_equiv_pos_site_id
 _symmetry_equiv_pos_as_xyz
  1  'x, y, z'
loop_
 _atom_site_type_symbol
 _atom_site_label
 _atom_site_symmetry_multiplicity
 _atom_site_fract_x
 _atom_site_fract_y
 _atom_site_fract_z
 _atom_site_occupancy
  Tm  Tm0  1  0.000000  0.315859  0.409919  1
  Tm  Tm1  1  0.000000  0.684141  0.590081  1
  Lu  Lu2  1  0.000000  0.825957  0.081798  1
  Lu  Lu3  1  0.000000  0.174043  0.918202  1
  Lu  Lu4  1  0.000000  0.946499  0.372440  1
  Lu  Lu5  1  0.000000  0.053501  0.627560  1
  Lu  Lu6  1  0.000000  0.441998  0.125616  1
  Lu  Lu7  1  0.000000  0.558002  0.874384  1
  Re  Re8  1  0.000000  0.138506  0.179983  1
  Re  Re9  1  0.000000  0.861494  0.820017  1
  B  B10  1  0.500000  0.554238  0.434578  1
  B  B11  1  0.500000  0.445762  0.565422  1
  B  B12  1  0.500000  0.053188  0.066503  1
  B  B13  1  0.500000  0.946812  0.933497  1
  B  B14  1  0.500000  0.750760  0.421528  1
  B  B15  1  0.500000  0.249240  0.578472  1
  B  B16  1  0.500000  0.249249  0.079884  1
  B  B17  1  0.500000  0.750751  0.920116  1
  B  B18  1  0.500000  0.792165  0.265271  1
  B  B19  1  0.500000  0.207835  0.734729  1
  B  B20  1  0.500000  0.293577  0.234796  1
  B  B21  1  0.500000  0.706423  0.765204  1
  B  B22  1  0.500000  0.631566  0.183048  1
  B  B23  1  0.500000  0.368434  0.816952  1
  B  B24  1  0.500000  0.131192  0.315603  1
  B  B25  1  0.500000  0.868808  0.684397  1
  B  B26  1  0.500000  0.981536  0.213113  1
  B  B27  1  0.500000  0.018464  0.786887  1
  B  B28  1  0.500000  0.481802  0.287151  1
  B  B29  1  0.500000  0.518198  0.712849  1
  B  B30  1  0.500000  0.605075  0.029411  1
  B  B31  1  0.500000  0.394925  0.970589  1
  B  B32  1  0.500000  0.105258  0.471544  1
  B  B33  1  0.500000  0.894742  0.528456  1
  Ir  Ir34  1  0.000000  0.637358  0.321792  1
  Ir  Ir35  1  0.000000  0.362642  0.678208  1
