# generated using pymatgen
data_Cs6InBiSb2
_symmetry_space_group_name_H-M   'P 1'
_cell_length_a   6.63649900
_cell_length_b   11.45257620
_cell_length_c   13.61767870
_cell_angle_alpha   78.77236330
_cell_angle_beta   90.00000000
_cell_angle_gamma   90.00000000
_symmetry_Int_Tables_number   1
_chemical_formula_structural   Cs6InBiSb2
_chemical_formula_sum   'Cs12 In2 Bi2 Sb4'
_cell_volume   1015.20308536
_cell_formula_units_Z   2
loop_
 _symmetry_equiv_pos_site_id
 _symmetry_equiv_pos_as_xyz
  1  'x, y, z'
loop_
 _atom_site_type_symbol
 _atom_site_label
 _atom_site_symmetry_multiplicity
 _atom_site_fract_x
 _atom_site_fract_y
 _atom_site_fract_z
 _atom_site_occupancy
  Cs  Cs0  1  0.750000  0.455776  0.081213  1
  Cs  Cs1  1  0.250000  0.544224  0.918787  1
  Cs  Cs2  1  0.750000  0.737125  0.235323  1
  Cs  Cs3  1  0.250000  0.262875  0.764677  1
  Cs  Cs4  1  0.250000  0.569284  0.531409  1
  Cs  Cs5  1  0.750000  0.430716  0.468591  1
  Cs  Cs6  1  0.250000  0.863687  0.024257  1
  Cs  Cs7  1  0.750000  0.136313  0.975743  1
  Cs  Cs8  1  0.250000  0.877899  0.675838  1
  Cs  Cs9  1  0.750000  0.122101  0.324162  1
  Cs  Cs10  1  0.250000  0.920664  0.372183  1
  Cs  Cs11  1  0.750000  0.079336  0.627817  1
  In  In12  1  0.250000  0.325633  0.284883  1
  In  In13  1  0.750000  0.674367  0.715117  1
  Bi  Bi14  1  0.250000  0.178040  0.127338  1
  Bi  Bi15  1  0.750000  0.821960  0.872662  1
  Sb  Sb16  1  0.250000  0.212444  0.490291  1
  Sb  Sb17  1  0.750000  0.787556  0.509709  1
  Sb  Sb18  1  0.250000  0.575100  0.226912  1
  Sb  Sb19  1  0.750000  0.424900  0.773088  1
