# generated using pymatgen
data_NbOs3(PbO4)4
_symmetry_space_group_name_H-M   'P 1'
_cell_length_a   5.11632887
_cell_length_b   5.57902475
_cell_length_c   13.80738450
_cell_angle_alpha   70.17094904
_cell_angle_beta   90.34195360
_cell_angle_gamma   90.90626081
_symmetry_Int_Tables_number   1
_chemical_formula_structural   NbOs3(PbO4)4
_chemical_formula_sum   'Nb1 Os3 Pb4 O16'
_cell_volume   370.70546855
_cell_formula_units_Z   1
loop_
 _symmetry_equiv_pos_site_id
 _symmetry_equiv_pos_as_xyz
  1  'x, y, z'
loop_
 _atom_site_type_symbol
 _atom_site_label
 _atom_site_symmetry_multiplicity
 _atom_site_fract_x
 _atom_site_fract_y
 _atom_site_fract_z
 _atom_site_occupancy
  Nb  Nb0  1  0.246518  0.601948  0.418341  1
  Os  Os1  1  0.750467  0.413882  0.072188  1
  Os  Os2  1  0.747207  0.411458  0.575533  1
  Os  Os3  1  0.250106  0.584918  0.925565  1
  Pb  Pb4  1  0.720044  0.154275  0.346568  1
  Pb  Pb5  1  0.222931  0.841162  0.161137  1
  Pb  Pb6  1  0.283285  0.839180  0.658473  1
  Pb  Pb7  1  0.780897  0.154770  0.839162  1
  O  O8  1  0.551821  0.728768  0.478729  1
  O  O9  1  0.045285  0.278922  0.025651  1
  O  O10  1  0.462945  0.258567  0.534482  1
  O  O11  1  0.956316  0.723445  0.970323  1
  O  O12  1  0.938752  0.358627  0.452505  1
  O  O13  1  0.450383  0.625298  0.049981  1
  O  O14  1  0.038564  0.631210  0.557773  1
  O  O15  1  0.553963  0.378155  0.946653  1
  O  O16  1  0.116646  0.912151  0.331982  1
  O  O17  1  0.633468  0.102724  0.159118  1
  O  O18  1  0.878582  0.109706  0.666269  1
  O  O19  1  0.372420  0.896558  0.834915  1
  O  O20  1  0.386717  0.507491  0.311654  1
  O  O21  1  0.877267  0.498017  0.181315  1
  O  O22  1  0.614525  0.485778  0.686798  1
  O  O23  1  0.120892  0.502989  0.814882  1
