# generated using pymatgen
data_BaThPdSe3
_symmetry_space_group_name_H-M   'P 1'
_cell_length_a   7.51039312
_cell_length_b   7.51039410
_cell_length_c   10.72549600
_cell_angle_alpha   90.00000000
_cell_angle_beta   90.00000000
_cell_angle_gamma   147.00422920
_symmetry_Int_Tables_number   1
_chemical_formula_structural   BaThPdSe3
_chemical_formula_sum   'Ba2 Th2 Pd2 Se6'
_cell_volume   329.45960969
_cell_formula_units_Z   2
loop_
 _symmetry_equiv_pos_site_id
 _symmetry_equiv_pos_as_xyz
  1  'x, y, z'
loop_
 _atom_site_type_symbol
 _atom_site_label
 _atom_site_symmetry_multiplicity
 _atom_site_fract_x
 _atom_site_fract_y
 _atom_site_fract_z
 _atom_site_occupancy
  Ba  Ba0  1  0.750061  0.249941  0.250000  1
  Ba  Ba1  1  0.249941  0.750061  0.750000  1
  Th  Th2  1  0.500001  0.500001  0.000000  1
  Th  Th3  1  0.500001  0.500001  0.500000  1
  Pd  Pd4  1  0.027586  0.972416  0.250000  1
  Pd  Pd5  1  0.972416  0.027586  0.750000  1
  Se  Se6  1  0.137423  0.862578  0.056625  1
  Se  Se7  1  0.420222  0.579780  0.250000  1
  Se  Se8  1  0.137423  0.862578  0.443375  1
  Se  Se9  1  0.862578  0.137423  0.556624  1
  Se  Se10  1  0.579780  0.420222  0.750000  1
  Se  Se11  1  0.862578  0.137423  0.943376  1
