# generated using pymatgen
data_Sc17Si16Tc2Mo
_symmetry_space_group_name_H-M   'P 1'
_cell_length_a   6.75213504
_cell_length_b   7.08030671
_cell_length_c   13.37766200
_cell_angle_alpha   90.00000000
_cell_angle_beta   90.00000000
_cell_angle_gamma   89.75185833
_symmetry_Int_Tables_number   1
_chemical_formula_structural   Sc17Si16Tc2Mo
_chemical_formula_sum   'Sc17 Si16 Tc2 Mo1'
_cell_volume   639.54239157
_cell_formula_units_Z   1
loop_
 _symmetry_equiv_pos_site_id
 _symmetry_equiv_pos_as_xyz
  1  'x, y, z'
loop_
 _atom_site_type_symbol
 _atom_site_label
 _atom_site_symmetry_multiplicity
 _atom_site_fract_x
 _atom_site_fract_y
 _atom_site_fract_z
 _atom_site_occupancy
  Sc  Sc0  1  0.350071  0.493163  0.250000  1
  Sc  Sc1  1  0.991527  0.680285  0.594893  1
  Sc  Sc2  1  0.010692  0.317323  0.406133  1
  Sc  Sc3  1  0.512712  0.179631  0.408252  1
  Sc  Sc4  1  0.010692  0.317323  0.093867  1
  Sc  Sc5  1  0.487998  0.819794  0.597655  1
  Sc  Sc6  1  0.991527  0.680285  0.905107  1
  Sc  Sc7  1  0.487998  0.819794  0.902345  1
  Sc  Sc8  1  0.512712  0.179631  0.091748  1
  Sc  Sc9  1  0.325914  0.325550  0.628875  1
  Sc  Sc10  1  0.675691  0.674337  0.377094  1
  Sc  Sc11  1  0.175902  0.833169  0.373611  1
  Sc  Sc12  1  0.675691  0.674337  0.122906  1
  Sc  Sc13  1  0.822431  0.169457  0.626404  1
  Sc  Sc14  1  0.325914  0.325550  0.871125  1
  Sc  Sc15  1  0.822431  0.169457  0.873596  1
  Sc  Sc16  1  0.175902  0.833169  0.126389  1
  Si  Si17  1  0.013655  0.404329  0.750000  1
  Si  Si18  1  0.973315  0.609846  0.250000  1
  Si  Si19  1  0.489219  0.909466  0.250000  1
  Si  Si20  1  0.518058  0.089837  0.750000  1
  Si  Si21  1  0.285048  0.643116  0.750000  1
  Si  Si22  1  0.722975  0.348094  0.250000  1
  Si  Si23  1  0.210283  0.141278  0.250000  1
  Si  Si24  1  0.785412  0.849878  0.750000  1
  Si  Si25  1  0.160640  0.027939  0.545944  1
  Si  Si26  1  0.841198  0.971945  0.454955  1
  Si  Si27  1  0.335757  0.534869  0.464630  1
  Si  Si28  1  0.841198  0.971945  0.045045  1
  Si  Si29  1  0.658367  0.473026  0.549203  1
  Si  Si30  1  0.160640  0.027939  0.954056  1
  Si  Si31  1  0.658367  0.473026  0.950797  1
  Si  Si32  1  0.335757  0.534869  0.035370  1
  Tc  Tc33  1  0.853647  0.001505  0.250000  1
  Tc  Tc34  1  0.650263  0.501728  0.750000  1
  Mo  Mo35  1  0.150398  0.993106  0.750000  1
