# generated using pymatgen
data_Tb11Nd4Th(CdNi)4
_symmetry_space_group_name_H-M   'P 1'
_cell_length_a   9.67024740
_cell_length_b   9.66530236
_cell_length_c   9.66530197
_cell_angle_alpha   60.09183676
_cell_angle_beta   59.97749570
_cell_angle_gamma   59.97749417
_symmetry_Int_Tables_number   1
_chemical_formula_structural   Tb11Nd4Th(CdNi)4
_chemical_formula_sum   'Tb11 Nd4 Th1 Cd4 Ni4'
_cell_volume   639.00750127
_cell_formula_units_Z   1
loop_
 _symmetry_equiv_pos_site_id
 _symmetry_equiv_pos_as_xyz
  1  'x, y, z'
loop_
 _atom_site_type_symbol
 _atom_site_label
 _atom_site_symmetry_multiplicity
 _atom_site_fract_x
 _atom_site_fract_y
 _atom_site_fract_z
 _atom_site_occupancy
  Tb  Tb0  1  0.597338  0.596445  0.204320  1
  Tb  Tb1  1  0.597338  0.204320  0.596445  1
  Tb  Tb2  1  0.204316  0.597282  0.597282  1
  Tb  Tb3  1  0.062589  0.439185  0.439185  1
  Tb  Tb4  1  0.439685  0.062089  0.062089  1
  Tb  Tb5  1  0.438400  0.062856  0.438987  1
  Tb  Tb6  1  0.062717  0.438608  0.062572  1
  Tb  Tb7  1  0.438400  0.438987  0.062856  1
  Tb  Tb8  1  0.062717  0.062572  0.438608  1
  Tb  Tb9  1  0.192435  0.810286  0.810286  1
  Tb  Tb10  1  0.809786  0.189235  0.189235  1
  Nd  Nd11  1  0.814186  0.189800  0.813804  1
  Nd  Nd12  1  0.185582  0.813132  0.185320  1
  Nd  Nd13  1  0.814186  0.813804  0.189800  1
  Nd  Nd14  1  0.185582  0.185320  0.813132  1
  Th  Th15  1  0.594153  0.593458  0.593458  1
  Cd  Cd16  1  0.831815  0.828981  0.828981  1
  Cd  Cd17  1  0.829451  0.832802  0.510102  1
  Cd  Cd18  1  0.829451  0.510102  0.832802  1
  Cd  Cd19  1  0.509319  0.829840  0.829840  1
  Ni  Ni20  1  0.394269  0.391279  0.391279  1
  Ni  Ni21  1  0.392573  0.396167  0.820900  1
  Ni  Ni22  1  0.392573  0.820900  0.396167  1
  Ni  Ni23  1  0.821140  0.392549  0.392549  1
