# generated using pymatgen
data_AcDy(SnIr)2
_symmetry_space_group_name_H-M   'P 1'
_cell_length_a   7.54439500
_cell_length_b   7.54429567
_cell_length_c   8.45516400
_cell_angle_alpha   89.99989814
_cell_angle_beta   90.00013470
_cell_angle_gamma   120.00013974
_symmetry_Int_Tables_number   1
_chemical_formula_structural   AcDy(SnIr)2
_chemical_formula_sum   'Ac3 Dy3 Sn6 Ir6'
_cell_volume   416.76877657
_cell_formula_units_Z   3
loop_
 _symmetry_equiv_pos_site_id
 _symmetry_equiv_pos_as_xyz
  1  'x, y, z'
loop_
 _atom_site_type_symbol
 _atom_site_label
 _atom_site_symmetry_multiplicity
 _atom_site_fract_x
 _atom_site_fract_y
 _atom_site_fract_z
 _atom_site_occupancy
  Ac  Ac0  1  0.586867  0.586806  0.750001  1
  Ac  Ac1  1  0.999940  0.413140  0.750002  1
  Ac  Ac2  1  0.413199  0.000059  0.749998  1
  Dy  Dy3  1  0.405731  0.999982  0.250000  1
  Dy  Dy4  1  0.594242  0.594263  0.250001  1
  Dy  Dy5  1  0.000019  0.405756  0.250002  1
  Sn  Sn6  1  0.251555  0.251480  0.487008  1
  Sn  Sn7  1  0.251553  0.251482  0.012985  1
  Sn  Sn8  1  0.748523  0.000079  0.012997  1
  Sn  Sn9  1  0.999925  0.748436  0.487005  1
  Sn  Sn10  1  0.748521  0.000074  0.487004  1
  Sn  Sn11  1  0.999924  0.748445  0.012994  1
  Ir  Ir12  1  0.666668  0.333332  0.479194  1
  Ir  Ir13  1  0.666666  0.333334  0.020806  1
  Ir  Ir14  1  0.333336  0.666670  0.020718  1
  Ir  Ir15  1  0.333336  0.666666  0.479286  1
  Ir  Ir16  1  0.000000  0.999997  0.750001  1
  Ir  Ir17  1  0.999995  0.999999  0.249999  1
