# generated using pymatgen
data_Y4Mn(Si2Pt)5
_symmetry_space_group_name_H-M   'P 1'
_cell_length_a   8.14754677
_cell_length_b   8.14754712
_cell_length_c   5.91254601
_cell_angle_alpha   68.83730615
_cell_angle_beta   68.83730981
_cell_angle_gamma   89.08176808
_symmetry_Int_Tables_number   1
_chemical_formula_structural   Y4Mn(Si2Pt)5
_chemical_formula_sum   'Y4 Mn1 Si10 Pt5'
_cell_volume   338.37378959
_cell_formula_units_Z   1
loop_
 _symmetry_equiv_pos_site_id
 _symmetry_equiv_pos_as_xyz
  1  'x, y, z'
loop_
 _atom_site_type_symbol
 _atom_site_label
 _atom_site_symmetry_multiplicity
 _atom_site_fract_x
 _atom_site_fract_y
 _atom_site_fract_z
 _atom_site_occupancy
  Y  Y0  1  0.860650  0.600364  0.770268  1
  Y  Y1  1  0.399636  0.139350  0.729732  1
  Y  Y2  1  0.139215  0.399438  0.229473  1
  Y  Y3  1  0.600562  0.860785  0.270527  1
  Mn  Mn4  1  0.000376  0.999624  0.750000  1
  Si  Si5  1  0.778465  0.221535  0.750000  1
  Si  Si6  1  0.226298  0.773702  0.250000  1
  Si  Si7  1  0.500842  0.499158  0.750000  1
  Si  Si8  1  0.499271  0.500729  0.250000  1
  Si  Si9  1  0.220689  0.779311  0.750000  1
  Si  Si10  1  0.774277  0.225723  0.250000  1
  Si  Si11  1  0.046556  0.253603  0.832628  1
  Si  Si12  1  0.253686  0.046346  0.365338  1
  Si  Si13  1  0.953654  0.746314  0.134662  1
  Si  Si14  1  0.746397  0.953444  0.667372  1
  Pt  Pt15  1  0.524219  0.246968  0.112806  1
  Pt  Pt16  1  0.999585  0.000415  0.250000  1
  Pt  Pt17  1  0.247035  0.524446  0.616875  1
  Pt  Pt18  1  0.475554  0.752965  0.883125  1
  Pt  Pt19  1  0.753032  0.475781  0.387194  1
