# generated using pymatgen
data_HoEr7(B6Ru)4
_symmetry_space_group_name_H-M   'P 1'
_cell_length_a   3.63295400
_cell_length_b   9.09780100
_cell_length_c   11.46941000
_cell_angle_alpha   90.00000000
_cell_angle_beta   90.00000000
_cell_angle_gamma   90.00000000
_symmetry_Int_Tables_number   1
_chemical_formula_structural   HoEr7(B6Ru)4
_chemical_formula_sum   'Ho1 Er7 B24 Ru4'
_cell_volume   379.08570675
_cell_formula_units_Z   1
loop_
 _symmetry_equiv_pos_site_id
 _symmetry_equiv_pos_as_xyz
  1  'x, y, z'
loop_
 _atom_site_type_symbol
 _atom_site_label
 _atom_site_symmetry_multiplicity
 _atom_site_fract_x
 _atom_site_fract_y
 _atom_site_fract_z
 _atom_site_occupancy
  Ho  Ho0  1  0.000000  0.322567  0.414117  1
  Er  Er1  1  0.000000  0.677554  0.585845  1
  Er  Er2  1  0.000000  0.822488  0.085795  1
  Er  Er3  1  0.000000  0.177513  0.914188  1
  Er  Er4  1  0.000000  0.944048  0.372378  1
  Er  Er5  1  0.000000  0.055828  0.627681  1
  Er  Er6  1  0.000000  0.444126  0.127535  1
  Er  Er7  1  0.000000  0.555920  0.872429  1
  B  B8  1  0.500000  0.554396  0.433397  1
  B  B9  1  0.500000  0.445899  0.566780  1
  B  B10  1  0.500000  0.054146  0.066540  1
  B  B11  1  0.500000  0.945816  0.933420  1
  B  B12  1  0.500000  0.748553  0.420056  1
  B  B13  1  0.500000  0.251433  0.580197  1
  B  B14  1  0.500000  0.248471  0.079891  1
  B  B15  1  0.500000  0.751531  0.920048  1
  B  B16  1  0.500000  0.792139  0.265873  1
  B  B17  1  0.500000  0.207871  0.734184  1
  B  B18  1  0.500000  0.291981  0.233888  1
  B  B19  1  0.500000  0.707910  0.765920  1
  B  B20  1  0.500000  0.632337  0.184825  1
  B  B21  1  0.500000  0.367732  0.815167  1
  B  B22  1  0.500000  0.132087  0.314990  1
  B  B23  1  0.500000  0.867695  0.684895  1
  B  B24  1  0.500000  0.983327  0.212794  1
  B  B25  1  0.500000  0.016578  0.787175  1
  B  B26  1  0.500000  0.483657  0.287023  1
  B  B27  1  0.500000  0.516639  0.712916  1
  B  B28  1  0.500000  0.607749  0.029692  1
  B  B29  1  0.500000  0.392274  0.970283  1
  B  B30  1  0.500000  0.107305  0.470411  1
  B  B31  1  0.500000  0.892332  0.529694  1
  Ru  Ru32  1  0.000000  0.638402  0.321022  1
  Ru  Ru33  1  0.000000  0.361807  0.679045  1
  Ru  Ru34  1  0.000000  0.138079  0.178779  1
  Ru  Ru35  1  0.000000  0.861810  0.821127  1
