# generated using pymatgen
data_ErTh(Co3Si2)2
_symmetry_space_group_name_H-M   'P 1'
_cell_length_a   6.29502321
_cell_length_b   6.29502337
_cell_length_c   6.29502297
_cell_angle_alpha   130.29377412
_cell_angle_beta   113.49420382
_cell_angle_gamma   87.39998395
_symmetry_Int_Tables_number   1
_chemical_formula_structural   ErTh(Co3Si2)2
_chemical_formula_sum   'Er1 Th1 Co6 Si4'
_cell_volume   166.25303347
_cell_formula_units_Z   1
loop_
 _symmetry_equiv_pos_site_id
 _symmetry_equiv_pos_as_xyz
  1  'x, y, z'
loop_
 _atom_site_type_symbol
 _atom_site_label
 _atom_site_symmetry_multiplicity
 _atom_site_fract_x
 _atom_site_fract_y
 _atom_site_fract_z
 _atom_site_occupancy
  Er  Er0  1  0.750000  0.458317  0.708317  1
  Th  Th1  1  0.250000  0.534621  0.284621  1
  Co  Co2  1  0.012136  0.000981  0.513117  1
  Co  Co3  1  0.487864  0.000981  0.988846  1
  Co  Co4  1  0.722731  0.000914  0.721936  1
  Co  Co5  1  0.221022  0.499205  0.721936  1
  Co  Co6  1  0.278978  0.000914  0.278183  1
  Co  Co7  1  0.777269  0.499205  0.278183  1
  Si  Si8  1  0.070957  0.868478  0.797521  1
  Si  Si9  1  0.907907  0.112817  0.204909  1
  Si  Si10  1  0.592093  0.797003  0.204909  1
  Si  Si11  1  0.429043  0.226564  0.797521  1
