# generated using pymatgen
data_Hf12AlTc6Ru5
_symmetry_space_group_name_H-M   'P 1'
_cell_length_a   4.60303100
_cell_length_b   6.53948400
_cell_length_c   13.82222200
_cell_angle_alpha   90.00000000
_cell_angle_beta   90.00032348
_cell_angle_gamma   90.00000000
_symmetry_Int_Tables_number   1
_chemical_formula_structural   Hf12AlTc6Ru5
_chemical_formula_sum   'Hf12 Al1 Tc6 Ru5'
_cell_volume   416.06889091
_cell_formula_units_Z   1
loop_
 _symmetry_equiv_pos_site_id
 _symmetry_equiv_pos_as_xyz
  1  'x, y, z'
loop_
 _atom_site_type_symbol
 _atom_site_label
 _atom_site_symmetry_multiplicity
 _atom_site_fract_x
 _atom_site_fract_y
 _atom_site_fract_z
 _atom_site_occupancy
  Hf  Hf0  1  0.500002  0.239312  0.000000  1
  Hf  Hf1  1  0.500002  0.760688  0.000000  1
  Hf  Hf2  1  0.999987  0.245602  0.171065  1
  Hf  Hf3  1  0.999987  0.754398  0.171065  1
  Hf  Hf4  1  0.499991  0.250263  0.334529  1
  Hf  Hf5  1  0.499991  0.749737  0.334529  1
  Hf  Hf6  1  0.000000  0.249381  0.500000  1
  Hf  Hf7  1  0.000000  0.750620  0.500000  1
  Hf  Hf8  1  0.500010  0.250263  0.665471  1
  Hf  Hf9  1  0.500010  0.749737  0.665471  1
  Hf  Hf10  1  0.000013  0.245602  0.828935  1
  Hf  Hf11  1  0.000013  0.754398  0.828935  1
  Al  Al12  1  0.000000  0.500001  0.000000  1
  Tc  Tc13  1  0.000000  0.000000  0.000000  1
  Tc  Tc14  1  0.499986  0.500001  0.162090  1
  Tc  Tc15  1  0.999990  0.000000  0.333443  1
  Tc  Tc16  1  0.500002  0.500001  0.500000  1
  Tc  Tc17  1  0.000010  0.000000  0.666557  1
  Tc  Tc18  1  0.500013  0.500001  0.837910  1
  Ru  Ru19  1  0.499995  0.000000  0.167648  1
  Ru  Ru20  1  0.999992  0.500001  0.332797  1
  Ru  Ru21  1  0.500002  0.000000  0.500000  1
  Ru  Ru22  1  0.000008  0.500001  0.667202  1
  Ru  Ru23  1  0.500006  0.000000  0.832352  1
