# generated using pymatgen
data_Yb4Al3Si2Pd25
_symmetry_space_group_name_H-M   'P 1'
_cell_length_a   8.90215907
_cell_length_b   8.90215907
_cell_length_c   6.98224482
_cell_angle_alpha   90.09441463
_cell_angle_beta   90.09441463
_cell_angle_gamma   91.51595339
_symmetry_Int_Tables_number   1
_chemical_formula_structural   Yb4Al3Si2Pd25
_chemical_formula_sum   'Yb4 Al3 Si2 Pd25'
_cell_volume   553.13677235
_cell_formula_units_Z   1
loop_
 _symmetry_equiv_pos_site_id
 _symmetry_equiv_pos_as_xyz
  1  'x, y, z'
loop_
 _atom_site_type_symbol
 _atom_site_label
 _atom_site_symmetry_multiplicity
 _atom_site_fract_x
 _atom_site_fract_y
 _atom_site_fract_z
 _atom_site_occupancy
  Yb  Yb0  1  0.509875  0.009875  0.929922  1
  Yb  Yb1  1  0.990125  0.490125  0.070078  1
  Yb  Yb2  1  0.001931  0.998069  0.500000  1
  Yb  Yb3  1  0.498069  0.501931  0.500000  1
  Al  Al4  1  0.250000  0.750000  0.000000  1
  Al  Al5  1  0.250000  0.250000  0.000000  1
  Al  Al6  1  0.750000  0.750000  0.000000  1
  Si  Si7  1  0.501572  0.001572  0.440766  1
  Si  Si8  1  0.998428  0.498428  0.559234  1
  Pd  Pd9  1  0.333319  0.833319  0.620763  1
  Pd  Pd10  1  0.335071  0.164356  0.612163  1
  Pd  Pd11  1  0.664356  0.835071  0.612163  1
  Pd  Pd12  1  0.667271  0.167271  0.621212  1
  Pd  Pd13  1  0.166681  0.666681  0.379237  1
  Pd  Pd14  1  0.164929  0.335644  0.387837  1
  Pd  Pd15  1  0.835644  0.664929  0.387837  1
  Pd  Pd16  1  0.832729  0.332729  0.378788  1
  Pd  Pd17  1  0.495805  0.770099  0.250207  1
  Pd  Pd18  1  0.497621  0.234313  0.251386  1
  Pd  Pd19  1  0.270099  0.995805  0.250207  1
  Pd  Pd20  1  0.734313  0.997621  0.251386  1
  Pd  Pd21  1  0.004195  0.729901  0.749793  1
  Pd  Pd22  1  0.002379  0.265687  0.748614  1
  Pd  Pd23  1  0.229901  0.504195  0.749793  1
  Pd  Pd24  1  0.765687  0.502379  0.748614  1
  Pd  Pd25  1  0.490483  0.345613  0.862412  1
  Pd  Pd26  1  0.499168  0.667159  0.867085  1
  Pd  Pd27  1  0.845613  0.990483  0.862412  1
  Pd  Pd28  1  0.167159  0.999168  0.867085  1
  Pd  Pd29  1  0.009517  0.154387  0.137588  1
  Pd  Pd30  1  0.000832  0.832841  0.132915  1
  Pd  Pd31  1  0.654387  0.509517  0.137588  1
  Pd  Pd32  1  0.332841  0.500832  0.132915  1
  Pd  Pd33  1  0.750000  0.250000  0.000000  1
