# generated using pymatgen
data_Ce12Mn5Al6Ru
_symmetry_space_group_name_H-M   'P 1'
_cell_length_a   7.78378009
_cell_length_b   7.78377825
_cell_length_c   9.55919155
_cell_angle_alpha   89.87917372
_cell_angle_beta   89.87918105
_cell_angle_gamma   119.83729179
_symmetry_Int_Tables_number   1
_chemical_formula_structural   Ce12Mn5Al6Ru
_chemical_formula_sum   'Ce12 Mn5 Al6 Ru1'
_cell_volume   502.38733592
_cell_formula_units_Z   1
loop_
 _symmetry_equiv_pos_site_id
 _symmetry_equiv_pos_as_xyz
  1  'x, y, z'
loop_
 _atom_site_type_symbol
 _atom_site_label
 _atom_site_symmetry_multiplicity
 _atom_site_fract_x
 _atom_site_fract_y
 _atom_site_fract_z
 _atom_site_occupancy
  Ce  Ce0  1  0.999159  0.559032  0.493492  1
  Ce  Ce1  1  0.559032  0.999159  0.493492  1
  Ce  Ce2  1  0.441106  0.441106  0.493994  1
  Ce  Ce3  1  0.997771  0.440772  0.995970  1
  Ce  Ce4  1  0.440772  0.997771  0.995970  1
  Ce  Ce5  1  0.585624  0.585624  0.004460  1
  Ce  Ce6  1  0.000464  0.743994  0.180543  1
  Ce  Ce7  1  0.743994  0.000464  0.180543  1
  Ce  Ce8  1  0.258710  0.258710  0.180225  1
  Ce  Ce9  1  0.991462  0.254863  0.678053  1
  Ce  Ce10  1  0.254863  0.991462  0.678053  1
  Ce  Ce11  1  0.744650  0.744650  0.679258  1
  Mn  Mn12  1  0.000969  0.352958  0.343386  1
  Mn  Mn13  1  0.352958  0.000969  0.343386  1
  Mn  Mn14  1  0.647676  0.647676  0.345157  1
  Mn  Mn15  1  0.998280  0.646325  0.844027  1
  Mn  Mn16  1  0.646325  0.998280  0.844027  1
  Al  Al17  1  0.667894  0.334161  0.265399  1
  Al  Al18  1  0.334161  0.667894  0.265399  1
  Al  Al19  1  0.332659  0.663872  0.766526  1
  Al  Al20  1  0.663872  0.332659  0.766526  1
  Al  Al21  1  0.000786  0.000786  0.425228  1
  Al  Al22  1  0.997473  0.997473  0.925326  1
  Ru  Ru23  1  0.339340  0.339340  0.840806  1
