# generated using pymatgen
data_Y7Ho13(Hg3Ru)2
_symmetry_space_group_name_H-M   'P 1'
_cell_length_a   9.61219200
_cell_length_b   9.61212970
_cell_length_c   9.63956500
_cell_angle_alpha   89.99932113
_cell_angle_beta   90.00090475
_cell_angle_gamma   119.99998222
_symmetry_Int_Tables_number   1
_chemical_formula_structural   Y7Ho13(Hg3Ru)2
_chemical_formula_sum   'Y7 Ho13 Hg6 Ru2'
_cell_volume   771.31220789
_cell_formula_units_Z   1
loop_
 _symmetry_equiv_pos_site_id
 _symmetry_equiv_pos_as_xyz
  1  'x, y, z'
loop_
 _atom_site_type_symbol
 _atom_site_label
 _atom_site_symmetry_multiplicity
 _atom_site_fract_x
 _atom_site_fract_y
 _atom_site_fract_z
 _atom_site_occupancy
  Y  Y0  1  0.000000  0.000000  0.000000  1
  Y  Y1  1  0.541070  0.458930  0.250000  1
  Y  Y2  1  0.541072  0.082142  0.250002  1
  Y  Y3  1  0.917855  0.458929  0.249999  1
  Y  Y4  1  0.458930  0.541070  0.750000  1
  Y  Y5  1  0.458928  0.917858  0.749998  1
  Y  Y6  1  0.082145  0.541071  0.750001  1
  Ho  Ho7  1  0.000000  0.000000  0.500000  1
  Ho  Ho8  1  0.209595  0.790406  0.439477  1
  Ho  Ho9  1  0.209595  0.419190  0.439477  1
  Ho  Ho10  1  0.580807  0.790404  0.439479  1
  Ho  Ho11  1  0.790405  0.209594  0.560523  1
  Ho  Ho12  1  0.790405  0.580810  0.560523  1
  Ho  Ho13  1  0.419193  0.209596  0.560521  1
  Ho  Ho14  1  0.790342  0.209658  0.939467  1
  Ho  Ho15  1  0.790342  0.580682  0.939467  1
  Ho  Ho16  1  0.419317  0.209658  0.939467  1
  Ho  Ho17  1  0.209658  0.790342  0.060533  1
  Ho  Ho18  1  0.209658  0.419318  0.060533  1
  Ho  Ho19  1  0.580683  0.790342  0.060533  1
  Hg  Hg20  1  0.881546  0.118455  0.250102  1
  Hg  Hg21  1  0.881543  0.763090  0.250101  1
  Hg  Hg22  1  0.236911  0.118456  0.250102  1
  Hg  Hg23  1  0.118454  0.881545  0.749898  1
  Hg  Hg24  1  0.118457  0.236910  0.749899  1
  Hg  Hg25  1  0.763089  0.881544  0.749898  1
  Ru  Ru26  1  0.333335  0.666663  0.250001  1
  Ru  Ru27  1  0.666665  0.333337  0.749999  1
