# generated using pymatgen
data_Er6Zn20PRu3
_symmetry_space_group_name_H-M   'P 1'
_cell_length_a   9.04596850
_cell_length_b   8.96589817
_cell_length_c   8.94133737
_cell_angle_alpha   60.65625125
_cell_angle_beta   59.80229542
_cell_angle_gamma   59.73605798
_symmetry_Int_Tables_number   1
_chemical_formula_structural   Er6Zn20PRu3
_chemical_formula_sum   'Er6 Zn20 P1 Ru3'
_cell_volume   513.45735856
_cell_formula_units_Z   1
loop_
 _symmetry_equiv_pos_site_id
 _symmetry_equiv_pos_as_xyz
  1  'x, y, z'
loop_
 _atom_site_type_symbol
 _atom_site_label
 _atom_site_symmetry_multiplicity
 _atom_site_fract_x
 _atom_site_fract_y
 _atom_site_fract_z
 _atom_site_occupancy
  Er  Er0  1  0.722051  0.277692  0.292425  1
  Er  Er1  1  0.724237  0.275729  0.711836  1
  Er  Er2  1  0.714772  0.715092  0.285156  1
  Er  Er3  1  0.277949  0.722308  0.707575  1
  Er  Er4  1  0.275763  0.724271  0.288164  1
  Er  Er5  1  0.285228  0.284908  0.714844  1
  Zn  Zn6  1  0.626304  0.121296  0.129164  1
  Zn  Zn7  1  0.121322  0.626396  0.123173  1
  Zn  Zn8  1  0.128253  0.123743  0.623416  1
  Zn  Zn9  1  0.123829  0.128201  0.124622  1
  Zn  Zn10  1  0.373696  0.878704  0.870836  1
  Zn  Zn11  1  0.878678  0.373604  0.876827  1
  Zn  Zn12  1  0.871747  0.876257  0.376584  1
  Zn  Zn13  1  0.876171  0.871799  0.875378  1
  Zn  Zn14  1  0.500000  0.000000  0.000000  1
  Zn  Zn15  1  0.500000  0.500000  0.000000  1
  Zn  Zn16  1  0.000000  0.500000  0.500000  1
  Zn  Zn17  1  0.000000  0.000000  0.000000  1
  Zn  Zn18  1  0.009375  0.330067  0.327854  1
  Zn  Zn19  1  0.330119  0.009405  0.332524  1
  Zn  Zn20  1  0.329539  0.337294  0.000819  1
  Zn  Zn21  1  0.337376  0.329503  0.332316  1
  Zn  Zn22  1  0.990625  0.669933  0.672146  1
  Zn  Zn23  1  0.669881  0.990595  0.667476  1
  Zn  Zn24  1  0.670461  0.662706  0.999181  1
  Zn  Zn25  1  0.662624  0.670497  0.667684  1
  P  P26  1  0.500000  0.500000  0.500000  1
  Ru  Ru27  1  0.500000  0.000000  0.500000  1
  Ru  Ru28  1  0.000000  0.500000  0.000000  1
  Ru  Ru29  1  0.000000  0.000000  0.500000  1
