# generated using pymatgen
data_Dy6Ho2Ti11Si16Hg
_symmetry_space_group_name_H-M   'P 1'
_cell_length_a   7.08833196
_cell_length_b   7.08755576
_cell_length_c   12.93634511
_cell_angle_alpha   90.11695636
_cell_angle_beta   89.87329676
_cell_angle_gamma   89.59253664
_symmetry_Int_Tables_number   1
_chemical_formula_structural   Dy6Ho2Ti11Si16Hg
_chemical_formula_sum   'Dy6 Ho2 Ti11 Si16 Hg1'
_cell_volume   649.88897168
_cell_formula_units_Z   1
loop_
 _symmetry_equiv_pos_site_id
 _symmetry_equiv_pos_as_xyz
  1  'x, y, z'
loop_
 _atom_site_type_symbol
 _atom_site_label
 _atom_site_symmetry_multiplicity
 _atom_site_fract_x
 _atom_site_fract_y
 _atom_site_fract_z
 _atom_site_occupancy
  Dy  Dy0  1  0.341156  0.002271  0.466970  1
  Dy  Dy1  1  0.497971  0.839657  0.715938  1
  Dy  Dy2  1  0.501386  0.157366  0.214956  1
  Dy  Dy3  1  0.839721  0.497938  0.284069  1
  Dy  Dy4  1  0.157249  0.501354  0.784980  1
  Dy  Dy5  1  0.657076  0.000315  0.968431  1
  Ho  Ho6  1  0.001909  0.341361  0.533162  1
  Ho  Ho7  1  0.000390  0.657023  0.031616  1
  Ti  Ti8  1  0.173542  0.826509  0.250586  1
  Ti  Ti9  1  0.826601  0.173709  0.749384  1
  Ti  Ti10  1  0.673162  0.672962  0.500018  1
  Ti  Ti11  1  0.147066  0.008738  0.876910  1
  Ti  Ti12  1  0.495371  0.650088  0.123620  1
  Ti  Ti13  1  0.507530  0.351195  0.624424  1
  Ti  Ti14  1  0.650274  0.495396  0.876355  1
  Ti  Ti15  1  0.351173  0.507264  0.375594  1
  Ti  Ti16  1  0.849624  0.991214  0.374664  1
  Ti  Ti17  1  0.008680  0.147119  0.123087  1
  Ti  Ti18  1  0.991229  0.849600  0.625401  1
  Si  Si19  1  0.201449  0.131905  0.683893  1
  Si  Si20  1  0.373698  0.724319  0.927571  1
  Si  Si21  1  0.631562  0.294336  0.433114  1
  Si  Si22  1  0.724768  0.374377  0.072486  1
  Si  Si23  1  0.294076  0.630958  0.567082  1
  Si  Si24  1  0.798474  0.867157  0.183209  1
  Si  Si25  1  0.131602  0.201843  0.316032  1
  Si  Si26  1  0.867515  0.798249  0.816712  1
  Si  Si27  1  0.285561  0.932532  0.067474  1
  Si  Si28  1  0.546713  0.791032  0.314793  1
  Si  Si29  1  0.458662  0.205659  0.805360  1
  Si  Si30  1  0.791170  0.546352  0.685046  1
  Si  Si31  1  0.205446  0.458804  0.194391  1
  Si  Si32  1  0.710014  0.048016  0.564065  1
  Si  Si33  1  0.933037  0.286183  0.932518  1
  Si  Si34  1  0.047670  0.709473  0.436102  1
  Hg  Hg35  1  0.327470  0.327723  0.999987  1
