# generated using pymatgen
data_Ta2B2AsRu5
_symmetry_space_group_name_H-M   'P 1'
_cell_length_a   9.35838400
_cell_length_b   9.35838400
_cell_length_c   2.96823600
_cell_angle_alpha   90.00000000
_cell_angle_beta   90.00000000
_cell_angle_gamma   90.00000000
_symmetry_Int_Tables_number   1
_chemical_formula_structural   Ta2B2AsRu5
_chemical_formula_sum   'Ta4 B4 As2 Ru10'
_cell_volume   259.95618277
_cell_formula_units_Z   2
loop_
 _symmetry_equiv_pos_site_id
 _symmetry_equiv_pos_as_xyz
  1  'x, y, z'
loop_
 _atom_site_type_symbol
 _atom_site_label
 _atom_site_symmetry_multiplicity
 _atom_site_fract_x
 _atom_site_fract_y
 _atom_site_fract_z
 _atom_site_occupancy
  Ta  Ta0  1  0.823515  0.676485  0.000000  1
  Ta  Ta1  1  0.176485  0.323515  0.000000  1
  Ta  Ta2  1  0.323515  0.823515  0.000000  1
  Ta  Ta3  1  0.676485  0.176485  0.000000  1
  B  B4  1  0.623722  0.876278  0.000000  1
  B  B5  1  0.376278  0.123722  0.000000  1
  B  B6  1  0.123722  0.623722  0.000000  1
  B  B7  1  0.876278  0.376278  0.000000  1
  As  As8  1  0.500000  0.500000  0.000000  1
  As  As9  1  0.000000  0.000000  0.000000  1
  Ru  Ru10  1  0.569009  0.713631  0.500000  1
  Ru  Ru11  1  0.430991  0.286369  0.500000  1
  Ru  Ru12  1  0.069009  0.786369  0.500000  1
  Ru  Ru13  1  0.930991  0.213631  0.500000  1
  Ru  Ru14  1  0.286369  0.569009  0.500000  1
  Ru  Ru15  1  0.713631  0.430991  0.500000  1
  Ru  Ru16  1  0.213631  0.069009  0.500000  1
  Ru  Ru17  1  0.786369  0.930991  0.500000  1
  Ru  Ru18  1  0.500000  0.000000  0.500000  1
  Ru  Ru19  1  0.000000  0.500000  0.500000  1
