# generated using pymatgen
data_Rb4Na2DyAlBi4
_symmetry_space_group_name_H-M   'P 1'
_cell_length_a   10.14504330
_cell_length_b   10.14504412
_cell_length_c   10.14504351
_cell_angle_alpha   136.16666096
_cell_angle_beta   62.50560690
_cell_angle_gamma   137.75736227
_symmetry_Int_Tables_number   1
_chemical_formula_structural   Rb4Na2DyAlBi4
_chemical_formula_sum   'Rb4 Na2 Dy1 Al1 Bi4'
_cell_volume   480.23763166
_cell_formula_units_Z   1
loop_
 _symmetry_equiv_pos_site_id
 _symmetry_equiv_pos_as_xyz
  1  'x, y, z'
loop_
 _atom_site_type_symbol
 _atom_site_label
 _atom_site_symmetry_multiplicity
 _atom_site_fract_x
 _atom_site_fract_y
 _atom_site_fract_z
 _atom_site_occupancy
  Rb  Rb0  1  0.330019  0.771427  0.095708  1
  Rb  Rb1  1  0.169981  0.265689  0.441408  1
  Rb  Rb2  1  0.824281  0.728574  0.558593  1
  Rb  Rb3  1  0.675719  0.234312  0.904293  1
  Na  Na4  1  0.750000  0.250000  0.500000  1
  Na  Na5  1  0.250000  0.750001  0.500001  1
  Dy  Dy6  1  0.250000  0.250000  0.000000  1
  Al  Al7  1  0.750000  0.750000  0.000000  1
  Bi  Bi8  1  0.883787  0.200703  0.118240  1
  Bi  Bi9  1  0.616213  0.734454  0.316918  1
  Bi  Bi10  1  0.417536  0.299297  0.683083  1
  Bi  Bi11  1  0.082464  0.765547  0.881761  1
