# generated using pymatgen
data_YTa2Fe9
_symmetry_space_group_name_H-M   'P 1'
_cell_length_a   4.90350224
_cell_length_b   4.90350216
_cell_length_c   8.35671178
_cell_angle_alpha   72.93915400
_cell_angle_beta   72.93915724
_cell_angle_gamma   60.00000217
_symmetry_Int_Tables_number   1
_chemical_formula_structural   YTa2Fe9
_chemical_formula_sum   'Y1 Ta2 Fe9'
_cell_volume   163.72212536
_cell_formula_units_Z   1
loop_
 _symmetry_equiv_pos_site_id
 _symmetry_equiv_pos_as_xyz
  1  'x, y, z'
loop_
 _atom_site_type_symbol
 _atom_site_label
 _atom_site_symmetry_multiplicity
 _atom_site_fract_x
 _atom_site_fract_y
 _atom_site_fract_z
 _atom_site_occupancy
  Y  Y0  1  0.000000  0.000000  0.000000  1
  Ta  Ta1  1  0.144195  0.144195  0.567413  1
  Ta  Ta2  1  0.855805  0.855805  0.432587  1
  Fe  Fe3  1  0.082183  0.588861  0.740094  1
  Fe  Fe4  1  0.588861  0.588861  0.740094  1
  Fe  Fe5  1  0.588861  0.082183  0.740094  1
  Fe  Fe6  1  0.917817  0.411139  0.259906  1
  Fe  Fe7  1  0.411139  0.411139  0.259906  1
  Fe  Fe8  1  0.411139  0.917817  0.259906  1
  Fe  Fe9  1  0.333382  0.333382  0.999854  1
  Fe  Fe10  1  0.666618  0.666618  0.000146  1
  Fe  Fe11  1  0.500000  0.500000  0.500000  1
