# generated using pymatgen
data_Ca3La4Dy3Sn8
_symmetry_space_group_name_H-M   'P 1'
_cell_length_a   7.99098500
_cell_length_b   8.53629912
_cell_length_c   16.14231800
_cell_angle_alpha   89.99038839
_cell_angle_beta   90.00000000
_cell_angle_gamma   90.00000000
_symmetry_Int_Tables_number   1
_chemical_formula_structural   Ca3La4Dy3Sn8
_chemical_formula_sum   'Ca6 La8 Dy6 Sn16'
_cell_volume   1101.12299620
_cell_formula_units_Z   2
loop_
 _symmetry_equiv_pos_site_id
 _symmetry_equiv_pos_as_xyz
  1  'x, y, z'
loop_
 _atom_site_type_symbol
 _atom_site_label
 _atom_site_symmetry_multiplicity
 _atom_site_fract_x
 _atom_site_fract_y
 _atom_site_fract_z
 _atom_site_occupancy
  Ca  Ca0  1  0.331507  0.829650  0.878372  1
  Ca  Ca1  1  0.831507  0.670350  0.621628  1
  Ca  Ca2  1  0.164105  0.500454  0.749696  1
  Ca  Ca3  1  0.664105  0.999546  0.750304  1
  Ca  Ca4  1  0.834483  0.502613  0.249823  1
  Ca  Ca5  1  0.334483  0.997387  0.250177  1
  La  La6  1  0.493543  0.316804  0.904627  1
  La  La7  1  0.993543  0.183196  0.595373  1
  La  La8  1  0.506513  0.681100  0.403795  1
  La  La9  1  0.006513  0.818900  0.096205  1
  La  La10  1  0.506012  0.681458  0.096908  1
  La  La11  1  0.006012  0.818542  0.403092  1
  La  La12  1  0.494007  0.317523  0.595888  1
  La  La13  1  0.994007  0.182477  0.904112  1
  Dy  Dy14  1  0.667722  0.171639  0.375397  1
  Dy  Dy15  1  0.167722  0.328361  0.124603  1
  Dy  Dy16  1  0.667311  0.170783  0.124638  1
  Dy  Dy17  1  0.167311  0.329217  0.375362  1
  Dy  Dy18  1  0.333451  0.826994  0.623880  1
  Dy  Dy19  1  0.833451  0.673006  0.876120  1
  Sn  Sn20  1  0.329876  0.040720  0.040187  1
  Sn  Sn21  1  0.829876  0.459280  0.459813  1
  Sn  Sn22  1  0.668351  0.965122  0.536892  1
  Sn  Sn23  1  0.168351  0.534878  0.963108  1
  Sn  Sn24  1  0.678087  0.960637  0.965079  1
  Sn  Sn25  1  0.178087  0.539363  0.534921  1
  Sn  Sn26  1  0.325988  0.039667  0.462627  1
  Sn  Sn27  1  0.825988  0.460333  0.037373  1
  Sn  Sn28  1  0.534261  0.613731  0.751535  1
  Sn  Sn29  1  0.034261  0.886269  0.748465  1
  Sn  Sn30  1  0.467782  0.381610  0.249466  1
  Sn  Sn31  1  0.967782  0.118390  0.250534  1
  Sn  Sn32  1  0.289966  0.135880  0.748502  1
  Sn  Sn33  1  0.789966  0.364120  0.751498  1
  Sn  Sn34  1  0.707034  0.867326  0.249964  1
  Sn  Sn35  1  0.207034  0.632674  0.250036  1
