# generated using pymatgen
data_Y12Co2Ni3Pb
_symmetry_space_group_name_H-M   'P 1'
_cell_length_a   8.36582858
_cell_length_b   8.36582838
_cell_length_c   8.36582772
_cell_angle_alpha   109.28079864
_cell_angle_beta   111.12201634
_cell_angle_gamma   108.02588572
_symmetry_Int_Tables_number   1
_chemical_formula_structural   Y12Co2Ni3Pb
_chemical_formula_sum   'Y12 Co2 Ni3 Pb1'
_cell_volume   450.38410254
_cell_formula_units_Z   1
loop_
 _symmetry_equiv_pos_site_id
 _symmetry_equiv_pos_as_xyz
  1  'x, y, z'
loop_
 _atom_site_type_symbol
 _atom_site_label
 _atom_site_symmetry_multiplicity
 _atom_site_fract_x
 _atom_site_fract_y
 _atom_site_fract_z
 _atom_site_occupancy
  Y  Y0  1  0.292741  0.182930  0.475671  1
  Y  Y1  1  0.707259  0.817070  0.524329  1
  Y  Y2  1  0.292741  0.817070  0.109812  1
  Y  Y3  1  0.707259  0.182930  0.890188  1
  Y  Y4  1  0.625346  0.317434  0.307912  1
  Y  Y5  1  0.374654  0.682566  0.692088  1
  Y  Y6  1  0.009522  0.317434  0.692088  1
  Y  Y7  1  0.990478  0.682566  0.307912  1
  Y  Y8  1  0.210321  0.403262  0.192941  1
  Y  Y9  1  0.789679  0.596738  0.807059  1
  Y  Y10  1  0.210321  0.017381  0.807059  1
  Y  Y11  1  0.789679  0.982619  0.192941  1
  Co  Co12  1  0.386557  0.886557  0.500000  1
  Co  Co13  1  0.613443  0.113443  0.500000  1
  Ni  Ni14  1  0.000000  0.367918  0.367918  1
  Ni  Ni15  1  0.000000  0.632082  0.632082  1
  Ni  Ni16  1  0.000000  0.000000  0.000000  1
  Pb  Pb17  1  0.500000  0.500000  0.000000  1
