# generated using pymatgen
data_Ba3Li4Ca5(InSn2)4
_symmetry_space_group_name_H-M   'P 1'
_cell_length_a   4.89504400
_cell_length_b   7.59820952
_cell_length_c   18.56072909
_cell_angle_alpha   89.56761360
_cell_angle_beta   90.00000000
_cell_angle_gamma   90.00000000
_symmetry_Int_Tables_number   1
_chemical_formula_structural   Ba3Li4Ca5(InSn2)4
_chemical_formula_sum   'Ba3 Li4 Ca5 In4 Sn8'
_cell_volume   690.32011746
_cell_formula_units_Z   1
loop_
 _symmetry_equiv_pos_site_id
 _symmetry_equiv_pos_as_xyz
  1  'x, y, z'
loop_
 _atom_site_type_symbol
 _atom_site_label
 _atom_site_symmetry_multiplicity
 _atom_site_fract_x
 _atom_site_fract_y
 _atom_site_fract_z
 _atom_site_occupancy
  Ba  Ba0  1  0.250000  0.339077  0.942238  1
  Ba  Ba1  1  0.250000  0.834213  0.559884  1
  Ba  Ba2  1  0.750000  0.165918  0.438904  1
  Li  Li3  1  0.250000  0.981231  0.075942  1
  Li  Li4  1  0.750000  0.517824  0.579181  1
  Li  Li5  1  0.750000  0.012725  0.927320  1
  Li  Li6  1  0.250000  0.482410  0.419314  1
  Ca  Ca7  1  0.750000  0.496737  0.269268  1
  Ca  Ca8  1  0.750000  0.996773  0.223250  1
  Ca  Ca9  1  0.750000  0.670881  0.064379  1
  Ca  Ca10  1  0.250000  0.499032  0.727216  1
  Ca  Ca11  1  0.250000  0.997075  0.778213  1
  In  In12  1  0.750000  0.171279  0.653894  1
  In  In13  1  0.250000  0.826907  0.341725  1
  In  In14  1  0.750000  0.668291  0.849703  1
  In  In15  1  0.250000  0.328263  0.152990  1
  Sn  Sn16  1  0.750000  0.211082  0.068658  1
  Sn  Sn17  1  0.750000  0.782089  0.694484  1
  Sn  Sn18  1  0.250000  0.216799  0.306034  1
  Sn  Sn19  1  0.250000  0.716688  0.184660  1
  Sn  Sn20  1  0.250000  0.310724  0.569540  1
  Sn  Sn21  1  0.750000  0.278824  0.809122  1
  Sn  Sn22  1  0.250000  0.804552  0.937233  1
  Sn  Sn23  1  0.750000  0.690605  0.426849  1
