# generated using pymatgen
data_Lu3SiSe2
_symmetry_space_group_name_H-M   'P 1'
_cell_length_a   6.97168810
_cell_length_b   6.97168724
_cell_length_c   6.97168726
_cell_angle_alpha   146.35450128
_cell_angle_beta   132.26689939
_cell_angle_gamma   59.66422126
_symmetry_Int_Tables_number   1
_chemical_formula_structural   Lu3SiSe2
_chemical_formula_sum   'Lu3 Si1 Se2'
_cell_volume   137.68517396
_cell_formula_units_Z   1
loop_
 _symmetry_equiv_pos_site_id
 _symmetry_equiv_pos_as_xyz
  1  'x, y, z'
loop_
 _atom_site_type_symbol
 _atom_site_label
 _atom_site_symmetry_multiplicity
 _atom_site_fract_x
 _atom_site_fract_y
 _atom_site_fract_z
 _atom_site_occupancy
  Lu  Lu0  1  0.844532  0.344532  0.500000  1
  Lu  Lu1  1  0.500000  0.000000  0.500000  1
  Lu  Lu2  1  0.155468  0.655468  0.500000  1
  Si  Si3  1  0.000000  0.000000  0.000000  1
  Se  Se4  1  0.669198  0.669198  0.000000  1
  Se  Se5  1  0.330802  0.330802  0.000000  1
