# generated using pymatgen
data_PrPa3(InCu5)4
_symmetry_space_group_name_H-M   'P 1'
_cell_length_a   5.05016000
_cell_length_b   8.26554079
_cell_length_c   10.54733109
_cell_angle_alpha   89.97700207
_cell_angle_beta   90.00000000
_cell_angle_gamma   90.00000000
_symmetry_Int_Tables_number   1
_chemical_formula_structural   PrPa3(InCu5)4
_chemical_formula_sum   'Pr1 Pa3 In4 Cu20'
_cell_volume   440.26985958
_cell_formula_units_Z   1
loop_
 _symmetry_equiv_pos_site_id
 _symmetry_equiv_pos_as_xyz
  1  'x, y, z'
loop_
 _atom_site_type_symbol
 _atom_site_label
 _atom_site_symmetry_multiplicity
 _atom_site_fract_x
 _atom_site_fract_y
 _atom_site_fract_z
 _atom_site_occupancy
  Pr  Pr0  1  0.250000  0.254347  0.440281  1
  Pa  Pa1  1  0.250000  0.750534  0.061743  1
  Pa  Pa2  1  0.750000  0.250038  0.939330  1
  Pa  Pa3  1  0.750000  0.747804  0.559762  1
  In  In4  1  0.250000  0.639156  0.361277  1
  In  In5  1  0.750000  0.362777  0.638591  1
  In  In6  1  0.750000  0.861779  0.861989  1
  In  In7  1  0.250000  0.136661  0.136954  1
  Cu  Cu8  1  0.250000  0.816687  0.744350  1
  Cu  Cu9  1  0.750000  0.182320  0.253548  1
  Cu  Cu10  1  0.750000  0.684373  0.242501  1
  Cu  Cu11  1  0.250000  0.315756  0.759232  1
  Cu  Cu12  1  0.502030  0.568013  0.812882  1
  Cu  Cu13  1  0.499513  0.432633  0.185267  1
  Cu  Cu14  1  0.498762  0.930243  0.311945  1
  Cu  Cu15  1  0.000487  0.432633  0.185267  1
  Cu  Cu16  1  0.502862  0.067089  0.689152  1
  Cu  Cu17  1  0.997970  0.568013  0.812882  1
  Cu  Cu18  1  0.997138  0.067089  0.689152  1
  Cu  Cu19  1  0.001238  0.930243  0.311945  1
  Cu  Cu20  1  0.250000  0.564569  0.606138  1
  Cu  Cu21  1  0.750000  0.447035  0.394443  1
  Cu  Cu22  1  0.750000  0.940328  0.103482  1
  Cu  Cu23  1  0.250000  0.058777  0.895879  1
  Cu  Cu24  1  0.250000  0.912345  0.517814  1
  Cu  Cu25  1  0.750000  0.076372  0.484413  1
  Cu  Cu26  1  0.750000  0.585139  0.016423  1
  Cu  Cu27  1  0.250000  0.417248  0.983360  1
