# generated using pymatgen
data_K6ErAlAs4
_symmetry_space_group_name_H-M   'P 1'
_cell_length_a   9.21208626
_cell_length_b   9.21208670
_cell_length_c   9.21208664
_cell_angle_alpha   128.55321661
_cell_angle_beta   69.45598862
_cell_angle_gamma   136.69271278
_symmetry_Int_Tables_number   1
_chemical_formula_structural   K6ErAlAs4
_chemical_formula_sum   'K6 Er1 Al1 As4'
_cell_volume   411.59677328
_cell_formula_units_Z   1
loop_
 _symmetry_equiv_pos_site_id
 _symmetry_equiv_pos_as_xyz
  1  'x, y, z'
loop_
 _atom_site_type_symbol
 _atom_site_label
 _atom_site_symmetry_multiplicity
 _atom_site_fract_x
 _atom_site_fract_y
 _atom_site_fract_z
 _atom_site_occupancy
  K  K0  1  0.791698  0.178149  0.004500  1
  K  K1  1  0.708302  0.712801  0.386450  1
  K  K2  1  0.750000  0.250000  0.500000  1
  K  K3  1  0.250000  0.750001  0.500001  1
  K  K4  1  0.326351  0.321851  0.613549  1
  K  K5  1  0.173649  0.787197  0.995499  1
  Er  Er6  1  0.250000  0.250000  0.000000  1
  Al  Al7  1  0.750000  0.750000  0.000000  1
  As  As8  1  0.424107  0.706882  0.088997  1
  As  As9  1  0.075893  0.164890  0.282775  1
  As  As10  1  0.882115  0.793117  0.717224  1
  As  As11  1  0.617885  0.335110  0.911004  1
