# generated using pymatgen
data_KZn4(BiO4)3
_symmetry_space_group_name_H-M   'P 1'
_cell_length_a   7.05025529
_cell_length_b   7.05025431
_cell_length_c   7.05025557
_cell_angle_alpha   107.64677194
_cell_angle_beta   107.64677282
_cell_angle_gamma   107.64678295
_symmetry_Int_Tables_number   1
_chemical_formula_structural   KZn4(BiO4)3
_chemical_formula_sum   'K1 Zn4 Bi3 O12'
_cell_volume   286.54521813
_cell_formula_units_Z   1
loop_
 _symmetry_equiv_pos_site_id
 _symmetry_equiv_pos_as_xyz
  1  'x, y, z'
loop_
 _atom_site_type_symbol
 _atom_site_label
 _atom_site_symmetry_multiplicity
 _atom_site_fract_x
 _atom_site_fract_y
 _atom_site_fract_z
 _atom_site_occupancy
  K  K0  1  0.500980  0.500980  0.500980  1
  Zn  Zn1  1  0.634747  0.026015  0.512671  1
  Zn  Zn2  1  0.026015  0.512671  0.634747  1
  Zn  Zn3  1  0.512671  0.634747  0.026015  1
  Zn  Zn4  1  0.983635  0.983635  0.983635  1
  Bi  Bi5  1  0.185296  0.071216  0.649610  1
  Bi  Bi6  1  0.649610  0.185296  0.071216  1
  Bi  Bi7  1  0.071216  0.649610  0.185296  1
  O  O8  1  0.661931  0.878565  0.962962  1
  O  O9  1  0.962962  0.661931  0.878565  1
  O  O10  1  0.738664  0.256024  0.411285  1
  O  O11  1  0.411285  0.738664  0.256024  1
  O  O12  1  0.878565  0.962962  0.661931  1
  O  O13  1  0.256024  0.411285  0.738664  1
  O  O14  1  0.116852  0.991639  0.308540  1
  O  O15  1  0.991639  0.308540  0.116852  1
  O  O16  1  0.308540  0.116852  0.991639  1
  O  O17  1  0.160777  0.730205  0.534505  1
  O  O18  1  0.730205  0.534505  0.160777  1
  O  O19  1  0.534505  0.160777  0.730205  1
