# generated using pymatgen
data_Y2Si5IrPd2
_symmetry_space_group_name_H-M   'P 1'
_cell_length_a   8.17343222
_cell_length_b   8.21739046
_cell_length_c   8.21739020
_cell_angle_alpha   137.89920621
_cell_angle_beta   104.63703924
_cell_angle_gamma   90.38539151
_symmetry_Int_Tables_number   1
_chemical_formula_structural   Y2Si5IrPd2
_chemical_formula_sum   'Y4 Si10 Ir2 Pd4'
_cell_volume   341.59196946
_cell_formula_units_Z   2
loop_
 _symmetry_equiv_pos_site_id
 _symmetry_equiv_pos_as_xyz
  1  'x, y, z'
loop_
 _atom_site_type_symbol
 _atom_site_label
 _atom_site_symmetry_multiplicity
 _atom_site_fract_x
 _atom_site_fract_y
 _atom_site_fract_z
 _atom_site_occupancy
  Y  Y0  1  0.864201  0.630091  0.234111  1
  Y  Y1  1  0.135799  0.369909  0.765889  1
  Y  Y2  1  0.396307  0.128897  0.267410  1
  Y  Y3  1  0.603693  0.871103  0.732590  1
  Si  Si4  1  0.500000  0.740783  0.240783  1
  Si  Si5  1  0.500000  0.259217  0.759217  1
  Si  Si6  1  0.228546  0.979012  0.753343  1
  Si  Si7  1  0.771454  0.524797  0.750466  1
  Si  Si8  1  0.771454  0.020988  0.246657  1
  Si  Si9  1  0.228546  0.475203  0.249534  1
  Si  Si10  1  0.042054  0.888582  0.153473  1
  Si  Si11  1  0.957946  0.111418  0.846527  1
  Si  Si12  1  0.732236  0.388056  0.344181  1
  Si  Si13  1  0.267764  0.611944  0.655819  1
  Ir  Ir14  1  0.474604  0.362658  0.111946  1
  Ir  Ir15  1  0.525396  0.637342  0.888054  1
  Pd  Pd16  1  0.000000  0.749615  0.749615  1
  Pd  Pd17  1  0.000000  0.250385  0.250385  1
  Pd  Pd18  1  0.250584  0.862259  0.388326  1
  Pd  Pd19  1  0.749416  0.137741  0.611674  1
