# generated using pymatgen
data_Zr12O5
_symmetry_space_group_name_H-M   'P 1'
_cell_length_a   11.32531500
_cell_length_b   11.32531569
_cell_length_c   5.24493700
_cell_angle_alpha   90.00000000
_cell_angle_beta   90.00000000
_cell_angle_gamma   120.00000092
_symmetry_Int_Tables_number   1
_chemical_formula_structural   Zr12O5
_chemical_formula_sum   'Zr24 O10'
_cell_volume   582.60138198
_cell_formula_units_Z   2
loop_
 _symmetry_equiv_pos_site_id
 _symmetry_equiv_pos_as_xyz
  1  'x, y, z'
loop_
 _atom_site_type_symbol
 _atom_site_label
 _atom_site_symmetry_multiplicity
 _atom_site_fract_x
 _atom_site_fract_y
 _atom_site_fract_z
 _atom_site_occupancy
  Zr  Zr0  1  0.502147  0.666724  0.749614  1
  Zr  Zr1  1  0.164578  0.497853  0.749614  1
  Zr  Zr2  1  0.666724  0.164578  0.250386  1
  Zr  Zr3  1  0.835422  0.502147  0.250386  1
  Zr  Zr4  1  0.497853  0.333276  0.250386  1
  Zr  Zr5  1  0.835422  0.333276  0.749614  1
  Zr  Zr6  1  0.497853  0.164578  0.749614  1
  Zr  Zr7  1  0.666724  0.502147  0.749614  1
  Zr  Zr8  1  0.165582  0.165582  0.251725  1
  Zr  Zr9  1  0.834418  0.000000  0.251725  1
  Zr  Zr10  1  0.000000  0.834418  0.251725  1
  Zr  Zr11  1  0.834418  0.834418  0.748275  1
  Zr  Zr12  1  0.000000  0.165582  0.748275  1
  Zr  Zr13  1  0.165582  0.000000  0.748275  1
  Zr  Zr14  1  0.333276  0.835422  0.749614  1
  Zr  Zr15  1  0.502147  0.835422  0.250386  1
  Zr  Zr16  1  0.333276  0.497853  0.250386  1
  Zr  Zr17  1  0.164578  0.666724  0.250386  1
  Zr  Zr18  1  0.666498  0.000000  0.746027  1
  Zr  Zr19  1  0.000000  0.666498  0.746027  1
  Zr  Zr20  1  0.333502  0.333502  0.746027  1
  Zr  Zr21  1  0.000000  0.333502  0.253973  1
  Zr  Zr22  1  0.333502  0.000000  0.253973  1
  Zr  Zr23  1  0.666498  0.666498  0.253973  1
  O  O24  1  0.333121  0.166561  0.000000  1
  O  O25  1  0.833439  0.666879  0.000000  1
  O  O26  1  0.833439  0.166561  0.000000  1
  O  O27  1  0.666879  0.833439  0.000000  1
  O  O28  1  0.166561  0.333121  0.000000  1
  O  O29  1  0.166561  0.833439  0.000000  1
  O  O30  1  0.000000  0.500000  0.500000  1
  O  O31  1  0.500000  0.000000  0.500000  1
  O  O32  1  0.500000  0.500000  0.500000  1
  O  O33  1  0.000000  0.000000  0.500000  1
