# generated using pymatgen
data_Ho4Cd2CuPd3
_symmetry_space_group_name_H-M   'P 1'
_cell_length_a   7.64697054
_cell_length_b   7.64697054
_cell_length_c   3.72284400
_cell_angle_alpha   90.00000000
_cell_angle_beta   90.00000000
_cell_angle_gamma   90.18103655
_symmetry_Int_Tables_number   1
_chemical_formula_structural   Ho4Cd2CuPd3
_chemical_formula_sum   'Ho4 Cd2 Cu1 Pd3'
_cell_volume   217.69652906
_cell_formula_units_Z   1
loop_
 _symmetry_equiv_pos_site_id
 _symmetry_equiv_pos_as_xyz
  1  'x, y, z'
loop_
 _atom_site_type_symbol
 _atom_site_label
 _atom_site_symmetry_multiplicity
 _atom_site_fract_x
 _atom_site_fract_y
 _atom_site_fract_z
 _atom_site_occupancy
  Ho  Ho0  1  0.672849  0.172849  0.500000  1
  Ho  Ho1  1  0.329817  0.829817  0.500000  1
  Ho  Ho2  1  0.170022  0.326614  0.500000  1
  Ho  Ho3  1  0.826614  0.670022  0.500000  1
  Cd  Cd4  1  0.001524  0.995364  0.000000  1
  Cd  Cd5  1  0.495364  0.501524  0.000000  1
  Cu  Cu6  1  0.125045  0.625045  0.000000  1
  Pd  Pd7  1  0.877165  0.377165  0.000000  1
  Pd  Pd8  1  0.630369  0.871231  0.000000  1
  Pd  Pd9  1  0.371231  0.130369  0.000000  1
