# generated using pymatgen
data_Cs2Nd10Mn2Br17
_symmetry_space_group_name_H-M   'P 1'
_cell_length_a   9.38344977
_cell_length_b   10.97738529
_cell_length_c   10.97731000
_cell_angle_alpha   107.02158268
_cell_angle_beta   94.11691645
_cell_angle_gamma   94.11655744
_symmetry_Int_Tables_number   1
_chemical_formula_structural   Cs2Nd10Mn2Br17
_chemical_formula_sum   'Cs2 Nd10 Mn2 Br17'
_cell_volume   1073.28679945
_cell_formula_units_Z   1
loop_
 _symmetry_equiv_pos_site_id
 _symmetry_equiv_pos_as_xyz
  1  'x, y, z'
loop_
 _atom_site_type_symbol
 _atom_site_label
 _atom_site_symmetry_multiplicity
 _atom_site_fract_x
 _atom_site_fract_y
 _atom_site_fract_z
 _atom_site_occupancy
  Cs  Cs0  1  0.000003  0.822866  0.177213  1
  Cs  Cs1  1  0.999976  0.177220  0.822841  1
  Nd  Nd2  1  0.438289  0.159804  0.159760  1
  Nd  Nd3  1  0.571373  0.499780  0.212006  1
  Nd  Nd4  1  0.830644  0.289512  0.289553  1
  Nd  Nd5  1  0.290049  0.423735  0.423729  1
  Nd  Nd6  1  0.428541  0.788176  0.500234  1
  Nd  Nd7  1  0.571396  0.212052  0.499778  1
  Nd  Nd8  1  0.709999  0.576013  0.575973  1
  Nd  Nd9  1  0.169238  0.710440  0.710525  1
  Nd  Nd10  1  0.428572  0.500283  0.788085  1
  Nd  Nd11  1  0.561920  0.840141  0.840155  1
  Mn  Mn12  1  0.567817  0.362979  0.363052  1
  Mn  Mn13  1  0.432058  0.636716  0.637083  1
  Br  Br14  1  0.580180  0.688951  0.024355  1
  Br  Br15  1  0.719387  0.066818  0.066811  1
  Br  Br16  1  0.857450  0.450555  0.119159  1
  Br  Br17  1  0.126409  0.197559  0.197561  1
  Br  Br18  1  0.279696  0.598706  0.257296  1
  Br  Br19  1  0.419910  0.975928  0.311070  1
  Br  Br20  1  0.720433  0.742766  0.401301  1
  Br  Br21  1  0.857394  0.119117  0.450558  1
  Br  Br22  1  0.000158  0.500009  0.500058  1
  Br  Br23  1  0.142354  0.880847  0.549347  1
  Br  Br24  1  0.279684  0.257295  0.598613  1
  Br  Br25  1  0.580181  0.024331  0.688857  1
  Br  Br26  1  0.720498  0.401328  0.742690  1
  Br  Br27  1  0.873488  0.802278  0.802271  1
  Br  Br28  1  0.142466  0.549353  0.880969  1
  Br  Br29  1  0.280530  0.933275  0.933197  1
  Br  Br30  1  0.419910  0.311168  0.975899  1
