# generated using pymatgen
data_Tm4Al4Ir3Au
_symmetry_space_group_name_H-M   'P 1'
_cell_length_a   4.31517600
_cell_length_b   6.79965884
_cell_length_c   7.87487332
_cell_angle_alpha   90.04477508
_cell_angle_beta   90.00000000
_cell_angle_gamma   90.00000000
_symmetry_Int_Tables_number   1
_chemical_formula_structural   Tm4Al4Ir3Au
_chemical_formula_sum   'Tm4 Al4 Ir3 Au1'
_cell_volume   231.06229387
_cell_formula_units_Z   1
loop_
 _symmetry_equiv_pos_site_id
 _symmetry_equiv_pos_as_xyz
  1  'x, y, z'
loop_
 _atom_site_type_symbol
 _atom_site_label
 _atom_site_symmetry_multiplicity
 _atom_site_fract_x
 _atom_site_fract_y
 _atom_site_fract_z
 _atom_site_occupancy
  Tm  Tm0  1  0.250000  0.023613  0.326985  1
  Tm  Tm1  1  0.250000  0.541375  0.182491  1
  Tm  Tm2  1  0.750000  0.970489  0.677936  1
  Tm  Tm3  1  0.750000  0.477546  0.813274  1
  Al  Al4  1  0.250000  0.136856  0.932241  1
  Al  Al5  1  0.250000  0.641974  0.562049  1
  Al  Al6  1  0.750000  0.846939  0.060000  1
  Al  Al7  1  0.750000  0.363567  0.444919  1
  Ir  Ir8  1  0.250000  0.265928  0.619988  1
  Ir  Ir9  1  0.250000  0.764235  0.880300  1
  Ir  Ir10  1  0.750000  0.735585  0.378084  1
  Au  Au11  1  0.750000  0.231895  0.121733  1
