# generated using pymatgen
data_Gd(AlB14)2
_symmetry_space_group_name_H-M   'P 1'
_cell_length_a   7.23112574
_cell_length_b   7.23112689
_cell_length_c   5.82664611
_cell_angle_alpha   66.46581985
_cell_angle_beta   66.46581693
_cell_angle_gamma   92.29476297
_symmetry_Int_Tables_number   1
_chemical_formula_structural   Gd(AlB14)2
_chemical_formula_sum   'Gd1 Al2 B28'
_cell_volume   248.77881291
_cell_formula_units_Z   1
loop_
 _symmetry_equiv_pos_site_id
 _symmetry_equiv_pos_as_xyz
  1  'x, y, z'
loop_
 _atom_site_type_symbol
 _atom_site_label
 _atom_site_symmetry_multiplicity
 _atom_site_fract_x
 _atom_site_fract_y
 _atom_site_fract_z
 _atom_site_occupancy
  Gd  Gd0  1  0.891754  0.891755  0.358968  1
  Al  Al1  1  0.497221  0.497220  0.506930  1
  Al  Al2  1  0.158272  0.158272  0.503462  1
  B  B3  1  0.417276  0.736935  0.171159  1
  B  B4  1  0.583190  0.257806  0.834679  1
  B  B5  1  0.257806  0.583190  0.834679  1
  B  B6  1  0.736935  0.417276  0.171159  1
  B  B7  1  0.694410  0.860975  0.972568  1
  B  B8  1  0.305464  0.135054  0.034812  1
  B  B9  1  0.135055  0.305464  0.034812  1
  B  B10  1  0.860975  0.694410  0.972568  1
  B  B11  1  0.533881  0.872565  0.299173  1
  B  B12  1  0.469622  0.124191  0.205206  1
  B  B13  1  0.124191  0.469622  0.205206  1
  B  B14  1  0.872565  0.533881  0.299173  1
  B  B15  1  0.462386  0.121491  0.711120  1
  B  B16  1  0.531602  0.870531  0.800820  1
  B  B17  1  0.870531  0.531603  0.800820  1
  B  B18  1  0.121492  0.462386  0.711120  1
  B  B19  1  0.722813  0.100382  0.999359  1
  B  B20  1  0.280398  0.893616  0.325421  1
  B  B21  1  0.893616  0.280398  0.325421  1
  B  B22  1  0.100382  0.722813  0.999359  1
  B  B23  1  0.277588  0.895813  0.007390  1
  B  B24  1  0.719655  0.101187  0.684751  1
  B  B25  1  0.101188  0.719655  0.684751  1
  B  B26  1  0.895813  0.277588  0.007390  1
  B  B27  1  0.272413  0.473942  0.378152  1
  B  B28  1  0.716412  0.521148  0.640710  1
  B  B29  1  0.521148  0.716412  0.640710  1
  B  B30  1  0.473942  0.272413  0.378152  1
