# generated using pymatgen
data_Ho5Lu3Sc11Si16Rh
_symmetry_space_group_name_H-M   'P 1'
_cell_length_a   6.95388279
_cell_length_b   7.38008086
_cell_length_c   13.88191894
_cell_angle_alpha   89.92043167
_cell_angle_beta   89.87973100
_cell_angle_gamma   89.84566072
_symmetry_Int_Tables_number   1
_chemical_formula_structural   Ho5Lu3Sc11Si16Rh
_chemical_formula_sum   'Ho5 Lu3 Sc11 Si16 Rh1'
_cell_volume   712.41826049
_cell_formula_units_Z   1
loop_
 _symmetry_equiv_pos_site_id
 _symmetry_equiv_pos_as_xyz
  1  'x, y, z'
loop_
 _atom_site_type_symbol
 _atom_site_label
 _atom_site_symmetry_multiplicity
 _atom_site_fract_x
 _atom_site_fract_y
 _atom_site_fract_z
 _atom_site_occupancy
  Ho  Ho0  1  0.990878  0.812476  0.598086  1
  Ho  Ho1  1  0.510994  0.321437  0.092724  1
  Ho  Ho2  1  0.012132  0.177231  0.405500  1
  Ho  Ho3  1  0.510588  0.321867  0.404410  1
  Ho  Ho4  1  0.487314  0.673474  0.598124  1
  Lu  Lu5  1  0.012888  0.180264  0.092537  1
  Lu  Lu6  1  0.989878  0.815704  0.903246  1
  Lu  Lu7  1  0.489949  0.675996  0.903543  1
  Sc  Sc8  1  0.840684  0.495871  0.248475  1
  Sc  Sc9  1  0.342649  0.004794  0.248870  1
  Sc  Sc10  1  0.651193  0.997153  0.750226  1
  Sc  Sc11  1  0.319891  0.178712  0.629272  1
  Sc  Sc12  1  0.673628  0.824824  0.373815  1
  Sc  Sc13  1  0.173291  0.674670  0.374530  1
  Sc  Sc14  1  0.673037  0.825270  0.124299  1
  Sc  Sc15  1  0.833081  0.329779  0.630903  1
  Sc  Sc16  1  0.319149  0.176620  0.872168  1
  Sc  Sc17  1  0.831013  0.327218  0.871378  1
  Sc  Sc18  1  0.173772  0.673394  0.122605  1
  Si  Si19  1  0.021814  0.091853  0.751472  1
  Si  Si20  1  0.973518  0.889458  0.247959  1
  Si  Si21  1  0.470056  0.614255  0.248807  1
  Si  Si22  1  0.517133  0.396689  0.752398  1
  Si  Si23  1  0.281498  0.862486  0.751998  1
  Si  Si24  1  0.717603  0.130658  0.248035  1
  Si  Si25  1  0.214807  0.370010  0.248069  1
  Si  Si26  1  0.793026  0.629819  0.752778  1
  Si  Si27  1  0.161588  0.460589  0.536840  1
  Si  Si28  1  0.843181  0.534199  0.463076  1
  Si  Si29  1  0.344472  0.964147  0.463699  1
  Si  Si30  1  0.843497  0.535045  0.035936  1
  Si  Si31  1  0.658859  0.035055  0.540886  1
  Si  Si32  1  0.160572  0.467421  0.955331  1
  Si  Si33  1  0.658242  0.032922  0.959115  1
  Si  Si34  1  0.342499  0.964219  0.036141  1
  Rh  Rh35  1  0.161627  0.534421  0.762748  1
