# generated using pymatgen
data_Be3Nb5MoP
_symmetry_space_group_name_H-M   'P 1'
_cell_length_a   6.51161568
_cell_length_b   6.49270848
_cell_length_c   3.37870600
_cell_angle_alpha   90.00000000
_cell_angle_beta   90.00000000
_cell_angle_gamma   89.55168472
_symmetry_Int_Tables_number   1
_chemical_formula_structural   Be3Nb5MoP
_chemical_formula_sum   'Be3 Nb5 Mo1 P1'
_cell_volume   142.84063499
_cell_formula_units_Z   1
loop_
 _symmetry_equiv_pos_site_id
 _symmetry_equiv_pos_as_xyz
  1  'x, y, z'
loop_
 _atom_site_type_symbol
 _atom_site_label
 _atom_site_symmetry_multiplicity
 _atom_site_fract_x
 _atom_site_fract_y
 _atom_site_fract_z
 _atom_site_occupancy
  Be  Be0  1  0.383194  0.113957  0.000000  1
  Be  Be1  1  0.616746  0.885603  0.000000  1
  Be  Be2  1  0.118327  0.621481  0.000000  1
  Nb  Nb3  1  0.496695  0.501963  0.000000  1
  Nb  Nb4  1  0.677630  0.172435  0.500000  1
  Nb  Nb5  1  0.179012  0.318921  0.500000  1
  Nb  Nb6  1  0.823669  0.683294  0.500000  1
  Nb  Nb7  1  0.317603  0.824156  0.500000  1
  Mo  Mo8  1  0.002386  0.995757  0.000000  1
  P  P9  1  0.884740  0.382434  0.000000  1
