# generated using pymatgen
data_LaSm3Sn4(BRh6)2
_symmetry_space_group_name_H-M   'P 1'
_cell_length_a   5.88100900
_cell_length_b   5.88100772
_cell_length_c   13.56194500
_cell_angle_alpha   90.00000000
_cell_angle_beta   90.00000000
_cell_angle_gamma   120.00000160
_symmetry_Int_Tables_number   1
_chemical_formula_structural   LaSm3Sn4(BRh6)2
_chemical_formula_sum   'La1 Sm3 Sn4 B2 Rh12'
_cell_volume   406.21522494
_cell_formula_units_Z   1
loop_
 _symmetry_equiv_pos_site_id
 _symmetry_equiv_pos_as_xyz
  1  'x, y, z'
loop_
 _atom_site_type_symbol
 _atom_site_label
 _atom_site_symmetry_multiplicity
 _atom_site_fract_x
 _atom_site_fract_y
 _atom_site_fract_z
 _atom_site_occupancy
  La  La0  1  0.333333  0.666667  0.100639  1
  Sm  Sm1  1  0.333333  0.666667  0.409728  1
  Sm  Sm2  1  0.666667  0.333333  0.905717  1
  Sm  Sm3  1  0.666667  0.333333  0.591740  1
  Sn  Sn4  1  0.000000  0.000000  0.750005  1
  Sn  Sn5  1  0.000000  0.000000  0.250583  1
  Sn  Sn6  1  0.333333  0.666667  0.749356  1
  Sn  Sn7  1  0.666667  0.333333  0.250171  1
  B  B8  1  0.000000  0.000000  0.499742  1
  B  B9  1  0.000000  0.000000  0.998141  1
  Rh  Rh10  1  0.337284  0.168643  0.408181  1
  Rh  Rh11  1  0.831357  0.168643  0.408181  1
  Rh  Rh12  1  0.831357  0.662716  0.408181  1
  Rh  Rh13  1  0.169039  0.338077  0.907493  1
  Rh  Rh14  1  0.663098  0.831549  0.591554  1
  Rh  Rh15  1  0.661923  0.830961  0.907493  1
  Rh  Rh16  1  0.337090  0.168545  0.090832  1
  Rh  Rh17  1  0.168451  0.336902  0.591554  1
  Rh  Rh18  1  0.168451  0.831549  0.591554  1
  Rh  Rh19  1  0.831455  0.168545  0.090832  1
  Rh  Rh20  1  0.831455  0.662910  0.090832  1
  Rh  Rh21  1  0.169039  0.830961  0.907493  1
