# generated using pymatgen
data_Sm(AgTe)3
_symmetry_space_group_name_H-M   'P 1'
_cell_length_a   7.28104100
_cell_length_b   8.28122600
_cell_length_c   13.86800000
_cell_angle_alpha   90.00000000
_cell_angle_beta   90.00000000
_cell_angle_gamma   90.00000000
_symmetry_Int_Tables_number   1
_chemical_formula_structural   Sm(AgTe)3
_chemical_formula_sum   'Sm4 Ag12 Te12'
_cell_volume   836.18417963
_cell_formula_units_Z   4
loop_
 _symmetry_equiv_pos_site_id
 _symmetry_equiv_pos_as_xyz
  1  'x, y, z'
loop_
 _atom_site_type_symbol
 _atom_site_label
 _atom_site_symmetry_multiplicity
 _atom_site_fract_x
 _atom_site_fract_y
 _atom_site_fract_z
 _atom_site_occupancy
  Sm  Sm0  1  0.242948  0.749247  0.834888  1
  Sm  Sm1  1  0.742948  0.250753  0.334888  1
  Sm  Sm2  1  0.742948  0.250753  0.665112  1
  Sm  Sm3  1  0.242948  0.749247  0.165112  1
  Ag  Ag4  1  0.381521  0.120984  0.831739  1
  Ag  Ag5  1  0.624824  0.608941  0.000000  1
  Ag  Ag6  1  0.881521  0.879016  0.668261  1
  Ag  Ag7  1  0.606020  0.624067  0.671440  1
  Ag  Ag8  1  0.869009  0.886917  0.000000  1
  Ag  Ag9  1  0.124824  0.391059  0.500000  1
  Ag  Ag10  1  0.606020  0.624067  0.328560  1
  Ag  Ag11  1  0.369009  0.113083  0.500000  1
  Ag  Ag12  1  0.881521  0.879016  0.331739  1
  Ag  Ag13  1  0.381521  0.120984  0.168261  1
  Ag  Ag14  1  0.106020  0.375933  0.828560  1
  Ag  Ag15  1  0.106020  0.375933  0.171440  1
  Te  Te16  1  0.008939  0.560938  0.332872  1
  Te  Te17  1  0.508939  0.439062  0.167128  1
  Te  Te18  1  0.977168  0.059003  0.167662  1
  Te  Te19  1  0.008939  0.560938  0.667128  1
  Te  Te20  1  0.020216  0.568481  0.000000  1
  Te  Te21  1  0.508939  0.439062  0.832872  1
  Te  Te22  1  0.477168  0.940997  0.332338  1
  Te  Te23  1  0.477168  0.940997  0.667662  1
  Te  Te24  1  0.970758  0.073537  0.500000  1
  Te  Te25  1  0.470758  0.926463  0.000000  1
  Te  Te26  1  0.977168  0.059003  0.832338  1
  Te  Te27  1  0.520216  0.431519  0.500000  1
