# generated using pymatgen
data_Ce12Mn7Si8Ru
_symmetry_space_group_name_H-M   'P 1'
_cell_length_a   5.68147053
_cell_length_b   7.97733321
_cell_length_c   12.28658095
_cell_angle_alpha   89.90673401
_cell_angle_beta   89.91622228
_cell_angle_gamma   89.59982635
_symmetry_Int_Tables_number   1
_chemical_formula_structural   Ce12Mn7Si8Ru
_chemical_formula_sum   'Ce12 Mn7 Si8 Ru1'
_cell_volume   556.84960026
_cell_formula_units_Z   1
loop_
 _symmetry_equiv_pos_site_id
 _symmetry_equiv_pos_as_xyz
  1  'x, y, z'
loop_
 _atom_site_type_symbol
 _atom_site_label
 _atom_site_symmetry_multiplicity
 _atom_site_fract_x
 _atom_site_fract_y
 _atom_site_fract_z
 _atom_site_occupancy
  Ce  Ce0  1  0.165257  0.405314  0.588073  1
  Ce  Ce1  1  0.846604  0.594793  0.084000  1
  Ce  Ce2  1  0.164571  0.091373  0.414860  1
  Ce  Ce3  1  0.834395  0.907742  0.911757  1
  Ce  Ce4  1  0.828952  0.593753  0.414629  1
  Ce  Ce5  1  0.170072  0.404657  0.897045  1
  Ce  Ce6  1  0.827721  0.906497  0.586716  1
  Ce  Ce7  1  0.167493  0.095743  0.085897  1
  Ce  Ce8  1  0.623072  0.270229  0.749693  1
  Ce  Ce9  1  0.370137  0.730550  0.251826  1
  Ce  Ce10  1  0.629940  0.228884  0.251700  1
  Ce  Ce11  1  0.363779  0.766577  0.749493  1
  Mn  Mn12  1  0.332513  0.033792  0.572847  1
  Mn  Mn13  1  0.668416  0.965239  0.071328  1
  Mn  Mn14  1  0.330564  0.464577  0.429275  1
  Mn  Mn15  1  0.674322  0.534949  0.926051  1
  Mn  Mn16  1  0.664659  0.963512  0.425596  1
  Mn  Mn17  1  0.334699  0.043431  0.926024  1
  Mn  Mn18  1  0.663542  0.535982  0.573396  1
  Si  Si19  1  0.138378  0.107825  0.747291  1
  Si  Si20  1  0.859689  0.887214  0.248520  1
  Si  Si21  1  0.132047  0.385129  0.258549  1
  Si  Si22  1  0.854370  0.611929  0.748520  1
  Si  Si23  1  0.614466  0.248917  0.500488  1
  Si  Si24  1  0.386844  0.753079  0.997801  1
  Si  Si25  1  0.380938  0.749989  0.500365  1
  Si  Si26  1  0.622963  0.250948  0.999163  1
  Ru  Ru27  1  0.349596  0.467375  0.089097  1
