# generated using pymatgen
data_K2Zr(BrO3)6
_symmetry_space_group_name_H-M   'P 1'
_cell_length_a   7.90075191
_cell_length_b   7.90075196
_cell_length_c   7.90075082
_cell_angle_alpha   96.35781706
_cell_angle_beta   96.35781869
_cell_angle_gamma   96.35780326
_symmetry_Int_Tables_number   1
_chemical_formula_structural   K2Zr(BrO3)6
_chemical_formula_sum   'K2 Zr1 Br6 O18'
_cell_volume   483.34027539
_cell_formula_units_Z   1
loop_
 _symmetry_equiv_pos_site_id
 _symmetry_equiv_pos_as_xyz
  1  'x, y, z'
loop_
 _atom_site_type_symbol
 _atom_site_label
 _atom_site_symmetry_multiplicity
 _atom_site_fract_x
 _atom_site_fract_y
 _atom_site_fract_z
 _atom_site_occupancy
  K  K0  1  0.179518  0.179518  0.179518  1
  K  K1  1  0.820482  0.820482  0.820482  1
  Zr  Zr2  1  0.500000  0.500000  0.500000  1
  Br  Br3  1  0.709205  0.315955  0.145389  1
  Br  Br4  1  0.684045  0.854611  0.290795  1
  Br  Br5  1  0.145389  0.709205  0.315955  1
  Br  Br6  1  0.854611  0.290795  0.684045  1
  Br  Br7  1  0.290795  0.684045  0.854611  1
  Br  Br8  1  0.315955  0.145389  0.709205  1
  O  O9  1  0.889648  0.357510  0.280467  1
  O  O10  1  0.642490  0.719533  0.110352  1
  O  O11  1  0.719533  0.110352  0.642490  1
  O  O12  1  0.665000  0.713001  0.450327  1
  O  O13  1  0.677363  0.106876  0.080534  1
  O  O14  1  0.450327  0.665000  0.713001  1
  O  O15  1  0.286999  0.549673  0.335000  1
  O  O16  1  0.335000  0.286999  0.549673  1
  O  O17  1  0.106876  0.080534  0.677363  1
  O  O18  1  0.919466  0.322637  0.893124  1
  O  O19  1  0.713001  0.450327  0.665000  1
  O  O20  1  0.110352  0.642490  0.719533  1
  O  O21  1  0.549673  0.335000  0.286999  1
  O  O22  1  0.322637  0.893124  0.919466  1
  O  O23  1  0.893124  0.919466  0.322637  1
  O  O24  1  0.357510  0.280467  0.889648  1
  O  O25  1  0.280467  0.889648  0.357510  1
  O  O26  1  0.080534  0.677363  0.106876  1
