# generated using pymatgen
data_Pa5Ta3(Co4As3)4
_symmetry_space_group_name_H-M   'P 1'
_cell_length_a   12.64168100
_cell_length_b   12.64168034
_cell_length_c   3.88759100
_cell_angle_alpha   90.00000000
_cell_angle_beta   90.00000000
_cell_angle_gamma   119.99999387
_symmetry_Int_Tables_number   1
_chemical_formula_structural   Pa5Ta3(Co4As3)4
_chemical_formula_sum   'Pa5 Ta3 Co16 As12'
_cell_volume   538.04779793
_cell_formula_units_Z   1
loop_
 _symmetry_equiv_pos_site_id
 _symmetry_equiv_pos_as_xyz
  1  'x, y, z'
loop_
 _atom_site_type_symbol
 _atom_site_label
 _atom_site_symmetry_multiplicity
 _atom_site_fract_x
 _atom_site_fract_y
 _atom_site_fract_z
 _atom_site_occupancy
  Pa  Pa0  1  0.815430  0.000000  0.500000  1
  Pa  Pa1  1  0.000000  0.815430  0.500000  1
  Pa  Pa2  1  0.184570  0.184570  0.500000  1
  Pa  Pa3  1  0.333333  0.666667  0.000000  1
  Pa  Pa4  1  0.666667  0.333333  0.000000  1
  Ta  Ta5  1  0.432752  0.000000  0.000000  1
  Ta  Ta6  1  0.000000  0.432752  0.000000  1
  Ta  Ta7  1  0.567248  0.567248  0.000000  1
  Co  Co8  1  0.279027  0.000000  0.500000  1
  Co  Co9  1  0.000000  0.279027  0.500000  1
  Co  Co10  1  0.720973  0.720973  0.500000  1
  Co  Co11  1  0.627108  0.807681  0.000000  1
  Co  Co12  1  0.192319  0.819427  0.000000  1
  Co  Co13  1  0.180573  0.372892  0.000000  1
  Co  Co14  1  0.372892  0.180573  0.000000  1
  Co  Co15  1  0.807681  0.627108  0.000000  1
  Co  Co16  1  0.819427  0.192319  0.000000  1
  Co  Co17  1  0.513278  0.876014  0.500000  1
  Co  Co18  1  0.123986  0.637264  0.500000  1
  Co  Co19  1  0.362736  0.486722  0.500000  1
  Co  Co20  1  0.486722  0.362736  0.500000  1
  Co  Co21  1  0.876014  0.513278  0.500000  1
  Co  Co22  1  0.637264  0.123986  0.500000  1
  Co  Co23  1  0.000000  0.000000  0.000000  1
  As  As24  1  0.178850  0.000000  0.000000  1
  As  As25  1  0.000000  0.178850  0.000000  1
  As  As26  1  0.821150  0.821150  0.000000  1
  As  As27  1  0.522395  0.692468  0.500000  1
  As  As28  1  0.307532  0.829927  0.500000  1
  As  As29  1  0.170073  0.477605  0.500000  1
  As  As30  1  0.477605  0.170073  0.500000  1
  As  As31  1  0.692468  0.522395  0.500000  1
  As  As32  1  0.829927  0.307532  0.500000  1
  As  As33  1  0.635607  0.000000  0.000000  1
  As  As34  1  0.000000  0.635607  0.000000  1
  As  As35  1  0.364393  0.364393  0.000000  1
