# generated using pymatgen
data_La5P12Ru18Rh
_symmetry_space_group_name_H-M   'P 1'
_cell_length_a   12.68514700
_cell_length_b   12.71897398
_cell_length_c   4.04337800
_cell_angle_alpha   90.00000000
_cell_angle_beta   90.00000000
_cell_angle_gamma   119.91206371
_symmetry_Int_Tables_number   1
_chemical_formula_structural   La5P12Ru18Rh
_chemical_formula_sum   'La5 P12 Ru18 Rh1'
_cell_volume   565.46627381
_cell_formula_units_Z   1
loop_
 _symmetry_equiv_pos_site_id
 _symmetry_equiv_pos_as_xyz
  1  'x, y, z'
loop_
 _atom_site_type_symbol
 _atom_site_label
 _atom_site_symmetry_multiplicity
 _atom_site_fract_x
 _atom_site_fract_y
 _atom_site_fract_z
 _atom_site_occupancy
  La  La0  1  0.817578  0.000000  0.500000  1
  La  La1  1  0.000412  0.816599  0.500000  1
  La  La2  1  0.183813  0.183401  0.500000  1
  La  La3  1  0.332602  0.664941  0.000000  1
  La  La4  1  0.667662  0.335059  0.000000  1
  P  P5  1  0.190889  0.000000  0.000000  1
  P  P6  1  0.999344  0.188394  0.000000  1
  P  P7  1  0.810951  0.811606  0.000000  1
  P  P8  1  0.524085  0.695406  0.500000  1
  P  P9  1  0.300640  0.824760  0.500000  1
  P  P10  1  0.170044  0.473732  0.500000  1
  P  P11  1  0.475880  0.175240  0.500000  1
  P  P12  1  0.696313  0.526268  0.500000  1
  P  P13  1  0.828680  0.304594  0.500000  1
  P  P14  1  0.626301  0.000000  0.000000  1
  P  P15  1  0.999631  0.623484  0.000000  1
  P  P16  1  0.376147  0.376516  0.000000  1
  Ru  Ru17  1  0.999072  0.444558  0.000000  1
  Ru  Ru18  1  0.554514  0.555442  0.000000  1
  Ru  Ru19  1  0.289036  0.000000  0.500000  1
  Ru  Ru20  1  0.998945  0.285372  0.500000  1
  Ru  Ru21  1  0.713573  0.714628  0.500000  1
  Ru  Ru22  1  0.620328  0.805802  0.000000  1
  Ru  Ru23  1  0.194391  0.815072  0.000000  1
  Ru  Ru24  1  0.183648  0.377745  0.000000  1
  Ru  Ru25  1  0.379319  0.184928  0.000000  1
  Ru  Ru26  1  0.805904  0.622255  0.000000  1
  Ru  Ru27  1  0.814526  0.194198  0.000000  1
  Ru  Ru28  1  0.508246  0.876331  0.500000  1
  Ru  Ru29  1  0.122724  0.630882  0.500000  1
  Ru  Ru30  1  0.367106  0.491345  0.500000  1
  Ru  Ru31  1  0.491842  0.369118  0.500000  1
  Ru  Ru32  1  0.875763  0.508655  0.500000  1
  Ru  Ru33  1  0.631916  0.123669  0.500000  1
  Ru  Ru34  1  0.001482  0.000000  0.000000  1
  Rh  Rh35  1  0.446697  0.000000  0.000000  1
