# generated using pymatgen
data_Ac20Si15S
_symmetry_space_group_name_H-M   'P 1'
_cell_length_a   8.27751398
_cell_length_b   8.27054705
_cell_length_c   16.38108100
_cell_angle_alpha   89.89595991
_cell_angle_beta   89.67279505
_cell_angle_gamma   90.06497537
_symmetry_Int_Tables_number   1
_chemical_formula_structural   Ac20Si15S
_chemical_formula_sum   'Ac20 Si15 S1'
_cell_volume   1121.42087201
_cell_formula_units_Z   1
loop_
 _symmetry_equiv_pos_site_id
 _symmetry_equiv_pos_as_xyz
  1  'x, y, z'
loop_
 _atom_site_type_symbol
 _atom_site_label
 _atom_site_symmetry_multiplicity
 _atom_site_fract_x
 _atom_site_fract_y
 _atom_site_fract_z
 _atom_site_occupancy
  Ac  Ac0  1  0.311871  0.308191  0.000958  1
  Ac  Ac1  1  0.188915  0.808017  0.248855  1
  Ac  Ac2  1  0.798221  0.191541  0.752039  1
  Ac  Ac3  1  0.686306  0.687934  0.497845  1
  Ac  Ac4  1  0.382286  0.008734  0.442403  1
  Ac  Ac5  1  0.490574  0.872684  0.696996  1
  Ac  Ac6  1  0.514601  0.118721  0.195207  1
  Ac  Ac7  1  0.878009  0.482194  0.302417  1
  Ac  Ac8  1  0.122426  0.511578  0.802167  1
  Ac  Ac9  1  0.632341  0.981605  0.949672  1
  Ac  Ac10  1  0.004508  0.381453  0.550202  1
  Ac  Ac11  1  0.988918  0.622461  0.053834  1
  Ac  Ac12  1  0.141173  0.986882  0.870152  1
  Ac  Ac13  1  0.523823  0.625451  0.127533  1
  Ac  Ac14  1  0.462572  0.364728  0.632899  1
  Ac  Ac15  1  0.629769  0.527986  0.874811  1
  Ac  Ac16  1  0.372194  0.472392  0.374186  1
  Ac  Ac17  1  0.875651  0.024940  0.378542  1
  Ac  Ac18  1  0.977472  0.125264  0.123728  1
  Ac  Ac19  1  0.027298  0.876462  0.621716  1
  Si  Si20  1  0.328592  0.699434  0.956777  1
  Si  Si21  1  0.664911  0.303612  0.462979  1
  Si  Si22  1  0.702532  0.332135  0.042672  1
  Si  Si23  1  0.304082  0.667983  0.543061  1
  Si  Si24  1  0.805104  0.828239  0.210059  1
  Si  Si25  1  0.172978  0.193956  0.290746  1
  Si  Si26  1  0.839370  0.803849  0.789818  1
  Si  Si27  1  0.287562  0.918945  0.057224  1
  Si  Si28  1  0.582469  0.786700  0.308921  1
  Si  Si29  1  0.449019  0.210235  0.824860  1
  Si  Si30  1  0.789578  0.584622  0.688300  1
  Si  Si31  1  0.209282  0.419924  0.191375  1
  Si  Si32  1  0.703988  0.079395  0.561071  1
  Si  Si33  1  0.924264  0.290876  0.940249  1
  Si  Si34  1  0.080219  0.708863  0.441317  1
  S  S35  1  0.147123  0.192012  0.694408  1
