# generated using pymatgen
data_Sr21Ga8HgBi6
_symmetry_space_group_name_H-M   'P 1'
_cell_length_a   12.19281292
_cell_length_b   12.19281377
_cell_length_c   12.19281300
_cell_angle_alpha   60.00000480
_cell_angle_beta   60.00000250
_cell_angle_gamma   59.99999927
_symmetry_Int_Tables_number   1
_chemical_formula_structural   Sr21Ga8HgBi6
_chemical_formula_sum   'Sr21 Ga8 Hg1 Bi6'
_cell_volume   1281.73070337
_cell_formula_units_Z   1
loop_
 _symmetry_equiv_pos_site_id
 _symmetry_equiv_pos_as_xyz
  1  'x, y, z'
loop_
 _atom_site_type_symbol
 _atom_site_label
 _atom_site_symmetry_multiplicity
 _atom_site_fract_x
 _atom_site_fract_y
 _atom_site_fract_z
 _atom_site_occupancy
  Sr  Sr0  1  0.866579  0.866579  0.400262  1
  Sr  Sr1  1  0.599738  0.133421  0.133421  1
  Sr  Sr2  1  0.866579  0.400262  0.866579  1
  Sr  Sr3  1  0.133421  0.133421  0.133421  1
  Sr  Sr4  1  0.400262  0.866579  0.866579  1
  Sr  Sr5  1  0.866579  0.866579  0.866579  1
  Sr  Sr6  1  0.180328  0.819672  0.500000  1
  Sr  Sr7  1  0.819672  0.500000  0.500000  1
  Sr  Sr8  1  0.133421  0.133421  0.599738  1
  Sr  Sr9  1  0.819672  0.180328  0.500000  1
  Sr  Sr10  1  0.180328  0.500000  0.500000  1
  Sr  Sr11  1  0.133421  0.599738  0.133421  1
  Sr  Sr12  1  0.500000  0.500000  0.180328  1
  Sr  Sr13  1  0.500000  0.180328  0.819672  1
  Sr  Sr14  1  0.500000  0.819672  0.180328  1
  Sr  Sr15  1  0.500000  0.500000  0.819672  1
  Sr  Sr16  1  0.500000  0.180328  0.500000  1
  Sr  Sr17  1  0.180328  0.500000  0.819672  1
  Sr  Sr18  1  0.000000  0.000000  0.000000  1
  Sr  Sr19  1  0.500000  0.819672  0.500000  1
  Sr  Sr20  1  0.819672  0.500000  0.180328  1
  Ga  Ga21  1  0.693229  0.920313  0.693229  1
  Ga  Ga22  1  0.693229  0.693229  0.920313  1
  Ga  Ga23  1  0.693229  0.693229  0.693229  1
  Ga  Ga24  1  0.306771  0.079687  0.306771  1
  Ga  Ga25  1  0.920313  0.693229  0.693229  1
  Ga  Ga26  1  0.306771  0.306771  0.079687  1
  Ga  Ga27  1  0.079687  0.306771  0.306771  1
  Ga  Ga28  1  0.306771  0.306771  0.306771  1
  Hg  Hg29  1  0.500000  0.500000  0.500000  1
  Bi  Bi30  1  0.792551  0.207449  0.792551  1
  Bi  Bi31  1  0.792551  0.207449  0.207449  1
  Bi  Bi32  1  0.207449  0.792551  0.207449  1
  Bi  Bi33  1  0.207449  0.792551  0.792551  1
  Bi  Bi34  1  0.792551  0.792551  0.207449  1
  Bi  Bi35  1  0.207449  0.207449  0.792551  1
