# generated using pymatgen
data_Pr8MgSc10Si16Au
_symmetry_space_group_name_H-M   'P 1'
_cell_length_a   7.17349611
_cell_length_b   7.58127102
_cell_length_c   14.28762700
_cell_angle_alpha   90.00000000
_cell_angle_beta   90.00000000
_cell_angle_gamma   90.06037905
_symmetry_Int_Tables_number   1
_chemical_formula_structural   Pr8MgSc10Si16Au
_chemical_formula_sum   'Pr8 Mg1 Sc10 Si16 Au1'
_cell_volume   777.02099255
_cell_formula_units_Z   1
loop_
 _symmetry_equiv_pos_site_id
 _symmetry_equiv_pos_as_xyz
  1  'x, y, z'
loop_
 _atom_site_type_symbol
 _atom_site_label
 _atom_site_symmetry_multiplicity
 _atom_site_fract_x
 _atom_site_fract_y
 _atom_site_fract_z
 _atom_site_occupancy
  Pr  Pr0  1  0.009820  0.177426  0.401912  1
  Pr  Pr1  1  0.515435  0.330360  0.400329  1
  Pr  Pr2  1  0.493525  0.682107  0.898560  1
  Pr  Pr3  1  0.493525  0.682107  0.601440  1
  Pr  Pr4  1  0.980110  0.829282  0.603889  1
  Pr  Pr5  1  0.980110  0.829282  0.896111  1
  Pr  Pr6  1  0.515435  0.330360  0.099671  1
  Pr  Pr7  1  0.009820  0.177426  0.098088  1
  Mg  Mg8  1  0.845086  0.500469  0.250000  1
  Sc  Sc9  1  0.334900  0.172564  0.624113  1
  Sc  Sc10  1  0.673406  0.817276  0.375010  1
  Sc  Sc11  1  0.166743  0.676229  0.376398  1
  Sc  Sc12  1  0.826472  0.310995  0.874609  1
  Sc  Sc13  1  0.826472  0.310995  0.625391  1
  Sc  Sc14  1  0.341808  0.996779  0.250000  1
  Sc  Sc15  1  0.334900  0.172564  0.875887  1
  Sc  Sc16  1  0.166743  0.676229  0.123602  1
  Sc  Sc17  1  0.673406  0.817276  0.124990  1
  Sc  Sc18  1  0.159260  0.492901  0.750000  1
  Si  Si19  1  0.282459  0.885163  0.750000  1
  Si  Si20  1  0.458323  0.625585  0.250000  1
  Si  Si21  1  0.045204  0.123537  0.750000  1
  Si  Si22  1  0.530881  0.383949  0.750000  1
  Si  Si23  1  0.154449  0.466217  0.540928  1
  Si  Si24  1  0.968030  0.883660  0.250000  1
  Si  Si25  1  0.708865  0.100971  0.250000  1
  Si  Si26  1  0.848654  0.539498  0.031828  1
  Si  Si27  1  0.347239  0.964982  0.040648  1
  Si  Si28  1  0.154449  0.466217  0.959072  1
  Si  Si29  1  0.653870  0.040834  0.529439  1
  Si  Si30  1  0.347239  0.964982  0.459352  1
  Si  Si31  1  0.848654  0.539498  0.468172  1
  Si  Si32  1  0.793397  0.588139  0.750000  1
  Si  Si33  1  0.219033  0.386400  0.250000  1
  Si  Si34  1  0.653870  0.040834  0.970561  1
  Au  Au35  1  0.638404  0.016907  0.750000  1
