# generated using pymatgen
data_LaSb12Os3W
_symmetry_space_group_name_H-M   'P 1'
_cell_length_a   8.17522119
_cell_length_b   8.23559996
_cell_length_c   8.23560062
_cell_angle_alpha   109.61925224
_cell_angle_beta   109.32276838
_cell_angle_gamma   109.32277376
_symmetry_Int_Tables_number   1
_chemical_formula_structural   LaSb12Os3W
_chemical_formula_sum   'La1 Sb12 Os3 W1'
_cell_volume   427.62252041
_cell_formula_units_Z   1
loop_
 _symmetry_equiv_pos_site_id
 _symmetry_equiv_pos_as_xyz
  1  'x, y, z'
loop_
 _atom_site_type_symbol
 _atom_site_label
 _atom_site_symmetry_multiplicity
 _atom_site_fract_x
 _atom_site_fract_y
 _atom_site_fract_z
 _atom_site_occupancy
  La  La0  1  0.000000  0.000000  0.000000  1
  Sb  Sb1  1  0.335809  0.185268  0.839901  1
  Sb  Sb2  1  0.664191  0.814732  0.160099  1
  Sb  Sb3  1  0.661968  0.504994  0.842191  1
  Sb  Sb4  1  0.338032  0.495006  0.157809  1
  Sb  Sb5  1  0.180222  0.842191  0.337196  1
  Sb  Sb6  1  0.819778  0.157809  0.662804  1
  Sb  Sb7  1  0.504091  0.839901  0.654632  1
  Sb  Sb8  1  0.495909  0.160099  0.345368  1
  Sb  Sb9  1  0.849459  0.345368  0.185268  1
  Sb  Sb10  1  0.150541  0.654632  0.814732  1
  Sb  Sb11  1  0.843026  0.662804  0.504994  1
  Sb  Sb12  1  0.156974  0.337196  0.495006  1
  Os  Os13  1  0.000000  0.000000  0.500000  1
  Os  Os14  1  0.000000  0.500000  0.000000  1
  Os  Os15  1  0.500000  0.500000  0.500000  1
  W  W16  1  0.500000  0.000000  0.000000  1
