# generated using pymatgen
data_La5TcAu2
_symmetry_space_group_name_H-M   'P 1'
_cell_length_a   8.86670300
_cell_length_b   8.76813000
_cell_length_c   12.14376800
_cell_angle_alpha   90.00000000
_cell_angle_beta   90.00000000
_cell_angle_gamma   90.00000000
_symmetry_Int_Tables_number   1
_chemical_formula_structural   La5TcAu2
_chemical_formula_sum   'La20 Tc4 Au8'
_cell_volume   944.11001246
_cell_formula_units_Z   4
loop_
 _symmetry_equiv_pos_site_id
 _symmetry_equiv_pos_as_xyz
  1  'x, y, z'
loop_
 _atom_site_type_symbol
 _atom_site_label
 _atom_site_symmetry_multiplicity
 _atom_site_fract_x
 _atom_site_fract_y
 _atom_site_fract_z
 _atom_site_occupancy
  La  La0  1  0.843123  0.750000  0.794277  1
  La  La1  1  0.156877  0.250000  0.205723  1
  La  La2  1  0.343123  0.250000  0.705723  1
  La  La3  1  0.656877  0.750000  0.294277  1
  La  La4  1  0.389328  0.750000  0.702491  1
  La  La5  1  0.610672  0.250000  0.297509  1
  La  La6  1  0.889328  0.250000  0.797509  1
  La  La7  1  0.110672  0.750000  0.202491  1
  La  La8  1  0.954422  0.750000  0.497139  1
  La  La9  1  0.045578  0.250000  0.502861  1
  La  La10  1  0.454422  0.250000  0.002861  1
  La  La11  1  0.545578  0.750000  0.997139  1
  La  La12  1  0.677603  0.036346  0.572820  1
  La  La13  1  0.322397  0.963654  0.427180  1
  La  La14  1  0.177603  0.963654  0.927180  1
  La  La15  1  0.322397  0.536346  0.427180  1
  La  La16  1  0.822397  0.036346  0.072820  1
  La  La17  1  0.677603  0.463654  0.572820  1
  La  La18  1  0.822397  0.463654  0.072820  1
  La  La19  1  0.177603  0.536346  0.927180  1
  Tc  Tc20  1  0.578023  0.750000  0.515666  1
  Tc  Tc21  1  0.421977  0.250000  0.484334  1
  Tc  Tc22  1  0.078023  0.250000  0.984334  1
  Tc  Tc23  1  0.921977  0.750000  0.015666  1
  Au  Au24  1  0.577843  0.476464  0.828546  1
  Au  Au25  1  0.422157  0.523536  0.171454  1
  Au  Au26  1  0.077843  0.523536  0.671454  1
  Au  Au27  1  0.422157  0.976464  0.171454  1
  Au  Au28  1  0.922157  0.476464  0.328546  1
  Au  Au29  1  0.577843  0.023536  0.828546  1
  Au  Au30  1  0.922157  0.023536  0.328546  1
  Au  Au31  1  0.077843  0.976464  0.671454  1
