# generated using pymatgen
data_Tb7PrCu2(Si6Pd)2
_symmetry_space_group_name_H-M   'P 1'
_cell_length_a   8.10701000
_cell_length_b   8.10701034
_cell_length_c   8.24496400
_cell_angle_alpha   90.00000000
_cell_angle_beta   90.00000000
_cell_angle_gamma   119.99999862
_symmetry_Int_Tables_number   1
_chemical_formula_structural   Tb7PrCu2(Si6Pd)2
_chemical_formula_sum   'Tb7 Pr1 Cu2 Si12 Pd2'
_cell_volume   469.28949973
_cell_formula_units_Z   1
loop_
 _symmetry_equiv_pos_site_id
 _symmetry_equiv_pos_as_xyz
  1  'x, y, z'
loop_
 _atom_site_type_symbol
 _atom_site_label
 _atom_site_symmetry_multiplicity
 _atom_site_fract_x
 _atom_site_fract_y
 _atom_site_fract_z
 _atom_site_occupancy
  Tb  Tb0  1  0.499630  0.500370  0.750291  1
  Tb  Tb1  1  0.500378  0.499622  0.249661  1
  Tb  Tb2  1  0.000740  0.500370  0.750291  1
  Tb  Tb3  1  0.999243  0.499622  0.249661  1
  Tb  Tb4  1  0.499630  0.999260  0.750291  1
  Tb  Tb5  1  0.500378  0.000757  0.249661  1
  Tb  Tb6  1  0.000000  0.000000  0.749907  1
  Pr  Pr7  1  0.000000  0.000000  0.249502  1
  Cu  Cu8  1  0.666667  0.333333  0.999402  1
  Cu  Cu9  1  0.333333  0.666667  0.001573  1
  Si  Si10  1  0.830301  0.169699  0.996504  1
  Si  Si11  1  0.169696  0.830304  0.996699  1
  Si  Si12  1  0.339397  0.169699  0.996504  1
  Si  Si13  1  0.166404  0.833596  0.503380  1
  Si  Si14  1  0.660607  0.830304  0.996699  1
  Si  Si15  1  0.833602  0.166398  0.503682  1
  Si  Si16  1  0.830301  0.660603  0.996504  1
  Si  Si17  1  0.667193  0.833596  0.503380  1
  Si  Si18  1  0.169696  0.339393  0.996699  1
  Si  Si19  1  0.332796  0.166398  0.503682  1
  Si  Si20  1  0.166404  0.332807  0.503380  1
  Si  Si21  1  0.833602  0.667204  0.503682  1
  Pd  Pd22  1  0.333333  0.666667  0.498500  1
  Pd  Pd23  1  0.666667  0.333333  0.500462  1
