# generated using pymatgen
data_Sm12B3AsCl12
_symmetry_space_group_name_H-M   'P 1'
_cell_length_a   9.84679969
_cell_length_b   9.84680022
_cell_length_c   9.84680073
_cell_angle_alpha   109.94494355
_cell_angle_beta   109.94494971
_cell_angle_gamma   109.94494971
_symmetry_Int_Tables_number   1
_chemical_formula_structural   Sm12B3AsCl12
_chemical_formula_sum   'Sm12 B3 As1 Cl12'
_cell_volume   721.78137295
_cell_formula_units_Z   1
loop_
 _symmetry_equiv_pos_site_id
 _symmetry_equiv_pos_as_xyz
  1  'x, y, z'
loop_
 _atom_site_type_symbol
 _atom_site_label
 _atom_site_symmetry_multiplicity
 _atom_site_fract_x
 _atom_site_fract_y
 _atom_site_fract_z
 _atom_site_occupancy
  Sm  Sm0  1  0.479791  0.503005  0.230111  1
  Sm  Sm1  1  0.750000  0.233096  0.266904  1
  Sm  Sm2  1  0.750000  0.014432  0.485568  1
  Sm  Sm3  1  0.230111  0.479791  0.503005  1
  Sm  Sm4  1  0.266904  0.750000  0.233096  1
  Sm  Sm5  1  0.020209  0.269889  0.996995  1
  Sm  Sm6  1  0.996995  0.020209  0.269889  1
  Sm  Sm7  1  0.485568  0.750000  0.014432  1
  Sm  Sm8  1  0.503005  0.230111  0.479791  1
  Sm  Sm9  1  0.014432  0.485568  0.750000  1
  Sm  Sm10  1  0.269889  0.996995  0.020209  1
  Sm  Sm11  1  0.233096  0.266904  0.750000  1
  B  B12  1  0.498939  0.001061  0.250000  1
  B  B13  1  0.001061  0.250000  0.498939  1
  B  B14  1  0.250000  0.498939  0.001061  1
  As  As15  1  0.250000  0.250000  0.250000  1
  Cl  Cl16  1  0.250000  0.755558  0.744442  1
  Cl  Cl17  1  0.506309  0.504028  0.754173  1
  Cl  Cl18  1  0.993691  0.745827  0.995972  1
  Cl  Cl19  1  0.744442  0.250000  0.755558  1
  Cl  Cl20  1  0.995972  0.993691  0.745827  1
  Cl  Cl21  1  0.250000  0.998087  0.501913  1
  Cl  Cl22  1  0.754173  0.506309  0.504028  1
  Cl  Cl23  1  0.501913  0.250000  0.998087  1
  Cl  Cl24  1  0.755558  0.744442  0.250000  1
  Cl  Cl25  1  0.745827  0.995972  0.993691  1
  Cl  Cl26  1  0.998087  0.501913  0.250000  1
  Cl  Cl27  1  0.504028  0.754173  0.506309  1
