# generated using pymatgen
data_Zr10Zn2Bi5Pb
_symmetry_space_group_name_H-M   'P 1'
_cell_length_a   8.86654300
_cell_length_b   8.87462184
_cell_length_c   5.93589700
_cell_angle_alpha   90.00000000
_cell_angle_beta   90.00000000
_cell_angle_gamma   119.96988733
_symmetry_Int_Tables_number   1
_chemical_formula_structural   Zr10Zn2Bi5Pb
_chemical_formula_sum   'Zr10 Zn2 Bi5 Pb1'
_cell_volume   404.62514627
_cell_formula_units_Z   1
loop_
 _symmetry_equiv_pos_site_id
 _symmetry_equiv_pos_as_xyz
  1  'x, y, z'
loop_
 _atom_site_type_symbol
 _atom_site_label
 _atom_site_symmetry_multiplicity
 _atom_site_fract_x
 _atom_site_fract_y
 _atom_site_fract_z
 _atom_site_occupancy
  Zr  Zr0  1  0.333783  0.667358  0.999435  1
  Zr  Zr1  1  0.666427  0.332642  0.500565  1
  Zr  Zr2  1  0.666427  0.332642  0.999435  1
  Zr  Zr3  1  0.333783  0.667358  0.500565  1
  Zr  Zr4  1  0.265085  0.000000  0.250000  1
  Zr  Zr5  1  0.266530  0.266018  0.750000  1
  Zr  Zr6  1  0.000512  0.733982  0.750000  1
  Zr  Zr7  1  0.000771  0.266587  0.250000  1
  Zr  Zr8  1  0.734185  0.733413  0.250000  1
  Zr  Zr9  1  0.733127  0.000000  0.750000  1
  Zn  Zn10  1  0.000303  0.000000  0.999282  1
  Zn  Zn11  1  0.000303  0.000000  0.500718  1
  Bi  Bi12  1  0.614277  0.000000  0.250000  1
  Bi  Bi13  1  0.614650  0.614839  0.750000  1
  Bi  Bi14  1  0.999811  0.385161  0.750000  1
  Bi  Bi15  1  0.000938  0.615390  0.250000  1
  Bi  Bi16  1  0.385547  0.384610  0.250000  1
  Pb  Pb17  1  0.383540  0.000000  0.750000  1
