# generated using pymatgen
data_Ti8SiBi4P
_symmetry_space_group_name_H-M   'P 1'
_cell_length_a   7.82186344
_cell_length_b   7.82186414
_cell_length_c   7.82186429
_cell_angle_alpha   95.70311916
_cell_angle_beta   95.70312259
_cell_angle_gamma   143.24983123
_symmetry_Int_Tables_number   1
_chemical_formula_structural   Ti8SiBi4P
_chemical_formula_sum   'Ti8 Si1 Bi4 P1'
_cell_volume   271.73251308
_cell_formula_units_Z   1
loop_
 _symmetry_equiv_pos_site_id
 _symmetry_equiv_pos_as_xyz
  1  'x, y, z'
loop_
 _atom_site_type_symbol
 _atom_site_label
 _atom_site_symmetry_multiplicity
 _atom_site_fract_x
 _atom_site_fract_y
 _atom_site_fract_z
 _atom_site_occupancy
  Ti  Ti0  1  0.078503  0.193301  0.276733  1
  Ti  Ti1  1  0.916566  0.801768  0.723267  1
  Ti  Ti2  1  0.801768  0.078503  0.885201  1
  Ti  Ti3  1  0.421497  0.698232  0.114799  1
  Ti  Ti4  1  0.193301  0.916566  0.114799  1
  Ti  Ti5  1  0.583434  0.306699  0.885201  1
  Ti  Ti6  1  0.698232  0.583434  0.276733  1
  Ti  Ti7  1  0.306699  0.421497  0.723267  1
  Si  Si8  1  0.250000  0.250000  0.000000  1
  Bi  Bi9  1  0.139159  0.639159  0.778318  1
  Bi  Bi10  1  0.860841  0.360841  0.221682  1
  Bi  Bi11  1  0.360841  0.139159  0.500000  1
  Bi  Bi12  1  0.639159  0.860841  0.500000  1
  P  P13  1  0.750000  0.750000  0.000000  1
