# generated using pymatgen
data_Rb2Mo(PO4)2
_symmetry_space_group_name_H-M   'P 1'
_cell_length_a   5.19235900
_cell_length_b   5.19245235
_cell_length_c   9.47104600
_cell_angle_alpha   89.99921800
_cell_angle_beta   90.00023134
_cell_angle_gamma   120.00015762
_symmetry_Int_Tables_number   1
_chemical_formula_structural   Rb2Mo(PO4)2
_chemical_formula_sum   'Rb2 Mo1 P2 O8'
_cell_volume   221.13888706
_cell_formula_units_Z   1
loop_
 _symmetry_equiv_pos_site_id
 _symmetry_equiv_pos_as_xyz
  1  'x, y, z'
loop_
 _atom_site_type_symbol
 _atom_site_label
 _atom_site_symmetry_multiplicity
 _atom_site_fract_x
 _atom_site_fract_y
 _atom_site_fract_z
 _atom_site_occupancy
  Rb  Rb0  1  0.333334  0.666666  0.147838  1
  Rb  Rb1  1  0.666666  0.333334  0.852162  1
  Mo  Mo2  1  0.000000  0.000000  0.500000  1
  P  P3  1  0.333333  0.666669  0.681745  1
  P  P4  1  0.666667  0.333331  0.318255  1
  O  O5  1  0.086676  0.730355  0.627572  1
  O  O6  1  0.333333  0.666663  0.843370  1
  O  O7  1  0.269643  0.356319  0.627570  1
  O  O8  1  0.643679  0.913322  0.627570  1
  O  O9  1  0.356321  0.086678  0.372430  1
  O  O10  1  0.730357  0.643681  0.372430  1
  O  O11  1  0.666667  0.333337  0.156630  1
  O  O12  1  0.913324  0.269645  0.372428  1
