# generated using pymatgen
data_Nd8Y12GaSi15
_symmetry_space_group_name_H-M   'P 1'
_cell_length_a   7.77865516
_cell_length_b   7.79498976
_cell_length_c   14.49116907
_cell_angle_alpha   90.04258490
_cell_angle_beta   89.83552524
_cell_angle_gamma   90.02782931
_symmetry_Int_Tables_number   1
_chemical_formula_structural   Nd8Y12GaSi15
_chemical_formula_sum   'Nd8 Y12 Ga1 Si15'
_cell_volume   878.66136725
_cell_formula_units_Z   1
loop_
 _symmetry_equiv_pos_site_id
 _symmetry_equiv_pos_as_xyz
  1  'x, y, z'
loop_
 _atom_site_type_symbol
 _atom_site_label
 _atom_site_symmetry_multiplicity
 _atom_site_fract_x
 _atom_site_fract_y
 _atom_site_fract_z
 _atom_site_occupancy
  Nd  Nd0  1  0.638131  0.991948  0.454643  1
  Nd  Nd1  1  0.363064  0.009756  0.957155  1
  Nd  Nd2  1  0.988271  0.632875  0.544761  1
  Nd  Nd3  1  0.492172  0.863402  0.205298  1
  Nd  Nd4  1  0.512147  0.140825  0.708364  1
  Nd  Nd5  1  0.863107  0.491837  0.795405  1
  Nd  Nd6  1  0.136815  0.507792  0.292591  1
  Nd  Nd7  1  0.009735  0.362221  0.043542  1
  Y  Y8  1  0.488808  0.362241  0.124315  1
  Y  Y9  1  0.983959  0.140911  0.627740  1
  Y  Y10  1  0.864466  0.010933  0.875183  1
  Y  Y11  1  0.136254  0.988921  0.373081  1
  Y  Y12  1  0.511812  0.634166  0.624995  1
  Y  Y13  1  0.365112  0.488660  0.876552  1
  Y  Y14  1  0.637659  0.509666  0.373851  1
  Y  Y15  1  0.010260  0.863770  0.124752  1
  Y  Y16  1  0.313230  0.318893  0.499230  1
  Y  Y17  1  0.186241  0.815707  0.751625  1
  Y  Y18  1  0.816467  0.183813  0.249388  1
  Y  Y19  1  0.684124  0.685757  0.000361  1
  Ga  Ga20  1  0.284166  0.932766  0.562246  1
  Si  Si21  1  0.710700  0.066133  0.061129  1
  Si  Si22  1  0.934136  0.289617  0.437961  1
  Si  Si23  1  0.432449  0.211733  0.310754  1
  Si  Si24  1  0.567854  0.788139  0.811498  1
  Si  Si25  1  0.210870  0.433148  0.690068  1
  Si  Si26  1  0.788642  0.566484  0.187694  1
  Si  Si27  1  0.068103  0.710891  0.939448  1
  Si  Si28  1  0.798644  0.842042  0.694029  1
  Si  Si29  1  0.200665  0.156389  0.190421  1
  Si  Si30  1  0.843179  0.798107  0.306415  1
  Si  Si31  1  0.344164  0.700855  0.439758  1
  Si  Si32  1  0.658004  0.298752  0.942429  1
  Si  Si33  1  0.698743  0.342254  0.556093  1
  Si  Si34  1  0.299334  0.656724  0.058604  1
  Si  Si35  1  0.158511  0.201874  0.808622  1
