# generated using pymatgen
data_LiCrAg2F7
_symmetry_space_group_name_H-M   'P 1'
_cell_length_a   7.40412316
_cell_length_b   7.40369478
_cell_length_c   7.40385204
_cell_angle_alpha   120.53764690
_cell_angle_beta   118.89840738
_cell_angle_gamma   90.49324211
_symmetry_Int_Tables_number   1
_chemical_formula_structural   LiCrAg2F7
_chemical_formula_sum   'Li2 Cr2 Ag4 F14'
_cell_volume   288.13152329
_cell_formula_units_Z   2
loop_
 _symmetry_equiv_pos_site_id
 _symmetry_equiv_pos_as_xyz
  1  'x, y, z'
loop_
 _atom_site_type_symbol
 _atom_site_label
 _atom_site_symmetry_multiplicity
 _atom_site_fract_x
 _atom_site_fract_y
 _atom_site_fract_z
 _atom_site_occupancy
  Li  Li0  1  0.000000  0.500000  0.500000  1
  Li  Li1  1  0.500000  0.000000  0.500000  1
  Cr  Cr2  1  0.500000  0.500000  0.500000  1
  Cr  Cr3  1  0.500000  0.000000  0.000000  1
  Ag  Ag4  1  0.500000  0.500000  0.000000  1
  Ag  Ag5  1  0.000000  0.000000  0.000000  1
  Ag  Ag6  1  0.000000  0.500000  0.000000  1
  Ag  Ag7  1  0.000000  0.000000  0.500000  1
  F  F8  1  0.856725  0.614445  0.242270  1
  F  F9  1  0.127887  0.885495  0.242382  1
  F  F10  1  0.193133  0.822075  0.776580  1
  F  F11  1  0.454504  0.677946  0.371029  1
  F  F12  1  0.454510  0.083482  0.776595  1
  F  F13  1  0.193102  0.416546  0.371050  1
  F  F14  1  0.806898  0.583454  0.628950  1
  F  F15  1  0.545490  0.916518  0.223405  1
  F  F16  1  0.545496  0.322054  0.628971  1
  F  F17  1  0.806867  0.177925  0.223420  1
  F  F18  1  0.413036  0.249987  0.163019  1
  F  F19  1  0.143275  0.385555  0.757730  1
  F  F20  1  0.872113  0.114505  0.757618  1
  F  F21  1  0.586964  0.750013  0.836981  1
