# generated using pymatgen
data_Sr2Cd3SnPt2
_symmetry_space_group_name_H-M   'P 1'
_cell_length_a   5.88101556
_cell_length_b   5.88101521
_cell_length_c   8.39922819
_cell_angle_alpha   90.24725531
_cell_angle_beta   89.75274688
_cell_angle_gamma   136.37877778
_symmetry_Int_Tables_number   1
_chemical_formula_structural   Sr2Cd3SnPt2
_chemical_formula_sum   'Sr2 Cd3 Sn1 Pt2'
_cell_volume   200.40923948
_cell_formula_units_Z   1
loop_
 _symmetry_equiv_pos_site_id
 _symmetry_equiv_pos_as_xyz
  1  'x, y, z'
loop_
 _atom_site_type_symbol
 _atom_site_label
 _atom_site_symmetry_multiplicity
 _atom_site_fract_x
 _atom_site_fract_y
 _atom_site_fract_z
 _atom_site_occupancy
  Sr  Sr0  1  0.935941  0.064059  0.244009  1
  Sr  Sr1  1  0.061931  0.938069  0.751920  1
  Cd  Cd2  1  0.359549  0.640451  0.558262  1
  Cd  Cd3  1  0.652198  0.347802  0.048158  1
  Cd  Cd4  1  0.346704  0.653296  0.947525  1
  Sn  Sn5  1  0.654193  0.345807  0.446208  1
  Pt  Pt6  1  0.217287  0.782713  0.262265  1
  Pt  Pt7  1  0.772197  0.227803  0.741653  1
