# generated using pymatgen
data_Ho5Mn2Fe11(CoP2)6
_symmetry_space_group_name_H-M   'P 1'
_cell_length_a   11.96166462
_cell_length_b   11.99228108
_cell_length_c   3.67999600
_cell_angle_alpha   90.00000000
_cell_angle_beta   90.00000000
_cell_angle_gamma   119.97660393
_symmetry_Int_Tables_number   1
_chemical_formula_structural   Ho5Mn2Fe11(CoP2)6
_chemical_formula_sum   'Ho5 Mn2 Fe11 Co6 P12'
_cell_volume   457.27108226
_cell_formula_units_Z   1
loop_
 _symmetry_equiv_pos_site_id
 _symmetry_equiv_pos_as_xyz
  1  'x, y, z'
loop_
 _atom_site_type_symbol
 _atom_site_label
 _atom_site_symmetry_multiplicity
 _atom_site_fract_x
 _atom_site_fract_y
 _atom_site_fract_z
 _atom_site_occupancy
  Ho  Ho0  1  0.667450  0.334047  0.000000  1
  Ho  Ho1  1  0.332381  0.665858  0.000000  1
  Ho  Ho2  1  0.815705  0.816134  0.500000  1
  Ho  Ho3  1  0.184089  0.999837  0.500000  1
  Ho  Ho4  1  0.999338  0.186544  0.500000  1
  Mn  Mn5  1  0.441659  0.440588  0.000000  1
  Mn  Mn6  1  0.560107  0.999518  0.000000  1
  Fe  Fe7  1  0.879201  0.361986  0.500000  1
  Fe  Fe8  1  0.641655  0.517450  0.500000  1
  Fe  Fe9  1  0.481819  0.121369  0.500000  1
  Fe  Fe10  1  0.358078  0.875377  0.500000  1
  Fe  Fe11  1  0.518009  0.639633  0.500000  1
  Fe  Fe12  1  0.122932  0.482876  0.500000  1
  Fe  Fe13  1  0.000739  0.557057  0.000000  1
  Fe  Fe14  1  0.802411  0.181567  0.000000  1
  Fe  Fe15  1  0.283794  0.284669  0.500000  1
  Fe  Fe16  1  0.714238  0.998484  0.500000  1
  Fe  Fe17  1  0.000130  0.715546  0.500000  1
  Co  Co18  1  0.821435  0.623344  0.000000  1
  Co  Co19  1  0.376532  0.196395  0.000000  1
  Co  Co20  1  0.178967  0.802174  0.000000  1
  Co  Co21  1  0.622809  0.818743  0.000000  1
  Co  Co22  1  0.196518  0.377779  0.000000  1
  Co  Co23  1  0.999719  0.000219  0.000000  1
  P  P24  1  0.690000  0.168802  0.500000  1
  P  P25  1  0.835614  0.520780  0.500000  1
  P  P26  1  0.479742  0.311605  0.500000  1
  P  P27  1  0.165085  0.685359  0.500000  1
  P  P28  1  0.519615  0.831211  0.500000  1
  P  P29  1  0.312373  0.480036  0.500000  1
  P  P30  1  0.181998  0.183149  0.000000  1
  P  P31  1  0.817014  0.002154  0.000000  1
  P  P32  1  0.999898  0.817321  0.000000  1
  P  P33  1  0.634254  0.632847  0.000000  1
  P  P34  1  0.366135  0.998842  0.000000  1
  P  P35  1  0.998558  0.370696  0.000000  1
