# generated using pymatgen
data_LiHo16Mg3Pb16
_symmetry_space_group_name_H-M   'P 1'
_cell_length_a   7.78843802
_cell_length_b   15.49621100
_cell_length_c   8.31855602
_cell_angle_alpha   90.00001058
_cell_angle_beta   90.00712666
_cell_angle_gamma   90.00000370
_symmetry_Int_Tables_number   1
_chemical_formula_structural   LiHo16Mg3Pb16
_chemical_formula_sum   'Li1 Ho16 Mg3 Pb16'
_cell_volume   1003.97715593
_cell_formula_units_Z   1
loop_
 _symmetry_equiv_pos_site_id
 _symmetry_equiv_pos_as_xyz
  1  'x, y, z'
loop_
 _atom_site_type_symbol
 _atom_site_label
 _atom_site_symmetry_multiplicity
 _atom_site_fract_x
 _atom_site_fract_y
 _atom_site_fract_z
 _atom_site_occupancy
  Li  Li0  1  0.665813  0.250000  0.007531  1
  Ho  Ho1  1  0.663461  0.628276  0.159693  1
  Ho  Ho2  1  0.163269  0.871591  0.339630  1
  Ho  Ho3  1  0.336795  0.128017  0.840209  1
  Ho  Ho4  1  0.836885  0.372076  0.660615  1
  Ho  Ho5  1  0.336793  0.371995  0.840203  1
  Ho  Ho6  1  0.836880  0.127939  0.660618  1
  Ho  Ho7  1  0.663460  0.871711  0.159689  1
  Ho  Ho8  1  0.163270  0.628398  0.339629  1
  Ho  Ho9  1  0.494159  0.590187  0.687216  1
  Ho  Ho10  1  0.993655  0.909699  0.813366  1
  Ho  Ho11  1  0.505822  0.089960  0.311466  1
  Ho  Ho12  1  0.005312  0.410224  0.187086  1
  Ho  Ho13  1  0.505824  0.410050  0.311464  1
  Ho  Ho14  1  0.005310  0.089785  0.187086  1
  Ho  Ho15  1  0.494160  0.909806  0.687214  1
  Ho  Ho16  1  0.993655  0.590293  0.813367  1
  Mg  Mg17  1  0.838094  0.750000  0.503813  1
  Mg  Mg18  1  0.338046  0.750000  0.996178  1
  Mg  Mg19  1  0.162407  0.250000  0.495612  1
  Pb  Pb20  1  0.690179  0.457670  0.960456  1
  Pb  Pb21  1  0.190515  0.041564  0.539616  1
  Pb  Pb22  1  0.309860  0.958338  0.039565  1
  Pb  Pb23  1  0.809762  0.541640  0.460316  1
  Pb  Pb24  1  0.309860  0.541661  0.039564  1
  Pb  Pb25  1  0.809762  0.958359  0.460316  1
  Pb  Pb26  1  0.690179  0.042330  0.960454  1
  Pb  Pb27  1  0.190516  0.458436  0.539616  1
  Pb  Pb28  1  0.481193  0.749999  0.403397  1
  Pb  Pb29  1  0.981148  0.749999  0.096884  1
  Pb  Pb30  1  0.520923  0.250000  0.598240  1
  Pb  Pb31  1  0.014545  0.250000  0.906078  1
  Pb  Pb32  1  0.688104  0.749999  0.838667  1
  Pb  Pb33  1  0.187963  0.749999  0.661407  1
  Pb  Pb34  1  0.313798  0.250000  0.157441  1
  Pb  Pb35  1  0.808625  0.250000  0.336296  1
