# generated using pymatgen
data_Sr4ZnP4Pd3
_symmetry_space_group_name_H-M   'P 1'
_cell_length_a   8.75226907
_cell_length_b   4.19744600
_cell_length_c   7.27863000
_cell_angle_alpha   90.00000000
_cell_angle_beta   89.99262222
_cell_angle_gamma   90.00000000
_symmetry_Int_Tables_number   1
_chemical_formula_structural   Sr4ZnP4Pd3
_chemical_formula_sum   'Sr4 Zn1 P4 Pd3'
_cell_volume   267.39631502
_cell_formula_units_Z   1
loop_
 _symmetry_equiv_pos_site_id
 _symmetry_equiv_pos_as_xyz
  1  'x, y, z'
loop_
 _atom_site_type_symbol
 _atom_site_label
 _atom_site_symmetry_multiplicity
 _atom_site_fract_x
 _atom_site_fract_y
 _atom_site_fract_z
 _atom_site_occupancy
  Sr  Sr0  1  0.496188  0.749999  0.255573  1
  Sr  Sr1  1  0.003808  0.749999  0.256669  1
  Sr  Sr2  1  0.008129  0.250000  0.743846  1
  Sr  Sr3  1  0.491874  0.250000  0.745091  1
  Zn  Zn4  1  0.750661  0.749999  0.910641  1
  P  P5  1  0.750393  0.250000  0.081559  1
  P  P6  1  0.250668  0.250000  0.415609  1
  P  P7  1  0.749594  0.749999  0.587022  1
  P  P8  1  0.249164  0.749999  0.917851  1
  Pd  Pd9  1  0.249339  0.250000  0.084281  1
  Pd  Pd10  1  0.749539  0.250000  0.417968  1
  Pd  Pd11  1  0.250645  0.749999  0.583889  1
