# generated using pymatgen
data_DyHo19AlBi11
_symmetry_space_group_name_H-M   'P 1'
_cell_length_a   8.20758814
_cell_length_b   9.47301600
_cell_length_c   11.99794200
_cell_angle_alpha   90.00000000
_cell_angle_beta   90.28411119
_cell_angle_gamma   90.00000000
_symmetry_Int_Tables_number   1
_chemical_formula_structural   DyHo19AlBi11
_chemical_formula_sum   'Dy1 Ho19 Al1 Bi11'
_cell_volume   932.83588611
_cell_formula_units_Z   1
loop_
 _symmetry_equiv_pos_site_id
 _symmetry_equiv_pos_as_xyz
  1  'x, y, z'
loop_
 _atom_site_type_symbol
 _atom_site_label
 _atom_site_symmetry_multiplicity
 _atom_site_fract_x
 _atom_site_fract_y
 _atom_site_fract_z
 _atom_site_occupancy
  Dy  Dy0  1  0.811305  0.250000  0.281000  1
  Ho  Ho1  1  0.354571  0.750000  0.207297  1
  Ho  Ho2  1  0.852720  0.750000  0.285091  1
  Ho  Ho3  1  0.648173  0.250000  0.784615  1
  Ho  Ho4  1  0.149557  0.250000  0.715442  1
  Ho  Ho5  1  0.686049  0.569204  0.055510  1
  Ho  Ho6  1  0.193738  0.936240  0.440637  1
  Ho  Ho7  1  0.307653  0.052755  0.941253  1
  Ho  Ho8  1  0.806304  0.436223  0.558819  1
  Ho  Ho9  1  0.307653  0.447245  0.941253  1
  Ho  Ho10  1  0.806304  0.063777  0.558819  1
  Ho  Ho11  1  0.686049  0.930796  0.055510  1
  Ho  Ho12  1  0.193738  0.563760  0.440637  1
  Ho  Ho13  1  0.474920  0.250000  0.488515  1
  Ho  Ho14  1  0.977502  0.250000  0.011284  1
  Ho  Ho15  1  0.525581  0.750000  0.511688  1
  Ho  Ho16  1  0.034648  0.750000  0.989052  1
  Ho  Ho17  1  0.312811  0.250000  0.219638  1
  Ho  Ho18  1  0.678785  0.750000  0.785854  1
  Ho  Ho19  1  0.190051  0.750000  0.722569  1
  Al  Al20  1  0.408857  0.750000  0.958468  1
  Bi  Bi21  1  0.908815  0.750000  0.544102  1
  Bi  Bi22  1  0.592289  0.250000  0.043044  1
  Bi  Bi23  1  0.092203  0.250000  0.457233  1
  Bi  Bi24  1  0.564398  0.995515  0.325830  1
  Bi  Bi25  1  0.063952  0.503791  0.175452  1
  Bi  Bi26  1  0.435872  0.496277  0.675269  1
  Bi  Bi27  1  0.935640  0.003983  0.824784  1
  Bi  Bi28  1  0.435872  0.003723  0.675269  1
  Bi  Bi29  1  0.935640  0.496017  0.824784  1
  Bi  Bi30  1  0.564398  0.504485  0.325830  1
  Bi  Bi31  1  0.063952  0.996209  0.175452  1
