# generated using pymatgen
data_Lu12Ga2CuNiOs2
_symmetry_space_group_name_H-M   'P 1'
_cell_length_a   8.19277934
_cell_length_b   8.19277792
_cell_length_c   8.19277837
_cell_angle_alpha   113.09544385
_cell_angle_beta   110.52346233
_cell_angle_gamma   104.90072339
_symmetry_Int_Tables_number   1
_chemical_formula_structural   Lu12Ga2CuNiOs2
_chemical_formula_sum   'Lu12 Ga2 Cu1 Ni1 Os2'
_cell_volume   421.09234286
_cell_formula_units_Z   1
loop_
 _symmetry_equiv_pos_site_id
 _symmetry_equiv_pos_as_xyz
  1  'x, y, z'
loop_
 _atom_site_type_symbol
 _atom_site_label
 _atom_site_symmetry_multiplicity
 _atom_site_fract_x
 _atom_site_fract_y
 _atom_site_fract_z
 _atom_site_occupancy
  Lu  Lu0  1  0.435762  0.242684  0.193078  1
  Lu  Lu1  1  0.563686  0.756317  0.807369  1
  Lu  Lu2  1  0.049606  0.242684  0.806922  1
  Lu  Lu3  1  0.948948  0.756317  0.192631  1
  Lu  Lu4  1  0.178642  0.273893  0.457136  1
  Lu  Lu5  1  0.816757  0.721506  0.542864  1
  Lu  Lu6  1  0.178642  0.721506  0.904750  1
  Lu  Lu7  1  0.816757  0.273893  0.095250  1
  Lu  Lu8  1  0.335721  0.644435  0.308714  1
  Lu  Lu9  1  0.671251  0.359010  0.687759  1
  Lu  Lu10  1  0.335721  0.027006  0.691286  1
  Lu  Lu11  1  0.671251  0.983493  0.312241  1
  Ga  Ga12  1  0.499156  0.499156  0.000000  1
  Ga  Ga13  1  0.999325  0.999325  0.000000  1
  Cu  Cu14  1  0.120282  0.620282  0.500000  1
  Ni  Ni15  1  0.880332  0.380332  0.500000  1
  Os  Os16  1  0.328692  0.999081  0.329611  1
  Os  Os17  1  0.669470  0.999081  0.670389  1
