# generated using pymatgen
data_YbPa3Ge6Ir7
_symmetry_space_group_name_H-M   'P 1'
_cell_length_a   7.31786689
_cell_length_b   7.31786669
_cell_length_c   7.31786657
_cell_angle_alpha   109.50875132
_cell_angle_beta   109.50875884
_cell_angle_gamma   109.50875134
_symmetry_Int_Tables_number   1
_chemical_formula_structural   YbPa3Ge6Ir7
_chemical_formula_sum   'Yb1 Pa3 Ge6 Ir7'
_cell_volume   301.24969451
_cell_formula_units_Z   1
loop_
 _symmetry_equiv_pos_site_id
 _symmetry_equiv_pos_as_xyz
  1  'x, y, z'
loop_
 _atom_site_type_symbol
 _atom_site_label
 _atom_site_symmetry_multiplicity
 _atom_site_fract_x
 _atom_site_fract_y
 _atom_site_fract_z
 _atom_site_occupancy
  Yb  Yb0  1  0.500000  0.500000  0.500000  1
  Pa  Pa1  1  0.000000  0.500000  0.000000  1
  Pa  Pa2  1  0.000000  0.000000  0.500000  1
  Pa  Pa3  1  0.500000  0.000000  0.000000  1
  Ge  Ge4  1  0.678964  0.989084  0.678964  1
  Ge  Ge5  1  0.321036  0.010916  0.321036  1
  Ge  Ge6  1  0.010916  0.321036  0.321036  1
  Ge  Ge7  1  0.989084  0.678964  0.678964  1
  Ge  Ge8  1  0.678964  0.678964  0.989084  1
  Ge  Ge9  1  0.321036  0.321036  0.010916  1
  Ir  Ir10  1  0.246201  0.500000  0.753799  1
  Ir  Ir11  1  0.246201  0.753799  0.500000  1
  Ir  Ir12  1  0.500000  0.246201  0.753799  1
  Ir  Ir13  1  0.500000  0.753799  0.246201  1
  Ir  Ir14  1  0.753799  0.500000  0.246201  1
  Ir  Ir15  1  0.000000  0.000000  0.000000  1
  Ir  Ir16  1  0.753799  0.246201  0.500000  1
