# generated using pymatgen
data_LiTi3Co10(SiB2)2
_symmetry_space_group_name_H-M   'P 1'
_cell_length_a   8.39403451
_cell_length_b   8.39403451
_cell_length_c   2.91542900
_cell_angle_alpha   90.00000000
_cell_angle_beta   90.00000000
_cell_angle_gamma   90.79007591
_symmetry_Int_Tables_number   1
_chemical_formula_structural   LiTi3Co10(SiB2)2
_chemical_formula_sum   'Li1 Ti3 Co10 Si2 B4'
_cell_volume   205.40105930
_cell_formula_units_Z   1
loop_
 _symmetry_equiv_pos_site_id
 _symmetry_equiv_pos_as_xyz
  1  'x, y, z'
loop_
 _atom_site_type_symbol
 _atom_site_label
 _atom_site_symmetry_multiplicity
 _atom_site_fract_x
 _atom_site_fract_y
 _atom_site_fract_z
 _atom_site_occupancy
  Li  Li0  1  0.824304  0.324304  0.000000  1
  Ti  Ti1  1  0.326635  0.177752  0.000000  1
  Ti  Ti2  1  0.677752  0.826635  0.000000  1
  Ti  Ti3  1  0.171196  0.671196  0.000000  1
  Co  Co4  1  0.500265  0.000265  0.500000  1
  Co  Co5  1  0.999565  0.499565  0.500000  1
  Co  Co6  1  0.077605  0.211883  0.500000  1
  Co  Co7  1  0.215431  0.928322  0.500000  1
  Co  Co8  1  0.785008  0.064509  0.500000  1
  Co  Co9  1  0.932179  0.784912  0.500000  1
  Co  Co10  1  0.428322  0.715431  0.500000  1
  Co  Co11  1  0.564509  0.285008  0.500000  1
  Co  Co12  1  0.711883  0.577605  0.500000  1
  Co  Co13  1  0.284912  0.432179  0.500000  1
  Si  Si14  1  0.000541  0.999442  0.000000  1
  Si  Si15  1  0.499442  0.500541  0.000000  1
  B  B16  1  0.626328  0.126328  0.000000  1
  B  B17  1  0.118687  0.377014  0.000000  1
  B  B18  1  0.877014  0.618687  0.000000  1
  B  B19  1  0.378421  0.878421  0.000000  1
