# generated using pymatgen
data_SrDy2Y(Pt2O7)2
_symmetry_space_group_name_H-M   'P 1'
_cell_length_a   7.33692065
_cell_length_b   7.33510531
_cell_length_c   7.33692011
_cell_angle_alpha   59.91463269
_cell_angle_beta   59.91903151
_cell_angle_gamma   59.91463336
_symmetry_Int_Tables_number   1
_chemical_formula_structural   SrDy2Y(Pt2O7)2
_chemical_formula_sum   'Sr1 Dy2 Y1 Pt4 O14'
_cell_volume   278.67089391
_cell_formula_units_Z   1
loop_
 _symmetry_equiv_pos_site_id
 _symmetry_equiv_pos_as_xyz
  1  'x, y, z'
loop_
 _atom_site_type_symbol
 _atom_site_label
 _atom_site_symmetry_multiplicity
 _atom_site_fract_x
 _atom_site_fract_y
 _atom_site_fract_z
 _atom_site_occupancy
  Sr  Sr0  1  0.125000  0.125000  0.125000  1
  Dy  Dy1  1  0.125000  0.125000  0.625000  1
  Dy  Dy2  1  0.625000  0.125000  0.125000  1
  Y  Y3  1  0.125000  0.625000  0.125000  1
  Pt  Pt4  1  0.625000  0.625000  0.625000  1
  Pt  Pt5  1  0.125000  0.625000  0.625000  1
  Pt  Pt6  1  0.625000  0.125000  0.625000  1
  Pt  Pt7  1  0.625000  0.625000  0.125000  1
  O  O8  1  0.287857  0.713319  0.713017  1
  O  O9  1  0.554922  0.958358  0.958376  1
  O  O10  1  0.713254  0.287780  0.713254  1
  O  O11  1  0.291624  0.291642  0.695078  1
  O  O12  1  0.713017  0.713319  0.287857  1
  O  O13  1  0.992547  0.992786  0.992547  1
  O  O14  1  0.291745  0.695111  0.291745  1
  O  O15  1  0.958255  0.554889  0.958255  1
  O  O16  1  0.958376  0.958358  0.554922  1
  O  O17  1  0.536983  0.536681  0.962143  1
  O  O18  1  0.257453  0.257214  0.257453  1
  O  O19  1  0.536746  0.962220  0.536746  1
  O  O20  1  0.695078  0.291642  0.291624  1
  O  O21  1  0.962143  0.536681  0.536983  1
