# generated using pymatgen
data_La7Ho8Tm5Si16
_symmetry_space_group_name_H-M   'P 1'
_cell_length_a   7.76836630
_cell_length_b   7.76215413
_cell_length_c   14.41038512
_cell_angle_alpha   90.22763833
_cell_angle_beta   89.95001733
_cell_angle_gamma   90.22020763
_symmetry_Int_Tables_number   1
_chemical_formula_structural   La7Ho8Tm5Si16
_chemical_formula_sum   'La7 Ho8 Tm5 Si16'
_cell_volume   868.92191450
_cell_formula_units_Z   1
loop_
 _symmetry_equiv_pos_site_id
 _symmetry_equiv_pos_as_xyz
  1  'x, y, z'
loop_
 _atom_site_type_symbol
 _atom_site_label
 _atom_site_symmetry_multiplicity
 _atom_site_fract_x
 _atom_site_fract_y
 _atom_site_fract_z
 _atom_site_occupancy
  La  La0  1  0.008741  0.356344  0.541077  1
  La  La1  1  0.644835  0.991407  0.961007  1
  La  La2  1  0.139915  0.511663  0.792799  1
  La  La3  1  0.856571  0.488433  0.289097  1
  La  La4  1  0.509868  0.140673  0.206720  1
  La  La5  1  0.488020  0.858693  0.709333  1
  La  La6  1  0.356660  0.008444  0.457350  1
  Ho  Ho7  1  0.360509  0.491846  0.373923  1
  Ho  Ho8  1  0.860419  0.005297  0.373309  1
  Ho  Ho9  1  0.994176  0.137157  0.123879  1
  Ho  Ho10  1  0.007818  0.861428  0.624743  1
  Ho  Ho11  1  0.641447  0.512539  0.877437  1
  Ho  Ho12  1  0.491486  0.360568  0.625477  1
  Ho  Ho13  1  0.510784  0.641020  0.123880  1
  Ho  Ho14  1  0.136359  0.992458  0.877113  1
  Tm  Tm15  1  0.998193  0.634641  0.044662  1
  Tm  Tm16  1  0.680622  0.682125  0.499650  1
  Tm  Tm17  1  0.816464  0.184467  0.751433  1
  Tm  Tm18  1  0.181306  0.814133  0.248991  1
  Tm  Tm19  1  0.316877  0.319861  0.000186  1
  Si  Si20  1  0.063345  0.709482  0.436981  1
  Si  Si21  1  0.939576  0.295125  0.939469  1
  Si  Si22  1  0.711009  0.064777  0.562370  1
  Si  Si23  1  0.210203  0.439079  0.185337  1
  Si  Si24  1  0.786941  0.565408  0.687184  1
  Si  Si25  1  0.436506  0.213399  0.813783  1
  Si  Si26  1  0.565703  0.786478  0.311786  1
  Si  Si27  1  0.285532  0.931037  0.063014  1
  Si  Si28  1  0.844362  0.800731  0.807414  1
  Si  Si29  1  0.151896  0.202445  0.308032  1
  Si  Si30  1  0.803941  0.842467  0.185589  1
  Si  Si31  1  0.295813  0.652270  0.557931  1
  Si  Si32  1  0.709491  0.353607  0.060760  1
  Si  Si33  1  0.652587  0.295586  0.441186  1
  Si  Si34  1  0.340562  0.700924  0.943948  1
  Si  Si35  1  0.201462  0.153988  0.693152  1
