# generated using pymatgen
data_TbDy3Cr2(Fe3P2)6
_symmetry_space_group_name_H-M   'P 1'
_cell_length_a   3.66603100
_cell_length_b   10.32915201
_cell_length_c   11.87709602
_cell_angle_alpha   90.00590333
_cell_angle_beta   90.00000000
_cell_angle_gamma   90.00000000
_symmetry_Int_Tables_number   1
_chemical_formula_structural   TbDy3Cr2(Fe3P2)6
_chemical_formula_sum   'Tb1 Dy3 Cr2 Fe18 P12'
_cell_volume   449.74989132
_cell_formula_units_Z   1
loop_
 _symmetry_equiv_pos_site_id
 _symmetry_equiv_pos_as_xyz
  1  'x, y, z'
loop_
 _atom_site_type_symbol
 _atom_site_label
 _atom_site_symmetry_multiplicity
 _atom_site_fract_x
 _atom_site_fract_y
 _atom_site_fract_z
 _atom_site_occupancy
  Tb  Tb0  1  0.250000  0.581208  0.704448  1
  Dy  Dy1  1  0.250000  0.918797  0.204431  1
  Dy  Dy2  1  0.750000  0.419046  0.295529  1
  Dy  Dy3  1  0.750000  0.080975  0.795499  1
  Cr  Cr4  1  0.250000  0.703192  0.989466  1
  Cr  Cr5  1  0.250000  0.796866  0.489397  1
  Fe  Fe6  1  0.750000  0.293157  0.011979  1
  Fe  Fe7  1  0.750000  0.206801  0.511989  1
  Fe  Fe8  1  0.250000  0.404009  0.490209  1
  Fe  Fe9  1  0.250000  0.095866  0.990224  1
  Fe  Fe10  1  0.750000  0.594551  0.509151  1
  Fe  Fe11  1  0.750000  0.905463  0.009391  1
  Fe  Fe12  1  0.250000  0.219296  0.176265  1
  Fe  Fe13  1  0.250000  0.280515  0.676185  1
  Fe  Fe14  1  0.750000  0.782214  0.824152  1
  Fe  Fe15  1  0.750000  0.717968  0.324063  1
  Fe  Fe16  1  0.250000  0.875794  0.701167  1
  Fe  Fe17  1  0.250000  0.624356  0.201180  1
  Fe  Fe18  1  0.750000  0.124239  0.299740  1
  Fe  Fe19  1  0.750000  0.375526  0.799772  1
  Fe  Fe20  1  0.250000  0.462145  0.932926  1
  Fe  Fe21  1  0.250000  0.037818  0.432788  1
  Fe  Fe22  1  0.750000  0.534331  0.066328  1
  Fe  Fe23  1  0.750000  0.965766  0.566239  1
  P  P24  1  0.250000  0.422683  0.112994  1
  P  P25  1  0.250000  0.077425  0.612968  1
  P  P26  1  0.750000  0.578116  0.886979  1
  P  P27  1  0.750000  0.921945  0.386724  1
  P  P28  1  0.250000  0.265536  0.871152  1
  P  P29  1  0.250000  0.234400  0.371217  1
  P  P30  1  0.750000  0.732852  0.130288  1
  P  P31  1  0.750000  0.767511  0.630194  1
  P  P32  1  0.250000  0.597401  0.393740  1
  P  P33  1  0.250000  0.902587  0.893751  1
  P  P34  1  0.750000  0.397932  0.603686  1
  P  P35  1  0.750000  0.101712  0.103785  1
