# generated using pymatgen
data_Tb12Zn2Tc3
_symmetry_space_group_name_H-M   'P 1'
_cell_length_a   8.36228281
_cell_length_b   8.36269204
_cell_length_c   8.36228292
_cell_angle_alpha   110.19666215
_cell_angle_beta   110.03508446
_cell_angle_gamma   108.18756410
_symmetry_Int_Tables_number   1
_chemical_formula_structural   Tb12Zn2Tc3
_chemical_formula_sum   'Tb12 Zn2 Tc3'
_cell_volume   450.00841812
_cell_formula_units_Z   1
loop_
 _symmetry_equiv_pos_site_id
 _symmetry_equiv_pos_as_xyz
  1  'x, y, z'
loop_
 _atom_site_type_symbol
 _atom_site_label
 _atom_site_symmetry_multiplicity
 _atom_site_fract_x
 _atom_site_fract_y
 _atom_site_fract_z
 _atom_site_occupancy
  Tb  Tb0  1  0.184585  0.434211  0.249626  1
  Tb  Tb1  1  0.815415  0.565789  0.750374  1
  Tb  Tb2  1  0.184606  0.935055  0.750449  1
  Tb  Tb3  1  0.934813  0.184672  0.750121  1
  Tb  Tb4  1  0.815394  0.064945  0.249551  1
  Tb  Tb5  1  0.065187  0.815328  0.249879  1
  Tb  Tb6  1  0.434551  0.184672  0.249859  1
  Tb  Tb7  1  0.565449  0.815328  0.750141  1
  Tb  Tb8  1  0.317775  0.317935  0.635806  1
  Tb  Tb9  1  0.682225  0.682065  0.364194  1
  Tb  Tb10  1  0.682129  0.317935  0.000159  1
  Tb  Tb11  1  0.317871  0.682065  0.999841  1
  Zn  Zn12  1  0.000000  0.500000  0.500000  1
  Zn  Zn13  1  0.500000  0.000000  0.500000  1
  Tc  Tc14  1  0.337119  0.337179  0.000060  1
  Tc  Tc15  1  0.662881  0.662821  0.999940  1
  Tc  Tc16  1  0.000000  0.000000  0.000000  1
