# generated using pymatgen
data_Nd2Y3Tm3(CdNi)2
_symmetry_space_group_name_H-M   'P 1'
_cell_length_a   9.62425720
_cell_length_b   9.62425821
_cell_length_c   9.62425800
_cell_angle_alpha   60.00000073
_cell_angle_beta   59.99999726
_cell_angle_gamma   59.99999965
_symmetry_Int_Tables_number   1
_chemical_formula_structural   Nd2Y3Tm3(CdNi)2
_chemical_formula_sum   'Nd4 Y6 Tm6 Cd4 Ni4'
_cell_volume   630.35722963
_cell_formula_units_Z   2
loop_
 _symmetry_equiv_pos_site_id
 _symmetry_equiv_pos_as_xyz
  1  'x, y, z'
loop_
 _atom_site_type_symbol
 _atom_site_label
 _atom_site_symmetry_multiplicity
 _atom_site_fract_x
 _atom_site_fract_y
 _atom_site_fract_z
 _atom_site_occupancy
  Nd  Nd0  1  0.600677  0.600677  0.600677  1
  Nd  Nd1  1  0.600677  0.600677  0.197969  1
  Nd  Nd2  1  0.600677  0.197969  0.600677  1
  Nd  Nd3  1  0.197969  0.600677  0.600677  1
  Y  Y4  1  0.185821  0.814179  0.814179  1
  Y  Y5  1  0.814179  0.185821  0.185821  1
  Y  Y6  1  0.814179  0.185821  0.814179  1
  Y  Y7  1  0.185821  0.814179  0.185821  1
  Y  Y8  1  0.814179  0.814179  0.185821  1
  Y  Y9  1  0.185821  0.185821  0.814179  1
  Tm  Tm10  1  0.064635  0.435365  0.435365  1
  Tm  Tm11  1  0.435365  0.064635  0.064635  1
  Tm  Tm12  1  0.435365  0.064635  0.435365  1
  Tm  Tm13  1  0.064635  0.435365  0.064635  1
  Tm  Tm14  1  0.435365  0.435365  0.064635  1
  Tm  Tm15  1  0.064635  0.064635  0.435365  1
  Cd  Cd16  1  0.831873  0.831873  0.831873  1
  Cd  Cd17  1  0.831873  0.831873  0.504379  1
  Cd  Cd18  1  0.831873  0.504379  0.831873  1
  Cd  Cd19  1  0.504379  0.831873  0.831873  1
  Ni  Ni20  1  0.390267  0.390267  0.390267  1
  Ni  Ni21  1  0.390267  0.390267  0.829201  1
  Ni  Ni22  1  0.390267  0.829201  0.390267  1
  Ni  Ni23  1  0.829201  0.390267  0.390267  1
