# generated using pymatgen
data_Bi2Pt3RhO8
_symmetry_space_group_name_H-M   'P 1'
_cell_length_a   5.59043717
_cell_length_b   6.18797109
_cell_length_c   6.65134391
_cell_angle_alpha   115.58494701
_cell_angle_beta   96.79842335
_cell_angle_gamma   109.73816656
_symmetry_Int_Tables_number   1
_chemical_formula_structural   Bi2Pt3RhO8
_chemical_formula_sum   'Bi2 Pt3 Rh1 O8'
_cell_volume   185.63644100
_cell_formula_units_Z   1
loop_
 _symmetry_equiv_pos_site_id
 _symmetry_equiv_pos_as_xyz
  1  'x, y, z'
loop_
 _atom_site_type_symbol
 _atom_site_label
 _atom_site_symmetry_multiplicity
 _atom_site_fract_x
 _atom_site_fract_y
 _atom_site_fract_z
 _atom_site_occupancy
  Bi  Bi0  1  0.857264  0.249697  0.653432  1
  Bi  Bi1  1  0.142736  0.750303  0.346568  1
  Pt  Pt2  1  0.500000  0.500000  0.500000  1
  Pt  Pt3  1  0.500000  0.000000  0.000000  1
  Pt  Pt4  1  0.000000  0.000000  0.000000  1
  Rh  Rh5  1  0.500000  0.500000  0.000000  1
  O  O6  1  0.648386  0.398627  0.227833  1
  O  O7  1  0.351614  0.601373  0.772167  1
  O  O8  1  0.884295  0.650800  0.993033  1
  O  O9  1  0.115705  0.349200  0.006967  1
  O  O10  1  0.515217  0.866932  0.234689  1
  O  O11  1  0.484783  0.133068  0.765311  1
  O  O12  1  0.839808  0.854929  0.648268  1
  O  O13  1  0.160192  0.145071  0.351732  1
