# generated using pymatgen
data_Dy9Mg(Ni2Te)2
_symmetry_space_group_name_H-M   'P 1'
_cell_length_a   8.60817797
_cell_length_b   8.60817809
_cell_length_c   8.60817788
_cell_angle_alpha   127.90207041
_cell_angle_beta   127.90207933
_cell_angle_gamma   76.78371762
_symmetry_Int_Tables_number   1
_chemical_formula_structural   Dy9Mg(Ni2Te)2
_chemical_formula_sum   'Dy9 Mg1 Ni4 Te2'
_cell_volume   385.64966709
_cell_formula_units_Z   1
loop_
 _symmetry_equiv_pos_site_id
 _symmetry_equiv_pos_as_xyz
  1  'x, y, z'
loop_
 _atom_site_type_symbol
 _atom_site_label
 _atom_site_symmetry_multiplicity
 _atom_site_fract_x
 _atom_site_fract_y
 _atom_site_fract_z
 _atom_site_occupancy
  Dy  Dy0  1  0.500000  0.500000  0.000000  1
  Dy  Dy1  1  0.799142  0.284195  0.819520  1
  Dy  Dy2  1  0.200858  0.715805  0.180480  1
  Dy  Dy3  1  0.464674  0.979622  0.180480  1
  Dy  Dy4  1  0.284195  0.464674  0.485052  1
  Dy  Dy5  1  0.020378  0.200858  0.485052  1
  Dy  Dy6  1  0.535326  0.020378  0.819520  1
  Dy  Dy7  1  0.715805  0.535326  0.514948  1
  Dy  Dy8  1  0.979622  0.799142  0.514948  1
  Mg  Mg9  1  0.000000  0.000000  0.000000  1
  Ni  Ni10  1  0.134035  0.626252  0.760285  1
  Ni  Ni11  1  0.865965  0.373748  0.239715  1
  Ni  Ni12  1  0.626252  0.865965  0.492217  1
  Ni  Ni13  1  0.373748  0.134035  0.507783  1
  Te  Te14  1  0.258080  0.258080  0.000000  1
  Te  Te15  1  0.741920  0.741920  0.000000  1
