# generated using pymatgen
data_SrDy6FeCl12
_symmetry_space_group_name_H-M   'P 1'
_cell_length_a   8.90363285
_cell_length_b   8.93649665
_cell_length_c   8.63490995
_cell_angle_alpha   105.28281804
_cell_angle_beta   105.65806255
_cell_angle_gamma   106.22575764
_symmetry_Int_Tables_number   1
_chemical_formula_structural   SrDy6FeCl12
_chemical_formula_sum   'Sr1 Dy6 Fe1 Cl12'
_cell_volume   590.96688572
_cell_formula_units_Z   1
loop_
 _symmetry_equiv_pos_site_id
 _symmetry_equiv_pos_as_xyz
  1  'x, y, z'
loop_
 _atom_site_type_symbol
 _atom_site_label
 _atom_site_symmetry_multiplicity
 _atom_site_fract_x
 _atom_site_fract_y
 _atom_site_fract_z
 _atom_site_occupancy
  Sr  Sr0  1  0.500000  0.500000  0.500000  1
  Dy  Dy1  1  0.106406  0.314849  0.011364  1
  Dy  Dy2  1  0.315256  0.016787  0.106573  1
  Dy  Dy3  1  0.016435  0.095901  0.292274  1
  Dy  Dy4  1  0.983564  0.904099  0.707726  1
  Dy  Dy5  1  0.684744  0.983212  0.893426  1
  Dy  Dy6  1  0.893594  0.685151  0.988636  1
  Fe  Fe7  1  0.000000  0.000000  0.000000  1
  Cl  Cl8  1  0.213171  0.677417  0.074985  1
  Cl  Cl9  1  0.443589  0.356904  0.137567  1
  Cl  Cl10  1  0.680596  0.072635  0.214331  1
  Cl  Cl11  1  0.931340  0.789375  0.327023  1
  Cl  Cl12  1  0.142197  0.435569  0.354184  1
  Cl  Cl13  1  0.357650  0.144080  0.443991  1
  Cl  Cl14  1  0.642350  0.855920  0.556009  1
  Cl  Cl15  1  0.857802  0.564431  0.645816  1
  Cl  Cl16  1  0.068661  0.210626  0.672978  1
  Cl  Cl17  1  0.319405  0.927366  0.785669  1
  Cl  Cl18  1  0.556410  0.643095  0.862433  1
  Cl  Cl19  1  0.786829  0.322584  0.925015  1
