# generated using pymatgen
data_YbY3Co12(GeB3)2
_symmetry_space_group_name_H-M   'P 1'
_cell_length_a   5.14862514
_cell_length_b   5.14796291
_cell_length_c   12.31145901
_cell_angle_alpha   89.99874632
_cell_angle_beta   89.99395943
_cell_angle_gamma   119.98089422
_symmetry_Int_Tables_number   1
_chemical_formula_structural   YbY3Co12(GeB3)2
_chemical_formula_sum   'Yb1 Y3 Co12 Ge2 B6'
_cell_volume   282.65092590
_cell_formula_units_Z   1
loop_
 _symmetry_equiv_pos_site_id
 _symmetry_equiv_pos_as_xyz
  1  'x, y, z'
loop_
 _atom_site_type_symbol
 _atom_site_label
 _atom_site_symmetry_multiplicity
 _atom_site_fract_x
 _atom_site_fract_y
 _atom_site_fract_z
 _atom_site_occupancy
  Yb  Yb0  1  0.000036  0.000001  0.999973  1
  Y  Y1  1  0.000035  0.000040  0.500021  1
  Y  Y2  1  0.999936  0.999981  0.255758  1
  Y  Y3  1  0.999994  0.999986  0.744212  1
  Co  Co4  1  0.500054  0.000069  0.156698  1
  Co  Co5  1  0.500006  0.500011  0.156685  1
  Co  Co6  1  0.999992  0.500011  0.156715  1
  Co  Co7  1  0.499948  0.000006  0.843277  1
  Co  Co8  1  0.499995  0.499914  0.843286  1
  Co  Co9  1  0.000059  0.500054  0.843319  1
  Co  Co10  1  0.499935  0.000002  0.384226  1
  Co  Co11  1  0.499961  0.499957  0.384209  1
  Co  Co12  1  0.999948  0.500009  0.384176  1
  Co  Co13  1  0.499999  0.999990  0.615785  1
  Co  Co14  1  0.499978  0.499976  0.615823  1
  Co  Co15  1  0.999967  0.500024  0.615807  1
  Ge  Ge16  1  0.333274  0.666674  0.999953  1
  Ge  Ge17  1  0.666617  0.333294  0.999983  1
  B  B18  1  0.333346  0.666676  0.500016  1
  B  B19  1  0.666733  0.333334  0.500005  1
  B  B20  1  0.333368  0.666702  0.267375  1
  B  B21  1  0.666616  0.333291  0.267373  1
  B  B22  1  0.666757  0.333331  0.732665  1
  B  B23  1  0.333247  0.666668  0.732660  1
