# generated using pymatgen
data_YbPa3(TcB4)4
_symmetry_space_group_name_H-M   'P 1'
_cell_length_a   3.65023500
_cell_length_b   5.96101413
_cell_length_c   11.54732816
_cell_angle_alpha   90.03887559
_cell_angle_beta   90.00000000
_cell_angle_gamma   90.00000000
_symmetry_Int_Tables_number   1
_chemical_formula_structural   YbPa3(TcB4)4
_chemical_formula_sum   'Yb1 Pa3 Tc4 B16'
_cell_volume   251.25943841
_cell_formula_units_Z   1
loop_
 _symmetry_equiv_pos_site_id
 _symmetry_equiv_pos_as_xyz
  1  'x, y, z'
loop_
 _atom_site_type_symbol
 _atom_site_label
 _atom_site_symmetry_multiplicity
 _atom_site_fract_x
 _atom_site_fract_y
 _atom_site_fract_z
 _atom_site_occupancy
  Yb  Yb0  1  0.000000  0.372065  0.149249  1
  Pa  Pa1  1  0.000000  0.126461  0.649878  1
  Pa  Pa2  1  0.000000  0.873277  0.346558  1
  Pa  Pa3  1  0.000000  0.626064  0.852819  1
  Tc  Tc4  1  0.000000  0.137151  0.906234  1
  Tc  Tc5  1  0.000000  0.861751  0.089937  1
  Tc  Tc6  1  0.000000  0.637857  0.594468  1
  Tc  Tc7  1  0.000000  0.361801  0.408608  1
  B  B8  1  0.500000  0.363693  0.967635  1
  B  B9  1  0.500000  0.637758  0.031613  1
  B  B10  1  0.500000  0.863845  0.531744  1
  B  B11  1  0.500000  0.134146  0.467997  1
  B  B12  1  0.500000  0.471981  0.691715  1
  B  B13  1  0.500000  0.527886  0.308801  1
  B  B14  1  0.500000  0.972528  0.808974  1
  B  B15  1  0.500000  0.024220  0.191193  1
  B  B16  1  0.500000  0.287476  0.814053  1
  B  B17  1  0.500000  0.716301  0.186456  1
  B  B18  1  0.500000  0.787636  0.687218  1
  B  B19  1  0.500000  0.214088  0.313970  1
  B  B20  1  0.500000  0.386865  0.545562  1
  B  B21  1  0.500000  0.611782  0.453276  1
  B  B22  1  0.500000  0.888357  0.954962  1
  B  B23  1  0.500000  0.115006  0.047080  1
