# generated using pymatgen
data_Pr3Nd3TiAlSiSe14
_symmetry_space_group_name_H-M   'P 1'
_cell_length_a   10.58256000
_cell_length_b   10.58255944
_cell_length_c   6.21146800
_cell_angle_alpha   90.00000000
_cell_angle_beta   90.00000000
_cell_angle_gamma   120.00001424
_symmetry_Int_Tables_number   1
_chemical_formula_structural   Pr3Nd3TiAlSiSe14
_chemical_formula_sum   'Pr3 Nd3 Ti1 Al1 Si1 Se14'
_cell_volume   602.42956555
_cell_formula_units_Z   1
loop_
 _symmetry_equiv_pos_site_id
 _symmetry_equiv_pos_as_xyz
  1  'x, y, z'
loop_
 _atom_site_type_symbol
 _atom_site_label
 _atom_site_symmetry_multiplicity
 _atom_site_fract_x
 _atom_site_fract_y
 _atom_site_fract_z
 _atom_site_occupancy
  Pr  Pr0  1  0.523485  0.966627  0.041012  1
  Pr  Pr1  1  0.443142  0.476515  0.041012  1
  Pr  Pr2  1  0.033373  0.556858  0.041012  1
  Nd  Nd3  1  0.803900  0.697492  0.523393  1
  Nd  Nd4  1  0.893592  0.196100  0.523393  1
  Nd  Nd5  1  0.302508  0.106408  0.523393  1
  Ti  Ti6  1  0.666667  0.333333  0.319962  1
  Al  Al7  1  0.333333  0.666667  0.451247  1
  Si  Si8  1  0.000000  0.000000  0.942920  1
  Se  Se9  1  0.000000  0.000000  0.310544  1
  Se  Se10  1  0.333333  0.666667  0.830844  1
  Se  Se11  1  0.083654  0.854730  0.798543  1
  Se  Se12  1  0.771075  0.916346  0.798543  1
  Se  Se13  1  0.145270  0.228925  0.798543  1
  Se  Se14  1  0.240845  0.815218  0.304481  1
  Se  Se15  1  0.574372  0.759155  0.304481  1
  Se  Se16  1  0.184782  0.425628  0.304481  1
  Se  Se17  1  0.909505  0.485143  0.548903  1
  Se  Se18  1  0.575641  0.090495  0.548903  1
  Se  Se19  1  0.514857  0.424359  0.548903  1
  Se  Se20  1  0.427131  0.189647  0.079167  1
  Se  Se21  1  0.762516  0.572869  0.079167  1
  Se  Se22  1  0.810353  0.237484  0.079167  1
