# generated using pymatgen
data_Dy13Tm3Cd3Co4Hg
_symmetry_space_group_name_H-M   'P 1'
_cell_length_a   9.50609876
_cell_length_b   9.47448365
_cell_length_c   9.49987700
_cell_angle_alpha   59.91129708
_cell_angle_beta   60.02164491
_cell_angle_gamma   59.89859059
_symmetry_Int_Tables_number   1
_chemical_formula_structural   Dy13Tm3Cd3Co4Hg
_chemical_formula_sum   'Dy13 Tm3 Cd3 Co4 Hg1'
_cell_volume   604.23538425
_cell_formula_units_Z   1
loop_
 _symmetry_equiv_pos_site_id
 _symmetry_equiv_pos_as_xyz
  1  'x, y, z'
loop_
 _atom_site_type_symbol
 _atom_site_label
 _atom_site_symmetry_multiplicity
 _atom_site_fract_x
 _atom_site_fract_y
 _atom_site_fract_z
 _atom_site_occupancy
  Dy  Dy0  1  0.938240  0.559987  0.562924  1
  Dy  Dy1  1  0.540797  0.153443  0.152879  1
  Dy  Dy2  1  0.152203  0.153953  0.539184  1
  Dy  Dy3  1  0.937694  0.938159  0.562073  1
  Dy  Dy4  1  0.313564  0.687527  0.310893  1
  Dy  Dy5  1  0.561595  0.938026  0.938462  1
  Dy  Dy6  1  0.561595  0.938026  0.561918  1
  Dy  Dy7  1  0.688859  0.686158  0.312492  1
  Dy  Dy8  1  0.562462  0.559767  0.938885  1
  Dy  Dy9  1  0.938240  0.559987  0.938849  1
  Dy  Dy10  1  0.313564  0.687527  0.688015  1
  Dy  Dy11  1  0.152203  0.153953  0.154658  1
  Dy  Dy12  1  0.313285  0.311445  0.687635  1
  Tm  Tm13  1  0.153557  0.536891  0.154775  1
  Tm  Tm14  1  0.688975  0.312169  0.686985  1
  Tm  Tm15  1  0.688975  0.312169  0.311871  1
  Cd  Cd16  1  0.920043  0.920031  0.919738  1
  Cd  Cd17  1  0.920043  0.920031  0.240189  1
  Cd  Cd18  1  0.241315  0.919338  0.919674  1
  Co  Co19  1  0.358168  0.359218  0.923380  1
  Co  Co20  1  0.358233  0.922280  0.359745  1
  Co  Co21  1  0.922203  0.358867  0.359465  1
  Co  Co22  1  0.358168  0.359218  0.359234  1
  Hg  Hg23  1  0.916018  0.251830  0.916076  1
