# generated using pymatgen
data_Sr14CaTiSiP12
_symmetry_space_group_name_H-M   'P 1'
_cell_length_a   9.27876927
_cell_length_b   9.27776590
_cell_length_c   9.27372822
_cell_angle_alpha   88.24629790
_cell_angle_beta   88.24460538
_cell_angle_gamma   88.24150229
_symmetry_Int_Tables_number   1
_chemical_formula_structural   Sr14CaTiSiP12
_chemical_formula_sum   'Sr14 Ca1 Ti1 Si1 P12'
_cell_volume   797.23838594
_cell_formula_units_Z   1
loop_
 _symmetry_equiv_pos_site_id
 _symmetry_equiv_pos_as_xyz
  1  'x, y, z'
loop_
 _atom_site_type_symbol
 _atom_site_label
 _atom_site_symmetry_multiplicity
 _atom_site_fract_x
 _atom_site_fract_y
 _atom_site_fract_z
 _atom_site_occupancy
  Sr  Sr0  1  0.407364  0.281733  0.777423  1
  Sr  Sr1  1  0.777415  0.407352  0.281734  1
  Sr  Sr2  1  0.281726  0.777417  0.407361  1
  Sr  Sr3  1  0.019400  0.532173  0.662709  1
  Sr  Sr4  1  0.662707  0.019373  0.532184  1
  Sr  Sr5  1  0.532168  0.662714  0.019389  1
  Sr  Sr6  1  0.165509  0.536643  0.029070  1
  Sr  Sr7  1  0.029067  0.165525  0.536651  1
  Sr  Sr8  1  0.536639  0.029059  0.165511  1
  Sr  Sr9  1  0.775920  0.293521  0.915866  1
  Sr  Sr10  1  0.915867  0.775928  0.293518  1
  Sr  Sr11  1  0.293504  0.915863  0.775916  1
  Sr  Sr12  1  0.163222  0.163224  0.163220  1
  Sr  Sr13  1  0.394126  0.394115  0.394113  1
  Ca  Ca14  1  0.944973  0.944979  0.944986  1
  Ti  Ti15  1  0.601693  0.601693  0.601727  1
  Si  Si16  1  0.763831  0.763846  0.763812  1
  P  P17  1  0.699736  0.361692  0.599674  1
  P  P18  1  0.599674  0.699725  0.361661  1
  P  P19  1  0.361697  0.599683  0.699726  1
  P  P20  1  0.632372  0.963398  0.854916  1
  P  P21  1  0.854935  0.632357  0.963385  1
  P  P22  1  0.963386  0.854927  0.632383  1
  P  P23  1  0.474692  0.345585  0.084686  1
  P  P24  1  0.084691  0.474705  0.345587  1
  P  P25  1  0.345583  0.084690  0.474697  1
  P  P26  1  0.091196  0.233951  0.847679  1
  P  P27  1  0.847681  0.091187  0.233953  1
  P  P28  1  0.233959  0.847675  0.091199  1
