# generated using pymatgen
data_SmLuFe7CoB8
_symmetry_space_group_name_H-M   'P 1'
_cell_length_a   6.94930717
_cell_length_b   6.94902616
_cell_length_c   3.81319432
_cell_angle_alpha   90.07510662
_cell_angle_beta   89.95440897
_cell_angle_gamma   90.10480474
_symmetry_Int_Tables_number   1
_chemical_formula_structural   SmLuFe7CoB8
_chemical_formula_sum   'Sm1 Lu1 Fe7 Co1 B8'
_cell_volume   184.14212754
_cell_formula_units_Z   1
loop_
 _symmetry_equiv_pos_site_id
 _symmetry_equiv_pos_as_xyz
  1  'x, y, z'
loop_
 _atom_site_type_symbol
 _atom_site_label
 _atom_site_symmetry_multiplicity
 _atom_site_fract_x
 _atom_site_fract_y
 _atom_site_fract_z
 _atom_site_occupancy
  Sm  Sm0  1  0.499964  0.499509  0.503519  1
  Lu  Lu1  1  0.000670  0.001622  0.002010  1
  Fe  Fe2  1  0.384378  0.130552  0.891950  1
  Fe  Fe3  1  0.616288  0.869802  0.891048  1
  Fe  Fe4  1  0.366248  0.886095  0.391616  1
  Fe  Fe5  1  0.634468  0.113921  0.390864  1
  Fe  Fe6  1  0.112267  0.367003  0.607478  1
  Fe  Fe7  1  0.885320  0.632827  0.608392  1
  Fe  Fe8  1  0.129856  0.616254  0.108823  1
  Co  Co9  1  0.866813  0.384247  0.108844  1
  B  B10  1  0.806333  0.671659  0.104968  1
  B  B11  1  0.200312  0.333329  0.104064  1
  B  B12  1  0.837302  0.293292  0.605628  1
  B  B13  1  0.164006  0.704179  0.607416  1
  B  B14  1  0.702246  0.834722  0.392611  1
  B  B15  1  0.294898  0.164085  0.392965  1
  B  B16  1  0.668051  0.191763  0.893146  1
  B  B17  1  0.330577  0.805138  0.894657  1
