# generated using pymatgen
data_Dy2Mn4FeCo2Ni5P7
_symmetry_space_group_name_H-M   'P 1'
_cell_length_a   9.08242500
_cell_length_b   9.06316492
_cell_length_c   3.65247500
_cell_angle_alpha   90.00000000
_cell_angle_beta   90.00000000
_cell_angle_gamma   119.88211609
_symmetry_Int_Tables_number   1
_chemical_formula_structural   Dy2Mn4FeCo2Ni5P7
_chemical_formula_sum   'Dy2 Mn4 Fe1 Co2 Ni5 P7'
_cell_volume   260.68392437
_cell_formula_units_Z   1
loop_
 _symmetry_equiv_pos_site_id
 _symmetry_equiv_pos_as_xyz
  1  'x, y, z'
loop_
 _atom_site_type_symbol
 _atom_site_label
 _atom_site_symmetry_multiplicity
 _atom_site_fract_x
 _atom_site_fract_y
 _atom_site_fract_z
 _atom_site_occupancy
  Dy  Dy0  1  0.665170  0.331849  0.000000  1
  Dy  Dy1  1  0.333542  0.668022  0.500000  1
  Mn  Mn2  1  0.844550  0.119240  0.000000  1
  Mn  Mn3  1  0.123158  0.902359  0.500000  1
  Mn  Mn4  1  0.098177  0.217017  0.500000  1
  Mn  Mn5  1  0.785533  0.882887  0.500000  1
  Fe  Fe6  1  0.879143  0.723275  0.000000  1
  Co  Co7  1  0.277024  0.157639  0.000000  1
  Co  Co8  1  0.612140  0.048032  0.500000  1
  Ni  Ni9  1  0.371531  0.939422  0.000000  1
  Ni  Ni10  1  0.062379  0.435465  0.000000  1
  Ni  Ni11  1  0.565114  0.629606  0.000000  1
  Ni  Ni12  1  0.948079  0.560539  0.500000  1
  Ni  Ni13  1  0.438550  0.386479  0.500000  1
  P  P14  1  0.110840  0.705908  0.000000  1
  P  P15  1  0.295654  0.407859  0.000000  1
  P  P16  1  0.592430  0.891568  0.000000  1
  P  P17  1  0.716002  0.600411  0.500000  1
  P  P18  1  0.401863  0.112891  0.500000  1
  P  P19  1  0.877553  0.281046  0.500000  1
  P  P20  1  0.001568  0.998490  0.000000  1
