# generated using pymatgen
data_LiTb4(SiB4)2
_symmetry_space_group_name_H-M   'P 1'
_cell_length_a   7.17397200
_cell_length_b   7.17397200
_cell_length_c   7.92263700
_cell_angle_alpha   90.00000000
_cell_angle_beta   90.00000000
_cell_angle_gamma   90.00000000
_symmetry_Int_Tables_number   1
_chemical_formula_structural   LiTb4(SiB4)2
_chemical_formula_sum   'Li2 Tb8 Si4 B16'
_cell_volume   407.74543962
_cell_formula_units_Z   2
loop_
 _symmetry_equiv_pos_site_id
 _symmetry_equiv_pos_as_xyz
  1  'x, y, z'
loop_
 _atom_site_type_symbol
 _atom_site_label
 _atom_site_symmetry_multiplicity
 _atom_site_fract_x
 _atom_site_fract_y
 _atom_site_fract_z
 _atom_site_occupancy
  Li  Li0  1  0.000000  0.000000  0.500000  1
  Li  Li1  1  0.500000  0.500000  0.500000  1
  Tb  Tb2  1  0.683324  0.183324  0.235646  1
  Tb  Tb3  1  0.316676  0.816676  0.764354  1
  Tb  Tb4  1  0.316676  0.816676  0.235646  1
  Tb  Tb5  1  0.816676  0.683324  0.235646  1
  Tb  Tb6  1  0.816676  0.683324  0.764354  1
  Tb  Tb7  1  0.683324  0.183324  0.764354  1
  Tb  Tb8  1  0.183324  0.316676  0.764354  1
  Tb  Tb9  1  0.183324  0.316676  0.235646  1
  Si  Si10  1  0.114713  0.614713  0.500000  1
  Si  Si11  1  0.885287  0.385287  0.500000  1
  Si  Si12  1  0.385287  0.114713  0.500000  1
  Si  Si13  1  0.614713  0.885287  0.500000  1
  B  B14  1  0.173819  0.040261  0.000000  1
  B  B15  1  0.826181  0.959739  0.000000  1
  B  B16  1  0.959739  0.173819  0.000000  1
  B  B17  1  0.326181  0.540261  0.000000  1
  B  B18  1  0.040261  0.826181  0.000000  1
  B  B19  1  0.673819  0.459739  0.000000  1
  B  B20  1  0.540261  0.673819  0.000000  1
  B  B21  1  0.459739  0.326181  0.000000  1
  B  B22  1  0.089039  0.589039  0.000000  1
  B  B23  1  0.910961  0.410961  0.000000  1
  B  B24  1  0.410961  0.089039  0.000000  1
  B  B25  1  0.589039  0.910961  0.000000  1
  B  B26  1  0.000000  0.000000  0.158787  1
  B  B27  1  0.000000  0.000000  0.841213  1
  B  B28  1  0.500000  0.500000  0.841213  1
  B  B29  1  0.500000  0.500000  0.158787  1
