# generated using pymatgen
data_HfCl30
_symmetry_space_group_name_H-M   'P 1'
_cell_length_a   13.39675918
_cell_length_b   13.39675860
_cell_length_c   15.58630408
_cell_angle_alpha   83.77545899
_cell_angle_beta   83.77546008
_cell_angle_gamma   125.52876355
_symmetry_Int_Tables_number   1
_chemical_formula_structural   HfCl30
_chemical_formula_sum   'Hf1 Cl30'
_cell_volume   2211.71545478
_cell_formula_units_Z   1
loop_
 _symmetry_equiv_pos_site_id
 _symmetry_equiv_pos_as_xyz
  1  'x, y, z'
loop_
 _atom_site_type_symbol
 _atom_site_label
 _atom_site_symmetry_multiplicity
 _atom_site_fract_x
 _atom_site_fract_y
 _atom_site_fract_z
 _atom_site_occupancy
  Hf  Hf0  1  0.000000  0.000000  0.000000  1
  Cl  Cl1  1  0.939579  0.939579  0.166178  1
  Cl  Cl2  1  0.060421  0.060421  0.833822  1
  Cl  Cl3  1  0.066500  0.209905  0.005886  1
  Cl  Cl4  1  0.933500  0.790095  0.994114  1
  Cl  Cl5  1  0.209905  0.066500  0.005886  1
  Cl  Cl6  1  0.790095  0.933500  0.994114  1
  Cl  Cl7  1  0.200625  0.741329  0.065796  1
  Cl  Cl8  1  0.799375  0.258671  0.934204  1
  Cl  Cl9  1  0.697938  0.078157  0.263136  1
  Cl  Cl10  1  0.258671  0.799375  0.934204  1
  Cl  Cl11  1  0.302062  0.921843  0.736864  1
  Cl  Cl12  1  0.741329  0.200625  0.065796  1
  Cl  Cl13  1  0.982496  0.199348  0.774093  1
  Cl  Cl14  1  0.921843  0.302062  0.736864  1
  Cl  Cl15  1  0.017504  0.800652  0.225907  1
  Cl  Cl16  1  0.078157  0.697938  0.263136  1
  Cl  Cl17  1  0.800652  0.017504  0.225907  1
  Cl  Cl18  1  0.199348  0.982496  0.774093  1
  Cl  Cl19  1  0.465799  0.549285  0.261657  1
  Cl  Cl20  1  0.534201  0.450715  0.738343  1
  Cl  Cl21  1  0.507350  0.204957  0.450387  1
  Cl  Cl22  1  0.450715  0.534201  0.738343  1
  Cl  Cl23  1  0.492650  0.795043  0.549613  1
  Cl  Cl24  1  0.549285  0.465799  0.261657  1
  Cl  Cl25  1  0.238616  0.427235  0.546529  1
  Cl  Cl26  1  0.795043  0.492650  0.549613  1
  Cl  Cl27  1  0.761384  0.572765  0.453471  1
  Cl  Cl28  1  0.204957  0.507350  0.450387  1
  Cl  Cl29  1  0.572765  0.761384  0.453471  1
  Cl  Cl30  1  0.427235  0.238616  0.546529  1
