# generated using pymatgen
data_Tb2P7(IrRu)6
_symmetry_space_group_name_H-M   'P 1'
_cell_length_a   3.92198104
_cell_length_b   9.54954922
_cell_length_c   9.55260583
_cell_angle_alpha   119.98975158
_cell_angle_beta   90.00407081
_cell_angle_gamma   90.00253778
_symmetry_Int_Tables_number   1
_chemical_formula_structural   Tb2P7(IrRu)6
_chemical_formula_sum   'Tb2 P7 Ir6 Ru6'
_cell_volume   309.87439256
_cell_formula_units_Z   1
loop_
 _symmetry_equiv_pos_site_id
 _symmetry_equiv_pos_as_xyz
  1  'x, y, z'
loop_
 _atom_site_type_symbol
 _atom_site_label
 _atom_site_symmetry_multiplicity
 _atom_site_fract_x
 _atom_site_fract_y
 _atom_site_fract_z
 _atom_site_occupancy
  Tb  Tb0  1  0.253680  0.666746  0.333401  1
  Tb  Tb1  1  0.746320  0.333254  0.666599  1
  P  P2  1  0.500000  0.000000  0.000000  1
  P  P3  1  0.755027  0.881309  0.596464  1
  P  P4  1  0.755022  0.403646  0.284854  1
  P  P5  1  0.755160  0.715192  0.118799  1
  P  P6  1  0.244973  0.118691  0.403536  1
  P  P7  1  0.244978  0.596354  0.715146  1
  P  P8  1  0.244840  0.284808  0.881201  1
  Ir  Ir9  1  0.753263  0.617248  0.551651  1
  Ir  Ir10  1  0.753256  0.448503  0.065710  1
  Ir  Ir11  1  0.753277  0.934437  0.382814  1
  Ir  Ir12  1  0.246737  0.382752  0.448349  1
  Ir  Ir13  1  0.246744  0.551497  0.934290  1
  Ir  Ir14  1  0.246723  0.065563  0.617186  1
  Ru  Ru15  1  0.740992  0.112542  0.849910  1
  Ru  Ru16  1  0.741139  0.150070  0.262510  1
  Ru  Ru17  1  0.741100  0.737368  0.887516  1
  Ru  Ru18  1  0.259008  0.887458  0.150090  1
  Ru  Ru19  1  0.258861  0.849930  0.737490  1
  Ru  Ru20  1  0.258900  0.262632  0.112484  1
