# generated using pymatgen
data_LaAl10TcRh
_symmetry_space_group_name_H-M   'P 1'
_cell_length_a   6.92931254
_cell_length_b   6.95227042
_cell_length_c   9.25700500
_cell_angle_alpha   90.00000000
_cell_angle_beta   90.00000000
_cell_angle_gamma   96.79643974
_symmetry_Int_Tables_number   1
_chemical_formula_structural   LaAl10TcRh
_chemical_formula_sum   'La2 Al20 Tc2 Rh2'
_cell_volume   442.81740740
_cell_formula_units_Z   2
loop_
 _symmetry_equiv_pos_site_id
 _symmetry_equiv_pos_as_xyz
  1  'x, y, z'
loop_
 _atom_site_type_symbol
 _atom_site_label
 _atom_site_symmetry_multiplicity
 _atom_site_fract_x
 _atom_site_fract_y
 _atom_site_fract_z
 _atom_site_occupancy
  La  La0  1  0.873727  0.118332  0.750000  1
  La  La1  1  0.126273  0.881668  0.250000  1
  Al  Al2  1  0.618801  0.376279  0.549424  1
  Al  Al3  1  0.381199  0.623721  0.450576  1
  Al  Al4  1  0.381199  0.623721  0.049424  1
  Al  Al5  1  0.618801  0.376279  0.950576  1
  Al  Al6  1  0.228415  0.226325  0.497952  1
  Al  Al7  1  0.771585  0.773675  0.502048  1
  Al  Al8  1  0.771585  0.773675  0.997952  1
  Al  Al9  1  0.228415  0.226325  0.002048  1
  Al  Al10  1  0.838435  0.162224  0.101965  1
  Al  Al11  1  0.161565  0.837776  0.898035  1
  Al  Al12  1  0.161565  0.837776  0.601965  1
  Al  Al13  1  0.838435  0.162224  0.398035  1
  Al  Al14  1  0.861119  0.591082  0.750000  1
  Al  Al15  1  0.138881  0.408918  0.250000  1
  Al  Al16  1  0.408645  0.138249  0.750000  1
  Al  Al17  1  0.591355  0.861751  0.250000  1
  Al  Al18  1  0.223227  0.481586  0.750000  1
  Al  Al19  1  0.776773  0.518414  0.250000  1
  Al  Al20  1  0.517323  0.779368  0.750000  1
  Al  Al21  1  0.482677  0.220632  0.250000  1
  Tc  Tc22  1  0.500000  0.000000  0.000000  1
  Tc  Tc23  1  0.500000  0.000000  0.500000  1
  Rh  Rh24  1  0.000000  0.500000  0.500000  1
  Rh  Rh25  1  0.000000  0.500000  0.000000  1
