# generated using pymatgen
data_Ho3Lu9IrOs3
_symmetry_space_group_name_H-M   'P 1'
_cell_length_a   7.30977483
_cell_length_b   8.83993400
_cell_length_c   6.23203304
_cell_angle_alpha   90.00000000
_cell_angle_beta   89.92628577
_cell_angle_gamma   90.00000000
_symmetry_Int_Tables_number   1
_chemical_formula_structural   Ho3Lu9IrOs3
_chemical_formula_sum   'Ho3 Lu9 Ir1 Os3'
_cell_volume   402.70072340
_cell_formula_units_Z   1
loop_
 _symmetry_equiv_pos_site_id
 _symmetry_equiv_pos_as_xyz
  1  'x, y, z'
loop_
 _atom_site_type_symbol
 _atom_site_label
 _atom_site_symmetry_multiplicity
 _atom_site_fract_x
 _atom_site_fract_y
 _atom_site_fract_z
 _atom_site_occupancy
  Ho  Ho0  1  0.537562  0.250000  0.874573  1
  Ho  Ho1  1  0.037832  0.250000  0.626575  1
  Ho  Ho2  1  0.462635  0.750000  0.124884  1
  Lu  Lu3  1  0.674209  0.060936  0.335007  1
  Lu  Lu4  1  0.175757  0.439374  0.167534  1
  Lu  Lu5  1  0.324499  0.562772  0.665701  1
  Lu  Lu6  1  0.824345  0.935139  0.829859  1
  Lu  Lu7  1  0.324499  0.937228  0.665701  1
  Lu  Lu8  1  0.824345  0.564861  0.829859  1
  Lu  Lu9  1  0.674209  0.439064  0.335007  1
  Lu  Lu10  1  0.175757  0.060626  0.167534  1
  Lu  Lu11  1  0.962518  0.750000  0.373731  1
  Ir  Ir12  1  0.884353  0.250000  0.044770  1
  Os  Os13  1  0.383137  0.250000  0.458122  1
  Os  Os14  1  0.115437  0.750000  0.961951  1
  Os  Os15  1  0.618905  0.750000  0.539191  1
