# generated using pymatgen
data_Dy4Al13Cu9
_symmetry_space_group_name_H-M   'P 1'
_cell_length_a   11.12979900
_cell_length_b   11.12979796
_cell_length_c   3.95949400
_cell_angle_alpha   90.00000000
_cell_angle_beta   90.00000000
_cell_angle_gamma   119.99990501
_symmetry_Int_Tables_number   1
_chemical_formula_structural   Dy4Al13Cu9
_chemical_formula_sum   'Dy4 Al13 Cu9'
_cell_volume   424.76168848
_cell_formula_units_Z   1
loop_
 _symmetry_equiv_pos_site_id
 _symmetry_equiv_pos_as_xyz
  1  'x, y, z'
loop_
 _atom_site_type_symbol
 _atom_site_label
 _atom_site_symmetry_multiplicity
 _atom_site_fract_x
 _atom_site_fract_y
 _atom_site_fract_z
 _atom_site_occupancy
  Dy  Dy0  1  0.203254  0.796746  0.500000  1
  Dy  Dy1  1  0.593492  0.796746  0.500000  1
  Dy  Dy2  1  0.203254  0.406508  0.500000  1
  Dy  Dy3  1  0.666667  0.333333  0.000000  1
  Al  Al4  1  0.949222  0.292673  0.000000  1
  Al  Al5  1  0.707327  0.656550  0.000000  1
  Al  Al6  1  0.949222  0.656549  0.000000  1
  Al  Al7  1  0.343451  0.050778  0.000000  1
  Al  Al8  1  0.171869  0.085934  0.500000  1
  Al  Al9  1  0.914066  0.828131  0.500000  1
  Al  Al10  1  0.707327  0.050778  0.000000  1
  Al  Al11  1  0.530514  0.061027  0.500000  1
  Al  Al12  1  0.914066  0.085934  0.500000  1
  Al  Al13  1  0.343450  0.292673  0.000000  1
  Al  Al14  1  0.530514  0.469486  0.500000  1
  Al  Al15  1  0.938973  0.469486  0.500000  1
  Al  Al16  1  0.333334  0.666667  0.000000  1
  Cu  Cu17  1  0.455342  0.544658  0.000000  1
  Cu  Cu18  1  0.839976  0.919988  0.000000  1
  Cu  Cu19  1  0.455342  0.910683  0.000000  1
  Cu  Cu20  1  0.080012  0.160024  0.000000  1
  Cu  Cu21  1  0.080012  0.919988  0.000000  1
  Cu  Cu22  1  0.785410  0.570817  0.500000  1
  Cu  Cu23  1  0.089317  0.544658  0.000000  1
  Cu  Cu24  1  0.785409  0.214590  0.500000  1
  Cu  Cu25  1  0.429183  0.214591  0.500000  1
