# generated using pymatgen
data_Dy4Lu4Re3RuC8
_symmetry_space_group_name_H-M   'P 1'
_cell_length_a   5.04539900
_cell_length_b   6.53579046
_cell_length_c   9.72181009
_cell_angle_alpha   89.90552051
_cell_angle_beta   90.00000000
_cell_angle_gamma   90.00000000
_symmetry_Int_Tables_number   1
_chemical_formula_structural   Dy4Lu4Re3RuC8
_chemical_formula_sum   'Dy4 Lu4 Re3 Ru1 C8'
_cell_volume   320.58277179
_cell_formula_units_Z   1
loop_
 _symmetry_equiv_pos_site_id
 _symmetry_equiv_pos_as_xyz
  1  'x, y, z'
loop_
 _atom_site_type_symbol
 _atom_site_label
 _atom_site_symmetry_multiplicity
 _atom_site_fract_x
 _atom_site_fract_y
 _atom_site_fract_z
 _atom_site_occupancy
  Dy  Dy0  1  0.250000  0.466447  0.214294  1
  Dy  Dy1  1  0.250000  0.967285  0.284154  1
  Dy  Dy2  1  0.750000  0.531987  0.787819  1
  Dy  Dy3  1  0.750000  0.034708  0.714743  1
  Lu  Lu4  1  0.250000  0.829674  0.943210  1
  Lu  Lu5  1  0.250000  0.324277  0.558444  1
  Lu  Lu6  1  0.750000  0.174733  0.059086  1
  Lu  Lu7  1  0.750000  0.674884  0.441907  1
  Re  Re8  1  0.250000  0.779447  0.632973  1
  Re  Re9  1  0.750000  0.721578  0.132145  1
  Re  Re10  1  0.750000  0.221261  0.368489  1
  Ru  Ru11  1  0.250000  0.278773  0.866832  1
  C  C12  1  0.250000  0.045883  0.738675  1
  C  C13  1  0.250000  0.548302  0.757779  1
  C  C14  1  0.750000  0.952328  0.260837  1
  C  C15  1  0.750000  0.453069  0.239920  1
  C  C16  1  0.250000  0.670367  0.447865  1
  C  C17  1  0.250000  0.167853  0.050902  1
  C  C18  1  0.750000  0.328795  0.553380  1
  C  C19  1  0.750000  0.828348  0.946545  1
