# generated using pymatgen
data_Tm4Al18NiPtRh4
_symmetry_space_group_name_H-M   'P 1'
_cell_length_a   7.53700326
_cell_length_b   7.53700293
_cell_length_c   9.37512601
_cell_angle_alpha   90.16789490
_cell_angle_beta   90.16789966
_cell_angle_gamma   119.81320591
_symmetry_Int_Tables_number   1
_chemical_formula_structural   Tm4Al18NiPtRh4
_chemical_formula_sum   'Tm4 Al18 Ni1 Pt1 Rh4'
_cell_volume   462.07460234
_cell_formula_units_Z   1
loop_
 _symmetry_equiv_pos_site_id
 _symmetry_equiv_pos_as_xyz
  1  'x, y, z'
loop_
 _atom_site_type_symbol
 _atom_site_label
 _atom_site_symmetry_multiplicity
 _atom_site_fract_x
 _atom_site_fract_y
 _atom_site_fract_z
 _atom_site_occupancy
  Tm  Tm0  1  0.994828  0.669908  0.249367  1
  Tm  Tm1  1  0.005172  0.330092  0.750633  1
  Tm  Tm2  1  0.669908  0.994828  0.249367  1
  Tm  Tm3  1  0.330092  0.005172  0.750633  1
  Al  Al4  1  0.125658  0.125658  0.243923  1
  Al  Al5  1  0.874342  0.874342  0.756077  1
  Al  Al6  1  0.998532  0.332768  0.075036  1
  Al  Al7  1  0.001468  0.667232  0.924964  1
  Al  Al8  1  0.000340  0.662600  0.577291  1
  Al  Al9  1  0.337400  0.999660  0.422709  1
  Al  Al10  1  0.999660  0.337400  0.422709  1
  Al  Al11  1  0.662600  0.000340  0.577291  1
  Al  Al12  1  0.667232  0.001468  0.924964  1
  Al  Al13  1  0.332768  0.998532  0.075036  1
  Al  Al14  1  0.335848  0.335848  0.553946  1
  Al  Al15  1  0.664152  0.664152  0.446054  1
  Al  Al16  1  0.669689  0.669689  0.051130  1
  Al  Al17  1  0.330311  0.330311  0.948870  1
  Al  Al18  1  0.338918  0.548937  0.249162  1
  Al  Al19  1  0.661082  0.451063  0.750838  1
  Al  Al20  1  0.548937  0.338918  0.249162  1
  Al  Al21  1  0.451063  0.661082  0.750838  1
  Ni  Ni22  1  0.000000  0.000000  0.000000  1
  Pt  Pt23  1  0.000000  0.000000  0.500000  1
  Rh  Rh24  1  0.672233  0.327767  0.000000  1
  Rh  Rh25  1  0.327767  0.672233  0.000000  1
  Rh  Rh26  1  0.327811  0.672189  0.500000  1
  Rh  Rh27  1  0.672189  0.327811  0.500000  1
