# generated using pymatgen
data_GdI13
_symmetry_space_group_name_H-M   'P 1'
_cell_length_a   13.20635153
_cell_length_b   11.38270557
_cell_length_c   15.29636900
_cell_angle_alpha   122.71467702
_cell_angle_beta   89.57254081
_cell_angle_gamma   103.72951839
_symmetry_Int_Tables_number   1
_chemical_formula_structural   GdI13
_chemical_formula_sum   'Gd2 I26'
_cell_volume   1858.73838675
_cell_formula_units_Z   2
loop_
 _symmetry_equiv_pos_site_id
 _symmetry_equiv_pos_as_xyz
  1  'x, y, z'
loop_
 _atom_site_type_symbol
 _atom_site_label
 _atom_site_symmetry_multiplicity
 _atom_site_fract_x
 _atom_site_fract_y
 _atom_site_fract_z
 _atom_site_occupancy
  Gd  Gd0  1  0.329178  0.864215  0.933954  1
  Gd  Gd1  1  0.670822  0.135785  0.066046  1
  I  I2  1  0.386984  0.655712  0.981657  1
  I  I3  1  0.613016  0.344288  0.018343  1
  I  I4  1  0.576752  0.807340  0.388721  1
  I  I5  1  0.423248  0.192660  0.611279  1
  I  I6  1  0.735200  0.693122  0.009787  1
  I  I7  1  0.264800  0.306878  0.990213  1
  I  I8  1  0.717799  0.970764  0.165628  1
  I  I9  1  0.282201  0.029236  0.834372  1
  I  I10  1  0.447565  0.141046  0.139510  1
  I  I11  1  0.552435  0.858954  0.860490  1
  I  I12  1  0.231180  0.651200  0.696321  1
  I  I13  1  0.768820  0.348800  0.303679  1
  I  I14  1  0.116375  0.817023  0.992158  1
  I  I15  1  0.883625  0.182977  0.007842  1
  I  I16  1  0.087801  0.083900  0.215065  1
  I  I17  1  0.912199  0.916100  0.784935  1
  I  I18  1  0.276108  0.913919  0.460584  1
  I  I19  1  0.723892  0.086081  0.539416  1
  I  I20  1  0.327807  0.419739  0.647773  1
  I  I21  1  0.672193  0.580261  0.352227  1
  I  I22  1  0.858149  0.377809  0.704396  1
  I  I23  1  0.141851  0.622191  0.295604  1
  I  I24  1  0.949787  0.692626  0.595393  1
  I  I25  1  0.050213  0.307374  0.404607  1
  I  I26  1  0.257089  0.631291  0.132649  1
  I  I27  1  0.742911  0.368709  0.867351  1
