# generated using pymatgen
data_Y2Lu(Ga2Ni3)3
_symmetry_space_group_name_H-M   'P 1'
_cell_length_a   8.73323200
_cell_length_b   8.73323170
_cell_length_c   4.08411400
_cell_angle_alpha   90.00000000
_cell_angle_beta   90.00000000
_cell_angle_gamma   119.99999356
_symmetry_Int_Tables_number   1
_chemical_formula_structural   Y2Lu(Ga2Ni3)3
_chemical_formula_sum   'Y2 Lu1 Ga6 Ni9'
_cell_volume   269.76058569
_cell_formula_units_Z   1
loop_
 _symmetry_equiv_pos_site_id
 _symmetry_equiv_pos_as_xyz
  1  'x, y, z'
loop_
 _atom_site_type_symbol
 _atom_site_label
 _atom_site_symmetry_multiplicity
 _atom_site_fract_x
 _atom_site_fract_y
 _atom_site_fract_z
 _atom_site_occupancy
  Y  Y0  1  0.666667  0.333333  0.500000  1
  Y  Y1  1  0.333333  0.666667  0.500000  1
  Lu  Lu2  1  0.000000  0.000000  0.000000  1
  Ga  Ga3  1  0.482735  0.482735  0.000000  1
  Ga  Ga4  1  0.517265  0.000000  0.000000  1
  Ga  Ga5  1  0.000000  0.517265  0.000000  1
  Ga  Ga6  1  0.731839  0.731839  0.500000  1
  Ga  Ga7  1  0.268161  0.000000  0.500000  1
  Ga  Ga8  1  0.000000  0.268161  0.500000  1
  Ni  Ni9  1  0.826116  0.195762  0.000000  1
  Ni  Ni10  1  0.804238  0.630353  0.000000  1
  Ni  Ni11  1  0.369647  0.173884  0.000000  1
  Ni  Ni12  1  0.195762  0.826116  0.000000  1
  Ni  Ni13  1  0.630353  0.804238  0.000000  1
  Ni  Ni14  1  0.173884  0.369647  0.000000  1
  Ni  Ni15  1  0.293899  0.293899  0.500000  1
  Ni  Ni16  1  0.706101  0.000000  0.500000  1
  Ni  Ni17  1  0.000000  0.706101  0.500000  1
