# generated using pymatgen
data_Dy6Sc4(SnSb)3
_symmetry_space_group_name_H-M   'P 1'
_cell_length_a   6.17741600
_cell_length_b   8.79514609
_cell_length_c   8.79516800
_cell_angle_alpha   119.99992109
_cell_angle_beta   89.99982101
_cell_angle_gamma   90.00033878
_symmetry_Int_Tables_number   1
_chemical_formula_structural   Dy6Sc4(SnSb)3
_chemical_formula_sum   'Dy6 Sc4 Sn3 Sb3'
_cell_volume   413.83290793
_cell_formula_units_Z   1
loop_
 _symmetry_equiv_pos_site_id
 _symmetry_equiv_pos_as_xyz
  1  'x, y, z'
loop_
 _atom_site_type_symbol
 _atom_site_label
 _atom_site_symmetry_multiplicity
 _atom_site_fract_x
 _atom_site_fract_y
 _atom_site_fract_z
 _atom_site_occupancy
  Dy  Dy0  1  0.750005  0.242472  0.000000  1
  Dy  Dy1  1  0.750011  0.757527  0.757526  1
  Dy  Dy2  1  0.750011  0.000002  0.242474  1
  Dy  Dy3  1  0.249998  0.757722  0.000000  1
  Dy  Dy4  1  0.249999  0.242283  0.242286  1
  Dy  Dy5  1  0.249999  0.999998  0.757714  1
  Sc  Sc6  1  0.502002  0.333335  0.666678  1
  Sc  Sc7  1  0.502002  0.666657  0.333322  1
  Sc  Sc8  1  0.998002  0.666661  0.333325  1
  Sc  Sc9  1  0.998002  0.333337  0.666675  1
  Sn  Sn10  1  0.749996  0.602328  0.000000  1
  Sn  Sn11  1  0.749991  0.397677  0.397675  1
  Sn  Sn12  1  0.749991  0.000001  0.602325  1
  Sb  Sb13  1  0.249991  0.398122  0.000000  1
  Sb  Sb14  1  0.250001  0.601878  0.601875  1
  Sb  Sb15  1  0.250001  0.000003  0.398125  1
