# generated using pymatgen
data_Ba4ZnCoO6
_symmetry_space_group_name_H-M   'P 1'
_cell_length_a   6.49342566
_cell_length_b   6.50437770
_cell_length_c   12.68878421
_cell_angle_alpha   88.47071422
_cell_angle_beta   88.58924441
_cell_angle_gamma   125.57024417
_symmetry_Int_Tables_number   1
_chemical_formula_structural   Ba4ZnCoO6
_chemical_formula_sum   'Ba8 Zn2 Co2 O12'
_cell_volume   435.23191255
_cell_formula_units_Z   2
loop_
 _symmetry_equiv_pos_site_id
 _symmetry_equiv_pos_as_xyz
  1  'x, y, z'
loop_
 _atom_site_type_symbol
 _atom_site_label
 _atom_site_symmetry_multiplicity
 _atom_site_fract_x
 _atom_site_fract_y
 _atom_site_fract_z
 _atom_site_occupancy
  Ba  Ba0  1  0.440785  0.029638  0.152307  1
  Ba  Ba1  1  0.030550  0.440770  0.652124  1
  Ba  Ba2  1  0.559215  0.970362  0.847693  1
  Ba  Ba3  1  0.969450  0.559230  0.347876  1
  Ba  Ba4  1  0.864995  0.657781  0.924866  1
  Ba  Ba5  1  0.341606  0.134344  0.574702  1
  Ba  Ba6  1  0.135005  0.342219  0.075134  1
  Ba  Ba7  1  0.658394  0.865656  0.425298  1
  Zn  Zn8  1  0.269067  0.273880  0.836118  1
  Zn  Zn9  1  0.730933  0.726120  0.163882  1
  Co  Co10  1  0.727493  0.732484  0.663882  1
  Co  Co11  1  0.272507  0.267516  0.336118  1
  O  O12  1  0.323552  0.126408  0.964921  1
  O  O13  1  0.872895  0.676338  0.535615  1
  O  O14  1  0.676448  0.873592  0.035079  1
  O  O15  1  0.127105  0.323662  0.464385  1
  O  O16  1  0.991245  0.005201  0.749883  1
  O  O17  1  0.008755  0.994799  0.250117  1
  O  O18  1  0.594607  0.407309  0.749589  1
  O  O19  1  0.491061  0.149654  0.367553  1
  O  O20  1  0.149266  0.491750  0.867665  1
  O  O21  1  0.508939  0.850346  0.632447  1
  O  O22  1  0.850734  0.508250  0.132335  1
  O  O23  1  0.405393  0.592691  0.250411  1
