# generated using pymatgen
data_TbDy11Al2(ZnTc)2
_symmetry_space_group_name_H-M   'P 1'
_cell_length_a   8.46019087
_cell_length_b   8.45992768
_cell_length_c   8.45992700
_cell_angle_alpha   112.92987856
_cell_angle_beta   111.02396077
_cell_angle_gamma   104.57330130
_symmetry_Int_Tables_number   1
_chemical_formula_structural   TbDy11Al2(ZnTc)2
_chemical_formula_sum   'Tb1 Dy11 Al2 Zn2 Tc2'
_cell_volume   463.45394508
_cell_formula_units_Z   1
loop_
 _symmetry_equiv_pos_site_id
 _symmetry_equiv_pos_as_xyz
  1  'x, y, z'
loop_
 _atom_site_type_symbol
 _atom_site_label
 _atom_site_symmetry_multiplicity
 _atom_site_fract_x
 _atom_site_fract_y
 _atom_site_fract_z
 _atom_site_occupancy
  Tb  Tb0  1  0.434448  0.241809  0.192641  1
  Dy  Dy1  1  0.565471  0.758419  0.807050  1
  Dy  Dy2  1  0.048558  0.241484  0.807074  1
  Dy  Dy3  1  0.951128  0.758315  0.192813  1
  Dy  Dy4  1  0.186709  0.274101  0.461143  1
  Dy  Dy5  1  0.813532  0.726233  0.539373  1
  Dy  Dy6  1  0.186709  0.725565  0.912608  1
  Dy  Dy7  1  0.813532  0.274158  0.087298  1
  Dy  Dy8  1  0.337459  0.648447  0.310643  1
  Dy  Dy9  1  0.662754  0.352041  0.689963  1
  Dy  Dy10  1  0.337459  0.026816  0.689013  1
  Dy  Dy11  1  0.662754  0.972792  0.310715  1
  Al  Al12  1  0.499931  0.500305  0.999626  1
  Al  Al13  1  0.999417  0.999598  0.999819  1
  Zn  Zn14  1  0.120132  0.620246  0.499887  1
  Zn  Zn15  1  0.879932  0.379613  0.500318  1
  Tc  Tc16  1  0.320664  0.000161  0.320503  1
  Tc  Tc17  1  0.679411  0.999898  0.679514  1
