# generated using pymatgen
data_Tb3YGa18(Co2Pd)2
_symmetry_space_group_name_H-M   'P 1'
_cell_length_a   7.47927401
_cell_length_b   7.47936224
_cell_length_c   9.43706400
_cell_angle_alpha   90.00000000
_cell_angle_beta   90.00000000
_cell_angle_gamma   119.53471615
_symmetry_Int_Tables_number   1
_chemical_formula_structural   Tb3YGa18(Co2Pd)2
_chemical_formula_sum   'Tb3 Y1 Ga18 Co4 Pd2'
_cell_volume   459.31296369
_cell_formula_units_Z   1
loop_
 _symmetry_equiv_pos_site_id
 _symmetry_equiv_pos_as_xyz
  1  'x, y, z'
loop_
 _atom_site_type_symbol
 _atom_site_label
 _atom_site_symmetry_multiplicity
 _atom_site_fract_x
 _atom_site_fract_y
 _atom_site_fract_z
 _atom_site_occupancy
  Tb  Tb0  1  0.677100  0.996788  0.750000  1
  Tb  Tb1  1  0.322884  0.003223  0.250000  1
  Tb  Tb2  1  0.996782  0.677103  0.750000  1
  Y  Y3  1  0.003232  0.322849  0.250000  1
  Ga  Ga4  1  0.000848  0.654464  0.075146  1
  Ga  Ga5  1  0.654526  0.000889  0.424851  1
  Ga  Ga6  1  0.000848  0.654464  0.424854  1
  Ga  Ga7  1  0.999119  0.345497  0.924855  1
  Ga  Ga8  1  0.654526  0.000889  0.075149  1
  Ga  Ga9  1  0.345513  0.999149  0.924846  1
  Ga  Ga10  1  0.656571  0.656561  0.563086  1
  Ga  Ga11  1  0.343416  0.343430  0.063088  1
  Ga  Ga12  1  0.656571  0.656561  0.936914  1
  Ga  Ga13  1  0.343416  0.343430  0.436912  1
  Ga  Ga14  1  0.142238  0.142241  0.750000  1
  Ga  Ga15  1  0.857798  0.857781  0.250000  1
  Ga  Ga16  1  0.665547  0.443258  0.250000  1
  Ga  Ga17  1  0.334451  0.556710  0.750000  1
  Ga  Ga18  1  0.443266  0.665566  0.250000  1
  Ga  Ga19  1  0.556712  0.334443  0.750000  1
  Ga  Ga20  1  0.345513  0.999149  0.575154  1
  Ga  Ga21  1  0.999119  0.345497  0.575145  1
  Co  Co22  1  0.670676  0.329316  0.000015  1
  Co  Co23  1  0.329324  0.670685  0.499985  1
  Co  Co24  1  0.329324  0.670685  0.000015  1
  Co  Co25  1  0.670676  0.329316  0.499985  1
  Pd  Pd26  1  0.000004  0.000029  0.000029  1
  Pd  Pd27  1  0.000004  0.000029  0.499971  1
