# generated using pymatgen
data_TaTi6Si2B4Mo3
_symmetry_space_group_name_H-M   'P 1'
_cell_length_a   7.18253707
_cell_length_b   7.14700419
_cell_length_c   7.17666553
_cell_angle_alpha   129.71233036
_cell_angle_beta   129.84488717
_cell_angle_gamma   73.63415896
_symmetry_Int_Tables_number   1
_chemical_formula_structural   TaTi6Si2B4Mo3
_chemical_formula_sum   'Ta1 Ti6 Si2 B4 Mo3'
_cell_volume   212.45013968
_cell_formula_units_Z   1
loop_
 _symmetry_equiv_pos_site_id
 _symmetry_equiv_pos_as_xyz
  1  'x, y, z'
loop_
 _atom_site_type_symbol
 _atom_site_label
 _atom_site_symmetry_multiplicity
 _atom_site_fract_x
 _atom_site_fract_y
 _atom_site_fract_z
 _atom_site_occupancy
  Ta  Ta0  1  0.806350  0.964818  0.500000  1
  Ti  Ti1  1  0.309600  0.809147  0.852074  1
  Ti  Ti2  1  0.191975  0.039541  0.500000  1
  Ti  Ti3  1  0.538727  0.689831  0.500000  1
  Ti  Ti4  1  0.041068  0.540009  0.847027  1
  Ti  Ti5  1  0.694041  0.192982  0.152973  1
  Ti  Ti6  1  0.957526  0.457073  0.147926  1
  Si  Si7  1  0.749100  0.747744  0.994948  1
  Si  Si8  1  0.254152  0.252795  0.005052  1
  B  B9  1  0.387283  0.888707  0.279105  1
  B  B10  1  0.891588  0.611183  0.500000  1
  B  B11  1  0.608179  0.109602  0.720895  1
  B  B12  1  0.110982  0.390624  0.500000  1
  Mo  Mo13  1  0.001150  0.000450  0.001602  1
  Mo  Mo14  1  0.499547  0.498847  0.998398  1
  Mo  Mo15  1  0.458732  0.306648  0.500000  1
