# generated using pymatgen
data_Ho3ErSn6Rh7
_symmetry_space_group_name_H-M   'P 1'
_cell_length_a   7.59787034
_cell_length_b   7.59787044
_cell_length_c   7.59787003
_cell_angle_alpha   109.46591234
_cell_angle_beta   109.46591470
_cell_angle_gamma   109.46591294
_symmetry_Int_Tables_number   1
_chemical_formula_structural   Ho3ErSn6Rh7
_chemical_formula_sum   'Ho3 Er1 Sn6 Rh7'
_cell_volume   337.70620452
_cell_formula_units_Z   1
loop_
 _symmetry_equiv_pos_site_id
 _symmetry_equiv_pos_as_xyz
  1  'x, y, z'
loop_
 _atom_site_type_symbol
 _atom_site_label
 _atom_site_symmetry_multiplicity
 _atom_site_fract_x
 _atom_site_fract_y
 _atom_site_fract_z
 _atom_site_occupancy
  Ho  Ho0  1  0.000000  0.000000  0.500000  1
  Ho  Ho1  1  0.000000  0.500000  0.000000  1
  Ho  Ho2  1  0.500000  0.000000  0.000000  1
  Er  Er3  1  0.500000  0.500000  0.500000  1
  Sn  Sn4  1  0.684847  0.684847  0.999903  1
  Sn  Sn5  1  0.315153  0.000097  0.315153  1
  Sn  Sn6  1  0.000097  0.315153  0.315153  1
  Sn  Sn7  1  0.315153  0.315153  0.000097  1
  Sn  Sn8  1  0.684847  0.999903  0.684847  1
  Sn  Sn9  1  0.999903  0.684847  0.684847  1
  Rh  Rh10  1  0.749947  0.250053  0.500000  1
  Rh  Rh11  1  0.749947  0.500000  0.250053  1
  Rh  Rh12  1  0.500000  0.250053  0.749947  1
  Rh  Rh13  1  0.250053  0.500000  0.749947  1
  Rh  Rh14  1  0.250053  0.749947  0.500000  1
  Rh  Rh15  1  0.500000  0.749947  0.250053  1
  Rh  Rh16  1  0.000000  0.000000  0.000000  1
