# generated using pymatgen
data_RbHf2(AsO4)3
_symmetry_space_group_name_H-M   'P 1'
_cell_length_a   9.94045742
_cell_length_b   9.94045789
_cell_length_c   9.94045700
_cell_angle_alpha   54.23992622
_cell_angle_beta   54.23992383
_cell_angle_gamma   54.23992088
_symmetry_Int_Tables_number   1
_chemical_formula_structural   RbHf2(AsO4)3
_chemical_formula_sum   'Rb2 Hf4 As6 O24'
_cell_volume   601.18873510
_cell_formula_units_Z   2
loop_
 _symmetry_equiv_pos_site_id
 _symmetry_equiv_pos_as_xyz
  1  'x, y, z'
loop_
 _atom_site_type_symbol
 _atom_site_label
 _atom_site_symmetry_multiplicity
 _atom_site_fract_x
 _atom_site_fract_y
 _atom_site_fract_z
 _atom_site_occupancy
  Rb  Rb0  1  0.500000  0.500000  0.500000  1
  Rb  Rb1  1  0.000000  0.000000  0.000000  1
  Hf  Hf2  1  0.349983  0.349983  0.349983  1
  Hf  Hf3  1  0.849983  0.849983  0.849983  1
  Hf  Hf4  1  0.650017  0.650017  0.650017  1
  Hf  Hf5  1  0.150017  0.150017  0.150017  1
  As  As6  1  0.969199  0.530801  0.250000  1
  As  As7  1  0.250000  0.969199  0.530801  1
  As  As8  1  0.530801  0.250000  0.969199  1
  As  As9  1  0.750000  0.030801  0.469199  1
  As  As10  1  0.469199  0.750000  0.030801  1
  As  As11  1  0.030801  0.469199  0.750000  1
  O  O12  1  0.156077  0.513946  0.239352  1
  O  O13  1  0.239352  0.156077  0.513946  1
  O  O14  1  0.513946  0.239352  0.156077  1
  O  O15  1  0.739352  0.013946  0.656077  1
  O  O16  1  0.656077  0.739352  0.013946  1
  O  O17  1  0.013946  0.656077  0.739352  1
  O  O18  1  0.843923  0.486054  0.760648  1
  O  O19  1  0.760648  0.843923  0.486054  1
  O  O20  1  0.486054  0.760648  0.843923  1
  O  O21  1  0.260648  0.986054  0.343923  1
  O  O22  1  0.343923  0.260648  0.986054  1
  O  O23  1  0.986054  0.343923  0.260648  1
  O  O24  1  0.207532  0.428863  0.564124  1
  O  O25  1  0.564124  0.207532  0.428863  1
  O  O26  1  0.428863  0.564124  0.207532  1
  O  O27  1  0.064124  0.928863  0.707532  1
  O  O28  1  0.707532  0.064124  0.928863  1
  O  O29  1  0.928863  0.707532  0.064124  1
  O  O30  1  0.792468  0.571137  0.435876  1
  O  O31  1  0.435876  0.792468  0.571137  1
  O  O32  1  0.571137  0.435876  0.792468  1
  O  O33  1  0.935876  0.071137  0.292468  1
  O  O34  1  0.292468  0.935876  0.071137  1
  O  O35  1  0.071137  0.292468  0.935876  1
