# generated using pymatgen
data_Dy4Si5Rh9
_symmetry_space_group_name_H-M   'P 1'
_cell_length_a   11.71411834
_cell_length_b   11.71411801
_cell_length_c   11.71411802
_cell_angle_alpha   27.31350721
_cell_angle_beta   27.31351003
_cell_angle_gamma   27.31350967
_symmetry_Int_Tables_number   1
_chemical_formula_structural   Dy4Si5Rh9
_chemical_formula_sum   'Dy4 Si5 Rh9'
_cell_volume   298.64668329
_cell_formula_units_Z   1
loop_
 _symmetry_equiv_pos_site_id
 _symmetry_equiv_pos_as_xyz
  1  'x, y, z'
loop_
 _atom_site_type_symbol
 _atom_site_label
 _atom_site_symmetry_multiplicity
 _atom_site_fract_x
 _atom_site_fract_y
 _atom_site_fract_z
 _atom_site_occupancy
  Dy  Dy0  1  0.948813  0.948813  0.948813  1
  Dy  Dy1  1  0.851079  0.851079  0.851079  1
  Dy  Dy2  1  0.148921  0.148921  0.148921  1
  Dy  Dy3  1  0.051187  0.051187  0.051187  1
  Si  Si4  1  0.278361  0.278361  0.278361  1
  Si  Si5  1  0.500000  0.500000  0.500000  1
  Si  Si6  1  0.388208  0.388208  0.388208  1
  Si  Si7  1  0.721639  0.721639  0.721639  1
  Si  Si8  1  0.611792  0.611792  0.611792  1
  Rh  Rh9  1  0.608340  0.608340  0.108427  1
  Rh  Rh10  1  0.891573  0.391660  0.391660  1
  Rh  Rh11  1  0.500000  0.000000  0.500000  1
  Rh  Rh12  1  0.391660  0.891573  0.391660  1
  Rh  Rh13  1  0.500000  0.500000  0.000000  1
  Rh  Rh14  1  0.108427  0.608340  0.608340  1
  Rh  Rh15  1  0.000000  0.500000  0.500000  1
  Rh  Rh16  1  0.391660  0.391660  0.891573  1
  Rh  Rh17  1  0.608340  0.108427  0.608340  1
