# generated using pymatgen
data_CePaB6Mo
_symmetry_space_group_name_H-M   'P 1'
_cell_length_a   3.80900600
_cell_length_b   9.34233100
_cell_length_c   11.53955800
_cell_angle_alpha   90.00000000
_cell_angle_beta   90.00000000
_cell_angle_gamma   90.00000000
_symmetry_Int_Tables_number   1
_chemical_formula_structural   CePaB6Mo
_chemical_formula_sum   'Ce4 Pa4 B24 Mo4'
_cell_volume   410.63511180
_cell_formula_units_Z   4
loop_
 _symmetry_equiv_pos_site_id
 _symmetry_equiv_pos_as_xyz
  1  'x, y, z'
loop_
 _atom_site_type_symbol
 _atom_site_label
 _atom_site_symmetry_multiplicity
 _atom_site_fract_x
 _atom_site_fract_y
 _atom_site_fract_z
 _atom_site_occupancy
  Ce  Ce0  1  0.000000  0.333465  0.409308  1
  Ce  Ce1  1  0.000000  0.666535  0.590692  1
  Ce  Ce2  1  0.000000  0.833465  0.090692  1
  Ce  Ce3  1  0.000000  0.166535  0.909308  1
  Pa  Pa4  1  0.000000  0.951562  0.384530  1
  Pa  Pa5  1  0.000000  0.048438  0.615470  1
  Pa  Pa6  1  0.000000  0.451562  0.115470  1
  Pa  Pa7  1  0.000000  0.548438  0.884530  1
  B  B8  1  0.500000  0.553135  0.431317  1
  B  B9  1  0.500000  0.446865  0.568683  1
  B  B10  1  0.500000  0.053135  0.068683  1
  B  B11  1  0.500000  0.946865  0.931317  1
  B  B12  1  0.500000  0.744793  0.421242  1
  B  B13  1  0.500000  0.255207  0.578758  1
  B  B14  1  0.500000  0.244793  0.078758  1
  B  B15  1  0.500000  0.755207  0.921242  1
  B  B16  1  0.500000  0.799849  0.272440  1
  B  B17  1  0.500000  0.200151  0.727560  1
  B  B18  1  0.500000  0.299849  0.227560  1
  B  B19  1  0.500000  0.700151  0.772440  1
  B  B20  1  0.500000  0.641471  0.188033  1
  B  B21  1  0.500000  0.358529  0.811967  1
  B  B22  1  0.500000  0.141471  0.311967  1
  B  B23  1  0.500000  0.858529  0.688033  1
  B  B24  1  0.500000  0.989017  0.217470  1
  B  B25  1  0.500000  0.010983  0.782530  1
  B  B26  1  0.500000  0.489017  0.282530  1
  B  B27  1  0.500000  0.510983  0.717470  1
  B  B28  1  0.500000  0.634677  0.037071  1
  B  B29  1  0.500000  0.365323  0.962929  1
  B  B30  1  0.500000  0.134677  0.462929  1
  B  B31  1  0.500000  0.865323  0.537071  1
  Mo  Mo32  1  0.000000  0.645081  0.318953  1
  Mo  Mo33  1  0.000000  0.354919  0.681047  1
  Mo  Mo34  1  0.000000  0.145081  0.181047  1
  Mo  Mo35  1  0.000000  0.854919  0.818953  1
