# generated using pymatgen
data_Tb2Dy10ZnInCo4
_symmetry_space_group_name_H-M   'P 1'
_cell_length_a   8.32040758
_cell_length_b   8.31947129
_cell_length_c   8.32869611
_cell_angle_alpha   106.76271735
_cell_angle_beta   109.61042260
_cell_angle_gamma   112.03495368
_symmetry_Int_Tables_number   1
_chemical_formula_structural   Tb2Dy10ZnInCo4
_chemical_formula_sum   'Tb2 Dy10 Zn1 In1 Co4'
_cell_volume   443.13381909
_cell_formula_units_Z   1
loop_
 _symmetry_equiv_pos_site_id
 _symmetry_equiv_pos_as_xyz
  1  'x, y, z'
loop_
 _atom_site_type_symbol
 _atom_site_label
 _atom_site_symmetry_multiplicity
 _atom_site_fract_x
 _atom_site_fract_y
 _atom_site_fract_z
 _atom_site_occupancy
  Tb  Tb0  1  0.301621  0.269522  0.571121  1
  Tb  Tb1  1  0.698379  0.730478  0.428879  1
  Dy  Dy2  1  0.301320  0.730767  0.032123  1
  Dy  Dy3  1  0.698680  0.269233  0.967877  1
  Dy  Dy4  1  0.187350  0.512450  0.324112  1
  Dy  Dy5  1  0.188361  0.863226  0.675892  1
  Dy  Dy6  1  0.812650  0.487550  0.675888  1
  Dy  Dy7  1  0.811639  0.136774  0.324108  1
  Dy  Dy8  1  0.397584  0.216932  0.180218  1
  Dy  Dy9  1  0.036647  0.217286  0.819743  1
  Dy  Dy10  1  0.963353  0.782714  0.180257  1
  Dy  Dy11  1  0.602416  0.783068  0.819782  1
  Zn  Zn12  1  0.500000  0.500000  0.000000  1
  In  In13  1  0.500000  0.000000  0.500000  1
  Co  Co14  1  0.158664  0.500299  0.658940  1
  Co  Co15  1  0.841336  0.499701  0.341060  1
  Co  Co16  1  0.999121  0.113851  0.112974  1
  Co  Co17  1  0.000879  0.886149  0.887026  1
