# generated using pymatgen
data_Lu12Mn2TlTcPb
_symmetry_space_group_name_H-M   'P 1'
_cell_length_a   8.25049888
_cell_length_b   8.25052697
_cell_length_c   8.25049895
_cell_angle_alpha   108.81237373
_cell_angle_beta   108.49304920
_cell_angle_gamma   111.12093444
_symmetry_Int_Tables_number   1
_chemical_formula_structural   Lu12Mn2TlTcPb
_chemical_formula_sum   'Lu12 Mn2 Tl1 Tc1 Pb1'
_cell_volume   432.06270945
_cell_formula_units_Z   1
loop_
 _symmetry_equiv_pos_site_id
 _symmetry_equiv_pos_as_xyz
  1  'x, y, z'
loop_
 _atom_site_type_symbol
 _atom_site_label
 _atom_site_symmetry_multiplicity
 _atom_site_fract_x
 _atom_site_fract_y
 _atom_site_fract_z
 _atom_site_occupancy
  Lu  Lu0  1  0.307832  0.309199  0.617080  1
  Lu  Lu1  1  0.692168  0.690801  0.382920  1
  Lu  Lu2  1  0.692119  0.309199  0.001368  1
  Lu  Lu3  1  0.307881  0.690801  0.998632  1
  Lu  Lu4  1  0.191325  0.429863  0.238538  1
  Lu  Lu5  1  0.808675  0.570137  0.761462  1
  Lu  Lu6  1  0.191170  0.952730  0.761561  1
  Lu  Lu7  1  0.957190  0.192580  0.764680  1
  Lu  Lu8  1  0.808830  0.047270  0.238439  1
  Lu  Lu9  1  0.042810  0.807420  0.235320  1
  Lu  Lu10  1  0.427899  0.192580  0.235390  1
  Lu  Lu11  1  0.572101  0.807420  0.764610  1
  Mn  Mn12  1  0.383866  0.383972  0.000106  1
  Mn  Mn13  1  0.616134  0.616028  0.999894  1
  Tl  Tl14  1  0.000000  0.500000  0.500000  1
  Tc  Tc15  1  0.000000  0.000000  0.000000  1
  Pb  Pb16  1  0.500000  0.000000  0.500000  1
