# generated using pymatgen
data_Nd7Ni2Hg
_symmetry_space_group_name_H-M   'P 1'
_cell_length_a   3.76516400
_cell_length_b   12.38657300
_cell_length_c   12.38657300
_cell_angle_alpha   90.00000000
_cell_angle_beta   90.00000000
_cell_angle_gamma   90.00000000
_symmetry_Int_Tables_number   1
_chemical_formula_structural   Nd7Ni2Hg
_chemical_formula_sum   'Nd14 Ni4 Hg2'
_cell_volume   577.67853499
_cell_formula_units_Z   2
loop_
 _symmetry_equiv_pos_site_id
 _symmetry_equiv_pos_as_xyz
  1  'x, y, z'
loop_
 _atom_site_type_symbol
 _atom_site_label
 _atom_site_symmetry_multiplicity
 _atom_site_fract_x
 _atom_site_fract_y
 _atom_site_fract_z
 _atom_site_occupancy
  Nd  Nd0  1  0.500000  0.000000  0.500000  1
  Nd  Nd1  1  0.500000  0.500000  0.000000  1
  Nd  Nd2  1  0.000000  0.320337  0.820337  1
  Nd  Nd3  1  0.000000  0.679663  0.179663  1
  Nd  Nd4  1  0.000000  0.179663  0.320337  1
  Nd  Nd5  1  0.000000  0.820337  0.679663  1
  Nd  Nd6  1  0.500000  0.562547  0.712693  1
  Nd  Nd7  1  0.500000  0.437453  0.287307  1
  Nd  Nd8  1  0.500000  0.937453  0.212693  1
  Nd  Nd9  1  0.500000  0.062547  0.787307  1
  Nd  Nd10  1  0.500000  0.712693  0.437453  1
  Nd  Nd11  1  0.500000  0.287307  0.562547  1
  Nd  Nd12  1  0.500000  0.212693  0.062547  1
  Nd  Nd13  1  0.500000  0.787307  0.937453  1
  Ni  Ni14  1  0.000000  0.128546  0.628546  1
  Ni  Ni15  1  0.000000  0.871454  0.371454  1
  Ni  Ni16  1  0.000000  0.371454  0.128546  1
  Ni  Ni17  1  0.000000  0.628546  0.871454  1
  Hg  Hg18  1  0.000000  0.500000  0.500000  1
  Hg  Hg19  1  0.000000  0.000000  0.000000  1
