# generated using pymatgen
data_Tm5Lu3Tc3B24Os
_symmetry_space_group_name_H-M   'P 1'
_cell_length_a   3.62383100
_cell_length_b   9.07319334
_cell_length_c   11.44375402
_cell_angle_alpha   89.95446752
_cell_angle_beta   90.00000000
_cell_angle_gamma   90.00000000
_symmetry_Int_Tables_number   1
_chemical_formula_structural   Tm5Lu3Tc3B24Os
_chemical_formula_sum   'Tm5 Lu3 Tc3 B24 Os1'
_cell_volume   376.26730117
_cell_formula_units_Z   1
loop_
 _symmetry_equiv_pos_site_id
 _symmetry_equiv_pos_as_xyz
  1  'x, y, z'
loop_
 _atom_site_type_symbol
 _atom_site_label
 _atom_site_symmetry_multiplicity
 _atom_site_fract_x
 _atom_site_fract_y
 _atom_site_fract_z
 _atom_site_occupancy
  Tm  Tm0  1  0.000000  0.323360  0.413794  1
  Tm  Tm1  1  0.000000  0.675631  0.584375  1
  Tm  Tm2  1  0.000000  0.822342  0.087299  1
  Tm  Tm3  1  0.000000  0.178490  0.914462  1
  Tm  Tm4  1  0.000000  0.942866  0.370581  1
  Lu  Lu5  1  0.000000  0.058009  0.629738  1
  Lu  Lu6  1  0.000000  0.443263  0.129717  1
  Lu  Lu7  1  0.000000  0.556631  0.869967  1
  Tc  Tc8  1  0.000000  0.638465  0.320220  1
  Tc  Tc9  1  0.000000  0.361135  0.680410  1
  Tc  Tc10  1  0.000000  0.138879  0.178304  1
  B  B11  1  0.500000  0.552880  0.433395  1
  B  B12  1  0.500000  0.446846  0.566552  1
  B  B13  1  0.500000  0.053035  0.066276  1
  B  B14  1  0.500000  0.946272  0.933277  1
  B  B15  1  0.500000  0.749450  0.419445  1
  B  B16  1  0.500000  0.249862  0.580701  1
  B  B17  1  0.500000  0.250607  0.080553  1
  B  B18  1  0.500000  0.750056  0.919079  1
  B  B19  1  0.500000  0.792405  0.265165  1
  B  B20  1  0.500000  0.207270  0.735354  1
  B  B21  1  0.500000  0.292939  0.234831  1
  B  B22  1  0.500000  0.707917  0.765026  1
  B  B23  1  0.500000  0.630601  0.184603  1
  B  B24  1  0.500000  0.369250  0.815902  1
  B  B25  1  0.500000  0.130677  0.314846  1
  B  B26  1  0.500000  0.869259  0.684793  1
  B  B27  1  0.500000  0.981088  0.211837  1
  B  B28  1  0.500000  0.017941  0.787799  1
  B  B29  1  0.500000  0.481039  0.287598  1
  B  B30  1  0.500000  0.518755  0.712260  1
  B  B31  1  0.500000  0.600967  0.027759  1
  B  B32  1  0.500000  0.400190  0.972102  1
  B  B33  1  0.500000  0.101152  0.472436  1
  B  B34  1  0.500000  0.899268  0.528757  1
  Os  Os35  1  0.000000  0.861199  0.820787  1
