# generated using pymatgen
data_SrCu(S2O7)2
_symmetry_space_group_name_H-M   'P 1'
_cell_length_a   5.85334393
_cell_length_b   7.11476421
_cell_length_c   9.06020498
_cell_angle_alpha   107.01831286
_cell_angle_beta   93.67789121
_cell_angle_gamma   102.05463626
_symmetry_Int_Tables_number   1
_chemical_formula_structural   SrCu(S2O7)2
_chemical_formula_sum   'Sr1 Cu1 S4 O14'
_cell_volume   349.65546545
_cell_formula_units_Z   1
loop_
 _symmetry_equiv_pos_site_id
 _symmetry_equiv_pos_as_xyz
  1  'x, y, z'
loop_
 _atom_site_type_symbol
 _atom_site_label
 _atom_site_symmetry_multiplicity
 _atom_site_fract_x
 _atom_site_fract_y
 _atom_site_fract_z
 _atom_site_occupancy
  Sr  Sr0  1  0.500000  0.000000  0.000000  1
  Cu  Cu1  1  0.500000  0.500000  0.500000  1
  S  S2  1  0.922305  0.718796  0.749870  1
  S  S3  1  0.077695  0.281204  0.250130  1
  S  S4  1  0.659079  0.320811  0.741283  1
  S  S5  1  0.340921  0.679189  0.258717  1
  O  O6  1  0.828579  0.648110  0.581770  1
  O  O7  1  0.171421  0.351890  0.418230  1
  O  O8  1  0.474640  0.408202  0.682586  1
  O  O9  1  0.525360  0.591798  0.317414  1
  O  O10  1  0.174794  0.803122  0.775586  1
  O  O11  1  0.825206  0.196878  0.224414  1
  O  O12  1  0.787969  0.844538  0.846881  1
  O  O13  1  0.212031  0.155462  0.153119  1
  O  O14  1  0.604659  0.283499  0.885960  1
  O  O15  1  0.395341  0.716501  0.114040  1
  O  O16  1  0.899813  0.518481  0.805131  1
  O  O17  1  0.100187  0.481519  0.194869  1
  O  O18  1  0.733615  0.167882  0.626998  1
  O  O19  1  0.266385  0.832118  0.373002  1
