# generated using pymatgen
data_Zr6Nb4AlSi4GeC2
_symmetry_space_group_name_H-M   'P 1'
_cell_length_a   7.96288400
_cell_length_b   7.96288352
_cell_length_c   5.45661000
_cell_angle_alpha   90.00000000
_cell_angle_beta   90.00000000
_cell_angle_gamma   120.01460937
_symmetry_Int_Tables_number   1
_chemical_formula_structural   Zr6Nb4AlSi4GeC2
_chemical_formula_sum   'Zr6 Nb4 Al1 Si4 Ge1 C2'
_cell_volume   299.59209205
_cell_formula_units_Z   1
loop_
 _symmetry_equiv_pos_site_id
 _symmetry_equiv_pos_as_xyz
  1  'x, y, z'
loop_
 _atom_site_type_symbol
 _atom_site_label
 _atom_site_symmetry_multiplicity
 _atom_site_fract_x
 _atom_site_fract_y
 _atom_site_fract_z
 _atom_site_occupancy
  Zr  Zr0  1  0.238946  0.998932  0.250000  1
  Zr  Zr1  1  0.761575  0.002672  0.750000  1
  Zr  Zr2  1  0.998932  0.238946  0.250000  1
  Zr  Zr3  1  0.002672  0.761575  0.750000  1
  Zr  Zr4  1  0.766027  0.766027  0.250000  1
  Zr  Zr5  1  0.233666  0.233666  0.750000  1
  Nb  Nb6  1  0.328896  0.670306  0.999875  1
  Nb  Nb7  1  0.670306  0.328896  0.999875  1
  Nb  Nb8  1  0.670306  0.328896  0.500125  1
  Nb  Nb9  1  0.328896  0.670306  0.500125  1
  Al  Al10  1  0.590566  0.590566  0.750000  1
  Si  Si11  1  0.592261  0.997731  0.250000  1
  Si  Si12  1  0.407660  0.001325  0.750000  1
  Si  Si13  1  0.997731  0.592261  0.250000  1
  Si  Si14  1  0.001325  0.407660  0.750000  1
  Ge  Ge15  1  0.410950  0.410950  0.250000  1
  C  C16  1  0.999643  0.999643  0.999812  1
  C  C17  1  0.999643  0.999643  0.500188  1
