# generated using pymatgen
data_La2Tb5DyMo(WO8)3
_symmetry_space_group_name_H-M   'P 1'
_cell_length_a   5.48631301
_cell_length_b   7.82321793
_cell_length_c   11.63429100
_cell_angle_alpha   75.72648243
_cell_angle_beta   89.99647013
_cell_angle_gamma   89.97770756
_symmetry_Int_Tables_number   1
_chemical_formula_structural   La2Tb5DyMo(WO8)3
_chemical_formula_sum   'La2 Tb5 Dy1 Mo1 W3 O24'
_cell_volume   483.93590335
_cell_formula_units_Z   1
loop_
 _symmetry_equiv_pos_site_id
 _symmetry_equiv_pos_as_xyz
  1  'x, y, z'
loop_
 _atom_site_type_symbol
 _atom_site_label
 _atom_site_symmetry_multiplicity
 _atom_site_fract_x
 _atom_site_fract_y
 _atom_site_fract_z
 _atom_site_occupancy
  La  La0  1  0.685704  0.501692  0.749568  1
  La  La1  1  0.315409  0.499467  0.251222  1
  Tb  Tb2  1  0.740405  0.999235  0.749749  1
  Tb  Tb3  1  0.259329  0.000060  0.250441  1
  Tb  Tb4  1  0.188690  0.798129  0.577010  1
  Tb  Tb5  1  0.812785  0.798217  0.075288  1
  Tb  Tb6  1  0.185488  0.199068  0.923905  1
  Dy  Dy7  1  0.813298  0.202407  0.423975  1
  Mo  Mo8  1  0.251914  0.726665  0.884867  1
  W  W9  1  0.748500  0.729208  0.383608  1
  W  W10  1  0.252047  0.271033  0.616235  1
  W  W11  1  0.748311  0.270915  0.116626  1
  O  O12  1  0.035131  0.940765  0.897408  1
  O  O13  1  0.524867  0.846676  0.929448  1
  O  O14  1  0.956944  0.941865  0.395707  1
  O  O15  1  0.458296  0.793123  0.726815  1
  O  O16  1  0.469469  0.845157  0.430043  1
  O  O17  1  0.989812  0.722220  0.769395  1
  O  O18  1  0.547453  0.795296  0.227704  1
  O  O19  1  0.855866  0.643280  0.543469  1
  O  O20  1  0.343039  0.497109  0.887118  1
  O  O21  1  0.014133  0.721358  0.269294  1
  O  O22  1  0.346002  0.504128  0.612966  1
  O  O23  1  0.855690  0.356786  0.956574  1
  O  O24  1  0.146926  0.643137  0.043161  1
  O  O25  1  0.655382  0.495478  0.386740  1
  O  O26  1  0.986517  0.279690  0.730168  1
  O  O27  1  0.654645  0.504467  0.113149  1
  O  O28  1  0.143341  0.356705  0.456286  1
  O  O29  1  0.452771  0.204982  0.771802  1
  O  O30  1  0.014044  0.279253  0.230634  1
  O  O31  1  0.530416  0.154767  0.568775  1
  O  O32  1  0.548361  0.204647  0.272551  1
  O  O33  1  0.041265  0.059610  0.603771  1
  O  O34  1  0.469714  0.154583  0.069764  1
  O  O35  1  0.958039  0.058817  0.104767  1
