# generated using pymatgen
data_Nd9Y(SnSb)4
_symmetry_space_group_name_H-M   'P 1'
_cell_length_a   8.33769700
_cell_length_b   8.37944300
_cell_length_c   15.92230600
_cell_angle_alpha   90.00000000
_cell_angle_beta   90.00000000
_cell_angle_gamma   90.00000000
_symmetry_Int_Tables_number   1
_chemical_formula_structural   Nd9Y(SnSb)4
_chemical_formula_sum   'Nd18 Y2 Sn8 Sb8'
_cell_volume   1112.41599695
_cell_formula_units_Z   2
loop_
 _symmetry_equiv_pos_site_id
 _symmetry_equiv_pos_as_xyz
  1  'x, y, z'
loop_
 _atom_site_type_symbol
 _atom_site_label
 _atom_site_symmetry_multiplicity
 _atom_site_fract_x
 _atom_site_fract_y
 _atom_site_fract_z
 _atom_site_occupancy
  Nd  Nd0  1  0.393989  0.836610  0.883402  1
  Nd  Nd1  1  0.893989  0.663390  0.616598  1
  Nd  Nd2  1  0.607195  0.162351  0.382196  1
  Nd  Nd3  1  0.107195  0.337649  0.117804  1
  Nd  Nd4  1  0.607195  0.162351  0.117804  1
  Nd  Nd5  1  0.107195  0.337649  0.382196  1
  Nd  Nd6  1  0.393989  0.836610  0.616598  1
  Nd  Nd7  1  0.893989  0.663390  0.883402  1
  Nd  Nd8  1  0.554034  0.327615  0.893242  1
  Nd  Nd9  1  0.054034  0.172385  0.606758  1
  Nd  Nd10  1  0.445044  0.671317  0.392614  1
  Nd  Nd11  1  0.945044  0.828683  0.107386  1
  Nd  Nd12  1  0.445044  0.671317  0.107386  1
  Nd  Nd13  1  0.945044  0.828683  0.392614  1
  Nd  Nd14  1  0.554034  0.327615  0.606758  1
  Nd  Nd15  1  0.054034  0.172385  0.893242  1
  Nd  Nd16  1  0.222483  0.497265  0.750000  1
  Nd  Nd17  1  0.722483  0.002735  0.750000  1
  Y  Y18  1  0.775933  0.502271  0.250000  1
  Y  Y19  1  0.275933  0.997729  0.250000  1
  Sn  Sn20  1  0.593189  0.624186  0.750000  1
  Sn  Sn21  1  0.093189  0.875814  0.750000  1
  Sn  Sn22  1  0.409295  0.374102  0.250000  1
  Sn  Sn23  1  0.909295  0.125898  0.250000  1
  Sn  Sn24  1  0.355307  0.137168  0.750000  1
  Sn  Sn25  1  0.855307  0.362832  0.750000  1
  Sn  Sn26  1  0.641635  0.859152  0.250000  1
  Sn  Sn27  1  0.141635  0.640848  0.250000  1
  Sb  Sb28  1  0.266606  0.016229  0.050268  1
  Sb  Sb29  1  0.766606  0.483771  0.449732  1
  Sb  Sb30  1  0.734210  0.983124  0.547378  1
  Sb  Sb31  1  0.234210  0.516876  0.952622  1
  Sb  Sb32  1  0.734210  0.983124  0.952622  1
  Sb  Sb33  1  0.234210  0.516876  0.547378  1
  Sb  Sb34  1  0.266606  0.016229  0.449732  1
  Sb  Sb35  1  0.766606  0.483771  0.050268  1
