# generated using pymatgen
data_TbLu2Sc2Pb3
_symmetry_space_group_name_H-M   'P 1'
_cell_length_a   8.82527890
_cell_length_b   8.84294747
_cell_length_c   6.33093900
_cell_angle_alpha   90.00000000
_cell_angle_beta   90.00000000
_cell_angle_gamma   120.06625525
_symmetry_Int_Tables_number   1
_chemical_formula_structural   TbLu2Sc2Pb3
_chemical_formula_sum   'Tb2 Lu4 Sc4 Pb6'
_cell_volume   427.59627062
_cell_formula_units_Z   2
loop_
 _symmetry_equiv_pos_site_id
 _symmetry_equiv_pos_as_xyz
  1  'x, y, z'
loop_
 _atom_site_type_symbol
 _atom_site_label
 _atom_site_symmetry_multiplicity
 _atom_site_fract_x
 _atom_site_fract_y
 _atom_site_fract_z
 _atom_site_occupancy
  Tb  Tb0  1  0.236439  0.999425  0.250000  1
  Tb  Tb1  1  0.236439  0.237015  0.750000  1
  Lu  Lu2  1  0.999176  0.762690  0.750000  1
  Lu  Lu3  1  0.999176  0.236486  0.250000  1
  Lu  Lu4  1  0.763958  0.764368  0.250000  1
  Lu  Lu5  1  0.763958  0.999590  0.750000  1
  Sc  Sc6  1  0.333581  0.666791  0.000000  1
  Sc  Sc7  1  0.666799  0.333399  0.500000  1
  Sc  Sc8  1  0.666799  0.333399  0.000000  1
  Sc  Sc9  1  0.333581  0.666791  0.500000  1
  Pb  Pb10  1  0.602985  0.999980  0.250000  1
  Pb  Pb11  1  0.602985  0.603005  0.750000  1
  Pb  Pb12  1  0.998421  0.398713  0.750000  1
  Pb  Pb13  1  0.998421  0.599708  0.250000  1
  Pb  Pb14  1  0.398640  0.400206  0.250000  1
  Pb  Pb15  1  0.398640  0.998434  0.750000  1
