# generated using pymatgen
data_Ce2Mn3Al20Os
_symmetry_space_group_name_H-M   'P 1'
_cell_length_a   6.82125175
_cell_length_b   6.82052660
_cell_length_c   9.04783208
_cell_angle_alpha   89.92545469
_cell_angle_beta   90.17638873
_cell_angle_gamma   97.41402202
_symmetry_Int_Tables_number   1
_chemical_formula_structural   Ce2Mn3Al20Os
_chemical_formula_sum   'Ce2 Mn3 Al20 Os1'
_cell_volume   417.42470177
_cell_formula_units_Z   1
loop_
 _symmetry_equiv_pos_site_id
 _symmetry_equiv_pos_as_xyz
  1  'x, y, z'
loop_
 _atom_site_type_symbol
 _atom_site_label
 _atom_site_symmetry_multiplicity
 _atom_site_fract_x
 _atom_site_fract_y
 _atom_site_fract_z
 _atom_site_occupancy
  Ce  Ce0  1  0.877168  0.127200  0.752885  1
  Ce  Ce1  1  0.122832  0.872800  0.247115  1
  Mn  Mn2  1  0.500000  0.000000  0.000000  1
  Mn  Mn3  1  0.000000  0.500000  0.000000  1
  Mn  Mn4  1  0.000000  0.500000  0.500000  1
  Al  Al5  1  0.591631  0.866096  0.245911  1
  Al  Al6  1  0.780363  0.522402  0.249508  1
  Al  Al7  1  0.160810  0.839481  0.901820  1
  Al  Al8  1  0.408369  0.133904  0.754089  1
  Al  Al9  1  0.624143  0.376050  0.951861  1
  Al  Al10  1  0.845205  0.161733  0.401569  1
  Al  Al11  1  0.771817  0.771041  0.997959  1
  Al  Al12  1  0.867464  0.588614  0.749950  1
  Al  Al13  1  0.839190  0.160519  0.098180  1
  Al  Al14  1  0.219637  0.477598  0.750492  1
  Al  Al15  1  0.154795  0.838267  0.598431  1
  Al  Al16  1  0.776129  0.770053  0.497774  1
  Al  Al17  1  0.475903  0.219188  0.247213  1
  Al  Al18  1  0.626379  0.379150  0.547967  1
  Al  Al19  1  0.223871  0.229947  0.502226  1
  Al  Al20  1  0.373621  0.620850  0.452033  1
  Al  Al21  1  0.132536  0.411386  0.250050  1
  Al  Al22  1  0.524097  0.780812  0.752787  1
  Al  Al23  1  0.375857  0.623950  0.048139  1
  Al  Al24  1  0.228183  0.228959  0.002041  1
  Os  Os25  1  0.500000  0.000000  0.500000  1
