# generated using pymatgen
data_Ga12CoTc2Ir
_symmetry_space_group_name_H-M   'P 1'
_cell_length_a   6.51409633
_cell_length_b   6.49791086
_cell_length_c   6.82840400
_cell_angle_alpha   90.00000000
_cell_angle_beta   90.00000000
_cell_angle_gamma   90.33977020
_symmetry_Int_Tables_number   1
_chemical_formula_structural   Ga12CoTc2Ir
_chemical_formula_sum   'Ga12 Co1 Tc2 Ir1'
_cell_volume   289.02772085
_cell_formula_units_Z   1
loop_
 _symmetry_equiv_pos_site_id
 _symmetry_equiv_pos_as_xyz
  1  'x, y, z'
loop_
 _atom_site_type_symbol
 _atom_site_label
 _atom_site_symmetry_multiplicity
 _atom_site_fract_x
 _atom_site_fract_y
 _atom_site_fract_z
 _atom_site_occupancy
  Ga  Ga0  1  0.496893  0.994581  0.000000  1
  Ga  Ga1  1  0.499246  0.998723  0.500000  1
  Ga  Ga2  1  0.008512  0.506183  0.000000  1
  Ga  Ga3  1  0.995318  0.502298  0.500000  1
  Ga  Ga4  1  0.659005  0.347500  0.739765  1
  Ga  Ga5  1  0.845524  0.844903  0.764800  1
  Ga  Ga6  1  0.153958  0.152575  0.770316  1
  Ga  Ga7  1  0.342146  0.664131  0.739682  1
  Ga  Ga8  1  0.342146  0.664131  0.260318  1
  Ga  Ga9  1  0.659005  0.347500  0.260235  1
  Ga  Ga10  1  0.845524  0.844903  0.235200  1
  Ga  Ga11  1  0.153958  0.152575  0.229684  1
  Co  Co12  1  0.164370  0.836811  0.000000  1
  Tc  Tc13  1  0.847780  0.151782  0.000000  1
  Tc  Tc14  1  0.652918  0.655368  0.500000  1
  Ir  Ir15  1  0.333697  0.336032  0.500000  1
