# generated using pymatgen
data_Ga2Ni3PtO8
_symmetry_space_group_name_H-M   'P 1'
_cell_length_a   5.89823267
_cell_length_b   5.89831662
_cell_length_c   10.34032200
_cell_angle_alpha   90.00083540
_cell_angle_beta   73.42335783
_cell_angle_gamma   120.00003406
_symmetry_Int_Tables_number   1
_chemical_formula_structural   Ga2Ni3PtO8
_chemical_formula_sum   'Ga4 Ni6 Pt2 O16'
_cell_volume   294.15085710
_cell_formula_units_Z   2
loop_
 _symmetry_equiv_pos_site_id
 _symmetry_equiv_pos_as_xyz
  1  'x, y, z'
loop_
 _atom_site_type_symbol
 _atom_site_label
 _atom_site_symmetry_multiplicity
 _atom_site_fract_x
 _atom_site_fract_y
 _atom_site_fract_z
 _atom_site_occupancy
  Ga  Ga0  1  0.009560  0.004785  0.985692  1
  Ga  Ga1  1  0.009549  0.504772  0.485690  1
  Ga  Ga2  1  0.740447  0.870225  0.389295  1
  Ga  Ga3  1  0.740463  0.370227  0.889286  1
  Ni  Ni4  1  0.374954  0.437558  0.187483  1
  Ni  Ni5  1  0.374956  0.937409  0.187480  1
  Ni  Ni6  1  0.875104  0.437559  0.187488  1
  Ni  Ni7  1  0.374963  0.937503  0.687490  1
  Ni  Ni8  1  0.374989  0.437450  0.687491  1
  Ni  Ni9  1  0.875046  0.937531  0.687493  1
  Pt  Pt10  1  0.375049  0.687524  0.937462  1
  Pt  Pt11  1  0.375034  0.187516  0.437470  1
  O  O12  1  0.615847  0.807912  0.576200  1
  O  O13  1  0.615855  0.307926  0.076194  1
  O  O14  1  0.134071  0.567048  0.298804  1
  O  O15  1  0.134071  0.067039  0.798805  1
  O  O16  1  0.134514  0.567246  0.814177  1
  O  O17  1  0.134498  0.067257  0.314183  1
  O  O18  1  0.618574  0.567260  0.814144  1
  O  O19  1  0.618560  0.067253  0.314150  1
  O  O20  1  0.618560  0.051315  0.814147  1
  O  O21  1  0.618557  0.551315  0.314158  1
  O  O22  1  0.131424  0.323631  0.060870  1
  O  O23  1  0.131409  0.823617  0.560867  1
  O  O24  1  0.131428  0.807795  0.060872  1
  O  O25  1  0.131423  0.307796  0.560874  1
  O  O26  1  0.615550  0.807778  0.060873  1
  O  O27  1  0.615544  0.307756  0.560873  1
