# generated using pymatgen
data_Ba6Tb2(ReO6)3
_symmetry_space_group_name_H-M   'P 1'
_cell_length_a   10.36383565
_cell_length_b   10.36383553
_cell_length_c   10.36383663
_cell_angle_alpha   146.48740296
_cell_angle_beta   131.85634302
_cell_angle_gamma   59.93185150
_symmetry_Int_Tables_number   1
_chemical_formula_structural   Ba6Tb2(ReO6)3
_chemical_formula_sum   'Ba6 Tb2 Re3 O18'
_cell_volume   453.60963750
_cell_formula_units_Z   1
loop_
 _symmetry_equiv_pos_site_id
 _symmetry_equiv_pos_as_xyz
  1  'x, y, z'
loop_
 _atom_site_type_symbol
 _atom_site_label
 _atom_site_symmetry_multiplicity
 _atom_site_fract_x
 _atom_site_fract_y
 _atom_site_fract_z
 _atom_site_occupancy
  Ba  Ba0  1  0.774331  0.500000  0.274331  1
  Ba  Ba1  1  0.392948  0.156486  0.236463  1
  Ba  Ba2  1  0.079976  0.843514  0.236463  1
  Ba  Ba3  1  0.225669  0.500000  0.725669  1
  Ba  Ba4  1  0.920024  0.156486  0.763537  1
  Ba  Ba5  1  0.607052  0.843514  0.763537  1
  Tb  Tb6  1  0.665726  0.665726  0.000000  1
  Tb  Tb7  1  0.334274  0.334274  0.000000  1
  Re  Re8  1  0.500000  0.000000  0.500000  1
  Re  Re9  1  0.169386  0.669386  0.500000  1
  Re  Re10  1  0.830614  0.330614  0.500000  1
  O  O11  1  0.721266  0.000000  0.721266  1
  O  O12  1  0.402125  0.668451  0.733674  1
  O  O13  1  0.065224  0.331549  0.733674  1
  O  O14  1  0.577596  0.844297  0.266699  1
  O  O15  1  0.246494  0.515283  0.268789  1
  O  O16  1  0.904927  0.179870  0.274943  1
  O  O17  1  0.422404  0.689102  0.266699  1
  O  O18  1  0.095073  0.370016  0.274943  1
  O  O19  1  0.753506  0.022295  0.268789  1
  O  O20  1  0.278734  0.000000  0.278734  1
  O  O21  1  0.934776  0.668451  0.266326  1
  O  O22  1  0.597875  0.331549  0.266326  1
  O  O23  1  0.422404  0.155703  0.733301  1
  O  O24  1  0.095073  0.820130  0.725057  1
  O  O25  1  0.753506  0.484717  0.731211  1
  O  O26  1  0.577596  0.310898  0.733301  1
  O  O27  1  0.246494  0.977705  0.731211  1
  O  O28  1  0.904927  0.629985  0.725057  1
