# generated using pymatgen
data_Sm2Al4CoGe2
_symmetry_space_group_name_H-M   'P 1'
_cell_length_a   4.17981645
_cell_length_b   4.17980119
_cell_length_c   10.32237917
_cell_angle_alpha   101.68964647
_cell_angle_beta   101.68961139
_cell_angle_gamma   89.95001222
_symmetry_Int_Tables_number   1
_chemical_formula_structural   Sm2Al4CoGe2
_chemical_formula_sum   'Sm2 Al4 Co1 Ge2'
_cell_volume   172.78526383
_cell_formula_units_Z   1
loop_
 _symmetry_equiv_pos_site_id
 _symmetry_equiv_pos_as_xyz
  1  'x, y, z'
loop_
 _atom_site_type_symbol
 _atom_site_label
 _atom_site_symmetry_multiplicity
 _atom_site_fract_x
 _atom_site_fract_y
 _atom_site_fract_z
 _atom_site_occupancy
  Sm  Sm0  1  0.183830  0.183830  0.367929  1
  Sm  Sm1  1  0.816171  0.816172  0.632071  1
  Al  Al2  1  0.565029  0.064962  0.129809  1
  Al  Al3  1  0.064961  0.565028  0.129809  1
  Al  Al4  1  0.935040  0.434972  0.870191  1
  Al  Al5  1  0.434973  0.935040  0.870191  1
  Co  Co6  1  0.000001  0.000000  0.000000  1
  Ge  Ge7  1  0.660924  0.660923  0.322167  1
  Ge  Ge8  1  0.339077  0.339077  0.677832  1
