# generated using pymatgen
data_KBaH9W
_symmetry_space_group_name_H-M   'P 1'
_cell_length_a   9.40599700
_cell_length_b   9.40599608
_cell_length_c   5.48849500
_cell_angle_alpha   90.00000000
_cell_angle_beta   90.00000000
_cell_angle_gamma   120.00000675
_symmetry_Int_Tables_number   1
_chemical_formula_structural   KBaH9W
_chemical_formula_sum   'K3 Ba3 H27 W3'
_cell_volume   420.52663151
_cell_formula_units_Z   3
loop_
 _symmetry_equiv_pos_site_id
 _symmetry_equiv_pos_as_xyz
  1  'x, y, z'
loop_
 _atom_site_type_symbol
 _atom_site_label
 _atom_site_symmetry_multiplicity
 _atom_site_fract_x
 _atom_site_fract_y
 _atom_site_fract_z
 _atom_site_occupancy
  K  K0  1  0.000000  0.255324  0.500000  1
  K  K1  1  0.744676  0.744676  0.500000  1
  K  K2  1  0.255324  0.000000  0.500000  1
  Ba  Ba3  1  0.000000  0.597412  0.000000  1
  Ba  Ba4  1  0.402588  0.402588  0.000000  1
  Ba  Ba5  1  0.597412  0.000000  0.000000  1
  H  H6  1  0.783490  0.306952  0.734770  1
  H  H7  1  0.693048  0.476537  0.734770  1
  H  H8  1  0.523463  0.216510  0.734770  1
  H  H9  1  0.216510  0.523463  0.265230  1
  H  H10  1  0.523463  0.216510  0.265230  1
  H  H11  1  0.783490  0.306952  0.265230  1
  H  H12  1  0.693048  0.476537  0.265230  1
  H  H13  1  0.306952  0.783490  0.734770  1
  H  H14  1  0.476537  0.693048  0.734770  1
  H  H15  1  0.187563  0.000000  0.000000  1
  H  H16  1  0.812437  0.812437  0.000000  1
  H  H17  1  0.000000  0.187563  0.000000  1
  H  H18  1  0.864706  0.000000  0.224378  1
  H  H19  1  0.135294  0.135294  0.775622  1
  H  H20  1  0.000000  0.864706  0.775622  1
  H  H21  1  0.000000  0.864706  0.224378  1
  H  H22  1  0.135294  0.135294  0.224378  1
  H  H23  1  0.864706  0.000000  0.775622  1
  H  H24  1  0.132407  0.630180  0.500000  1
  H  H25  1  0.497774  0.867593  0.500000  1
  H  H26  1  0.369820  0.502226  0.500000  1
  H  H27  1  0.502226  0.369820  0.500000  1
  H  H28  1  0.867593  0.497774  0.500000  1
  H  H29  1  0.630180  0.132407  0.500000  1
  H  H30  1  0.216510  0.523463  0.734770  1
  H  H31  1  0.306952  0.783490  0.265230  1
  H  H32  1  0.476537  0.693048  0.265230  1
  W  W33  1  0.666667  0.333333  0.500000  1
  W  W34  1  0.333333  0.666667  0.500000  1
  W  W35  1  0.000000  0.000000  0.000000  1
