# generated using pymatgen
data_Ho5Lu11(CoAg)4
_symmetry_space_group_name_H-M   'P 1'
_cell_length_a   9.25456305
_cell_length_b   9.25262162
_cell_length_c   9.25262116
_cell_angle_alpha   60.01080712
_cell_angle_beta   59.99306241
_cell_angle_gamma   59.99306032
_symmetry_Int_Tables_number   1
_chemical_formula_structural   Ho5Lu11(CoAg)4
_chemical_formula_sum   'Ho5 Lu11 Co4 Ag4'
_cell_volume   560.22230878
_cell_formula_units_Z   1
loop_
 _symmetry_equiv_pos_site_id
 _symmetry_equiv_pos_as_xyz
  1  'x, y, z'
loop_
 _atom_site_type_symbol
 _atom_site_label
 _atom_site_symmetry_multiplicity
 _atom_site_fract_x
 _atom_site_fract_y
 _atom_site_fract_z
 _atom_site_occupancy
  Ho  Ho0  1  0.561103  0.938897  0.938897  1
  Ho  Ho1  1  0.561822  0.938195  0.561015  1
  Ho  Ho2  1  0.938969  0.561015  0.938195  1
  Ho  Ho3  1  0.561822  0.561015  0.938195  1
  Ho  Ho4  1  0.938969  0.938195  0.561015  1
  Lu  Lu5  1  0.346463  0.348165  0.348165  1
  Lu  Lu6  1  0.347337  0.347438  0.957890  1
  Lu  Lu7  1  0.347337  0.957890  0.347438  1
  Lu  Lu8  1  0.957208  0.348165  0.348165  1
  Lu  Lu9  1  0.812972  0.187028  0.187028  1
  Lu  Lu10  1  0.186854  0.813146  0.813146  1
  Lu  Lu11  1  0.186504  0.812287  0.188027  1
  Lu  Lu12  1  0.813182  0.188027  0.812287  1
  Lu  Lu13  1  0.186504  0.188027  0.812287  1
  Lu  Lu14  1  0.813182  0.812287  0.188027  1
  Lu  Lu15  1  0.939003  0.560997  0.560997  1
  Co  Co16  1  0.141309  0.141246  0.141246  1
  Co  Co17  1  0.141164  0.141778  0.575894  1
  Co  Co18  1  0.141164  0.575894  0.141778  1
  Co  Co19  1  0.576199  0.141246  0.141246  1
  Ag  Ag20  1  0.582126  0.580657  0.580657  1
  Ag  Ag21  1  0.581125  0.580837  0.256912  1
  Ag  Ag22  1  0.581125  0.256912  0.580837  1
  Ag  Ag23  1  0.256559  0.580657  0.580657  1
