# generated using pymatgen
data_Y20In3Ag3Ru2
_symmetry_space_group_name_H-M   'P 1'
_cell_length_a   9.70503500
_cell_length_b   9.70503488
_cell_length_c   9.68486300
_cell_angle_alpha   90.00000000
_cell_angle_beta   90.00000000
_cell_angle_gamma   119.99999701
_symmetry_Int_Tables_number   1
_chemical_formula_structural   Y20In3Ag3Ru2
_chemical_formula_sum   'Y20 In3 Ag3 Ru2'
_cell_volume   789.98406806
_cell_formula_units_Z   1
loop_
 _symmetry_equiv_pos_site_id
 _symmetry_equiv_pos_as_xyz
  1  'x, y, z'
loop_
 _atom_site_type_symbol
 _atom_site_label
 _atom_site_symmetry_multiplicity
 _atom_site_fract_x
 _atom_site_fract_y
 _atom_site_fract_z
 _atom_site_occupancy
  Y  Y0  1  0.000000  0.000000  0.533141  1
  Y  Y1  1  0.000000  0.000000  0.966859  1
  Y  Y2  1  0.208420  0.791580  0.439458  1
  Y  Y3  1  0.208420  0.416839  0.439458  1
  Y  Y4  1  0.583161  0.791580  0.439458  1
  Y  Y5  1  0.789533  0.210467  0.559949  1
  Y  Y6  1  0.789533  0.579066  0.559949  1
  Y  Y7  1  0.420934  0.210467  0.559949  1
  Y  Y8  1  0.789533  0.210467  0.940051  1
  Y  Y9  1  0.789533  0.579066  0.940051  1
  Y  Y10  1  0.420934  0.210467  0.940051  1
  Y  Y11  1  0.208420  0.791580  0.060542  1
  Y  Y12  1  0.208420  0.416839  0.060542  1
  Y  Y13  1  0.583161  0.791580  0.060542  1
  Y  Y14  1  0.540138  0.459862  0.250000  1
  Y  Y15  1  0.540138  0.080274  0.250000  1
  Y  Y16  1  0.919726  0.459862  0.250000  1
  Y  Y17  1  0.458981  0.541019  0.750000  1
  Y  Y18  1  0.458981  0.917963  0.750000  1
  Y  Y19  1  0.082037  0.541019  0.750000  1
  In  In20  1  0.889026  0.110974  0.250000  1
  In  In21  1  0.889026  0.778054  0.250000  1
  In  In22  1  0.221946  0.110974  0.250000  1
  Ag  Ag23  1  0.126414  0.873586  0.750000  1
  Ag  Ag24  1  0.126414  0.252825  0.750000  1
  Ag  Ag25  1  0.747175  0.873586  0.750000  1
  Ru  Ru26  1  0.333333  0.666667  0.250000  1
  Ru  Ru27  1  0.666667  0.333333  0.750000  1
