# generated using pymatgen
data_Lu16InHg3Rh4
_symmetry_space_group_name_H-M   'P 1'
_cell_length_a   9.41630285
_cell_length_b   9.40169876
_cell_length_c   9.40169900
_cell_angle_alpha   60.00000266
_cell_angle_beta   60.05129399
_cell_angle_gamma   60.05129267
_symmetry_Int_Tables_number   1
_chemical_formula_structural   Lu16InHg3Rh4
_chemical_formula_sum   'Lu16 In1 Hg3 Rh4'
_cell_volume   588.99875477
_cell_formula_units_Z   1
loop_
 _symmetry_equiv_pos_site_id
 _symmetry_equiv_pos_as_xyz
  1  'x, y, z'
loop_
 _atom_site_type_symbol
 _atom_site_label
 _atom_site_symmetry_multiplicity
 _atom_site_fract_x
 _atom_site_fract_y
 _atom_site_fract_z
 _atom_site_occupancy
  Lu  Lu0  1  0.601015  0.601820  0.601820  1
  Lu  Lu1  1  0.601015  0.601820  0.195346  1
  Lu  Lu2  1  0.601015  0.195346  0.601820  1
  Lu  Lu3  1  0.192158  0.602614  0.602614  1
  Lu  Lu4  1  0.061266  0.439043  0.439043  1
  Lu  Lu5  1  0.438988  0.060368  0.060368  1
  Lu  Lu6  1  0.438988  0.060368  0.440277  1
  Lu  Lu7  1  0.061266  0.439043  0.060649  1
  Lu  Lu8  1  0.438988  0.440277  0.060368  1
  Lu  Lu9  1  0.061266  0.060649  0.439043  1
  Lu  Lu10  1  0.184591  0.813455  0.813455  1
  Lu  Lu11  1  0.811330  0.187547  0.187547  1
  Lu  Lu12  1  0.811330  0.187547  0.813576  1
  Lu  Lu13  1  0.184591  0.813455  0.188498  1
  Lu  Lu14  1  0.811330  0.813576  0.187547  1
  Lu  Lu15  1  0.184591  0.188498  0.813455  1
  In  In16  1  0.504624  0.831792  0.831792  1
  Hg  Hg17  1  0.837124  0.835806  0.835806  1
  Hg  Hg18  1  0.837124  0.835806  0.491263  1
  Hg  Hg19  1  0.837124  0.491263  0.835806  1
  Rh  Rh20  1  0.393060  0.393388  0.393388  1
  Rh  Rh21  1  0.393060  0.393388  0.820162  1
  Rh  Rh22  1  0.393060  0.820162  0.393388  1
  Rh  Rh23  1  0.821093  0.392969  0.392969  1
