# generated using pymatgen
data_Ho3Tm2Hf3(Co4P3)4
_symmetry_space_group_name_H-M   'P 1'
_cell_length_a   12.24401802
_cell_length_b   12.24273840
_cell_length_c   3.69410100
_cell_angle_alpha   90.00000000
_cell_angle_beta   90.00000000
_cell_angle_gamma   119.99655087
_symmetry_Int_Tables_number   1
_chemical_formula_structural   Ho3Tm2Hf3(Co4P3)4
_chemical_formula_sum   'Ho3 Tm2 Hf3 Co16 P12'
_cell_volume   479.57553490
_cell_formula_units_Z   1
loop_
 _symmetry_equiv_pos_site_id
 _symmetry_equiv_pos_as_xyz
  1  'x, y, z'
loop_
 _atom_site_type_symbol
 _atom_site_label
 _atom_site_symmetry_multiplicity
 _atom_site_fract_x
 _atom_site_fract_y
 _atom_site_fract_z
 _atom_site_occupancy
  Ho  Ho0  1  0.666642  0.333341  0.000000  1
  Ho  Ho1  1  0.333358  0.666700  0.000000  1
  Ho  Ho2  1  0.000000  0.182406  0.500000  1
  Tm  Tm3  1  0.817476  0.817448  0.500000  1
  Tm  Tm4  1  0.182524  0.999972  0.500000  1
  Hf  Hf5  1  0.441270  0.441222  0.000000  1
  Hf  Hf6  1  0.558730  0.999952  0.000000  1
  Hf  Hf7  1  0.000000  0.559059  0.000000  1
  Co  Co8  1  0.875429  0.356027  0.500000  1
  Co  Co9  1  0.644103  0.519596  0.500000  1
  Co  Co10  1  0.480437  0.124517  0.500000  1
  Co  Co11  1  0.355897  0.875493  0.500000  1
  Co  Co12  1  0.519563  0.644080  0.500000  1
  Co  Co13  1  0.124571  0.480597  0.500000  1
  Co  Co14  1  0.804534  0.178080  0.000000  1
  Co  Co15  1  0.821926  0.626889  0.000000  1
  Co  Co16  1  0.373184  0.195008  0.000000  1
  Co  Co17  1  0.178074  0.804964  0.000000  1
  Co  Co18  1  0.626816  0.821826  0.000000  1
  Co  Co19  1  0.195466  0.373548  0.000000  1
  Co  Co20  1  0.278353  0.278096  0.500000  1
  Co  Co21  1  0.721647  0.999743  0.500000  1
  Co  Co22  1  0.000000  0.722028  0.500000  1
  Co  Co23  1  0.000000  0.999545  0.000000  1
  P  P24  1  0.692416  0.171526  0.500000  1
  P  P25  1  0.828450  0.520880  0.500000  1
  P  P26  1  0.479199  0.307634  0.500000  1
  P  P27  1  0.171550  0.692431  0.500000  1
  P  P28  1  0.520801  0.828435  0.500000  1
  P  P29  1  0.307584  0.479110  0.500000  1
  P  P30  1  0.177821  0.177241  0.000000  1
  P  P31  1  0.822179  0.999420  0.000000  1
  P  P32  1  0.000000  0.822589  0.000000  1
  P  P33  1  0.648846  0.648836  0.000000  1
  P  P34  1  0.351154  0.999990  0.000000  1
  P  P35  1  0.000000  0.351771  0.000000  1
