# generated using pymatgen
data_Dy20Sn13Sb3
_symmetry_space_group_name_H-M   'P 1'
_cell_length_a   8.10273785
_cell_length_b   8.16917311
_cell_length_c   15.40649731
_cell_angle_alpha   90.10914587
_cell_angle_beta   89.59953036
_cell_angle_gamma   90.01507437
_symmetry_Int_Tables_number   1
_chemical_formula_structural   Dy20Sn13Sb3
_chemical_formula_sum   'Dy20 Sn13 Sb3'
_cell_volume   1019.77037149
_cell_formula_units_Z   1
loop_
 _symmetry_equiv_pos_site_id
 _symmetry_equiv_pos_as_xyz
  1  'x, y, z'
loop_
 _atom_site_type_symbol
 _atom_site_label
 _atom_site_symmetry_multiplicity
 _atom_site_fract_x
 _atom_site_fract_y
 _atom_site_fract_z
 _atom_site_occupancy
  Dy  Dy0  1  0.371795  0.837994  0.878663  1
  Dy  Dy1  1  0.875594  0.660211  0.621029  1
  Dy  Dy2  1  0.625230  0.159824  0.378868  1
  Dy  Dy3  1  0.128463  0.338040  0.122776  1
  Dy  Dy4  1  0.629240  0.162144  0.121623  1
  Dy  Dy5  1  0.126252  0.338068  0.378668  1
  Dy  Dy6  1  0.373910  0.838494  0.620858  1
  Dy  Dy7  1  0.870484  0.662455  0.876846  1
  Dy  Dy8  1  0.530873  0.328894  0.898842  1
  Dy  Dy9  1  0.038113  0.172210  0.603818  1
  Dy  Dy10  1  0.462265  0.672321  0.396313  1
  Dy  Dy11  1  0.968375  0.823252  0.100893  1
  Dy  Dy12  1  0.473822  0.675136  0.099351  1
  Dy  Dy13  1  0.972443  0.824849  0.398915  1
  Dy  Dy14  1  0.527540  0.324085  0.600936  1
  Dy  Dy15  1  0.025426  0.179217  0.899855  1
  Dy  Dy16  1  0.201872  0.501620  0.749960  1
  Dy  Dy17  1  0.701976  0.999040  0.752312  1
  Dy  Dy18  1  0.797651  0.498959  0.248367  1
  Dy  Dy19  1  0.298120  0.001079  0.251280  1
  Sn  Sn20  1  0.211405  0.534226  0.958022  1
  Sn  Sn21  1  0.714451  0.965767  0.957814  1
  Sn  Sn22  1  0.216112  0.532731  0.542631  1
  Sn  Sn23  1  0.284693  0.033285  0.457324  1
  Sn  Sn24  1  0.790646  0.464968  0.041912  1
  Sn  Sn25  1  0.568425  0.622465  0.747946  1
  Sn  Sn26  1  0.069837  0.878261  0.749700  1
  Sn  Sn27  1  0.431813  0.377255  0.250216  1
  Sn  Sn28  1  0.930367  0.121086  0.251133  1
  Sn  Sn29  1  0.338234  0.147423  0.751085  1
  Sn  Sn30  1  0.836340  0.352913  0.748752  1
  Sn  Sn31  1  0.662161  0.852232  0.250214  1
  Sn  Sn32  1  0.161961  0.647026  0.249290  1
  Sb  Sb33  1  0.283767  0.031657  0.043927  1
  Sb  Sb34  1  0.779389  0.470539  0.455730  1
  Sb  Sb35  1  0.720955  0.970275  0.544130  1
