# generated using pymatgen
data_Hf3ZrN2
_symmetry_space_group_name_H-M   'P 1'
_cell_length_a   5.37420226
_cell_length_b   5.37420226
_cell_length_c   3.27081700
_cell_angle_alpha   90.00000000
_cell_angle_beta   90.00000000
_cell_angle_gamma   89.23980378
_symmetry_Int_Tables_number   1
_chemical_formula_structural   Hf3ZrN2
_chemical_formula_sum   'Hf3 Zr1 N2'
_cell_volume   94.45958498
_cell_formula_units_Z   1
loop_
 _symmetry_equiv_pos_site_id
 _symmetry_equiv_pos_as_xyz
  1  'x, y, z'
loop_
 _atom_site_type_symbol
 _atom_site_label
 _atom_site_symmetry_multiplicity
 _atom_site_fract_x
 _atom_site_fract_y
 _atom_site_fract_z
 _atom_site_occupancy
  Hf  Hf0  1  0.703281  0.703281  0.000000  1
  Hf  Hf1  1  0.204323  0.795645  0.500000  1
  Hf  Hf2  1  0.795645  0.204323  0.500000  1
  Zr  Zr3  1  0.294786  0.294786  0.000000  1
  N  N4  1  0.995936  0.995936  0.000000  1
  N  N5  1  0.506029  0.506029  0.500000  1
