# generated using pymatgen
data_Ho3Tm5Re2(B12Ir)2
_symmetry_space_group_name_H-M   'P 1'
_cell_length_a   3.63982100
_cell_length_b   9.10117337
_cell_length_c   11.48925702
_cell_angle_alpha   90.30549207
_cell_angle_beta   90.00000000
_cell_angle_gamma   90.00000000
_symmetry_Int_Tables_number   1
_chemical_formula_structural   Ho3Tm5Re2(B12Ir)2
_chemical_formula_sum   'Ho3 Tm5 Re2 B24 Ir2'
_cell_volume   380.59509387
_cell_formula_units_Z   1
loop_
 _symmetry_equiv_pos_site_id
 _symmetry_equiv_pos_as_xyz
  1  'x, y, z'
loop_
 _atom_site_type_symbol
 _atom_site_label
 _atom_site_symmetry_multiplicity
 _atom_site_fract_x
 _atom_site_fract_y
 _atom_site_fract_z
 _atom_site_occupancy
  Ho  Ho0  1  0.000000  0.316700  0.409870  1
  Ho  Ho1  1  0.000000  0.683339  0.590149  1
  Ho  Ho2  1  0.000000  0.826123  0.082323  1
  Tm  Tm3  1  0.000000  0.173716  0.918032  1
  Tm  Tm4  1  0.000000  0.946403  0.372382  1
  Tm  Tm5  1  0.000000  0.053735  0.627633  1
  Tm  Tm6  1  0.000000  0.441565  0.125537  1
  Tm  Tm7  1  0.000000  0.558241  0.874297  1
  Re  Re8  1  0.000000  0.138470  0.179840  1
  Re  Re9  1  0.000000  0.861895  0.820058  1
  B  B10  1  0.500000  0.554158  0.434007  1
  B  B11  1  0.500000  0.445773  0.566051  1
  B  B12  1  0.500000  0.053450  0.066864  1
  B  B13  1  0.500000  0.947116  0.932842  1
  B  B14  1  0.500000  0.750124  0.421241  1
  B  B15  1  0.500000  0.249910  0.578850  1
  B  B16  1  0.500000  0.248462  0.080141  1
  B  B17  1  0.500000  0.751565  0.919369  1
  B  B18  1  0.500000  0.791449  0.265889  1
  B  B19  1  0.500000  0.208413  0.734437  1
  B  B20  1  0.500000  0.292761  0.234196  1
  B  B21  1  0.500000  0.707276  0.765689  1
  B  B22  1  0.500000  0.631250  0.183631  1
  B  B23  1  0.500000  0.368299  0.816569  1
  B  B24  1  0.500000  0.131167  0.315054  1
  B  B25  1  0.500000  0.868986  0.684958  1
  B  B26  1  0.500000  0.982259  0.213282  1
  B  B27  1  0.500000  0.018310  0.786819  1
  B  B28  1  0.500000  0.481994  0.286927  1
  B  B29  1  0.500000  0.517859  0.713098  1
  B  B30  1  0.500000  0.605579  0.029540  1
  B  B31  1  0.500000  0.393781  0.970270  1
  B  B32  1  0.500000  0.105974  0.471294  1
  B  B33  1  0.500000  0.894066  0.528726  1
  Ir  Ir34  1  0.000000  0.636920  0.321724  1
  Ir  Ir35  1  0.000000  0.362910  0.678409  1
