# generated using pymatgen
data_Dy11TmTl2(FeSi)2
_symmetry_space_group_name_H-M   'P 1'
_cell_length_a   8.38142367
_cell_length_b   8.38350498
_cell_length_c   8.38142500
_cell_angle_alpha   113.35718537
_cell_angle_beta   110.90866922
_cell_angle_gamma   104.27043546
_symmetry_Int_Tables_number   1
_chemical_formula_structural   Dy11TmTl2(FeSi)2
_chemical_formula_sum   'Dy11 Tm1 Tl2 Fe2 Si2'
_cell_volume   450.41904195
_cell_formula_units_Z   1
loop_
 _symmetry_equiv_pos_site_id
 _symmetry_equiv_pos_as_xyz
  1  'x, y, z'
loop_
 _atom_site_type_symbol
 _atom_site_label
 _atom_site_symmetry_multiplicity
 _atom_site_fract_x
 _atom_site_fract_y
 _atom_site_fract_z
 _atom_site_occupancy
  Dy  Dy0  1  0.445880  0.240620  0.204122  1
  Dy  Dy1  1  0.555416  0.759539  0.797264  1
  Dy  Dy2  1  0.036497  0.240620  0.794741  1
  Dy  Dy3  1  0.962277  0.759539  0.204123  1
  Dy  Dy4  1  0.188416  0.287565  0.477783  1
  Dy  Dy5  1  0.809937  0.711848  0.521056  1
  Dy  Dy6  1  0.190792  0.711848  0.901911  1
  Dy  Dy7  1  0.809784  0.287565  0.099151  1
  Dy  Dy8  1  0.303530  0.612323  0.308793  1
  Dy  Dy9  1  0.696940  0.387445  0.690506  1
  Dy  Dy10  1  0.304032  0.995030  0.690998  1
  Tm  Tm11  1  0.695751  0.006425  0.310674  1
  Tl  Tl12  1  0.500150  0.500729  0.000578  1
  Tl  Tl13  1  0.000820  0.000193  0.999372  1
  Fe  Fe14  1  0.104470  0.604429  0.499959  1
  Fe  Fe15  1  0.895083  0.395335  0.500253  1
  Si  Si16  1  0.366530  0.999471  0.365774  1
  Si  Si17  1  0.633697  0.999471  0.632941  1
