# generated using pymatgen
data_Cs4LiLuSe4
_symmetry_space_group_name_H-M   'P 1'
_cell_length_a   8.93500791
_cell_length_b   8.93500832
_cell_length_c   8.93500700
_cell_angle_alpha   134.25301193
_cell_angle_beta   128.46886058
_cell_angle_gamma   71.34207149
_symmetry_Int_Tables_number   1
_chemical_formula_structural   Cs4LiLuSe4
_chemical_formula_sum   'Cs4 Li1 Lu1 Se4'
_cell_volume   391.64703788
_cell_formula_units_Z   1
loop_
 _symmetry_equiv_pos_site_id
 _symmetry_equiv_pos_as_xyz
  1  'x, y, z'
loop_
 _atom_site_type_symbol
 _atom_site_label
 _atom_site_symmetry_multiplicity
 _atom_site_fract_x
 _atom_site_fract_y
 _atom_site_fract_z
 _atom_site_occupancy
  Cs  Cs0  1  0.512860  0.864701  0.676236  1
  Cs  Cs1  1  0.487140  0.163377  0.351842  1
  Cs  Cs2  1  0.811534  0.635299  0.148158  1
  Cs  Cs3  1  0.188466  0.336623  0.823764  1
  Li  Li4  1  0.000000  0.250000  0.250000  1
  Lu  Lu5  1  0.000000  0.750000  0.750000  1
  Se  Se6  1  0.085753  0.895059  0.181851  1
  Se  Se7  1  0.713208  0.403903  0.318149  1
  Se  Se8  1  0.914247  0.096097  0.809306  1
  Se  Se9  1  0.286793  0.604941  0.690694  1
