# generated using pymatgen
data_LaPr9Se10
_symmetry_space_group_name_H-M   'P 1'
_cell_length_a   7.39382677
_cell_length_b   8.46300415
_cell_length_c   9.59289400
_cell_angle_alpha   103.24883945
_cell_angle_beta   96.87310261
_cell_angle_gamma   106.75103137
_symmetry_Int_Tables_number   1
_chemical_formula_structural   LaPr9Se10
_chemical_formula_sum   'La1 Pr9 Se10'
_cell_volume   548.27582252
_cell_formula_units_Z   1
loop_
 _symmetry_equiv_pos_site_id
 _symmetry_equiv_pos_as_xyz
  1  'x, y, z'
loop_
 _atom_site_type_symbol
 _atom_site_label
 _atom_site_symmetry_multiplicity
 _atom_site_fract_x
 _atom_site_fract_y
 _atom_site_fract_z
 _atom_site_occupancy
  La  La0  1  0.000000  0.500000  0.000000  1
  Pr  Pr1  1  0.800205  0.599972  0.598109  1
  Pr  Pr2  1  0.596915  0.198676  0.199301  1
  Pr  Pr3  1  0.403085  0.801324  0.800699  1
  Pr  Pr4  1  0.600013  0.700769  0.200852  1
  Pr  Pr5  1  0.199795  0.400028  0.401891  1
  Pr  Pr6  1  0.399987  0.299231  0.799148  1
  Pr  Pr7  1  0.000000  0.000000  0.000000  1
  Pr  Pr8  1  0.201289  0.900826  0.400372  1
  Pr  Pr9  1  0.798711  0.099174  0.599628  1
  Se  Se10  1  0.700159  0.649582  0.899591  1
  Se  Se11  1  0.500100  0.250217  0.499703  1
  Se  Se12  1  0.700417  0.150427  0.900226  1
  Se  Se13  1  0.299583  0.849573  0.099774  1
  Se  Se14  1  0.499900  0.749783  0.500297  1
  Se  Se15  1  0.100373  0.450466  0.700361  1
  Se  Se16  1  0.299841  0.350418  0.100409  1
  Se  Se17  1  0.899905  0.050520  0.300288  1
  Se  Se18  1  0.100095  0.949480  0.699712  1
  Se  Se19  1  0.899627  0.549534  0.299639  1
