# generated using pymatgen
data_Dy3MgCd2Pb2Au
_symmetry_space_group_name_H-M   'P 1'
_cell_length_a   7.56265779
_cell_length_b   7.56265866
_cell_length_c   4.57492800
_cell_angle_alpha   90.00000000
_cell_angle_beta   90.00000000
_cell_angle_gamma   120.60611542
_symmetry_Int_Tables_number   1
_chemical_formula_structural   Dy3MgCd2Pb2Au
_chemical_formula_sum   'Dy3 Mg1 Cd2 Pb2 Au1'
_cell_volume   225.20540150
_cell_formula_units_Z   1
loop_
 _symmetry_equiv_pos_site_id
 _symmetry_equiv_pos_as_xyz
  1  'x, y, z'
loop_
 _atom_site_type_symbol
 _atom_site_label
 _atom_site_symmetry_multiplicity
 _atom_site_fract_x
 _atom_site_fract_y
 _atom_site_fract_z
 _atom_site_occupancy
  Dy  Dy0  1  0.595933  0.002777  0.000000  1
  Dy  Dy1  1  0.002777  0.595933  0.000000  1
  Dy  Dy2  1  0.400384  0.400384  0.000000  1
  Mg  Mg3  1  0.774127  0.774127  0.500000  1
  Cd  Cd4  1  0.234658  0.998234  0.500000  1
  Cd  Cd5  1  0.998234  0.234658  0.500000  1
  Pb  Pb6  1  0.340167  0.667770  0.500000  1
  Pb  Pb7  1  0.667770  0.340167  0.500000  1
  Au  Au8  1  0.985950  0.985950  0.000000  1
