# generated using pymatgen
data_HfPd(SeF6)4
_symmetry_space_group_name_H-M   'P 1'
_cell_length_a   6.05714400
_cell_length_b   7.91856824
_cell_length_c   9.88636800
_cell_angle_alpha   89.22561275
_cell_angle_beta   90.00000000
_cell_angle_gamma   90.00000000
_symmetry_Int_Tables_number   1
_chemical_formula_structural   HfPd(SeF6)4
_chemical_formula_sum   'Hf1 Pd1 Se4 F24'
_cell_volume   474.14553634
_cell_formula_units_Z   1
loop_
 _symmetry_equiv_pos_site_id
 _symmetry_equiv_pos_as_xyz
  1  'x, y, z'
loop_
 _atom_site_type_symbol
 _atom_site_label
 _atom_site_symmetry_multiplicity
 _atom_site_fract_x
 _atom_site_fract_y
 _atom_site_fract_z
 _atom_site_occupancy
  Hf  Hf0  1  0.500000  0.000000  0.500000  1
  Pd  Pd1  1  0.000000  0.500000  0.000000  1
  Se  Se2  1  0.500000  0.582344  0.240026  1
  Se  Se3  1  0.500000  0.417656  0.759974  1
  Se  Se4  1  0.000000  0.087819  0.249786  1
  Se  Se5  1  0.000000  0.912181  0.750214  1
  F  F6  1  0.227413  0.362848  0.913292  1
  F  F7  1  0.227413  0.637152  0.086708  1
  F  F8  1  0.267766  0.861801  0.595384  1
  F  F9  1  0.267766  0.138199  0.404616  1
  F  F10  1  0.772587  0.637152  0.086708  1
  F  F11  1  0.772587  0.362848  0.913292  1
  F  F12  1  0.790411  0.967720  0.862172  1
  F  F13  1  0.790411  0.032280  0.137828  1
  F  F14  1  0.707848  0.466795  0.644109  1
  F  F15  1  0.707848  0.533205  0.355891  1
  F  F16  1  0.209589  0.032280  0.137828  1
  F  F17  1  0.209589  0.967720  0.862172  1
  F  F18  1  0.292152  0.533205  0.355891  1
  F  F19  1  0.292152  0.466795  0.644109  1
  F  F20  1  0.000000  0.652206  0.842432  1
  F  F21  1  0.000000  0.347794  0.157568  1
  F  F22  1  0.500000  0.161649  0.653612  1
  F  F23  1  0.500000  0.838351  0.346388  1
  F  F24  1  0.500000  0.622530  0.822536  1
  F  F25  1  0.500000  0.377470  0.177464  1
  F  F26  1  0.000000  0.114478  0.675755  1
  F  F27  1  0.000000  0.885522  0.324245  1
  F  F28  1  0.732234  0.861801  0.595384  1
  F  F29  1  0.732234  0.138199  0.404616  1
