# generated using pymatgen
data_Si8As5P11
_symmetry_space_group_name_H-M   'P 1'
_cell_length_a   3.52938700
_cell_length_b   10.27589080
_cell_length_c   16.29528845
_cell_angle_alpha   90.23411850
_cell_angle_beta   90.00000000
_cell_angle_gamma   90.00000000
_symmetry_Int_Tables_number   1
_chemical_formula_structural   Si8As5P11
_chemical_formula_sum   'Si8 As5 P11'
_cell_volume   590.98599486
_cell_formula_units_Z   1
loop_
 _symmetry_equiv_pos_site_id
 _symmetry_equiv_pos_as_xyz
  1  'x, y, z'
loop_
 _atom_site_type_symbol
 _atom_site_label
 _atom_site_symmetry_multiplicity
 _atom_site_fract_x
 _atom_site_fract_y
 _atom_site_fract_z
 _atom_site_occupancy
  Si  Si0  1  0.000000  0.585542  0.834535  1
  Si  Si1  1  0.000000  0.411134  0.167534  1
  Si  Si2  1  0.000000  0.090275  0.666778  1
  Si  Si3  1  0.000000  0.911690  0.332724  1
  Si  Si4  1  0.500000  0.808972  0.731378  1
  Si  Si5  1  0.500000  0.195749  0.269097  1
  Si  Si6  1  0.500000  0.304618  0.770050  1
  Si  Si7  1  0.500000  0.695669  0.230852  1
  As  As8  1  0.000000  0.664838  0.696749  1
  As  As9  1  0.500000  0.882888  0.875098  1
  As  As10  1  0.500000  0.117821  0.125801  1
  As  As11  1  0.500000  0.382102  0.626500  1
  As  As12  1  0.500000  0.618486  0.373755  1
  P  P13  1  0.000000  0.329453  0.297227  1
  P  P14  1  0.000000  0.170935  0.796937  1
  P  P15  1  0.000000  0.828976  0.202918  1
  P  P16  1  0.000000  0.751533  0.927354  1
  P  P17  1  0.000000  0.248286  0.072547  1
  P  P18  1  0.000000  0.252065  0.572261  1
  P  P19  1  0.000000  0.749297  0.427322  1
  P  P20  1  0.500000  0.962657  0.631871  1
  P  P21  1  0.500000  0.039900  0.367991  1
  P  P22  1  0.500000  0.458376  0.870642  1
  P  P23  1  0.500000  0.538738  0.132082  1
