# generated using pymatgen
data_Sr2Th2Re15Si8Ru
_symmetry_space_group_name_H-M   'P 1'
_cell_length_a   4.17713000
_cell_length_b   7.34052742
_cell_length_c   15.65582225
_cell_angle_alpha   89.69291958
_cell_angle_beta   90.00000000
_cell_angle_gamma   90.00000000
_symmetry_Int_Tables_number   1
_chemical_formula_structural   Sr2Th2Re15Si8Ru
_chemical_formula_sum   'Sr2 Th2 Re15 Si8 Ru1'
_cell_volume   480.03720793
_cell_formula_units_Z   1
loop_
 _symmetry_equiv_pos_site_id
 _symmetry_equiv_pos_as_xyz
  1  'x, y, z'
loop_
 _atom_site_type_symbol
 _atom_site_label
 _atom_site_symmetry_multiplicity
 _atom_site_fract_x
 _atom_site_fract_y
 _atom_site_fract_z
 _atom_site_occupancy
  Sr  Sr0  1  0.500000  0.080552  0.382150  1
  Sr  Sr1  1  0.500000  0.918732  0.617484  1
  Th  Th2  1  0.000000  0.582534  0.118640  1
  Th  Th3  1  0.000000  0.416998  0.881181  1
  Re  Re4  1  0.000000  0.861002  0.951649  1
  Re  Re5  1  0.500000  0.632203  0.445688  1
  Re  Re6  1  0.500000  0.368538  0.553496  1
  Re  Re7  1  0.000000  0.735569  0.317736  1
  Re  Re8  1  0.000000  0.265943  0.681838  1
  Re  Re9  1  0.500000  0.236568  0.177584  1
  Re  Re10  1  0.500000  0.761174  0.822685  1
  Re  Re11  1  0.000000  0.438606  0.417323  1
  Re  Re12  1  0.000000  0.561587  0.581522  1
  Re  Re13  1  0.500000  0.932720  0.081423  1
  Re  Re14  1  0.500000  0.066203  0.921373  1
  Re  Re15  1  0.000000  0.995212  0.203561  1
  Re  Re16  1  0.000000  0.002517  0.795109  1
  Re  Re17  1  0.500000  0.496686  0.290311  1
  Re  Re18  1  0.500000  0.500394  0.709659  1
  Si  Si19  1  0.000000  0.822382  0.473736  1
  Si  Si20  1  0.000000  0.178281  0.526158  1
  Si  Si21  1  0.500000  0.326194  0.025106  1
  Si  Si22  1  0.500000  0.672813  0.975986  1
  Si  Si23  1  0.000000  0.294600  0.273821  1
  Si  Si24  1  0.000000  0.703879  0.725180  1
  Si  Si25  1  0.500000  0.800560  0.226237  1
  Si  Si26  1  0.500000  0.194320  0.774397  1
  Ru  Ru27  1  0.000000  0.153232  0.048972  1
