# generated using pymatgen
data_Ho8ReB24Os2Ru
_symmetry_space_group_name_H-M   'P 1'
_cell_length_a   3.65587400
_cell_length_b   9.13431986
_cell_length_c   11.51447708
_cell_angle_alpha   90.04789025
_cell_angle_beta   90.00000000
_cell_angle_gamma   90.00000000
_symmetry_Int_Tables_number   1
_chemical_formula_structural   Ho8ReB24Os2Ru
_chemical_formula_sum   'Ho8 Re1 B24 Os2 Ru1'
_cell_volume   384.51342058
_cell_formula_units_Z   1
loop_
 _symmetry_equiv_pos_site_id
 _symmetry_equiv_pos_as_xyz
  1  'x, y, z'
loop_
 _atom_site_type_symbol
 _atom_site_label
 _atom_site_symmetry_multiplicity
 _atom_site_fract_x
 _atom_site_fract_y
 _atom_site_fract_z
 _atom_site_occupancy
  Ho  Ho0  1  0.000000  0.322371  0.415073  1
  Ho  Ho1  1  0.000000  0.680238  0.587916  1
  Ho  Ho2  1  0.000000  0.822484  0.083640  1
  Ho  Ho3  1  0.000000  0.176515  0.913276  1
  Ho  Ho4  1  0.000000  0.943385  0.371312  1
  Ho  Ho5  1  0.000000  0.055996  0.627687  1
  Ho  Ho6  1  0.000000  0.442194  0.128205  1
  Ho  Ho7  1  0.000000  0.556581  0.872699  1
  Re  Re8  1  0.000000  0.862628  0.821392  1
  B  B9  1  0.500000  0.553637  0.433214  1
  B  B10  1  0.500000  0.446345  0.566872  1
  B  B11  1  0.500000  0.053792  0.067341  1
  B  B12  1  0.500000  0.947240  0.933436  1
  B  B13  1  0.500000  0.748494  0.419346  1
  B  B14  1  0.500000  0.251574  0.580485  1
  B  B15  1  0.500000  0.248103  0.080598  1
  B  B16  1  0.500000  0.751513  0.919352  1
  B  B17  1  0.500000  0.790411  0.265792  1
  B  B18  1  0.500000  0.209248  0.733428  1
  B  B19  1  0.500000  0.290627  0.234203  1
  B  B20  1  0.500000  0.708583  0.765835  1
  B  B21  1  0.500000  0.630821  0.185326  1
  B  B22  1  0.500000  0.368744  0.814317  1
  B  B23  1  0.500000  0.131546  0.315006  1
  B  B24  1  0.500000  0.868990  0.685394  1
  B  B25  1  0.500000  0.983268  0.212552  1
  B  B26  1  0.500000  0.018030  0.787388  1
  B  B27  1  0.500000  0.482647  0.287936  1
  B  B28  1  0.500000  0.517232  0.712548  1
  B  B29  1  0.500000  0.605173  0.029930  1
  B  B30  1  0.500000  0.393049  0.970838  1
  B  B31  1  0.500000  0.106687  0.470044  1
  B  B32  1  0.500000  0.894055  0.528704  1
  Os  Os33  1  0.000000  0.637109  0.321536  1
  Os  Os34  1  0.000000  0.362924  0.678022  1
  Ru  Ru35  1  0.000000  0.137767  0.179359  1
