# generated using pymatgen
data_ZrSc8TiGa6
_symmetry_space_group_name_H-M   'P 1'
_cell_length_a   5.29313645
_cell_length_b   8.20547202
_cell_length_c   8.20547201
_cell_angle_alpha   84.02871122
_cell_angle_beta   71.18358271
_cell_angle_gamma   71.18358278
_symmetry_Int_Tables_number   1
_chemical_formula_structural   ZrSc8TiGa6
_chemical_formula_sum   'Zr1 Sc8 Ti1 Ga6'
_cell_volume   319.31083866
_cell_formula_units_Z   1
loop_
 _symmetry_equiv_pos_site_id
 _symmetry_equiv_pos_as_xyz
  1  'x, y, z'
loop_
 _atom_site_type_symbol
 _atom_site_label
 _atom_site_symmetry_multiplicity
 _atom_site_fract_x
 _atom_site_fract_y
 _atom_site_fract_z
 _atom_site_occupancy
  Zr  Zr0  1  0.750000  0.500000  0.500000  1
  Sc  Sc1  1  0.719581  0.863941  0.698296  1
  Sc  Sc2  1  0.281815  0.136059  0.301704  1
  Sc  Sc3  1  0.780419  0.301704  0.136059  1
  Sc  Sc4  1  0.218185  0.698296  0.863941  1
  Sc  Sc5  1  0.582124  0.698296  0.136059  1
  Sc  Sc6  1  0.416480  0.301704  0.863941  1
  Sc  Sc7  1  0.083520  0.136059  0.698296  1
  Sc  Sc8  1  0.917876  0.863941  0.301704  1
  Ti  Ti9  1  0.250000  0.500000  0.500000  1
  Ga  Ga10  1  0.164178  0.500000  0.180488  1
  Ga  Ga11  1  0.844667  0.500000  0.819512  1
  Ga  Ga12  1  0.335822  0.819512  0.500000  1
  Ga  Ga13  1  0.655333  0.180488  0.500000  1
  Ga  Ga14  1  0.250000  0.000000  0.000000  1
  Ga  Ga15  1  0.750000  0.000000  0.000000  1
