# generated using pymatgen
data_Th14CuRe5
_symmetry_space_group_name_H-M   'P 1'
_cell_length_a   9.97092161
_cell_length_b   9.97092303
_cell_length_c   6.29320300
_cell_angle_alpha   90.26865137
_cell_angle_beta   89.73134859
_cell_angle_gamma   118.81433270
_symmetry_Int_Tables_number   1
_chemical_formula_structural   Th14CuRe5
_chemical_formula_sum   'Th14 Cu1 Re5'
_cell_volume   548.19155777
_cell_formula_units_Z   1
loop_
 _symmetry_equiv_pos_site_id
 _symmetry_equiv_pos_as_xyz
  1  'x, y, z'
loop_
 _atom_site_type_symbol
 _atom_site_label
 _atom_site_symmetry_multiplicity
 _atom_site_fract_x
 _atom_site_fract_y
 _atom_site_fract_z
 _atom_site_occupancy
  Th  Th0  1  0.331776  0.668224  0.026134  1
  Th  Th1  1  0.665342  0.334658  0.537724  1
  Th  Th2  1  0.122923  0.877077  0.248345  1
  Th  Th3  1  0.254011  0.128609  0.755368  1
  Th  Th4  1  0.871391  0.745989  0.755368  1
  Th  Th5  1  0.136617  0.259571  0.257836  1
  Th  Th6  1  0.740429  0.863383  0.257836  1
  Th  Th7  1  0.878782  0.121218  0.762843  1
  Th  Th8  1  0.541172  0.458828  0.047591  1
  Th  Th9  1  0.076697  0.547428  0.540436  1
  Th  Th10  1  0.452572  0.923303  0.540436  1
  Th  Th11  1  0.540342  0.073102  0.038717  1
  Th  Th12  1  0.926898  0.459658  0.038717  1
  Th  Th13  1  0.459464  0.540536  0.547496  1
  Cu  Cu14  1  0.814665  0.185335  0.312015  1
  Re  Re15  1  0.183811  0.816189  0.795283  1
  Re  Re16  1  0.628193  0.821631  0.801746  1
  Re  Re17  1  0.178369  0.371807  0.801746  1
  Re  Re18  1  0.818100  0.621553  0.297182  1
  Re  Re19  1  0.378447  0.181900  0.297182  1
