# generated using pymatgen
data_Tb6Er4Sn5Bi
_symmetry_space_group_name_H-M   'P 1'
_cell_length_a   8.99920700
_cell_length_b   8.99954944
_cell_length_c   6.50806800
_cell_angle_alpha   90.00000000
_cell_angle_beta   90.00000000
_cell_angle_gamma   119.99874497
_symmetry_Int_Tables_number   1
_chemical_formula_structural   Tb6Er4Sn5Bi
_chemical_formula_sum   'Tb6 Er4 Sn5 Bi1'
_cell_volume   456.47102414
_cell_formula_units_Z   1
loop_
 _symmetry_equiv_pos_site_id
 _symmetry_equiv_pos_as_xyz
  1  'x, y, z'
loop_
 _atom_site_type_symbol
 _atom_site_label
 _atom_site_symmetry_multiplicity
 _atom_site_fract_x
 _atom_site_fract_y
 _atom_site_fract_z
 _atom_site_occupancy
  Tb  Tb0  1  0.995523  0.757563  0.750000  1
  Tb  Tb1  1  0.000396  0.239751  0.250000  1
  Tb  Tb2  1  0.760645  0.760249  0.250000  1
  Tb  Tb3  1  0.763629  0.000000  0.750000  1
  Tb  Tb4  1  0.237960  0.242437  0.750000  1
  Tb  Tb5  1  0.238444  0.000000  0.250000  1
  Er  Er6  1  0.332717  0.663655  0.498596  1
  Er  Er7  1  0.669062  0.336345  0.001404  1
  Er  Er8  1  0.669062  0.336345  0.498596  1
  Er  Er9  1  0.332717  0.663655  0.001404  1
  Sn  Sn10  1  0.396576  0.395940  0.250000  1
  Sn  Sn11  1  0.000636  0.604060  0.250000  1
  Sn  Sn12  1  0.999795  0.396701  0.750000  1
  Sn  Sn13  1  0.603094  0.603299  0.750000  1
  Sn  Sn14  1  0.603947  0.000000  0.250000  1
  Bi  Bi15  1  0.395798  0.000000  0.750000  1
