# generated using pymatgen
data_La4Nd4Dy8Cd4NiRh3
_symmetry_space_group_name_H-M   'P 1'
_cell_length_a   9.77156965
_cell_length_b   9.75503389
_cell_length_c   9.75599200
_cell_angle_alpha   60.10942932
_cell_angle_beta   59.93780483
_cell_angle_gamma   59.93503664
_symmetry_Int_Tables_number   1
_chemical_formula_structural   La4Nd4Dy8Cd4NiRh3
_chemical_formula_sum   'La4 Nd4 Dy8 Cd4 Ni1 Rh3'
_cell_volume   657.48933356
_cell_formula_units_Z   1
loop_
 _symmetry_equiv_pos_site_id
 _symmetry_equiv_pos_as_xyz
  1  'x, y, z'
loop_
 _atom_site_type_symbol
 _atom_site_label
 _atom_site_symmetry_multiplicity
 _atom_site_fract_x
 _atom_site_fract_y
 _atom_site_fract_z
 _atom_site_occupancy
  La  La0  1  0.604614  0.598996  0.597494  1
  La  La1  1  0.602924  0.600334  0.199837  1
  La  La2  1  0.603519  0.198365  0.600687  1
  La  La3  1  0.196667  0.600175  0.599851  1
  Nd  Nd4  1  0.814360  0.185242  0.817521  1
  Nd  Nd5  1  0.185931  0.815315  0.183048  1
  Nd  Nd6  1  0.815468  0.818106  0.183297  1
  Nd  Nd7  1  0.185678  0.184619  0.814938  1
  Dy  Dy8  1  0.064130  0.434067  0.434540  1
  Dy  Dy9  1  0.433037  0.065792  0.066091  1
  Dy  Dy10  1  0.434249  0.063881  0.437720  1
  Dy  Dy11  1  0.062071  0.435361  0.065618  1
  Dy  Dy12  1  0.435400  0.437013  0.063738  1
  Dy  Dy13  1  0.062198  0.065276  0.435978  1
  Dy  Dy14  1  0.189104  0.810167  0.810500  1
  Dy  Dy15  1  0.808977  0.188966  0.188888  1
  Cd  Cd16  1  0.832657  0.829547  0.830706  1
  Cd  Cd17  1  0.828836  0.833682  0.506690  1
  Cd  Cd18  1  0.829015  0.506054  0.834288  1
  Cd  Cd19  1  0.506749  0.829362  0.830255  1
  Ni  Ni20  1  0.830405  0.388457  0.388215  1
  Rh  Rh21  1  0.395450  0.388866  0.388447  1
  Rh  Rh22  1  0.389017  0.394975  0.827356  1
  Rh  Rh23  1  0.389544  0.827381  0.394302  1
