# generated using pymatgen
data_Pa2Mn7P7Ir5
_symmetry_space_group_name_H-M   'P 1'
_cell_length_a   9.46496616
_cell_length_b   9.40703242
_cell_length_c   3.80038100
_cell_angle_alpha   90.00000000
_cell_angle_beta   90.00000000
_cell_angle_gamma   120.22447388
_symmetry_Int_Tables_number   1
_chemical_formula_structural   Pa2Mn7P7Ir5
_chemical_formula_sum   'Pa2 Mn7 P7 Ir5'
_cell_volume   292.37664221
_cell_formula_units_Z   1
loop_
 _symmetry_equiv_pos_site_id
 _symmetry_equiv_pos_as_xyz
  1  'x, y, z'
loop_
 _atom_site_type_symbol
 _atom_site_label
 _atom_site_symmetry_multiplicity
 _atom_site_fract_x
 _atom_site_fract_y
 _atom_site_fract_z
 _atom_site_occupancy
  Pa  Pa0  1  0.332760  0.656363  0.000000  1
  Pa  Pa1  1  0.004231  0.004632  0.500000  1
  Mn  Mn2  1  0.548906  0.060255  0.000000  1
  Mn  Mn3  1  0.935851  0.486943  0.000000  1
  Mn  Mn4  1  0.515121  0.454716  0.000000  1
  Mn  Mn5  1  0.278335  0.386699  0.500000  1
  Mn  Mn6  1  0.784632  0.228729  0.500000  1
  Mn  Mn7  1  0.771056  0.560319  0.500000  1
  Mn  Mn8  1  0.440803  0.214462  0.500000  1
  P  P9  1  0.771834  0.038394  0.000000  1
  P  P10  1  0.963899  0.735003  0.000000  1
  P  P11  1  0.268374  0.240638  0.000000  1
  P  P12  1  0.391519  0.943271  0.500000  1
  P  P13  1  0.068327  0.446453  0.500000  1
  P  P14  1  0.537072  0.597149  0.500000  1
  P  P15  1  0.663392  0.332464  0.000000  1
  Ir  Ir16  1  0.032230  0.266973  0.000000  1
  Ir  Ir17  1  0.741265  0.770573  0.000000  1
  Ir  Ir18  1  0.231021  0.974410  0.000000  1
  Ir  Ir19  1  0.604932  0.883040  0.500000  1
  Ir  Ir20  1  0.114437  0.718520  0.500000  1
