# generated using pymatgen
data_DyEr15(HfIr3)4
_symmetry_space_group_name_H-M   'P 1'
_cell_length_a   10.77121606
_cell_length_b   10.76517105
_cell_length_c   6.22957506
_cell_angle_alpha   90.01054466
_cell_angle_beta   90.01185961
_cell_angle_gamma   89.99749866
_symmetry_Int_Tables_number   1
_chemical_formula_structural   DyEr15(HfIr3)4
_chemical_formula_sum   'Dy1 Er15 Hf4 Ir12'
_cell_volume   722.34401396
_cell_formula_units_Z   1
loop_
 _symmetry_equiv_pos_site_id
 _symmetry_equiv_pos_as_xyz
  1  'x, y, z'
loop_
 _atom_site_type_symbol
 _atom_site_label
 _atom_site_symmetry_multiplicity
 _atom_site_fract_x
 _atom_site_fract_y
 _atom_site_fract_z
 _atom_site_occupancy
  Dy  Dy0  1  0.289347  0.086391  0.373863  1
  Er  Er1  1  0.289858  0.913832  0.874248  1
  Er  Er2  1  0.710161  0.086049  0.874397  1
  Er  Er3  1  0.710199  0.913993  0.374302  1
  Er  Er4  1  0.585941  0.789789  0.874323  1
  Er  Er5  1  0.586321  0.210251  0.374297  1
  Er  Er6  1  0.414115  0.789595  0.374444  1
  Er  Er7  1  0.414199  0.210295  0.874337  1
  Er  Er8  1  0.210121  0.414114  0.625763  1
  Er  Er9  1  0.210175  0.585938  0.125626  1
  Er  Er10  1  0.789894  0.414000  0.125581  1
  Er  Er11  1  0.789877  0.585869  0.625634  1
  Er  Er12  1  0.914124  0.710111  0.125582  1
  Er  Er13  1  0.914045  0.289868  0.625617  1
  Er  Er14  1  0.086008  0.710158  0.625637  1
  Er  Er15  1  0.085689  0.290039  0.125320  1
  Hf  Hf16  1  0.999549  0.999817  0.500327  1
  Hf  Hf17  1  0.999891  0.999929  0.000046  1
  Hf  Hf18  1  0.500124  0.500016  0.000040  1
  Hf  Hf19  1  0.499984  0.499992  0.500168  1
  Ir  Ir20  1  0.855771  0.144279  0.250023  1
  Ir  Ir21  1  0.855738  0.855771  0.749976  1
  Ir  Ir22  1  0.143827  0.144487  0.750929  1
  Ir  Ir23  1  0.143914  0.855265  0.249714  1
  Ir  Ir24  1  0.644305  0.355766  0.749979  1
  Ir  Ir25  1  0.644253  0.644244  0.250035  1
  Ir  Ir26  1  0.355837  0.356239  0.249770  1
  Ir  Ir27  1  0.355735  0.644249  0.749952  1
  Ir  Ir28  1  0.500461  0.999808  0.121212  1
  Ir  Ir29  1  0.500489  0.999801  0.622132  1
  Ir  Ir30  1  0.000025  0.499976  0.878351  1
  Ir  Ir31  1  0.000023  0.500068  0.378376  1
