# generated using pymatgen
data_RbLa(AuO2)4
_symmetry_space_group_name_H-M   'P 1'
_cell_length_a   6.87890200
_cell_length_b   6.87890162
_cell_length_c   6.87890200
_cell_angle_alpha   124.18327177
_cell_angle_beta   124.18326961
_cell_angle_gamma   82.89525119
_symmetry_Int_Tables_number   1
_chemical_formula_structural   RbLa(AuO2)4
_chemical_formula_sum   'Rb1 La1 Au4 O8'
_cell_volume   213.80864868
_cell_formula_units_Z   1
loop_
 _symmetry_equiv_pos_site_id
 _symmetry_equiv_pos_as_xyz
  1  'x, y, z'
loop_
 _atom_site_type_symbol
 _atom_site_label
 _atom_site_symmetry_multiplicity
 _atom_site_fract_x
 _atom_site_fract_y
 _atom_site_fract_z
 _atom_site_occupancy
  Rb  Rb0  1  0.750000  0.250000  0.500000  1
  La  La1  1  0.000000  0.000000  0.000000  1
  Au  Au2  1  0.359966  0.628506  0.238158  1
  Au  Au3  1  0.878193  0.640034  0.268542  1
  Au  Au4  1  0.390348  0.121807  0.761842  1
  Au  Au5  1  0.371494  0.609652  0.731458  1
  O  O6  1  0.583313  0.925147  0.904765  1
  O  O7  1  0.724197  0.277166  0.915623  1
  O  O8  1  0.361543  0.808574  0.084377  1
  O  O9  1  0.020383  0.678549  0.095235  1
  O  O10  1  0.191426  0.275803  0.552967  1
  O  O11  1  0.074853  0.979617  0.658166  1
  O  O12  1  0.722834  0.638457  0.447033  1
  O  O13  1  0.321451  0.416687  0.341834  1
