# generated using pymatgen
data_NdSm5PtBr10
_symmetry_space_group_name_H-M   'P 1'
_cell_length_a   7.52819959
_cell_length_b   9.45722619
_cell_length_c   9.53651031
_cell_angle_alpha   108.02599453
_cell_angle_beta   96.76047380
_cell_angle_gamma   105.56674038
_symmetry_Int_Tables_number   1
_chemical_formula_structural   NdSm5PtBr10
_chemical_formula_sum   'Nd1 Sm5 Pt1 Br10'
_cell_volume   606.83055190
_cell_formula_units_Z   1
loop_
 _symmetry_equiv_pos_site_id
 _symmetry_equiv_pos_as_xyz
  1  'x, y, z'
loop_
 _atom_site_type_symbol
 _atom_site_label
 _atom_site_symmetry_multiplicity
 _atom_site_fract_x
 _atom_site_fract_y
 _atom_site_fract_z
 _atom_site_occupancy
  Nd  Nd0  1  0.870776  0.952350  0.251636  1
  Sm  Sm1  1  0.128635  0.047636  0.752058  1
  Sm  Sm2  1  0.364464  0.137387  0.180749  1
  Sm  Sm3  1  0.634904  0.862495  0.820278  1
  Sm  Sm4  1  0.968854  0.301121  0.093776  1
  Sm  Sm5  1  0.030723  0.698000  0.904543  1
  Pt  Pt6  1  0.000049  0.999596  0.999935  1
  Br  Br7  1  0.351226  0.452683  0.269800  1
  Br  Br8  1  0.647811  0.547169  0.729856  1
  Br  Br9  1  0.917148  0.630047  0.170686  1
  Br  Br10  1  0.084616  0.366638  0.826074  1
  Br  Br11  1  0.450137  0.823094  0.082391  1
  Br  Br12  1  0.546886  0.175946  0.915734  1
  Br  Br13  1  0.255439  0.083223  0.455448  1
  Br  Br14  1  0.748777  0.918292  0.548790  1
  Br  Br15  1  0.786800  0.259411  0.345120  1
  Br  Br16  1  0.212754  0.744912  0.653125  1
