# generated using pymatgen
data_Hf18Ta4Re4GeSe
_symmetry_space_group_name_H-M   'P 1'
_cell_length_a   8.68176018
_cell_length_b   8.74126672
_cell_length_c   8.74805800
_cell_angle_alpha   90.00000000
_cell_angle_beta   90.00000000
_cell_angle_gamma   119.77323341
_symmetry_Int_Tables_number   1
_chemical_formula_structural   Hf18Ta4Re4GeSe
_chemical_formula_sum   'Hf18 Ta4 Re4 Ge1 Se1'
_cell_volume   576.25180523
_cell_formula_units_Z   1
loop_
 _symmetry_equiv_pos_site_id
 _symmetry_equiv_pos_as_xyz
  1  'x, y, z'
loop_
 _atom_site_type_symbol
 _atom_site_label
 _atom_site_symmetry_multiplicity
 _atom_site_fract_x
 _atom_site_fract_y
 _atom_site_fract_z
 _atom_site_occupancy
  Hf  Hf0  1  0.804702  0.609356  0.545292  1
  Hf  Hf1  1  0.804504  0.194682  0.542537  1
  Hf  Hf2  1  0.390161  0.194647  0.542530  1
  Hf  Hf3  1  0.193071  0.386002  0.448320  1
  Hf  Hf4  1  0.195819  0.806950  0.449395  1
  Hf  Hf5  1  0.611067  0.806894  0.449351  1
  Hf  Hf6  1  0.193071  0.386002  0.051680  1
  Hf  Hf7  1  0.195819  0.806950  0.050605  1
  Hf  Hf8  1  0.611067  0.806894  0.050649  1
  Hf  Hf9  1  0.804702  0.609356  0.954708  1
  Hf  Hf10  1  0.804504  0.194682  0.957463  1
  Hf  Hf11  1  0.390161  0.194647  0.957470  1
  Hf  Hf12  1  0.463339  0.926429  0.750000  1
  Hf  Hf13  1  0.460844  0.537963  0.750000  1
  Hf  Hf14  1  0.077054  0.537781  0.750000  1
  Hf  Hf15  1  0.544212  0.088253  0.250000  1
  Hf  Hf16  1  0.541347  0.455047  0.250000  1
  Hf  Hf17  1  0.913667  0.455127  0.250000  1
  Ta  Ta18  1  0.110192  0.220044  0.750000  1
  Ta  Ta19  1  0.111213  0.889697  0.750000  1
  Ta  Ta20  1  0.778518  0.889594  0.750000  1
  Ta  Ta21  1  0.892014  0.784176  0.250000  1
  Re  Re22  1  0.890045  0.110963  0.250000  1
  Re  Re23  1  0.220610  0.110650  0.250000  1
  Re  Re24  1  0.000357  0.001182  0.500998  1
  Re  Re25  1  0.000357  0.001182  0.999002  1
  Ge  Ge26  1  0.666583  0.332804  0.750000  1
  Se  Se27  1  0.330997  0.662046  0.250000  1
