# generated using pymatgen
data_Hf4BeB7Ru10
_symmetry_space_group_name_H-M   'P 1'
_cell_length_a   3.02129700
_cell_length_b   8.77746884
_cell_length_c   10.00232625
_cell_angle_alpha   90.34742569
_cell_angle_beta   90.00000000
_cell_angle_gamma   90.00000000
_symmetry_Int_Tables_number   1
_chemical_formula_structural   Hf4BeB7Ru10
_chemical_formula_sum   'Hf4 Be1 B7 Ru10'
_cell_volume   265.25021685
_cell_formula_units_Z   1
loop_
 _symmetry_equiv_pos_site_id
 _symmetry_equiv_pos_as_xyz
  1  'x, y, z'
loop_
 _atom_site_type_symbol
 _atom_site_label
 _atom_site_symmetry_multiplicity
 _atom_site_fract_x
 _atom_site_fract_y
 _atom_site_fract_z
 _atom_site_occupancy
  Hf  Hf0  1  0.500000  0.836125  0.181895  1
  Hf  Hf1  1  0.500000  0.161132  0.818941  1
  Hf  Hf2  1  0.500000  0.662816  0.683627  1
  Hf  Hf3  1  0.500000  0.337773  0.319766  1
  Be  Be4  1  0.500000  0.965915  0.587093  1
  B  B5  1  0.500000  0.037281  0.408817  1
  B  B6  1  0.500000  0.854968  0.897498  1
  B  B7  1  0.500000  0.144750  0.100975  1
  B  B8  1  0.500000  0.647682  0.398769  1
  B  B9  1  0.500000  0.354178  0.601027  1
  B  B10  1  0.500000  0.467135  0.915454  1
  B  B11  1  0.500000  0.532370  0.084439  1
  Ru  Ru12  1  0.000000  0.672231  0.950090  1
  Ru  Ru13  1  0.000000  0.324286  0.052783  1
  Ru  Ru14  1  0.000000  0.827786  0.440087  1
  Ru  Ru15  1  0.000000  0.177825  0.548616  1
  Ru  Ru16  1  0.000000  0.999082  0.002902  1
  Ru  Ru17  1  0.000000  0.410176  0.765136  1
  Ru  Ru18  1  0.000000  0.586885  0.234343  1
  Ru  Ru19  1  0.000000  0.502602  0.500270  1
  Ru  Ru20  1  0.000000  0.906225  0.743858  1
  Ru  Ru21  1  0.000000  0.090777  0.263612  1
