# generated using pymatgen
data_V3GeIrN
_symmetry_space_group_name_H-M   'P 1'
_cell_length_a   6.62748800
_cell_length_b   6.62748800
_cell_length_c   6.62748800
_cell_angle_alpha   90.00000000
_cell_angle_beta   90.00000000
_cell_angle_gamma   90.00000000
_symmetry_Int_Tables_number   1
_chemical_formula_structural   V3GeIrN
_chemical_formula_sum   'V12 Ge4 Ir4 N4'
_cell_volume   291.10311329
_cell_formula_units_Z   4
loop_
 _symmetry_equiv_pos_site_id
 _symmetry_equiv_pos_as_xyz
  1  'x, y, z'
loop_
 _atom_site_type_symbol
 _atom_site_label
 _atom_site_symmetry_multiplicity
 _atom_site_fract_x
 _atom_site_fract_y
 _atom_site_fract_z
 _atom_site_occupancy
  V  V0  1  0.788047  0.958219  0.385395  1
  V  V1  1  0.711953  0.041781  0.885395  1
  V  V2  1  0.211953  0.458219  0.114605  1
  V  V3  1  0.288047  0.541781  0.614605  1
  V  V4  1  0.958219  0.385395  0.788047  1
  V  V5  1  0.041781  0.885395  0.711953  1
  V  V6  1  0.458219  0.114605  0.211953  1
  V  V7  1  0.541781  0.614605  0.288047  1
  V  V8  1  0.385395  0.788047  0.958219  1
  V  V9  1  0.885395  0.711953  0.041781  1
  V  V10  1  0.114605  0.211953  0.458219  1
  V  V11  1  0.614605  0.288047  0.541781  1
  Ge  Ge12  1  0.567834  0.432166  0.932166  1
  Ge  Ge13  1  0.432166  0.932166  0.567834  1
  Ge  Ge14  1  0.932166  0.567834  0.432166  1
  Ge  Ge15  1  0.067834  0.067834  0.067834  1
  Ir  Ir16  1  0.177000  0.823000  0.323000  1
  Ir  Ir17  1  0.323000  0.177000  0.823000  1
  Ir  Ir18  1  0.823000  0.323000  0.177000  1
  Ir  Ir19  1  0.677000  0.677000  0.677000  1
  N  N20  1  0.869347  0.130653  0.630653  1
  N  N21  1  0.630653  0.869347  0.130653  1
  N  N22  1  0.130653  0.630653  0.869347  1
  N  N23  1  0.369347  0.369347  0.369347  1
