# generated using pymatgen
data_CrFe8Si3(Mo3N)4
_symmetry_space_group_name_H-M   'P 1'
_cell_length_a   7.85533641
_cell_length_b   7.85496119
_cell_length_c   7.85533500
_cell_angle_alpha   59.99842156
_cell_angle_beta   60.00000171
_cell_angle_gamma   59.99842342
_symmetry_Int_Tables_number   1
_chemical_formula_structural   CrFe8Si3(Mo3N)4
_chemical_formula_sum   'Cr1 Fe8 Si3 Mo12 N4'
_cell_volume   342.72690181
_cell_formula_units_Z   1
loop_
 _symmetry_equiv_pos_site_id
 _symmetry_equiv_pos_as_xyz
  1  'x, y, z'
loop_
 _atom_site_type_symbol
 _atom_site_label
 _atom_site_symmetry_multiplicity
 _atom_site_fract_x
 _atom_site_fract_y
 _atom_site_fract_z
 _atom_site_occupancy
  Cr  Cr0  1  0.125000  0.625000  0.125000  1
  Fe  Fe1  1  0.918984  0.918800  0.243232  1
  Fe  Fe2  1  0.243232  0.918800  0.918984  1
  Fe  Fe3  1  0.919251  0.242247  0.919251  1
  Fe  Fe4  1  0.330749  0.007753  0.330749  1
  Fe  Fe5  1  0.331016  0.331200  0.006768  1
  Fe  Fe6  1  0.331016  0.331200  0.331016  1
  Fe  Fe7  1  0.918984  0.918800  0.918984  1
  Fe  Fe8  1  0.006768  0.331200  0.331016  1
  Si  Si9  1  0.625000  0.125000  0.125000  1
  Si  Si10  1  0.125000  0.125000  0.625000  1
  Si  Si11  1  0.125000  0.125000  0.125000  1
  Mo  Mo12  1  0.555447  0.944144  0.944963  1
  Mo  Mo13  1  0.302920  0.696261  0.302920  1
  Mo  Mo14  1  0.944963  0.944144  0.555447  1
  Mo  Mo15  1  0.947080  0.553739  0.552101  1
  Mo  Mo16  1  0.694553  0.305856  0.694553  1
  Mo  Mo17  1  0.305037  0.305856  0.694553  1
  Mo  Mo18  1  0.694553  0.305856  0.305037  1
  Mo  Mo19  1  0.555447  0.944144  0.555447  1
  Mo  Mo20  1  0.302920  0.696261  0.697899  1
  Mo  Mo21  1  0.947080  0.553739  0.947080  1
  Mo  Mo22  1  0.552101  0.553739  0.947080  1
  Mo  Mo23  1  0.697899  0.696261  0.302920  1
  N  N24  1  0.625000  0.625000  0.625000  1
  N  N25  1  0.125000  0.625000  0.625000  1
  N  N26  1  0.625000  0.125000  0.625000  1
  N  N27  1  0.625000  0.625000  0.125000  1
