# generated using pymatgen
data_Ho6In2CO
_symmetry_space_group_name_H-M   'P 1'
_cell_length_a   6.87085614
_cell_length_b   6.87085557
_cell_length_c   6.87085600
_cell_angle_alpha   59.99999791
_cell_angle_beta   60.00000066
_cell_angle_gamma   60.00000047
_symmetry_Int_Tables_number   1
_chemical_formula_structural   Ho6In2CO
_chemical_formula_sum   'Ho6 In2 C1 O1'
_cell_volume   229.35991566
_cell_formula_units_Z   1
loop_
 _symmetry_equiv_pos_site_id
 _symmetry_equiv_pos_as_xyz
  1  'x, y, z'
loop_
 _atom_site_type_symbol
 _atom_site_label
 _atom_site_symmetry_multiplicity
 _atom_site_fract_x
 _atom_site_fract_y
 _atom_site_fract_z
 _atom_site_occupancy
  Ho  Ho0  1  0.752050  0.247950  0.247950  1
  Ho  Ho1  1  0.247950  0.752050  0.247950  1
  Ho  Ho2  1  0.752050  0.752050  0.247950  1
  Ho  Ho3  1  0.752050  0.247950  0.752050  1
  Ho  Ho4  1  0.247950  0.247950  0.752050  1
  Ho  Ho5  1  0.247950  0.752050  0.752050  1
  In  In6  1  0.250000  0.250000  0.250000  1
  In  In7  1  0.750000  0.750000  0.750000  1
  C  C8  1  0.000000  0.000000  0.000000  1
  O  O9  1  0.500000  0.500000  0.500000  1
