# generated using pymatgen
data_Ba8Sn3Hg4Pb
_symmetry_space_group_name_H-M   'P 1'
_cell_length_a   8.46275000
_cell_length_b   6.04734600
_cell_length_c   12.10114900
_cell_angle_alpha   90.00000000
_cell_angle_beta   89.99984504
_cell_angle_gamma   90.00000000
_symmetry_Int_Tables_number   1
_chemical_formula_structural   Ba8Sn3Hg4Pb
_chemical_formula_sum   'Ba8 Sn3 Hg4 Pb1'
_cell_volume   619.30264865
_cell_formula_units_Z   1
loop_
 _symmetry_equiv_pos_site_id
 _symmetry_equiv_pos_as_xyz
  1  'x, y, z'
loop_
 _atom_site_type_symbol
 _atom_site_label
 _atom_site_symmetry_multiplicity
 _atom_site_fract_x
 _atom_site_fract_y
 _atom_site_fract_z
 _atom_site_occupancy
  Ba  Ba0  1  0.499010  0.750000  0.127410  1
  Ba  Ba1  1  0.001029  0.750000  0.127531  1
  Ba  Ba2  1  0.500196  0.250000  0.373496  1
  Ba  Ba3  1  0.999855  0.250000  0.373624  1
  Ba  Ba4  1  0.000994  0.750000  0.625363  1
  Ba  Ba5  1  0.498960  0.750000  0.625482  1
  Ba  Ba6  1  0.001996  0.250000  0.873463  1
  Ba  Ba7  1  0.497950  0.250000  0.873596  1
  Sn  Sn8  1  0.249955  0.250000  0.122929  1
  Sn  Sn9  1  0.749958  0.750000  0.377168  1
  Sn  Sn10  1  0.250035  0.250000  0.622736  1
  Hg  Hg11  1  0.750190  0.250000  0.121988  1
  Hg  Hg12  1  0.250184  0.750000  0.377716  1
  Hg  Hg13  1  0.749806  0.250000  0.622599  1
  Hg  Hg14  1  0.249817  0.750000  0.877725  1
  Pb  Pb15  1  0.750064  0.750000  0.877174  1
