# generated using pymatgen
data_Er2In7HgRh
_symmetry_space_group_name_H-M   'P 1'
_cell_length_a   4.63679800
_cell_length_b   4.62216200
_cell_length_c   12.13798800
_cell_angle_alpha   90.00000000
_cell_angle_beta   90.00000000
_cell_angle_gamma   90.00000000
_symmetry_Int_Tables_number   1
_chemical_formula_structural   Er2In7HgRh
_chemical_formula_sum   'Er2 In7 Hg1 Rh1'
_cell_volume   260.14174137
_cell_formula_units_Z   1
loop_
 _symmetry_equiv_pos_site_id
 _symmetry_equiv_pos_as_xyz
  1  'x, y, z'
loop_
 _atom_site_type_symbol
 _atom_site_label
 _atom_site_symmetry_multiplicity
 _atom_site_fract_x
 _atom_site_fract_y
 _atom_site_fract_z
 _atom_site_occupancy
  Er  Er0  1  0.500000  0.500000  0.690259  1
  Er  Er1  1  0.500000  0.500000  0.309741  1
  In  In2  1  0.500000  0.000000  0.500000  1
  In  In3  1  0.000000  0.500000  0.876144  1
  In  In4  1  0.500000  0.000000  0.876101  1
  In  In5  1  0.000000  0.500000  0.123856  1
  In  In6  1  0.500000  0.000000  0.123899  1
  In  In7  1  0.000000  0.000000  0.689413  1
  In  In8  1  0.000000  0.000000  0.310587  1
  Hg  Hg9  1  0.000000  0.500000  0.500000  1
  Rh  Rh10  1  0.500000  0.500000  0.000000  1
