# generated using pymatgen
data_Tb4Dy2In7Hg3
_symmetry_space_group_name_H-M   'P 1'
_cell_length_a   6.36771893
_cell_length_b   6.36771976
_cell_length_c   10.53089114
_cell_angle_alpha   89.93133852
_cell_angle_beta   89.93133801
_cell_angle_gamma   103.59714689
_symmetry_Int_Tables_number   1
_chemical_formula_structural   Tb4Dy2In7Hg3
_chemical_formula_sum   'Tb4 Dy2 In7 Hg3'
_cell_volume   415.03641777
_cell_formula_units_Z   1
loop_
 _symmetry_equiv_pos_site_id
 _symmetry_equiv_pos_as_xyz
  1  'x, y, z'
loop_
 _atom_site_type_symbol
 _atom_site_label
 _atom_site_symmetry_multiplicity
 _atom_site_fract_x
 _atom_site_fract_y
 _atom_site_fract_z
 _atom_site_occupancy
  Tb  Tb0  1  0.203581  0.796449  0.500423  1
  Tb  Tb1  1  0.203960  0.801988  0.000564  1
  Tb  Tb2  1  0.796449  0.203581  0.500423  1
  Tb  Tb3  1  0.801988  0.203960  0.000564  1
  Dy  Dy4  1  0.620303  0.620303  0.246648  1
  Dy  Dy5  1  0.376352  0.376352  0.754308  1
  In  In6  1  0.686264  0.686264  0.956272  1
  In  In7  1  0.313404  0.313404  0.457182  1
  In  In8  1  0.686908  0.686908  0.543073  1
  In  In9  1  0.506253  0.075843  0.250186  1
  In  In10  1  0.923245  0.492551  0.749420  1
  In  In11  1  0.492551  0.923245  0.749420  1
  In  In12  1  0.075843  0.506253  0.250186  1
  Hg  Hg13  1  0.004148  0.004148  0.249632  1
  Hg  Hg14  1  0.994748  0.994748  0.750643  1
  Hg  Hg15  1  0.314001  0.314001  0.041059  1
