# generated using pymatgen
data_Sm2Sn5PtRh2
_symmetry_space_group_name_H-M   'P 1'
_cell_length_a   13.59595721
_cell_length_b   13.59595654
_cell_length_c   7.35682700
_cell_angle_alpha   90.00000000
_cell_angle_beta   90.00000000
_cell_angle_gamma   161.05180129
_symmetry_Int_Tables_number   1
_chemical_formula_structural   Sm2Sn5PtRh2
_chemical_formula_sum   'Sm4 Sn10 Pt2 Rh4'
_cell_volume   441.58062593
_cell_formula_units_Z   2
loop_
 _symmetry_equiv_pos_site_id
 _symmetry_equiv_pos_as_xyz
  1  'x, y, z'
loop_
 _atom_site_type_symbol
 _atom_site_label
 _atom_site_symmetry_multiplicity
 _atom_site_fract_x
 _atom_site_fract_y
 _atom_site_fract_z
 _atom_site_occupancy
  Sm  Sm0  1  0.174881  0.825119  0.752809  1
  Sm  Sm1  1  0.825119  0.174881  0.252809  1
  Sm  Sm2  1  0.476299  0.523701  0.738084  1
  Sm  Sm3  1  0.523701  0.476299  0.238084  1
  Sn  Sn4  1  0.878300  0.121700  0.728562  1
  Sn  Sn5  1  0.121700  0.878300  0.228562  1
  Sn  Sn6  1  0.703984  0.296016  0.048035  1
  Sn  Sn7  1  0.296016  0.703984  0.548035  1
  Sn  Sn8  1  0.598926  0.401074  0.615024  1
  Sn  Sn9  1  0.401074  0.598926  0.115024  1
  Sn  Sn10  1  0.950825  0.049175  0.400791  1
  Sn  Sn11  1  0.049175  0.950825  0.900791  1
  Sn  Sn12  1  0.289749  0.710251  0.974778  1
  Sn  Sn13  1  0.710251  0.289749  0.474778  1
  Pt  Pt14  1  0.050077  0.949923  0.518959  1
  Pt  Pt15  1  0.949923  0.050077  0.018959  1
  Rh  Rh16  1  0.776489  0.223511  0.766291  1
  Rh  Rh17  1  0.223511  0.776489  0.266291  1
  Rh  Rh18  1  0.395457  0.604543  0.484665  1
  Rh  Rh19  1  0.604543  0.395457  0.984665  1
