# generated using pymatgen
data_Tb11DyCo4SnIr
_symmetry_space_group_name_H-M   'P 1'
_cell_length_a   8.35017636
_cell_length_b   8.35017601
_cell_length_c   8.35279921
_cell_angle_alpha   106.99778776
_cell_angle_beta   110.31895998
_cell_angle_gamma   111.11360053
_symmetry_Int_Tables_number   1
_chemical_formula_structural   Tb11DyCo4SnIr
_chemical_formula_sum   'Tb11 Dy1 Co4 Sn1 Ir1'
_cell_volume   447.75755556
_cell_formula_units_Z   1
loop_
 _symmetry_equiv_pos_site_id
 _symmetry_equiv_pos_as_xyz
  1  'x, y, z'
loop_
 _atom_site_type_symbol
 _atom_site_label
 _atom_site_symmetry_multiplicity
 _atom_site_fract_x
 _atom_site_fract_y
 _atom_site_fract_z
 _atom_site_occupancy
  Tb  Tb0  1  0.473540  0.289510  0.183786  1
  Tb  Tb1  1  0.105459  0.289239  0.816428  1
  Tb  Tb2  1  0.894277  0.710247  0.183786  1
  Tb  Tb3  1  0.527189  0.710969  0.816428  1
  Tb  Tb4  1  0.305691  0.620454  0.314336  1
  Tb  Tb5  1  0.306441  0.991479  0.685578  1
  Tb  Tb6  1  0.694100  0.379136  0.685578  1
  Tb  Tb7  1  0.693882  0.008644  0.314336  1
  Tb  Tb8  1  0.195250  0.212131  0.407381  1
  Tb  Tb9  1  0.804372  0.787973  0.592345  1
  Tb  Tb10  1  0.195408  0.788061  0.983467  1
  Dy  Dy11  1  0.804402  0.212044  0.016447  1
  Co  Co12  1  0.499904  0.611225  0.111129  1
  Co  Co13  1  0.500413  0.388638  0.889052  1
  Co  Co14  1  0.379132  0.999849  0.378981  1
  Co  Co15  1  0.621334  0.000184  0.621519  1
  Sn  Sn16  1  0.999788  0.499762  0.499550  1
  Ir  Ir17  1  0.999417  0.000456  0.999873  1
