# generated using pymatgen
data_VCd2AsO7
_symmetry_space_group_name_H-M   'P 1'
_cell_length_a   5.83712368
_cell_length_b   5.83712393
_cell_length_c   5.02359717
_cell_angle_alpha   82.10110468
_cell_angle_beta   82.10110629
_cell_angle_gamma   104.22233404
_symmetry_Int_Tables_number   1
_chemical_formula_structural   VCd2AsO7
_chemical_formula_sum   'V1 Cd2 As1 O7'
_cell_volume   161.71041100
_cell_formula_units_Z   1
loop_
 _symmetry_equiv_pos_site_id
 _symmetry_equiv_pos_as_xyz
  1  'x, y, z'
loop_
 _atom_site_type_symbol
 _atom_site_label
 _atom_site_symmetry_multiplicity
 _atom_site_fract_x
 _atom_site_fract_y
 _atom_site_fract_z
 _atom_site_occupancy
  V  V0  1  0.222583  0.222583  0.090869  1
  Cd  Cd1  1  0.310294  0.698609  0.502032  1
  Cd  Cd2  1  0.698609  0.310294  0.502032  1
  As  As3  1  0.772066  0.772066  0.906536  1
  O  O4  1  0.921103  0.610118  0.721669  1
  O  O5  1  0.391301  0.083627  0.280942  1
  O  O6  1  0.083627  0.391301  0.280942  1
  O  O7  1  0.610118  0.921103  0.721669  1
  O  O8  1  0.993217  0.993217  0.998850  1
  O  O9  1  0.606271  0.606271  0.210086  1
  O  O10  1  0.390812  0.390812  0.784372  1
