# generated using pymatgen
data_Dy4Ir3PdO14
_symmetry_space_group_name_H-M   'P 1'
_cell_length_a   7.24503920
_cell_length_b   7.24504038
_cell_length_c   7.24503900
_cell_angle_alpha   59.99318924
_cell_angle_beta   59.99318385
_cell_angle_gamma   59.99318331
_symmetry_Int_Tables_number   1
_chemical_formula_structural   Dy4Ir3PdO14
_chemical_formula_sum   'Dy4 Ir3 Pd1 O14'
_cell_volume   268.86865310
_cell_formula_units_Z   1
loop_
 _symmetry_equiv_pos_site_id
 _symmetry_equiv_pos_as_xyz
  1  'x, y, z'
loop_
 _atom_site_type_symbol
 _atom_site_label
 _atom_site_symmetry_multiplicity
 _atom_site_fract_x
 _atom_site_fract_y
 _atom_site_fract_z
 _atom_site_occupancy
  Dy  Dy0  1  0.625000  0.125000  0.125000  1
  Dy  Dy1  1  0.125000  0.625000  0.125000  1
  Dy  Dy2  1  0.125000  0.125000  0.625000  1
  Dy  Dy3  1  0.125000  0.125000  0.125000  1
  Ir  Ir4  1  0.125000  0.625000  0.625000  1
  Ir  Ir5  1  0.625000  0.125000  0.625000  1
  Ir  Ir6  1  0.625000  0.625000  0.125000  1
  Pd  Pd7  1  0.625000  0.625000  0.625000  1
  O  O8  1  0.715840  0.715840  0.279989  1
  O  O9  1  0.288436  0.288436  0.715632  1
  O  O10  1  0.715840  0.279989  0.715840  1
  O  O11  1  0.288436  0.715632  0.288436  1
  O  O12  1  0.279989  0.715840  0.715840  1
  O  O13  1  0.715632  0.288436  0.288436  1
  O  O14  1  0.534160  0.534160  0.970011  1
  O  O15  1  0.961564  0.961564  0.534368  1
  O  O16  1  0.534160  0.970011  0.534160  1
  O  O17  1  0.961564  0.534368  0.961564  1
  O  O18  1  0.970011  0.534160  0.534160  1
  O  O19  1  0.534368  0.961564  0.961564  1
  O  O20  1  0.249659  0.249659  0.249659  1
  O  O21  1  0.000341  0.000341  0.000341  1
