# generated using pymatgen
data_La3Nd(GaIr2)2
_symmetry_space_group_name_H-M   'P 1'
_cell_length_a   5.81910199
_cell_length_b   5.78885910
_cell_length_c   7.94460900
_cell_angle_alpha   102.52250277
_cell_angle_beta   102.47996964
_cell_angle_gamma   58.37752158
_symmetry_Int_Tables_number   1
_chemical_formula_structural   La3Nd(GaIr2)2
_chemical_formula_sum   'La3 Nd1 Ga2 Ir4'
_cell_volume   220.76964071
_cell_formula_units_Z   1
loop_
 _symmetry_equiv_pos_site_id
 _symmetry_equiv_pos_as_xyz
  1  'x, y, z'
loop_
 _atom_site_type_symbol
 _atom_site_label
 _atom_site_symmetry_multiplicity
 _atom_site_fract_x
 _atom_site_fract_y
 _atom_site_fract_z
 _atom_site_occupancy
  La  La0  1  0.791726  0.500748  0.141081  1
  La  La1  1  0.502718  0.206263  0.355406  1
  La  La2  1  0.497821  0.793037  0.650611  1
  Nd  Nd3  1  0.205455  0.499958  0.850955  1
  Ga  Ga4  1  0.126952  0.872730  0.249356  1
  Ga  Ga5  1  0.873571  0.125372  0.750252  1
  Ir  Ir6  1  0.271627  0.998902  0.010050  1
  Ir  Ir7  1  0.008864  0.722495  0.490936  1
  Ir  Ir8  1  0.994082  0.272639  0.509113  1
  Ir  Ir9  1  0.727182  0.007854  0.992239  1
