# generated using pymatgen
data_Sm8TiPd19Pt5
_symmetry_space_group_name_H-M   'P 1'
_cell_length_a   8.47101200
_cell_length_b   8.47101200
_cell_length_c   8.43988100
_cell_angle_alpha   90.00000000
_cell_angle_beta   90.00000000
_cell_angle_gamma   90.00000000
_symmetry_Int_Tables_number   1
_chemical_formula_structural   Sm8TiPd19Pt5
_chemical_formula_sum   'Sm8 Ti1 Pd19 Pt5'
_cell_volume   605.62935472
_cell_formula_units_Z   1
loop_
 _symmetry_equiv_pos_site_id
 _symmetry_equiv_pos_as_xyz
  1  'x, y, z'
loop_
 _atom_site_type_symbol
 _atom_site_label
 _atom_site_symmetry_multiplicity
 _atom_site_fract_x
 _atom_site_fract_y
 _atom_site_fract_z
 _atom_site_occupancy
  Sm  Sm0  1  0.250548  0.250548  0.250740  1
  Sm  Sm1  1  0.748422  0.748422  0.748550  1
  Sm  Sm2  1  0.749452  0.749452  0.250740  1
  Sm  Sm3  1  0.748422  0.251578  0.748550  1
  Sm  Sm4  1  0.251578  0.251578  0.748550  1
  Sm  Sm5  1  0.250548  0.749452  0.250740  1
  Sm  Sm6  1  0.251578  0.748422  0.748550  1
  Sm  Sm7  1  0.749452  0.250548  0.250740  1
  Ti  Ti8  1  0.000000  0.000000  0.007456  1
  Pd  Pd9  1  0.263642  0.500000  0.000104  1
  Pd  Pd10  1  0.736358  0.500000  0.000104  1
  Pd  Pd11  1  0.000000  0.264381  0.500014  1
  Pd  Pd12  1  0.500000  0.263642  0.000104  1
  Pd  Pd13  1  0.000000  0.735619  0.500014  1
  Pd  Pd14  1  0.500000  0.736358  0.000104  1
  Pd  Pd15  1  0.500000  0.000000  0.262906  1
  Pd  Pd16  1  0.264381  0.000000  0.500014  1
  Pd  Pd17  1  0.500000  0.000000  0.735208  1
  Pd  Pd18  1  0.735619  0.000000  0.500014  1
  Pd  Pd19  1  0.000000  0.500000  0.262906  1
  Pd  Pd20  1  0.000000  0.500000  0.735208  1
  Pd  Pd21  1  0.254515  0.500000  0.499667  1
  Pd  Pd22  1  0.745485  0.500000  0.499667  1
  Pd  Pd23  1  0.500000  0.254515  0.499667  1
  Pd  Pd24  1  0.500000  0.745485  0.499667  1
  Pd  Pd25  1  0.500000  0.500000  0.254686  1
  Pd  Pd26  1  0.500000  0.500000  0.745429  1
  Pd  Pd27  1  0.000000  0.000000  0.702914  1
  Pt  Pt28  1  0.298215  0.000000  0.998253  1
  Pt  Pt29  1  0.701785  0.000000  0.998253  1
  Pt  Pt30  1  0.000000  0.298215  0.998253  1
  Pt  Pt31  1  0.000000  0.701785  0.998253  1
  Pt  Pt32  1  0.000000  0.000000  0.303975  1
