# generated using pymatgen
data_Ti6Ga5Fe12Re
_symmetry_space_group_name_H-M   'P 1'
_cell_length_a   4.12942100
_cell_length_b   5.85557500
_cell_length_c   12.36044700
_cell_angle_alpha   90.00000464
_cell_angle_beta   90.00007868
_cell_angle_gamma   90.00029940
_symmetry_Int_Tables_number   1
_chemical_formula_structural   Ti6Ga5Fe12Re
_chemical_formula_sum   'Ti6 Ga5 Fe12 Re1'
_cell_volume   298.87726936
_cell_formula_units_Z   1
loop_
 _symmetry_equiv_pos_site_id
 _symmetry_equiv_pos_as_xyz
  1  'x, y, z'
loop_
 _atom_site_type_symbol
 _atom_site_label
 _atom_site_symmetry_multiplicity
 _atom_site_fract_x
 _atom_site_fract_y
 _atom_site_fract_z
 _atom_site_occupancy
  Ti  Ti0  1  0.000000  0.500057  0.000016  1
  Ti  Ti1  1  0.499999  0.999917  0.174913  1
  Ti  Ti2  1  0.999998  0.500159  0.334884  1
  Ti  Ti3  1  0.499999  0.999875  0.499998  1
  Ti  Ti4  1  0.000003  0.500110  0.665104  1
  Ti  Ti5  1  0.500004  0.999942  0.825088  1
  Ga  Ga6  1  0.499996  0.500016  0.167367  1
  Ga  Ga7  1  0.999998  0.999858  0.333830  1
  Ga  Ga8  1  0.500001  0.500099  0.499990  1
  Ga  Ga9  1  0.000002  0.999929  0.666163  1
  Ga  Ga10  1  0.500006  0.499980  0.832646  1
  Fe  Fe11  1  0.500000  0.239660  0.000008  1
  Fe  Fe12  1  0.499998  0.760743  0.000006  1
  Fe  Fe13  1  0.999997  0.244961  0.160349  1
  Fe  Fe14  1  0.999996  0.754911  0.160406  1
  Fe  Fe15  1  0.499999  0.251518  0.333686  1
  Fe  Fe16  1  0.499998  0.748469  0.333685  1
  Fe  Fe17  1  0.999999  0.250830  0.500005  1
  Fe  Fe18  1  0.000000  0.749151  0.500010  1
  Fe  Fe19  1  0.500003  0.251541  0.666315  1
  Fe  Fe20  1  0.500004  0.748451  0.666305  1
  Fe  Fe21  1  0.999999  0.244972  0.839641  1
  Fe  Fe22  1  0.000006  0.754908  0.839595  1
  Re  Re23  1  0.000000  0.999941  0.999990  1
