# generated using pymatgen
data_Tm15Sc5Bi12
_symmetry_space_group_name_H-M   'P 1'
_cell_length_a   8.04413348
_cell_length_b   9.32641762
_cell_length_c   11.82245425
_cell_angle_alpha   89.95826413
_cell_angle_beta   90.12041046
_cell_angle_gamma   89.99886541
_symmetry_Int_Tables_number   1
_chemical_formula_structural   Tm15Sc5Bi12
_chemical_formula_sum   'Tm15 Sc5 Bi12'
_cell_volume   886.95317919
_cell_formula_units_Z   1
loop_
 _symmetry_equiv_pos_site_id
 _symmetry_equiv_pos_as_xyz
  1  'x, y, z'
loop_
 _atom_site_type_symbol
 _atom_site_label
 _atom_site_symmetry_multiplicity
 _atom_site_fract_x
 _atom_site_fract_y
 _atom_site_fract_z
 _atom_site_occupancy
  Tm  Tm0  1  0.353569  0.247639  0.282064  1
  Tm  Tm1  1  0.643933  0.749961  0.716978  1
  Tm  Tm2  1  0.144892  0.749551  0.783736  1
  Tm  Tm3  1  0.855684  0.249283  0.216085  1
  Tm  Tm4  1  0.185705  0.249258  0.781587  1
  Tm  Tm5  1  0.813977  0.749720  0.218719  1
  Tm  Tm6  1  0.313980  0.750647  0.281214  1
  Tm  Tm7  1  0.685359  0.249562  0.719623  1
  Tm  Tm8  1  0.804422  0.933858  0.940720  1
  Tm  Tm9  1  0.303855  0.933717  0.559207  1
  Tm  Tm10  1  0.805252  0.566272  0.941224  1
  Tm  Tm11  1  0.695851  0.066135  0.440576  1
  Tm  Tm12  1  0.195683  0.434372  0.059283  1
  Tm  Tm13  1  0.696015  0.433635  0.440721  1
  Tm  Tm14  1  0.304226  0.566616  0.559442  1
  Sc  Sc15  1  0.024977  0.250081  0.511916  1
  Sc  Sc16  1  0.975700  0.749794  0.486932  1
  Sc  Sc17  1  0.475078  0.750526  0.012161  1
  Sc  Sc18  1  0.522861  0.248167  0.988708  1
  Sc  Sc19  1  0.196548  0.068789  0.058838  1
  Bi  Bi20  1  0.402247  0.250278  0.542142  1
  Bi  Bi21  1  0.598123  0.749792  0.457384  1
  Bi  Bi22  1  0.100167  0.756542  0.043758  1
  Bi  Bi23  1  0.905552  0.248015  0.958551  1
  Bi  Bi24  1  0.066618  0.003906  0.328234  1
  Bi  Bi25  1  0.933718  0.996126  0.669900  1
  Bi  Bi26  1  0.432192  0.996000  0.831432  1
  Bi  Bi27  1  0.933623  0.503346  0.670146  1
  Bi  Bi28  1  0.563916  0.003778  0.168861  1
  Bi  Bi29  1  0.066370  0.495990  0.329378  1
  Bi  Bi30  1  0.566269  0.495386  0.169809  1
  Bi  Bi31  1  0.433639  0.503259  0.830672  1
