# generated using pymatgen
data_Hf16Ni4Ir3WN2
_symmetry_space_group_name_H-M   'P 1'
_cell_length_a   8.66098189
_cell_length_b   8.60693138
_cell_length_c   8.66098274
_cell_angle_alpha   119.92169298
_cell_angle_beta   120.36169961
_cell_angle_gamma   89.93312807
_symmetry_Int_Tables_number   1
_chemical_formula_structural   Hf16Ni4Ir3WN2
_chemical_formula_sum   'Hf16 Ni4 Ir3 W1 N2'
_cell_volume   454.82815059
_cell_formula_units_Z   1
loop_
 _symmetry_equiv_pos_site_id
 _symmetry_equiv_pos_as_xyz
  1  'x, y, z'
loop_
 _atom_site_type_symbol
 _atom_site_label
 _atom_site_symmetry_multiplicity
 _atom_site_fract_x
 _atom_site_fract_y
 _atom_site_fract_z
 _atom_site_occupancy
  Hf  Hf0  1  0.935048  0.182185  0.747137  1
  Hf  Hf1  1  0.321420  0.571439  0.750019  1
  Hf  Hf2  1  0.931406  0.569281  0.754407  1
  Hf  Hf3  1  0.311462  0.174705  0.743822  1
  Hf  Hf4  1  0.930883  0.174705  0.363243  1
  Hf  Hf5  1  0.314874  0.569281  0.137875  1
  Hf  Hf6  1  0.056766  0.807576  0.250810  1
  Hf  Hf7  1  0.688725  0.443757  0.255033  1
  Hf  Hf8  1  0.057935  0.438792  0.244616  1
  Hf  Hf9  1  0.692278  0.813150  0.259842  1
  Hf  Hf10  1  0.053308  0.813150  0.620872  1
  Hf  Hf11  1  0.694176  0.438792  0.880858  1
  Hf  Hf12  1  0.487844  0.010217  0.022374  1
  Hf  Hf13  1  0.482884  0.450470  0.467586  1
  Hf  Hf14  1  0.481087  0.018401  0.464517  1
  Hf  Hf15  1  0.053884  0.018401  0.037314  1
  Ni  Ni16  1  0.271535  0.235526  0.463992  1
  Ni  Ni17  1  0.275441  0.813256  0.037815  1
  Ni  Ni18  1  0.279539  0.226522  0.045162  1
  Ni  Ni19  1  0.681360  0.226522  0.446984  1
  Ir  Ir20  1  0.710203  0.131957  0.921755  1
  Ir  Ir21  1  0.709332  0.789388  0.916814  1
  Ir  Ir22  1  0.372576  0.789388  0.580058  1
  W  W23  1  0.706448  0.793691  0.587244  1
  N  N24  1  0.998593  0.499651  0.001058  1
  N  N25  1  0.001000  0.999796  0.498797  1
