# generated using pymatgen
data_PrNd11FeCoI17
_symmetry_space_group_name_H-M   'P 1'
_cell_length_a   10.01333572
_cell_length_b   11.98132726
_cell_length_c   12.02870803
_cell_angle_alpha   93.36919103
_cell_angle_beta   104.86278421
_cell_angle_gamma   114.52325117
_symmetry_Int_Tables_number   1
_chemical_formula_structural   PrNd11FeCoI17
_chemical_formula_sum   'Pr1 Nd11 Fe1 Co1 I17'
_cell_volume   1246.40913319
_cell_formula_units_Z   1
loop_
 _symmetry_equiv_pos_site_id
 _symmetry_equiv_pos_as_xyz
  1  'x, y, z'
loop_
 _atom_site_type_symbol
 _atom_site_label
 _atom_site_symmetry_multiplicity
 _atom_site_fract_x
 _atom_site_fract_y
 _atom_site_fract_z
 _atom_site_occupancy
  Pr  Pr0  1  0.849770  0.712665  0.848958  1
  Nd  Nd1  1  0.054446  0.506155  0.321052  1
  Nd  Nd2  1  0.990994  0.810233  0.583489  1
  Nd  Nd3  1  0.648734  0.240917  0.282933  1
  Nd  Nd4  1  0.008678  0.190696  0.413888  1
  Nd  Nd5  1  0.222343  0.670460  0.986964  1
  Nd  Nd6  1  0.258525  0.983369  0.891220  1
  Nd  Nd7  1  0.352635  0.759044  0.716498  1
  Nd  Nd8  1  0.944141  0.491566  0.677899  1
  Nd  Nd9  1  0.743391  0.018621  0.110094  1
  Nd  Nd10  1  0.147835  0.286893  0.152434  1
  Nd  Nd11  1  0.778826  0.328974  0.014449  1
  Fe  Fe12  1  0.895699  0.261772  0.214226  1
  Co  Co13  1  0.104463  0.738318  0.785193  1
  I  I14  1  0.784424  0.529361  0.418377  1
  I  I15  1  0.641108  0.417941  0.758245  1
  I  I16  1  0.842925  0.893558  0.325487  1
  I  I17  1  0.325993  0.212319  0.370374  1
  I  I18  1  0.157270  0.104966  0.675979  1
  I  I19  1  0.586870  0.052669  0.842432  1
  I  I20  1  0.755680  0.184575  0.538989  1
  I  I21  1  0.548336  0.706702  0.953134  1
  I  I22  1  0.358761  0.582248  0.240102  1
  I  I23  1  0.215495  0.471117  0.583289  1
  I  I24  1  0.055654  0.367650  0.896317  1
  I  I25  1  0.450278  0.291410  0.045551  1
  I  I26  1  0.000575  0.000271  0.999707  1
  I  I27  1  0.245476  0.817113  0.462680  1
  I  I28  1  0.410866  0.946291  0.156526  1
  I  I29  1  0.673313  0.788352  0.629500  1
  I  I30  1  0.946498  0.633776  0.104014  1
