# generated using pymatgen
data_Yb5LuU2O12
_symmetry_space_group_name_H-M   'P 1'
_cell_length_a   6.70039398
_cell_length_b   6.68017780
_cell_length_c   6.67892320
_cell_angle_alpha   91.17261998
_cell_angle_beta   90.86550668
_cell_angle_gamma   91.18016422
_symmetry_Int_Tables_number   1
_chemical_formula_structural   Yb5LuU2O12
_chemical_formula_sum   'Yb5 Lu1 U2 O12'
_cell_volume   298.78536032
_cell_formula_units_Z   1
loop_
 _symmetry_equiv_pos_site_id
 _symmetry_equiv_pos_as_xyz
  1  'x, y, z'
loop_
 _atom_site_type_symbol
 _atom_site_label
 _atom_site_symmetry_multiplicity
 _atom_site_fract_x
 _atom_site_fract_y
 _atom_site_fract_z
 _atom_site_occupancy
  Yb  Yb0  1  0.750920  0.940514  0.442970  1
  Yb  Yb1  1  0.554467  0.248463  0.060682  1
  Yb  Yb2  1  0.249060  0.057987  0.555310  1
  Yb  Yb3  1  0.061296  0.558150  0.250195  1
  Yb  Yb4  1  0.443777  0.749739  0.940962  1
  Lu  Lu5  1  0.937698  0.441651  0.750061  1
  U  U6  1  0.998383  0.999081  0.997575  1
  U  U7  1  0.499200  0.499956  0.501245  1
  O  O8  1  0.294428  0.062608  0.920057  1
  O  O9  1  0.065718  0.919049  0.293803  1
  O  O10  1  0.921743  0.305228  0.057003  1
  O  O11  1  0.703364  0.935250  0.079610  1
  O  O12  1  0.931543  0.095698  0.699357  1
  O  O13  1  0.073018  0.691342  0.921523  1
  O  O14  1  0.192854  0.409752  0.550310  1
  O  O15  1  0.408795  0.538699  0.201455  1
  O  O16  1  0.462454  0.798036  0.590548  1
  O  O17  1  0.604325  0.460194  0.801945  1
  O  O18  1  0.809749  0.586916  0.474310  1
  O  O19  1  0.537209  0.201688  0.411080  1
