# generated using pymatgen
data_Lu20(IrRh3)3
_symmetry_space_group_name_H-M   'P 1'
_cell_length_a   10.64688129
_cell_length_b   10.64688082
_cell_length_c   6.27093205
_cell_angle_alpha   90.00881181
_cell_angle_beta   90.00881001
_cell_angle_gamma   89.95371918
_symmetry_Int_Tables_number   1
_chemical_formula_structural   Lu20(IrRh3)3
_chemical_formula_sum   'Lu20 Ir3 Rh9'
_cell_volume   710.84800306
_cell_formula_units_Z   1
loop_
 _symmetry_equiv_pos_site_id
 _symmetry_equiv_pos_as_xyz
  1  'x, y, z'
loop_
 _atom_site_type_symbol
 _atom_site_label
 _atom_site_symmetry_multiplicity
 _atom_site_fract_x
 _atom_site_fract_y
 _atom_site_fract_z
 _atom_site_occupancy
  Lu  Lu0  1  0.291437  0.089104  0.377859  1
  Lu  Lu1  1  0.291589  0.910643  0.877758  1
  Lu  Lu2  1  0.708618  0.087812  0.877601  1
  Lu  Lu3  1  0.708320  0.910704  0.377590  1
  Lu  Lu4  1  0.586846  0.790143  0.878478  1
  Lu  Lu5  1  0.586634  0.209129  0.377416  1
  Lu  Lu6  1  0.413042  0.790411  0.377917  1
  Lu  Lu7  1  0.411366  0.209000  0.878650  1
  Lu  Lu8  1  0.209857  0.413154  0.621522  1
  Lu  Lu9  1  0.209589  0.586958  0.122083  1
  Lu  Lu10  1  0.790871  0.413366  0.122584  1
  Lu  Lu11  1  0.791000  0.588634  0.621350  1
  Lu  Lu12  1  0.910896  0.708563  0.122141  1
  Lu  Lu13  1  0.912188  0.291382  0.622399  1
  Lu  Lu14  1  0.089357  0.708411  0.622242  1
  Lu  Lu15  1  0.089296  0.291680  0.122410  1
  Lu  Lu16  1  0.999814  0.999921  0.499887  1
  Lu  Lu17  1  0.000079  0.000186  0.000113  1
  Lu  Lu18  1  0.499790  0.499982  0.999980  1
  Lu  Lu19  1  0.500018  0.500210  0.500020  1
  Ir  Ir20  1  0.654531  0.653815  0.249974  1
  Ir  Ir21  1  0.346185  0.345469  0.250026  1
  Ir  Ir22  1  0.345531  0.654469  0.750000  1
  Rh  Rh23  1  0.846008  0.153992  0.250000  1
  Rh  Rh24  1  0.846556  0.846910  0.750141  1
  Rh  Rh25  1  0.153090  0.153444  0.749859  1
  Rh  Rh26  1  0.153294  0.846706  0.250000  1
  Rh  Rh27  1  0.654732  0.345268  0.750000  1
  Rh  Rh28  1  0.500201  0.000473  0.125114  1
  Rh  Rh29  1  0.500292  0.000555  0.625737  1
  Rh  Rh30  1  0.999445  0.499708  0.874263  1
  Rh  Rh31  1  0.999527  0.499799  0.374886  1
