# generated using pymatgen
data_NdTmAlZnPt2
_symmetry_space_group_name_H-M   'P 1'
_cell_length_a   4.35804600
_cell_length_b   6.93137600
_cell_length_c   7.99809800
_cell_angle_alpha   90.00000000
_cell_angle_beta   90.00000000
_cell_angle_gamma   90.00000000
_symmetry_Int_Tables_number   1
_chemical_formula_structural   NdTmAlZnPt2
_chemical_formula_sum   'Nd2 Tm2 Al2 Zn2 Pt4'
_cell_volume   241.60058941
_cell_formula_units_Z   2
loop_
 _symmetry_equiv_pos_site_id
 _symmetry_equiv_pos_as_xyz
  1  'x, y, z'
loop_
 _atom_site_type_symbol
 _atom_site_label
 _atom_site_symmetry_multiplicity
 _atom_site_fract_x
 _atom_site_fract_y
 _atom_site_fract_z
 _atom_site_occupancy
  Nd  Nd0  1  0.750000  0.968702  0.320828  1
  Nd  Nd1  1  0.750000  0.468702  0.179172  1
  Tm  Tm2  1  0.250000  0.028623  0.691195  1
  Tm  Tm3  1  0.250000  0.528623  0.808805  1
  Al  Al4  1  0.750000  0.859102  0.934749  1
  Al  Al5  1  0.750000  0.359102  0.565251  1
  Zn  Zn6  1  0.250000  0.150635  0.063277  1
  Zn  Zn7  1  0.250000  0.650635  0.436723  1
  Pt  Pt8  1  0.250000  0.263410  0.403219  1
  Pt  Pt9  1  0.250000  0.763410  0.096781  1
  Pt  Pt10  1  0.750000  0.729529  0.631612  1
  Pt  Pt11  1  0.750000  0.229529  0.868388  1
