# generated using pymatgen
data_LiTb8InCo2
_symmetry_space_group_name_H-M   'P 1'
_cell_length_a   9.54776434
_cell_length_b   9.54776470
_cell_length_c   9.56281000
_cell_angle_alpha   59.94785255
_cell_angle_beta   59.94785129
_cell_angle_gamma   60.04235711
_symmetry_Int_Tables_number   1
_chemical_formula_structural   LiTb8InCo2
_chemical_formula_sum   'Li2 Tb16 In2 Co4'
_cell_volume   616.12633165
_cell_formula_units_Z   2
loop_
 _symmetry_equiv_pos_site_id
 _symmetry_equiv_pos_as_xyz
  1  'x, y, z'
loop_
 _atom_site_type_symbol
 _atom_site_label
 _atom_site_symmetry_multiplicity
 _atom_site_fract_x
 _atom_site_fract_y
 _atom_site_fract_z
 _atom_site_occupancy
  Li  Li0  1  0.821750  0.821750  0.530463  1
  Li  Li1  1  0.821750  0.821750  0.826035  1
  Tb  Tb2  1  0.441485  0.441485  0.058515  1
  Tb  Tb3  1  0.595630  0.595630  0.598862  1
  Tb  Tb4  1  0.188618  0.810867  0.811539  1
  Tb  Tb5  1  0.066725  0.066725  0.433275  1
  Tb  Tb6  1  0.438314  0.062280  0.060151  1
  Tb  Tb7  1  0.810867  0.188618  0.811539  1
  Tb  Tb8  1  0.438314  0.062280  0.439255  1
  Tb  Tb9  1  0.595357  0.215216  0.594714  1
  Tb  Tb10  1  0.809163  0.809163  0.190837  1
  Tb  Tb11  1  0.215216  0.595357  0.594714  1
  Tb  Tb12  1  0.810867  0.188618  0.188976  1
  Tb  Tb13  1  0.062280  0.438314  0.439255  1
  Tb  Tb14  1  0.188618  0.810867  0.188976  1
  Tb  Tb15  1  0.595630  0.595630  0.209878  1
  Tb  Tb16  1  0.188593  0.188593  0.811407  1
  Tb  Tb17  1  0.062280  0.438314  0.060151  1
  In  In18  1  0.507328  0.833920  0.829375  1
  In  In19  1  0.833920  0.507328  0.829375  1
  Co  Co20  1  0.392657  0.392657  0.387555  1
  Co  Co21  1  0.828482  0.393501  0.389009  1
  Co  Co22  1  0.393501  0.828482  0.389009  1
  Co  Co23  1  0.392657  0.392657  0.827132  1
