# generated using pymatgen
data_Lu12Co8Si7As
_symmetry_space_group_name_H-M   'P 1'
_cell_length_a   5.40905005
_cell_length_b   7.45136007
_cell_length_c   12.36320600
_cell_angle_alpha   90.00000000
_cell_angle_beta   90.00000000
_cell_angle_gamma   89.98394131
_symmetry_Int_Tables_number   1
_chemical_formula_structural   Lu12Co8Si7As
_chemical_formula_sum   'Lu12 Co8 Si7 As1'
_cell_volume   498.29627340
_cell_formula_units_Z   1
loop_
 _symmetry_equiv_pos_site_id
 _symmetry_equiv_pos_as_xyz
  1  'x, y, z'
loop_
 _atom_site_type_symbol
 _atom_site_label
 _atom_site_symmetry_multiplicity
 _atom_site_fract_x
 _atom_site_fract_y
 _atom_site_fract_z
 _atom_site_occupancy
  Lu  Lu0  1  0.624774  0.255020  0.250000  1
  Lu  Lu1  1  0.370747  0.746110  0.750000  1
  Lu  Lu2  1  0.376107  0.752505  0.250000  1
  Lu  Lu3  1  0.627265  0.246630  0.750000  1
  Lu  Lu4  1  0.143637  0.400749  0.099164  1
  Lu  Lu5  1  0.856508  0.603696  0.897589  1
  Lu  Lu6  1  0.856508  0.603696  0.602411  1
  Lu  Lu7  1  0.858141  0.892959  0.399560  1
  Lu  Lu8  1  0.143637  0.400749  0.400836  1
  Lu  Lu9  1  0.140816  0.103596  0.601921  1
  Lu  Lu10  1  0.140816  0.103596  0.898079  1
  Lu  Lu11  1  0.858141  0.892959  0.100440  1
  Co  Co12  1  0.369475  0.030024  0.086657  1
  Co  Co13  1  0.634043  0.969466  0.912943  1
  Co  Co14  1  0.634043  0.969466  0.587057  1
  Co  Co15  1  0.635334  0.529457  0.411342  1
  Co  Co16  1  0.369475  0.030024  0.413343  1
  Co  Co17  1  0.365087  0.469374  0.588355  1
  Co  Co18  1  0.365087  0.469374  0.911645  1
  Co  Co19  1  0.635334  0.529457  0.088658  1
  Si  Si20  1  0.850784  0.897484  0.750000  1
  Si  Si21  1  0.856511  0.602188  0.250000  1
  Si  Si22  1  0.145994  0.396293  0.750000  1
  Si  Si23  1  0.618488  0.250149  0.999961  1
  Si  Si24  1  0.382537  0.749490  0.000112  1
  Si  Si25  1  0.382537  0.749490  0.499888  1
  Si  Si26  1  0.618488  0.250149  0.500039  1
  As  As27  1  0.139685  0.105850  0.250000  1
