# generated using pymatgen
data_Cr6Ga6IrRu11
_symmetry_space_group_name_H-M   'P 1'
_cell_length_a   4.25025400
_cell_length_b   6.01962400
_cell_length_c   12.70295700
_cell_angle_alpha   90.00000000
_cell_angle_beta   90.00077883
_cell_angle_gamma   90.00000000
_symmetry_Int_Tables_number   1
_chemical_formula_structural   Cr6Ga6IrRu11
_chemical_formula_sum   'Cr6 Ga6 Ir1 Ru11'
_cell_volume   325.00427813
_cell_formula_units_Z   1
loop_
 _symmetry_equiv_pos_site_id
 _symmetry_equiv_pos_as_xyz
  1  'x, y, z'
loop_
 _atom_site_type_symbol
 _atom_site_label
 _atom_site_symmetry_multiplicity
 _atom_site_fract_x
 _atom_site_fract_y
 _atom_site_fract_z
 _atom_site_occupancy
  Cr  Cr0  1  0.000000  0.994240  0.000000  1
  Cr  Cr1  1  0.499728  0.502538  0.169108  1
  Cr  Cr2  1  0.999740  0.000343  0.333969  1
  Cr  Cr3  1  0.500000  0.500024  0.500000  1
  Cr  Cr4  1  0.000259  0.000343  0.666031  1
  Cr  Cr5  1  0.500274  0.502538  0.830892  1
  Ga  Ga6  1  0.000000  0.501772  0.000000  1
  Ga  Ga7  1  0.499728  0.999270  0.167600  1
  Ga  Ga8  1  0.999733  0.499577  0.333119  1
  Ga  Ga9  1  0.500000  0.000555  0.500000  1
  Ga  Ga10  1  0.000266  0.499577  0.666881  1
  Ga  Ga11  1  0.500271  0.999270  0.832400  1
  Ir  Ir12  1  0.500000  0.249719  0.000000  1
  Ru  Ru13  1  0.500000  0.750982  0.000000  1
  Ru  Ru14  1  0.999743  0.249980  0.166038  1
  Ru  Ru15  1  0.999736  0.749682  0.166965  1
  Ru  Ru16  1  0.499753  0.249778  0.333262  1
  Ru  Ru17  1  0.499761  0.750192  0.333779  1
  Ru  Ru18  1  0.000000  0.250479  0.500000  1
  Ru  Ru19  1  0.000000  0.749511  0.500000  1
  Ru  Ru20  1  0.500246  0.249778  0.666738  1
  Ru  Ru21  1  0.500238  0.750192  0.666221  1
  Ru  Ru22  1  0.000259  0.249980  0.833962  1
  Ru  Ru23  1  0.000266  0.749682  0.833035  1
