# generated using pymatgen
data_SrNd2Y(Ir2O7)2
_symmetry_space_group_name_H-M   'P 1'
_cell_length_a   7.37304463
_cell_length_b   7.37950520
_cell_length_c   7.41557500
_cell_angle_alpha   59.83817509
_cell_angle_beta   59.80899555
_cell_angle_gamma   59.74494668
_symmetry_Int_Tables_number   1
_chemical_formula_structural   SrNd2Y(Ir2O7)2
_chemical_formula_sum   'Sr1 Nd2 Y1 Ir4 O14'
_cell_volume   283.98867195
_cell_formula_units_Z   1
loop_
 _symmetry_equiv_pos_site_id
 _symmetry_equiv_pos_as_xyz
  1  'x, y, z'
loop_
 _atom_site_type_symbol
 _atom_site_label
 _atom_site_symmetry_multiplicity
 _atom_site_fract_x
 _atom_site_fract_y
 _atom_site_fract_z
 _atom_site_occupancy
  Sr  Sr0  1  0.125000  0.625000  0.125000  1
  Nd  Nd1  1  0.125000  0.125000  0.625000  1
  Nd  Nd2  1  0.125000  0.125000  0.125000  1
  Y  Y3  1  0.625000  0.125000  0.125000  1
  Ir  Ir4  1  0.125000  0.625000  0.625000  1
  Ir  Ir5  1  0.625000  0.125000  0.625000  1
  Ir  Ir6  1  0.625000  0.625000  0.125000  1
  Ir  Ir7  1  0.625000  0.625000  0.625000  1
  O  O8  1  0.688853  0.717826  0.296660  1
  O  O9  1  0.295008  0.292893  0.706050  1
  O  O10  1  0.699819  0.293174  0.711731  1
  O  O11  1  0.297362  0.709643  0.297213  1
  O  O12  1  0.297362  0.709643  0.695782  1
  O  O13  1  0.699819  0.293174  0.295275  1
  O  O14  1  0.561147  0.532174  0.953340  1
  O  O15  1  0.954992  0.957107  0.543950  1
  O  O16  1  0.550181  0.956826  0.538269  1
  O  O17  1  0.952638  0.540357  0.952787  1
  O  O18  1  0.952638  0.540357  0.554218  1
  O  O19  1  0.550181  0.956826  0.954725  1
  O  O20  1  0.264578  0.234214  0.250604  1
  O  O21  1  0.985422  0.015786  0.999396  1
