# generated using pymatgen
data_Lu8VOs3C8
_symmetry_space_group_name_H-M   'P 1'
_cell_length_a   4.95508600
_cell_length_b   6.43303078
_cell_length_c   9.62224009
_cell_angle_alpha   90.13942621
_cell_angle_beta   90.00000000
_cell_angle_gamma   90.00000000
_symmetry_Int_Tables_number   1
_chemical_formula_structural   Lu8VOs3C8
_chemical_formula_sum   'Lu8 V1 Os3 C8'
_cell_volume   306.71974129
_cell_formula_units_Z   1
loop_
 _symmetry_equiv_pos_site_id
 _symmetry_equiv_pos_as_xyz
  1  'x, y, z'
loop_
 _atom_site_type_symbol
 _atom_site_label
 _atom_site_symmetry_multiplicity
 _atom_site_fract_x
 _atom_site_fract_y
 _atom_site_fract_z
 _atom_site_occupancy
  Lu  Lu0  1  0.250000  0.829547  0.940537  1
  Lu  Lu1  1  0.250000  0.321907  0.560873  1
  Lu  Lu2  1  0.750000  0.175107  0.056926  1
  Lu  Lu3  1  0.750000  0.674596  0.441972  1
  Lu  Lu4  1  0.250000  0.462862  0.214282  1
  Lu  Lu5  1  0.250000  0.966761  0.281963  1
  Lu  Lu6  1  0.750000  0.536889  0.780054  1
  Lu  Lu7  1  0.750000  0.030334  0.716662  1
  V  V8  1  0.250000  0.282971  0.869735  1
  Os  Os9  1  0.250000  0.780769  0.631186  1
  Os  Os10  1  0.750000  0.715784  0.130874  1
  Os  Os11  1  0.750000  0.216011  0.368287  1
  C  C12  1  0.250000  0.051412  0.741179  1
  C  C13  1  0.250000  0.547701  0.763254  1
  C  C14  1  0.750000  0.949846  0.259141  1
  C  C15  1  0.750000  0.450617  0.242029  1
  C  C16  1  0.250000  0.672967  0.444185  1
  C  C17  1  0.250000  0.176298  0.055630  1
  C  C18  1  0.750000  0.328210  0.555595  1
  C  C19  1  0.750000  0.829410  0.945637  1
