# generated using pymatgen
data_Y3Er2(CoB3)2
_symmetry_space_group_name_H-M   'P 1'
_cell_length_a   5.40478601
_cell_length_b   5.40478561
_cell_length_c   8.35747452
_cell_angle_alpha   71.13434196
_cell_angle_beta   71.13434480
_cell_angle_gamma   59.99999276
_symmetry_Int_Tables_number   1
_chemical_formula_structural   Y3Er2(CoB3)2
_chemical_formula_sum   'Y3 Er2 Co2 B6'
_cell_volume   196.13788756
_cell_formula_units_Z   1
loop_
 _symmetry_equiv_pos_site_id
 _symmetry_equiv_pos_as_xyz
  1  'x, y, z'
loop_
 _atom_site_type_symbol
 _atom_site_label
 _atom_site_symmetry_multiplicity
 _atom_site_fract_x
 _atom_site_fract_y
 _atom_site_fract_z
 _atom_site_occupancy
  Y  Y0  1  0.000000  0.000000  0.000000  1
  Y  Y1  1  0.251647  0.251647  0.245059  1
  Y  Y2  1  0.748353  0.748353  0.754941  1
  Er  Er3  1  0.417517  0.417517  0.747450  1
  Er  Er4  1  0.582483  0.582483  0.252550  1
  Co  Co5  1  0.119674  0.119674  0.640979  1
  Co  Co6  1  0.880326  0.880326  0.359021  1
  B  B7  1  0.168739  0.831261  0.500000  1
  B  B8  1  0.831261  0.500000  0.500000  1
  B  B9  1  0.500000  0.168739  0.500000  1
  B  B10  1  0.168739  0.500000  0.500000  1
  B  B11  1  0.500000  0.831261  0.500000  1
  B  B12  1  0.831261  0.168739  0.500000  1
