# generated using pymatgen
data_Ac(Cr3S4)2
_symmetry_space_group_name_H-M   'P 1'
_cell_length_a   6.25472579
_cell_length_b   6.25472628
_cell_length_c   6.25472600
_cell_angle_alpha   88.65091520
_cell_angle_beta   88.65090593
_cell_angle_gamma   88.65089492
_symmetry_Int_Tables_number   1
_chemical_formula_structural   Ac(Cr3S4)2
_chemical_formula_sum   'Ac1 Cr6 S8'
_cell_volume   244.49452794
_cell_formula_units_Z   1
loop_
 _symmetry_equiv_pos_site_id
 _symmetry_equiv_pos_as_xyz
  1  'x, y, z'
loop_
 _atom_site_type_symbol
 _atom_site_label
 _atom_site_symmetry_multiplicity
 _atom_site_fract_x
 _atom_site_fract_y
 _atom_site_fract_z
 _atom_site_occupancy
  Ac  Ac0  1  0.000000  0.000000  0.000000  1
  Cr  Cr1  1  0.764689  0.581876  0.434125  1
  Cr  Cr2  1  0.434125  0.764689  0.581876  1
  Cr  Cr3  1  0.581876  0.434125  0.764689  1
  Cr  Cr4  1  0.235311  0.418124  0.565875  1
  Cr  Cr5  1  0.565876  0.235311  0.418124  1
  Cr  Cr6  1  0.418124  0.565875  0.235311  1
  S  S7  1  0.745583  0.745583  0.745583  1
  S  S8  1  0.254417  0.254417  0.254417  1
  S  S9  1  0.262815  0.609563  0.875660  1
  S  S10  1  0.875660  0.262815  0.609563  1
  S  S11  1  0.609563  0.875660  0.262815  1
  S  S12  1  0.737185  0.390437  0.124340  1
  S  S13  1  0.124340  0.737185  0.390437  1
  S  S14  1  0.390437  0.124340  0.737185  1
