# generated using pymatgen
data_Co4SiMo6AsC2
_symmetry_space_group_name_H-M   'P 1'
_cell_length_a   7.86961513
_cell_length_b   7.85624846
_cell_length_c   7.86961526
_cell_angle_alpha   60.05616761
_cell_angle_beta   60.12325119
_cell_angle_gamma   60.05616507
_symmetry_Int_Tables_number   1
_chemical_formula_structural   Co4SiMo6AsC2
_chemical_formula_sum   'Co8 Si2 Mo12 As2 C4'
_cell_volume   344.65054388
_cell_formula_units_Z   2
loop_
 _symmetry_equiv_pos_site_id
 _symmetry_equiv_pos_as_xyz
  1  'x, y, z'
loop_
 _atom_site_type_symbol
 _atom_site_label
 _atom_site_symmetry_multiplicity
 _atom_site_fract_x
 _atom_site_fract_y
 _atom_site_fract_z
 _atom_site_occupancy
  Co  Co0  1  0.916312  0.245140  0.916312  1
  Co  Co1  1  0.337145  0.330647  0.001561  1
  Co  Co2  1  0.001561  0.330647  0.337145  1
  Co  Co3  1  0.333688  0.327764  0.333688  1
  Co  Co4  1  0.248439  0.919353  0.912855  1
  Co  Co5  1  0.916312  0.922236  0.916312  1
  Co  Co6  1  0.912855  0.919353  0.248439  1
  Co  Co7  1  0.333688  0.004860  0.333688  1
  Si  Si8  1  0.125000  0.125000  0.625000  1
  Si  Si9  1  0.625000  0.125000  0.125000  1
  Mo  Mo10  1  0.942624  0.943059  0.559175  1
  Mo  Mo11  1  0.690825  0.306941  0.307376  1
  Mo  Mo12  1  0.307376  0.694858  0.690825  1
  Mo  Mo13  1  0.690825  0.694858  0.307376  1
  Mo  Mo14  1  0.695009  0.304991  0.695009  1
  Mo  Mo15  1  0.309209  0.690791  0.309209  1
  Mo  Mo16  1  0.554991  0.945009  0.554991  1
  Mo  Mo17  1  0.559175  0.943059  0.942624  1
  Mo  Mo18  1  0.942624  0.555142  0.559175  1
  Mo  Mo19  1  0.940791  0.559209  0.940791  1
  Mo  Mo20  1  0.307376  0.306941  0.690825  1
  Mo  Mo21  1  0.559175  0.555142  0.942624  1
  As  As22  1  0.125000  0.625000  0.125000  1
  As  As23  1  0.125000  0.125000  0.125000  1
  C  C24  1  0.625000  0.125000  0.625000  1
  C  C25  1  0.625000  0.625000  0.125000  1
  C  C26  1  0.125000  0.625000  0.625000  1
  C  C27  1  0.625000  0.625000  0.625000  1
