# generated using pymatgen
data_Tm11LuIn2GaFe2
_symmetry_space_group_name_H-M   'P 1'
_cell_length_a   8.27729313
_cell_length_b   8.27729389
_cell_length_c   8.28072668
_cell_angle_alpha   109.70472691
_cell_angle_beta   109.70472184
_cell_angle_gamma   108.98826649
_symmetry_Int_Tables_number   1
_chemical_formula_structural   Tm11LuIn2GaFe2
_chemical_formula_sum   'Tm11 Lu1 In2 Ga1 Fe2'
_cell_volume   436.80918930
_cell_formula_units_Z   1
loop_
 _symmetry_equiv_pos_site_id
 _symmetry_equiv_pos_as_xyz
  1  'x, y, z'
loop_
 _atom_site_type_symbol
 _atom_site_label
 _atom_site_symmetry_multiplicity
 _atom_site_fract_x
 _atom_site_fract_y
 _atom_site_fract_z
 _atom_site_occupancy
  Tm  Tm0  1  0.446421  0.202517  0.243409  1
  Tm  Tm1  1  0.554580  0.798538  0.756604  1
  Tm  Tm2  1  0.958065  0.202023  0.756604  1
  Tm  Tm3  1  0.203012  0.959108  0.756591  1
  Tm  Tm4  1  0.040892  0.796988  0.243409  1
  Tm  Tm5  1  0.797977  0.041935  0.243396  1
  Tm  Tm6  1  0.201462  0.445420  0.243396  1
  Tm  Tm7  1  0.797483  0.553579  0.756591  1
  Tm  Tm8  1  0.306341  0.306119  0.612461  1
  Tm  Tm9  1  0.693881  0.693659  0.387539  1
  Tm  Tm10  1  0.306299  0.693701  0.000000  1
  Lu  Lu11  1  0.693106  0.306894  0.000000  1
  In  In12  1  0.499953  0.000380  0.500333  1
  In  In13  1  0.999620  0.500047  0.499667  1
  Ga  Ga14  1  0.000628  0.999372  0.000000  1
  Fe  Fe15  1  0.386519  0.386239  0.000000  1
  Fe  Fe16  1  0.613761  0.613481  0.000000  1
