# generated using pymatgen
data_Tm5Sc3Re3B24Ru
_symmetry_space_group_name_H-M   'P 1'
_cell_length_a   3.57969800
_cell_length_b   9.00026976
_cell_length_c   11.36871767
_cell_angle_alpha   90.06279737
_cell_angle_beta   90.00000000
_cell_angle_gamma   90.00000000
_symmetry_Int_Tables_number   1
_chemical_formula_structural   Tm5Sc3Re3B24Ru
_chemical_formula_sum   'Tm5 Sc3 Re3 B24 Ru1'
_cell_volume   366.27994143
_cell_formula_units_Z   1
loop_
 _symmetry_equiv_pos_site_id
 _symmetry_equiv_pos_as_xyz
  1  'x, y, z'
loop_
 _atom_site_type_symbol
 _atom_site_label
 _atom_site_symmetry_multiplicity
 _atom_site_fract_x
 _atom_site_fract_y
 _atom_site_fract_z
 _atom_site_occupancy
  Tm  Tm0  1  0.000000  0.321694  0.414692  1
  Tm  Tm1  1  0.000000  0.677768  0.587807  1
  Tm  Tm2  1  0.000000  0.822113  0.083541  1
  Tm  Tm3  1  0.000000  0.178445  0.913361  1
  Tm  Tm4  1  0.000000  0.943503  0.371677  1
  Sc  Sc5  1  0.000000  0.056256  0.631506  1
  Sc  Sc6  1  0.000000  0.443744  0.127819  1
  Sc  Sc7  1  0.000000  0.556228  0.870957  1
  Re  Re8  1  0.000000  0.360834  0.681322  1
  Re  Re9  1  0.000000  0.142370  0.179377  1
  Re  Re10  1  0.000000  0.859874  0.819715  1
  B  B11  1  0.500000  0.552936  0.432738  1
  B  B12  1  0.500000  0.445783  0.566852  1
  B  B13  1  0.500000  0.054589  0.065778  1
  B  B14  1  0.500000  0.945963  0.933156  1
  B  B15  1  0.500000  0.748913  0.418643  1
  B  B16  1  0.500000  0.246312  0.582002  1
  B  B17  1  0.500000  0.254733  0.079874  1
  B  B18  1  0.500000  0.746146  0.919114  1
  B  B19  1  0.500000  0.791305  0.263587  1
  B  B20  1  0.500000  0.205478  0.736197  1
  B  B21  1  0.500000  0.296188  0.234609  1
  B  B22  1  0.500000  0.705145  0.765063  1
  B  B23  1  0.500000  0.628546  0.182322  1
  B  B24  1  0.500000  0.371424  0.817291  1
  B  B25  1  0.500000  0.132187  0.315976  1
  B  B26  1  0.500000  0.870481  0.683758  1
  B  B27  1  0.500000  0.982068  0.211529  1
  B  B28  1  0.500000  0.018977  0.786955  1
  B  B29  1  0.500000  0.481192  0.286035  1
  B  B30  1  0.500000  0.519598  0.713762  1
  B  B31  1  0.500000  0.597173  0.026614  1
  B  B32  1  0.500000  0.403812  0.973288  1
  B  B33  1  0.500000  0.099494  0.475499  1
  B  B34  1  0.500000  0.901643  0.529473  1
  Ru  Ru35  1  0.000000  0.637086  0.318111  1
