# generated using pymatgen
data_DyHo6CoSn23Os5
_symmetry_space_group_name_H-M   'P 1'
_cell_length_a   9.81748566
_cell_length_b   9.81748625
_cell_length_c   10.08809720
_cell_angle_alpha   89.92431396
_cell_angle_beta   90.07568521
_cell_angle_gamma   119.91975679
_symmetry_Int_Tables_number   1
_chemical_formula_structural   DyHo6CoSn23Os5
_chemical_formula_sum   'Dy1 Ho6 Co1 Sn23 Os5'
_cell_volume   842.73408097
_cell_formula_units_Z   1
loop_
 _symmetry_equiv_pos_site_id
 _symmetry_equiv_pos_as_xyz
  1  'x, y, z'
loop_
 _atom_site_type_symbol
 _atom_site_label
 _atom_site_symmetry_multiplicity
 _atom_site_fract_x
 _atom_site_fract_y
 _atom_site_fract_z
 _atom_site_occupancy
  Dy  Dy0  1  0.006011  0.993989  0.991811  1
  Ho  Ho1  1  0.514723  0.485277  0.698309  1
  Ho  Ho2  1  0.514887  0.029952  0.697737  1
  Ho  Ho3  1  0.970048  0.485113  0.697737  1
  Ho  Ho4  1  0.031901  0.517594  0.303965  1
  Ho  Ho5  1  0.482406  0.968099  0.303965  1
  Ho  Ho6  1  0.483722  0.516278  0.302700  1
  Co  Co7  1  0.828639  0.171361  0.200702  1
  Sn  Sn8  1  0.667968  0.332032  0.178773  1
  Sn  Sn9  1  0.666926  0.333074  0.871890  1
  Sn  Sn10  1  0.333042  0.666958  0.129284  1
  Sn  Sn11  1  0.350160  0.349985  0.000168  1
  Sn  Sn12  1  0.998768  0.646883  0.000372  1
  Sn  Sn13  1  0.655314  0.002479  0.005766  1
  Sn  Sn14  1  0.650015  0.649840  0.000168  1
  Sn  Sn15  1  0.333073  0.666927  0.824969  1
  Sn  Sn16  1  0.439848  0.220508  0.462578  1
  Sn  Sn17  1  0.220109  0.779891  0.538948  1
  Sn  Sn18  1  0.219905  0.439808  0.537752  1
  Sn  Sn19  1  0.560192  0.780095  0.537752  1
  Sn  Sn20  1  0.118070  0.881930  0.275271  1
  Sn  Sn21  1  0.779492  0.560152  0.462578  1
  Sn  Sn22  1  0.781614  0.218386  0.456086  1
  Sn  Sn23  1  0.353117  0.001232  0.000372  1
  Sn  Sn24  1  0.109974  0.232419  0.272868  1
  Sn  Sn25  1  0.767581  0.890026  0.272868  1
  Sn  Sn26  1  0.235649  0.118793  0.721383  1
  Sn  Sn27  1  0.881207  0.764351  0.721383  1
  Sn  Sn28  1  0.881594  0.118406  0.724376  1
  Sn  Sn29  1  0.999564  0.000436  0.498275  1
  Sn  Sn30  1  0.997521  0.344686  0.005766  1
  Os  Os31  1  0.168920  0.831080  0.800285  1
  Os  Os32  1  0.168510  0.339962  0.799302  1
  Os  Os33  1  0.660038  0.831490  0.799302  1
  Os  Os34  1  0.339742  0.170247  0.202268  1
  Os  Os35  1  0.829753  0.660258  0.202268  1
