# generated using pymatgen
data_Ti10Pt6O
_symmetry_space_group_name_H-M   'P 1'
_cell_length_a   7.82378200
_cell_length_b   7.82378066
_cell_length_c   4.97650300
_cell_angle_alpha   90.00000000
_cell_angle_beta   90.00000000
_cell_angle_gamma   119.99999719
_symmetry_Int_Tables_number   1
_chemical_formula_structural   Ti10Pt6O
_chemical_formula_sum   'Ti10 Pt6 O1'
_cell_volume   263.80821888
_cell_formula_units_Z   1
loop_
 _symmetry_equiv_pos_site_id
 _symmetry_equiv_pos_as_xyz
  1  'x, y, z'
loop_
 _atom_site_type_symbol
 _atom_site_label
 _atom_site_symmetry_multiplicity
 _atom_site_fract_x
 _atom_site_fract_y
 _atom_site_fract_z
 _atom_site_occupancy
  Ti  Ti0  1  0.666667  0.333333  0.500000  1
  Ti  Ti1  1  0.333333  0.666667  0.500000  1
  Ti  Ti2  1  0.333333  0.666667  0.000000  1
  Ti  Ti3  1  0.666667  0.333333  0.000000  1
  Ti  Ti4  1  0.764647  0.764647  0.253564  1
  Ti  Ti5  1  0.235353  0.000000  0.253564  1
  Ti  Ti6  1  0.000000  0.235353  0.253564  1
  Ti  Ti7  1  0.235353  0.235353  0.746436  1
  Ti  Ti8  1  0.764647  0.000000  0.746436  1
  Ti  Ti9  1  0.000000  0.764647  0.746436  1
  Pt  Pt10  1  0.401491  0.401491  0.248207  1
  Pt  Pt11  1  0.598509  0.000000  0.248207  1
  Pt  Pt12  1  0.000000  0.598509  0.248207  1
  Pt  Pt13  1  0.598509  0.598509  0.751793  1
  Pt  Pt14  1  0.401491  0.000000  0.751793  1
  Pt  Pt15  1  0.000000  0.401491  0.751793  1
  O  O16  1  0.000000  0.000000  0.500000  1
