# generated using pymatgen
data_Yb2CuH6
_symmetry_space_group_name_H-M   'P 1'
_cell_length_a   6.73183828
_cell_length_b   6.73183894
_cell_length_c   5.09050500
_cell_angle_alpha   90.00000000
_cell_angle_beta   90.00000000
_cell_angle_gamma   135.51325512
_symmetry_Int_Tables_number   1
_chemical_formula_structural   Yb2CuH6
_chemical_formula_sum   'Yb4 Cu2 H12'
_cell_volume   161.65449882
_cell_formula_units_Z   2
loop_
 _symmetry_equiv_pos_site_id
 _symmetry_equiv_pos_as_xyz
  1  'x, y, z'
loop_
 _atom_site_type_symbol
 _atom_site_label
 _atom_site_symmetry_multiplicity
 _atom_site_fract_x
 _atom_site_fract_y
 _atom_site_fract_z
 _atom_site_occupancy
  Yb  Yb0  1  0.146610  0.853390  0.500000  1
  Yb  Yb1  1  0.646610  0.353390  0.000000  1
  Yb  Yb2  1  0.853390  0.146610  0.500000  1
  Yb  Yb3  1  0.353390  0.646610  0.000000  1
  Cu  Cu4  1  0.500000  0.500000  0.500000  1
  Cu  Cu5  1  0.000000  0.000000  0.000000  1
  H  H6  1  0.999984  0.499984  0.750000  1
  H  H7  1  0.500016  0.000016  0.250000  1
  H  H8  1  0.000016  0.500016  0.250000  1
  H  H9  1  0.499984  0.999984  0.750000  1
  H  H10  1  0.371759  0.628241  0.500000  1
  H  H11  1  0.871759  0.128241  0.000000  1
  H  H12  1  0.628241  0.371759  0.500000  1
  H  H13  1  0.128241  0.871759  0.000000  1
  H  H14  1  0.249153  0.249153  0.751104  1
  H  H15  1  0.750847  0.750847  0.248896  1
  H  H16  1  0.250847  0.250847  0.251104  1
  H  H17  1  0.749153  0.749153  0.748896  1
