# generated using pymatgen
data_Tm2Mn7Si4Os
_symmetry_space_group_name_H-M   'P 1'
_cell_length_a   6.66575287
_cell_length_b   7.41827611
_cell_length_c   3.90326400
_cell_angle_alpha   90.00000000
_cell_angle_beta   90.00000000
_cell_angle_gamma   90.08615601
_symmetry_Int_Tables_number   1
_chemical_formula_structural   Tm2Mn7Si4Os
_chemical_formula_sum   'Tm2 Mn7 Si4 Os1'
_cell_volume   193.00992297
_cell_formula_units_Z   1
loop_
 _symmetry_equiv_pos_site_id
 _symmetry_equiv_pos_as_xyz
  1  'x, y, z'
loop_
 _atom_site_type_symbol
 _atom_site_label
 _atom_site_symmetry_multiplicity
 _atom_site_fract_x
 _atom_site_fract_y
 _atom_site_fract_z
 _atom_site_occupancy
  Tm  Tm0  1  0.500835  0.500330  0.000000  1
  Tm  Tm1  1  0.002447  0.999234  0.500000  1
  Mn  Mn2  1  0.151205  0.612352  0.500000  1
  Mn  Mn3  1  0.640112  0.888440  0.000000  1
  Mn  Mn4  1  0.355219  0.111281  0.000000  1
  Mn  Mn5  1  0.564019  0.150849  0.500000  1
  Mn  Mn6  1  0.432216  0.848408  0.500000  1
  Mn  Mn7  1  0.934178  0.650608  0.000000  1
  Mn  Mn8  1  0.072161  0.345130  0.000000  1
  Si  Si9  1  0.263832  0.308100  0.500000  1
  Si  Si10  1  0.738111  0.699078  0.500000  1
  Si  Si11  1  0.237407  0.808323  0.000000  1
  Si  Si12  1  0.760292  0.186713  0.000000  1
  Os  Os13  1  0.847965  0.391152  0.500000  1
