# generated using pymatgen
data_Zr5SnBi2Au
_symmetry_space_group_name_H-M   'P 1'
_cell_length_a   8.88155615
_cell_length_b   8.88155657
_cell_length_c   5.98121100
_cell_angle_alpha   90.00000000
_cell_angle_beta   90.00000000
_cell_angle_gamma   119.88436354
_symmetry_Int_Tables_number   1
_chemical_formula_structural   Zr5SnBi2Au
_chemical_formula_sum   'Zr10 Sn2 Bi4 Au2'
_cell_volume   409.07485185
_cell_formula_units_Z   2
loop_
 _symmetry_equiv_pos_site_id
 _symmetry_equiv_pos_as_xyz
  1  'x, y, z'
loop_
 _atom_site_type_symbol
 _atom_site_label
 _atom_site_symmetry_multiplicity
 _atom_site_fract_x
 _atom_site_fract_y
 _atom_site_fract_z
 _atom_site_occupancy
  Zr  Zr0  1  0.667396  0.330569  0.003602  1
  Zr  Zr1  1  0.330569  0.667396  0.003602  1
  Zr  Zr2  1  0.330569  0.667396  0.496398  1
  Zr  Zr3  1  0.667396  0.330569  0.496398  1
  Zr  Zr4  1  0.727594  0.727594  0.750000  1
  Zr  Zr5  1  0.271721  0.998244  0.750000  1
  Zr  Zr6  1  0.998244  0.271721  0.750000  1
  Zr  Zr7  1  0.274291  0.274291  0.250000  1
  Zr  Zr8  1  0.725806  0.006572  0.250000  1
  Zr  Zr9  1  0.006572  0.725806  0.250000  1
  Sn  Sn10  1  0.382282  0.001227  0.250000  1
  Sn  Sn11  1  0.001227  0.382282  0.250000  1
  Bi  Bi12  1  0.384035  0.384035  0.750000  1
  Bi  Bi13  1  0.613634  0.998628  0.750000  1
  Bi  Bi14  1  0.998628  0.613634  0.750000  1
  Bi  Bi15  1  0.619285  0.619285  0.250000  1
  Au  Au16  1  0.000377  0.000377  0.003692  1
  Au  Au17  1  0.000377  0.000377  0.496308  1
