# generated using pymatgen
data_SrNd2Ga8Ag3
_symmetry_space_group_name_H-M   'P 1'
_cell_length_a   4.45182619
_cell_length_b   8.60912600
_cell_length_c   8.60912703
_cell_angle_alpha   68.49857052
_cell_angle_beta   75.01578655
_cell_angle_gamma   75.01579653
_symmetry_Int_Tables_number   1
_chemical_formula_structural   SrNd2Ga8Ag3
_chemical_formula_sum   'Sr1 Nd2 Ga8 Ag3'
_cell_volume   291.58963763
_cell_formula_units_Z   1
loop_
 _symmetry_equiv_pos_site_id
 _symmetry_equiv_pos_as_xyz
  1  'x, y, z'
loop_
 _atom_site_type_symbol
 _atom_site_label
 _atom_site_symmetry_multiplicity
 _atom_site_fract_x
 _atom_site_fract_y
 _atom_site_fract_z
 _atom_site_occupancy
  Sr  Sr0  1  0.000000  0.000000  0.000000  1
  Nd  Nd1  1  0.301524  0.698476  0.698476  1
  Nd  Nd2  1  0.698476  0.301524  0.301524  1
  Ga  Ga3  1  0.337349  0.297280  0.028022  1
  Ga  Ga4  1  0.662651  0.702720  0.971978  1
  Ga  Ga5  1  0.337349  0.028022  0.297280  1
  Ga  Ga6  1  0.662651  0.971978  0.702720  1
  Ga  Ga7  1  0.145803  0.572074  0.136320  1
  Ga  Ga8  1  0.854197  0.427926  0.863680  1
  Ga  Ga9  1  0.145803  0.136320  0.572074  1
  Ga  Ga10  1  0.854197  0.863680  0.427926  1
  Ag  Ag11  1  0.500000  0.305779  0.694221  1
  Ag  Ag12  1  0.500000  0.694221  0.305779  1
  Ag  Ag13  1  0.000000  0.500000  0.500000  1
