# generated using pymatgen
data_Yb3Lu2Si12Ir19
_symmetry_space_group_name_H-M   'P 1'
_cell_length_a   12.79356403
_cell_length_b   12.79214089
_cell_length_c   3.99040200
_cell_angle_alpha   90.00000000
_cell_angle_beta   90.00000000
_cell_angle_gamma   119.99547201
_symmetry_Int_Tables_number   1
_chemical_formula_structural   Yb3Lu2Si12Ir19
_chemical_formula_sum   'Yb3 Lu2 Si12 Ir19'
_cell_volume   565.59020027
_cell_formula_units_Z   1
loop_
 _symmetry_equiv_pos_site_id
 _symmetry_equiv_pos_as_xyz
  1  'x, y, z'
loop_
 _atom_site_type_symbol
 _atom_site_label
 _atom_site_symmetry_multiplicity
 _atom_site_fract_x
 _atom_site_fract_y
 _atom_site_fract_z
 _atom_site_occupancy
  Yb  Yb0  1  0.666542  0.333184  0.000000  1
  Yb  Yb1  1  0.816163  0.999775  0.500000  1
  Yb  Yb2  1  0.999568  0.816118  0.500000  1
  Lu  Lu3  1  0.333088  0.666428  0.000000  1
  Lu  Lu4  1  0.180689  0.180593  0.500000  1
  Si  Si5  1  0.817857  0.818118  0.000000  1
  Si  Si6  1  0.181410  0.999534  0.000000  1
  Si  Si7  1  0.000243  0.181709  0.000000  1
  Si  Si8  1  0.310966  0.831857  0.500000  1
  Si  Si9  1  0.168798  0.480556  0.500000  1
  Si  Si10  1  0.519958  0.688880  0.500000  1
  Si  Si11  1  0.832518  0.312081  0.500000  1
  Si  Si12  1  0.481132  0.168295  0.500000  1
  Si  Si13  1  0.687582  0.519407  0.500000  1
  Si  Si14  1  0.367926  0.366822  0.000000  1
  Si  Si15  1  0.632416  0.001310  0.000000  1
  Si  Si16  1  0.999146  0.631315  0.000000  1
  Ir  Ir17  1  0.194266  0.816098  0.000000  1
  Ir  Ir18  1  0.184452  0.375882  0.000000  1
  Ir  Ir19  1  0.620616  0.805770  0.000000  1
  Ir  Ir20  1  0.818001  0.195110  0.000000  1
  Ir  Ir21  1  0.374959  0.182514  0.000000  1
  Ir  Ir22  1  0.804966  0.621630  0.000000  1
  Ir  Ir23  1  0.716780  0.717248  0.500000  1
  Ir  Ir24  1  0.282884  0.001231  0.500000  1
  Ir  Ir25  1  0.002117  0.283211  0.500000  1
  Ir  Ir26  1  0.128869  0.638894  0.500000  1
  Ir  Ir27  1  0.361243  0.490484  0.500000  1
  Ir  Ir28  1  0.509092  0.871663  0.500000  1
  Ir  Ir29  1  0.639612  0.125412  0.500000  1
  Ir  Ir30  1  0.485989  0.360513  0.500000  1
  Ir  Ir31  1  0.875139  0.513360  0.500000  1
  Ir  Ir32  1  0.551435  0.552570  0.000000  1
  Ir  Ir33  1  0.447805  0.001411  0.000000  1
  Ir  Ir34  1  0.003695  0.448997  0.000000  1
  Ir  Ir35  1  0.002076  0.002020  0.000000  1
