# generated using pymatgen
data_HfZr5Ga6(PdPt2)2
_symmetry_space_group_name_H-M   'P 1'
_cell_length_a   7.20166854
_cell_length_b   7.21469451
_cell_length_c   7.12480900
_cell_angle_alpha   90.00000000
_cell_angle_beta   90.00000000
_cell_angle_gamma   120.11655792
_symmetry_Int_Tables_number   1
_chemical_formula_structural   HfZr5Ga6(PdPt2)2
_chemical_formula_sum   'Hf1 Zr5 Ga6 Pd2 Pt4'
_cell_volume   320.21645787
_cell_formula_units_Z   1
loop_
 _symmetry_equiv_pos_site_id
 _symmetry_equiv_pos_as_xyz
  1  'x, y, z'
loop_
 _atom_site_type_symbol
 _atom_site_label
 _atom_site_symmetry_multiplicity
 _atom_site_fract_x
 _atom_site_fract_y
 _atom_site_fract_z
 _atom_site_occupancy
  Hf  Hf0  1  0.972503  0.389814  0.250000  1
  Zr  Zr1  1  0.611525  0.583391  0.250000  1
  Zr  Zr2  1  0.028668  0.416435  0.750000  1
  Zr  Zr3  1  0.417072  0.028362  0.250000  1
  Zr  Zr4  1  0.388880  0.971564  0.750000  1
  Zr  Zr5  1  0.583718  0.611219  0.750000  1
  Ga  Ga6  1  0.265942  0.266057  0.500083  1
  Ga  Ga7  1  0.733880  0.999772  0.499716  1
  Ga  Ga8  1  0.999928  0.734340  0.499328  1
  Ga  Ga9  1  0.733880  0.999772  0.000284  1
  Ga  Ga10  1  0.265942  0.266057  0.999917  1
  Ga  Ga11  1  0.999928  0.734340  0.000672  1
  Pd  Pd12  1  0.000154  0.000263  0.750000  1
  Pd  Pd13  1  0.000374  0.002847  0.250000  1
  Pt  Pt14  1  0.330284  0.664324  0.460740  1
  Pt  Pt15  1  0.330284  0.664324  0.039260  1
  Pt  Pt16  1  0.668518  0.333561  0.536061  1
  Pt  Pt17  1  0.668518  0.333561  0.963939  1
