# generated using pymatgen
data_Ho8Ga(CuPt11)2
_symmetry_space_group_name_H-M   'P 1'
_cell_length_a   8.34908900
_cell_length_b   8.34908918
_cell_length_c   8.33936600
_cell_angle_alpha   90.00000000
_cell_angle_beta   90.00000000
_cell_angle_gamma   90.11622369
_symmetry_Int_Tables_number   1
_chemical_formula_structural   Ho8Ga(CuPt11)2
_chemical_formula_sum   'Ho8 Ga1 Cu2 Pt22'
_cell_volume   581.31339660
_cell_formula_units_Z   1
loop_
 _symmetry_equiv_pos_site_id
 _symmetry_equiv_pos_as_xyz
  1  'x, y, z'
loop_
 _atom_site_type_symbol
 _atom_site_label
 _atom_site_symmetry_multiplicity
 _atom_site_fract_x
 _atom_site_fract_y
 _atom_site_fract_z
 _atom_site_occupancy
  Ho  Ho0  1  0.254429  0.254429  0.747316  1
  Ho  Ho1  1  0.254453  0.749935  0.252270  1
  Ho  Ho2  1  0.749935  0.254453  0.252270  1
  Ho  Ho3  1  0.749670  0.749670  0.746411  1
  Ho  Ho4  1  0.749670  0.749670  0.253589  1
  Ho  Ho5  1  0.749935  0.254453  0.747730  1
  Ho  Ho6  1  0.254453  0.749935  0.747730  1
  Ho  Ho7  1  0.254429  0.254429  0.252684  1
  Ga  Ga8  1  0.974837  0.974837  0.000000  1
  Cu  Cu9  1  0.003368  0.678613  0.000000  1
  Cu  Cu10  1  0.678613  0.003368  0.000000  1
  Pt  Pt11  1  0.502389  0.502389  0.749075  1
  Pt  Pt12  1  0.502358  0.254079  0.500000  1
  Pt  Pt13  1  0.254079  0.502358  0.500000  1
  Pt  Pt14  1  0.502389  0.502389  0.250925  1
  Pt  Pt15  1  0.502194  0.749819  0.500000  1
  Pt  Pt16  1  0.749819  0.502194  0.500000  1
  Pt  Pt17  1  0.002833  0.002833  0.712647  1
  Pt  Pt18  1  0.002780  0.277095  0.000000  1
  Pt  Pt19  1  0.277095  0.002780  0.000000  1
  Pt  Pt20  1  0.002833  0.002833  0.287353  1
  Pt  Pt21  1  0.001824  0.502138  0.743330  1
  Pt  Pt22  1  0.503071  0.259678  0.000000  1
  Pt  Pt23  1  0.261540  0.000920  0.500000  1
  Pt  Pt24  1  0.000920  0.261540  0.500000  1
  Pt  Pt25  1  0.502138  0.001824  0.743330  1
  Pt  Pt26  1  0.259678  0.503071  0.000000  1
  Pt  Pt27  1  0.001824  0.502138  0.256670  1
  Pt  Pt28  1  0.502758  0.745588  0.000000  1
  Pt  Pt29  1  0.002525  0.743434  0.500000  1
  Pt  Pt30  1  0.502138  0.001824  0.256670  1
  Pt  Pt31  1  0.743434  0.002525  0.500000  1
  Pt  Pt32  1  0.745588  0.502758  0.000000  1
