# generated using pymatgen
data_CaNd3FeSb3O14
_symmetry_space_group_name_H-M   'P 1'
_cell_length_a   7.44288278
_cell_length_b   7.44237617
_cell_length_c   7.44201500
_cell_angle_alpha   118.53033220
_cell_angle_beta   61.47042985
_cell_angle_gamma   118.53032503
_symmetry_Int_Tables_number   1
_chemical_formula_structural   CaNd3FeSb3O14
_chemical_formula_sum   'Ca1 Nd3 Fe1 Sb3 O14'
_cell_volume   301.11328183
_cell_formula_units_Z   1
loop_
 _symmetry_equiv_pos_site_id
 _symmetry_equiv_pos_as_xyz
  1  'x, y, z'
loop_
 _atom_site_type_symbol
 _atom_site_label
 _atom_site_symmetry_multiplicity
 _atom_site_fract_x
 _atom_site_fract_y
 _atom_site_fract_z
 _atom_site_occupancy
  Ca  Ca0  1  0.500003  0.500019  0.000020  1
  Nd  Nd1  1  0.000019  0.500015  0.000010  1
  Nd  Nd2  1  0.500017  0.999996  0.999964  1
  Nd  Nd3  1  0.500023  0.500013  0.500010  1
  Fe  Fe4  1  0.000003  0.000002  0.499991  1
  Sb  Sb5  1  0.500037  0.999959  0.500053  1
  Sb  Sb6  1  0.999962  0.500019  0.499976  1
  Sb  Sb7  1  0.000013  0.000008  0.999997  1
  O  O8  1  0.624065  0.376204  0.123968  1
  O  O9  1  0.375953  0.623797  0.876036  1
  O  O10  1  0.079601  0.322368  0.178070  1
  O  O11  1  0.677932  0.918730  0.177752  1
  O  O12  1  0.678137  0.322465  0.580148  1
  O  O13  1  0.920380  0.677628  0.821945  1
  O  O14  1  0.322056  0.081271  0.822239  1
  O  O15  1  0.321858  0.677526  0.419841  1
  O  O16  1  0.650073  0.912441  0.588178  1
  O  O17  1  0.087258  0.348008  0.587050  1
  O  O18  1  0.088089  0.912735  0.150618  1
  O  O19  1  0.349860  0.087577  0.411789  1
  O  O20  1  0.912754  0.651961  0.412969  1
  O  O21  1  0.911906  0.087258  0.849377  1
