# generated using pymatgen
data_Y3Cu2(AgSn2)2
_symmetry_space_group_name_H-M   'P 1'
_cell_length_a   4.52261263
_cell_length_b   7.22809183
_cell_length_c   8.66190417
_cell_angle_alpha   115.35866842
_cell_angle_beta   105.13316903
_cell_angle_gamma   90.00000163
_symmetry_Int_Tables_number   1
_chemical_formula_structural   Y3Cu2(AgSn2)2
_chemical_formula_sum   'Y3 Cu2 Ag2 Sn4'
_cell_volume   244.96210293
_cell_formula_units_Z   1
loop_
 _symmetry_equiv_pos_site_id
 _symmetry_equiv_pos_as_xyz
  1  'x, y, z'
loop_
 _atom_site_type_symbol
 _atom_site_label
 _atom_site_symmetry_multiplicity
 _atom_site_fract_x
 _atom_site_fract_y
 _atom_site_fract_z
 _atom_site_occupancy
  Y  Y0  1  0.871539  0.347956  0.743078  1
  Y  Y1  1  0.128461  0.652044  0.256922  1
  Y  Y2  1  0.000000  0.000000  0.000000  1
  Cu  Cu3  1  0.340796  0.027574  0.681592  1
  Cu  Cu4  1  0.659204  0.972426  0.318408  1
  Ag  Ag5  1  0.317620  0.621884  0.635240  1
  Ag  Ag6  1  0.682380  0.378116  0.364760  1
  Sn  Sn7  1  0.217319  0.178397  0.434638  1
  Sn  Sn8  1  0.782681  0.821603  0.565362  1
  Sn  Sn9  1  0.505446  0.306912  0.010891  1
  Sn  Sn10  1  0.494554  0.693088  0.989109  1
