# generated using pymatgen
data_GaSi7(MoPt3)2
_symmetry_space_group_name_H-M   'P 1'
_cell_length_a   3.52874200
_cell_length_b   5.56706000
_cell_length_c   24.80176800
_cell_angle_alpha   90.00000000
_cell_angle_beta   90.00000000
_cell_angle_gamma   90.00000000
_symmetry_Int_Tables_number   1
_chemical_formula_structural   GaSi7(MoPt3)2
_chemical_formula_sum   'Ga2 Si14 Mo4 Pt12'
_cell_volume   487.22374914
_cell_formula_units_Z   2
loop_
 _symmetry_equiv_pos_site_id
 _symmetry_equiv_pos_as_xyz
  1  'x, y, z'
loop_
 _atom_site_type_symbol
 _atom_site_label
 _atom_site_symmetry_multiplicity
 _atom_site_fract_x
 _atom_site_fract_y
 _atom_site_fract_z
 _atom_site_occupancy
  Ga  Ga0  1  0.250000  0.182311  0.520016  1
  Ga  Ga1  1  0.750000  0.317689  0.020016  1
  Si  Si2  1  0.250000  0.677576  0.980950  1
  Si  Si3  1  0.750000  0.822424  0.480950  1
  Si  Si4  1  0.750000  0.318851  0.645092  1
  Si  Si5  1  0.250000  0.181149  0.145092  1
  Si  Si6  1  0.750000  0.819795  0.853635  1
  Si  Si7  1  0.250000  0.680205  0.353635  1
  Si  Si8  1  0.250000  0.663873  0.609945  1
  Si  Si9  1  0.750000  0.836127  0.109945  1
  Si  Si10  1  0.250000  0.164284  0.890141  1
  Si  Si11  1  0.750000  0.335716  0.390141  1
  Si  Si12  1  0.750000  0.829662  0.726403  1
  Si  Si13  1  0.250000  0.670338  0.226403  1
  Si  Si14  1  0.750000  0.330894  0.773731  1
  Si  Si15  1  0.250000  0.169106  0.273731  1
  Mo  Mo16  1  0.250000  0.502569  0.710036  1
  Mo  Mo17  1  0.750000  0.997431  0.210036  1
  Mo  Mo18  1  0.250000  0.003776  0.789701  1
  Mo  Mo19  1  0.750000  0.496224  0.289701  1
  Pt  Pt20  1  0.750000  0.991703  0.577858  1
  Pt  Pt21  1  0.250000  0.508297  0.077858  1
  Pt  Pt22  1  0.750000  0.501312  0.923472  1
  Pt  Pt23  1  0.250000  0.998688  0.423472  1
  Pt  Pt24  1  0.250000  0.002925  0.671495  1
  Pt  Pt25  1  0.750000  0.497075  0.171495  1
  Pt  Pt26  1  0.250000  0.503420  0.829103  1
  Pt  Pt27  1  0.750000  0.996580  0.329103  1
  Pt  Pt28  1  0.750000  0.506747  0.549718  1
  Pt  Pt29  1  0.250000  0.993253  0.049718  1
  Pt  Pt30  1  0.750000  0.995883  0.948705  1
  Pt  Pt31  1  0.250000  0.504117  0.448705  1
