# generated using pymatgen
data_Pr8Y12Sn13Bi3
_symmetry_space_group_name_H-M   'P 1'
_cell_length_a   8.24286617
_cell_length_b   8.32107547
_cell_length_c   15.70353504
_cell_angle_alpha   90.03008346
_cell_angle_beta   89.72819819
_cell_angle_gamma   90.06100449
_symmetry_Int_Tables_number   1
_chemical_formula_structural   Pr8Y12Sn13Bi3
_chemical_formula_sum   'Pr8 Y12 Sn13 Bi3'
_cell_volume   1077.08492185
_cell_formula_units_Z   1
loop_
 _symmetry_equiv_pos_site_id
 _symmetry_equiv_pos_as_xyz
  1  'x, y, z'
loop_
 _atom_site_type_symbol
 _atom_site_label
 _atom_site_symmetry_multiplicity
 _atom_site_fract_x
 _atom_site_fract_y
 _atom_site_fract_z
 _atom_site_occupancy
  Pr  Pr0  1  0.519421  0.324321  0.901233  1
  Pr  Pr1  1  0.026538  0.177991  0.600740  1
  Pr  Pr2  1  0.473423  0.677751  0.399535  1
  Pr  Pr3  1  0.976736  0.820509  0.099349  1
  Pr  Pr4  1  0.483322  0.675659  0.097542  1
  Pr  Pr5  1  0.984445  0.823201  0.400055  1
  Pr  Pr6  1  0.515195  0.322544  0.599928  1
  Pr  Pr7  1  0.014809  0.180639  0.900763  1
  Y  Y8  1  0.364254  0.834347  0.876206  1
  Y  Y9  1  0.868590  0.661521  0.624729  1
  Y  Y10  1  0.632110  0.161168  0.374927  1
  Y  Y11  1  0.134827  0.340785  0.123829  1
  Y  Y12  1  0.642012  0.163230  0.122960  1
  Y  Y13  1  0.140394  0.336646  0.376971  1
  Y  Y14  1  0.359792  0.836526  0.622842  1
  Y  Y15  1  0.862847  0.663072  0.876596  1
  Y  Y16  1  0.194886  0.501352  0.750428  1
  Y  Y17  1  0.693741  0.998530  0.753612  1
  Y  Y18  1  0.805325  0.499221  0.247586  1
  Y  Y19  1  0.305706  0.001580  0.252146  1
  Sn  Sn20  1  0.200291  0.539206  0.957670  1
  Sn  Sn21  1  0.704320  0.960434  0.957734  1
  Sn  Sn22  1  0.205112  0.537941  0.543086  1
  Sn  Sn23  1  0.294997  0.038377  0.457305  1
  Sn  Sn24  1  0.800354  0.461028  0.041872  1
  Sn  Sn25  1  0.562130  0.625298  0.748099  1
  Sn  Sn26  1  0.061415  0.876679  0.750457  1
  Sn  Sn27  1  0.439331  0.375443  0.248890  1
  Sn  Sn28  1  0.939066  0.124962  0.250876  1
  Sn  Sn29  1  0.326685  0.142152  0.751092  1
  Sn  Sn30  1  0.825258  0.357197  0.749433  1
  Sn  Sn31  1  0.672629  0.855869  0.249899  1
  Sn  Sn32  1  0.173010  0.643147  0.249260  1
  Bi  Bi33  1  0.296815  0.040109  0.042405  1
  Bi  Bi34  1  0.795178  0.460874  0.457557  1
  Bi  Bi35  1  0.705036  0.960690  0.542389  1
