# generated using pymatgen
data_Hf4TaAlRh10
_symmetry_space_group_name_H-M   'P 1'
_cell_length_a   4.19340300
_cell_length_b   5.57819846
_cell_length_c   10.86130778
_cell_angle_alpha   90.08236601
_cell_angle_beta   90.00000000
_cell_angle_gamma   90.00000000
_symmetry_Int_Tables_number   1
_chemical_formula_structural   Hf4TaAlRh10
_chemical_formula_sum   'Hf4 Ta1 Al1 Rh10'
_cell_volume   254.06347527
_cell_formula_units_Z   1
loop_
 _symmetry_equiv_pos_site_id
 _symmetry_equiv_pos_as_xyz
  1  'x, y, z'
loop_
 _atom_site_type_symbol
 _atom_site_label
 _atom_site_symmetry_multiplicity
 _atom_site_fract_x
 _atom_site_fract_y
 _atom_site_fract_z
 _atom_site_occupancy
  Hf  Hf0  1  0.500000  0.173894  0.637849  1
  Hf  Hf1  1  0.500000  0.826106  0.362151  1
  Hf  Hf2  1  0.500000  0.660501  0.851845  1
  Hf  Hf3  1  0.500000  0.339499  0.148155  1
  Ta  Ta4  1  0.000000  0.000000  0.000000  1
  Al  Al5  1  0.000000  0.500000  0.500000  1
  Rh  Rh6  1  0.500000  0.181921  0.894781  1
  Rh  Rh7  1  0.500000  0.818079  0.105219  1
  Rh  Rh8  1  0.500000  0.686032  0.606658  1
  Rh  Rh9  1  0.500000  0.313968  0.393342  1
  Rh  Rh10  1  0.000000  0.414922  0.739430  1
  Rh  Rh11  1  0.000000  0.585078  0.260570  1
  Rh  Rh12  1  0.000000  0.000000  0.500000  1
  Rh  Rh13  1  0.000000  0.500000  0.000000  1
  Rh  Rh14  1  0.000000  0.088916  0.240624  1
  Rh  Rh15  1  0.000000  0.911084  0.759376  1
