# generated using pymatgen
data_LiTbYb2Cd2Sn3
_symmetry_space_group_name_H-M   'P 1'
_cell_length_a   7.54878661
_cell_length_b   7.51948764
_cell_length_c   4.66634400
_cell_angle_alpha   90.00000000
_cell_angle_beta   90.00000000
_cell_angle_gamma   119.87168376
_symmetry_Int_Tables_number   1
_chemical_formula_structural   LiTbYb2Cd2Sn3
_chemical_formula_sum   'Li1 Tb1 Yb2 Cd2 Sn3'
_cell_volume   229.68512705
_cell_formula_units_Z   1
loop_
 _symmetry_equiv_pos_site_id
 _symmetry_equiv_pos_as_xyz
  1  'x, y, z'
loop_
 _atom_site_type_symbol
 _atom_site_label
 _atom_site_symmetry_multiplicity
 _atom_site_fract_x
 _atom_site_fract_y
 _atom_site_fract_z
 _atom_site_occupancy
  Li  Li0  1  0.000000  0.763552  0.000000  1
  Tb  Tb1  1  0.000000  0.427640  0.500000  1
  Yb  Yb2  1  0.564842  0.566552  0.500000  1
  Yb  Yb3  1  0.435158  0.001711  0.500000  1
  Cd  Cd4  1  0.248560  0.245325  0.000000  1
  Cd  Cd5  1  0.751440  0.996765  0.000000  1
  Sn  Sn6  1  0.318372  0.664417  0.000000  1
  Sn  Sn7  1  0.681628  0.346045  0.000000  1
  Sn  Sn8  1  0.000000  0.987993  0.500000  1
