# generated using pymatgen
data_Th5Zn2Os3
_symmetry_space_group_name_H-M   'P 1'
_cell_length_a   8.55032294
_cell_length_b   8.55032323
_cell_length_c   8.55032300
_cell_angle_alpha   109.47121535
_cell_angle_beta   109.47121605
_cell_angle_gamma   109.47122452
_symmetry_Int_Tables_number   1
_chemical_formula_structural   Th5Zn2Os3
_chemical_formula_sum   'Th10 Zn4 Os6'
_cell_volume   481.20010446
_cell_formula_units_Z   2
loop_
 _symmetry_equiv_pos_site_id
 _symmetry_equiv_pos_as_xyz
  1  'x, y, z'
loop_
 _atom_site_type_symbol
 _atom_site_label
 _atom_site_symmetry_multiplicity
 _atom_site_fract_x
 _atom_site_fract_y
 _atom_site_fract_z
 _atom_site_occupancy
  Th  Th0  1  0.250000  0.687920  0.437921  1
  Th  Th1  1  0.750000  0.812080  0.062080  1
  Th  Th2  1  0.437921  0.250000  0.687920  1
  Th  Th3  1  0.687920  0.437921  0.250000  1
  Th  Th4  1  0.062080  0.750000  0.812080  1
  Th  Th5  1  0.812080  0.062080  0.750000  1
  Th  Th6  1  0.222371  0.222371  0.222371  1
  Th  Th7  1  0.500001  0.000000  0.277629  1
  Th  Th8  1  0.277629  0.500001  0.000000  1
  Th  Th9  1  0.000000  0.277629  0.500001  1
  Zn  Zn10  1  0.500001  0.000000  0.898013  1
  Zn  Zn11  1  0.601987  0.601987  0.601987  1
  Zn  Zn12  1  0.898013  0.500001  0.000000  1
  Zn  Zn13  1  0.000000  0.898013  0.500001  1
  Os  Os14  1  0.250001  0.134210  0.884210  1
  Os  Os15  1  0.750000  0.365789  0.615789  1
  Os  Os16  1  0.884210  0.250001  0.134210  1
  Os  Os17  1  0.134210  0.884210  0.250001  1
  Os  Os18  1  0.615789  0.750000  0.365789  1
  Os  Os19  1  0.365789  0.615789  0.750000  1
