# generated using pymatgen
data_Ce10Sn6RhBr
_symmetry_space_group_name_H-M   'P 1'
_cell_length_a   6.67920623
_cell_length_b   9.43529282
_cell_length_c   9.43265821
_cell_angle_alpha   120.00924503
_cell_angle_beta   89.98410735
_cell_angle_gamma   90.03178152
_symmetry_Int_Tables_number   1
_chemical_formula_structural   Ce10Sn6RhBr
_chemical_formula_sum   'Ce10 Sn6 Rh1 Br1'
_cell_volume   514.75957378
_cell_formula_units_Z   1
loop_
 _symmetry_equiv_pos_site_id
 _symmetry_equiv_pos_as_xyz
  1  'x, y, z'
loop_
 _atom_site_type_symbol
 _atom_site_label
 _atom_site_symmetry_multiplicity
 _atom_site_fract_x
 _atom_site_fract_y
 _atom_site_fract_z
 _atom_site_occupancy
  Ce  Ce0  1  0.766649  0.258395  0.000000  1
  Ce  Ce1  1  0.766577  0.741564  0.741474  1
  Ce  Ce2  1  0.766577  0.000088  0.258526  1
  Ce  Ce3  1  0.233208  0.741490  0.000000  1
  Ce  Ce4  1  0.233575  0.258702  0.258562  1
  Ce  Ce5  1  0.233575  0.000141  0.741438  1
  Ce  Ce6  1  0.499958  0.333137  0.666526  1
  Ce  Ce7  1  0.499958  0.666611  0.333474  1
  Ce  Ce8  1  0.999995  0.666562  0.333491  1
  Ce  Ce9  1  0.999995  0.333072  0.666509  1
  Sn  Sn10  1  0.745542  0.611199  0.000000  1
  Sn  Sn11  1  0.745688  0.388552  0.388470  1
  Sn  Sn12  1  0.745688  0.000082  0.611530  1
  Sn  Sn13  1  0.254310  0.388421  0.000000  1
  Sn  Sn14  1  0.254365  0.611471  0.611372  1
  Sn  Sn15  1  0.254365  0.000098  0.388628  1
  Rh  Rh16  1  0.000015  0.000425  0.000000  1
  Br  Br17  1  0.499961  0.999990  0.000000  1
