# generated using pymatgen
data_Tb3Ho9Ir4
_symmetry_space_group_name_H-M   'P 1'
_cell_length_a   6.38819800
_cell_length_b   7.25339416
_cell_length_c   9.18655600
_cell_angle_alpha   90.00000000
_cell_angle_beta   90.00000000
_cell_angle_gamma   89.96875889
_symmetry_Int_Tables_number   1
_chemical_formula_structural   Tb3Ho9Ir4
_chemical_formula_sum   'Tb3 Ho9 Ir4'
_cell_volume   425.66928038
_cell_formula_units_Z   1
loop_
 _symmetry_equiv_pos_site_id
 _symmetry_equiv_pos_as_xyz
  1  'x, y, z'
loop_
 _atom_site_type_symbol
 _atom_site_label
 _atom_site_symmetry_multiplicity
 _atom_site_fract_x
 _atom_site_fract_y
 _atom_site_fract_z
 _atom_site_occupancy
  Tb  Tb0  1  0.869509  0.535467  0.250000  1
  Tb  Tb1  1  0.630895  0.035415  0.250000  1
  Tb  Tb2  1  0.130134  0.464836  0.750000  1
  Ho  Ho3  1  0.329395  0.677629  0.062532  1
  Ho  Ho4  1  0.171073  0.176782  0.437740  1
  Ho  Ho5  1  0.670781  0.322343  0.562940  1
  Ho  Ho6  1  0.828214  0.822923  0.936891  1
  Ho  Ho7  1  0.670781  0.322343  0.937060  1
  Ho  Ho8  1  0.828214  0.822923  0.563109  1
  Ho  Ho9  1  0.329395  0.677629  0.437468  1
  Ho  Ho10  1  0.171073  0.176782  0.062260  1
  Ho  Ho11  1  0.369249  0.964283  0.750000  1
  Ir  Ir12  1  0.047290  0.883922  0.250000  1
  Ir  Ir13  1  0.452877  0.383814  0.250000  1
  Ir  Ir14  1  0.955054  0.115632  0.750000  1
  Ir  Ir15  1  0.546067  0.617279  0.750000  1
