# generated using pymatgen
data_Lu2Bi2IrRh3O14
_symmetry_space_group_name_H-M   'P 1'
_cell_length_a   7.24564039
_cell_length_b   7.24372077
_cell_length_c   7.21105500
_cell_angle_alpha   60.14906680
_cell_angle_beta   60.15777782
_cell_angle_gamma   60.38664763
_symmetry_Int_Tables_number   1
_chemical_formula_structural   Lu2Bi2IrRh3O14
_chemical_formula_sum   'Lu2 Bi2 Ir1 Rh3 O14'
_cell_volume   269.01990194
_cell_formula_units_Z   1
loop_
 _symmetry_equiv_pos_site_id
 _symmetry_equiv_pos_as_xyz
  1  'x, y, z'
loop_
 _atom_site_type_symbol
 _atom_site_label
 _atom_site_symmetry_multiplicity
 _atom_site_fract_x
 _atom_site_fract_y
 _atom_site_fract_z
 _atom_site_occupancy
  Lu  Lu0  1  0.125000  0.125000  0.125000  1
  Lu  Lu1  1  0.125000  0.125000  0.625000  1
  Bi  Bi2  1  0.125000  0.625000  0.125000  1
  Bi  Bi3  1  0.625000  0.125000  0.125000  1
  Ir  Ir4  1  0.125000  0.625000  0.625000  1
  Rh  Rh5  1  0.625000  0.625000  0.625000  1
  Rh  Rh6  1  0.625000  0.625000  0.125000  1
  Rh  Rh7  1  0.625000  0.125000  0.625000  1
  O  O8  1  0.239556  0.240791  0.259826  1
  O  O9  1  0.285962  0.718610  0.291352  1
  O  O10  1  0.965399  0.959457  0.537572  1
  O  O11  1  0.527099  0.963993  0.545406  1
  O  O12  1  0.710526  0.708494  0.290490  1
  O  O13  1  0.964038  0.531390  0.545923  1
  O  O14  1  0.722901  0.286007  0.704594  1
  O  O15  1  0.284601  0.290543  0.712428  1
  O  O16  1  0.722901  0.286007  0.286500  1
  O  O17  1  0.285962  0.718610  0.704077  1
  O  O18  1  0.964038  0.531390  0.958648  1
  O  O19  1  0.539474  0.541506  0.959510  1
  O  O20  1  0.010444  0.009209  0.990174  1
  O  O21  1  0.527099  0.963993  0.963500  1
