# generated using pymatgen
data_Sm8Tm12Si15Ge
_symmetry_space_group_name_H-M   'P 1'
_cell_length_a   7.39699603
_cell_length_b   7.69880918
_cell_length_c   14.61295539
_cell_angle_alpha   90.02013103
_cell_angle_beta   89.79181555
_cell_angle_gamma   90.06060404
_symmetry_Int_Tables_number   1
_chemical_formula_structural   Sm8Tm12Si15Ge
_chemical_formula_sum   'Sm8 Tm12 Si15 Ge1'
_cell_volume   832.17346577
_cell_formula_units_Z   1
loop_
 _symmetry_equiv_pos_site_id
 _symmetry_equiv_pos_as_xyz
  1  'x, y, z'
loop_
 _atom_site_type_symbol
 _atom_site_label
 _atom_site_symmetry_multiplicity
 _atom_site_fract_x
 _atom_site_fract_y
 _atom_site_fract_z
 _atom_site_occupancy
  Sm  Sm0  1  0.015452  0.177505  0.097816  1
  Sm  Sm1  1  0.984713  0.822811  0.902019  1
  Sm  Sm2  1  0.485042  0.677575  0.901895  1
  Sm  Sm3  1  0.984590  0.823121  0.598251  1
  Sm  Sm4  1  0.515199  0.322649  0.098011  1
  Sm  Sm5  1  0.013856  0.176791  0.401607  1
  Sm  Sm6  1  0.515206  0.321770  0.401328  1
  Sm  Sm7  1  0.487802  0.678539  0.598515  1
  Tm  Tm8  1  0.162284  0.508668  0.751282  1
  Tm  Tm9  1  0.837542  0.491314  0.250106  1
  Tm  Tm10  1  0.337924  0.008646  0.249908  1
  Tm  Tm11  1  0.662268  0.991426  0.750061  1
  Tm  Tm12  1  0.331137  0.174994  0.624485  1
  Tm  Tm13  1  0.669793  0.823209  0.376140  1
  Tm  Tm14  1  0.169132  0.677876  0.376567  1
  Tm  Tm15  1  0.671036  0.822091  0.123157  1
  Tm  Tm16  1  0.828679  0.323288  0.623239  1
  Tm  Tm17  1  0.328737  0.177335  0.876611  1
  Tm  Tm18  1  0.828596  0.322340  0.876649  1
  Tm  Tm19  1  0.171032  0.677726  0.123242  1
  Si  Si20  1  0.034823  0.114029  0.750079  1
  Si  Si21  1  0.964816  0.886785  0.249609  1
  Si  Si22  1  0.464091  0.613657  0.249725  1
  Si  Si23  1  0.535129  0.386612  0.750290  1
  Si  Si24  1  0.281458  0.874246  0.750408  1
  Si  Si25  1  0.718771  0.125015  0.249518  1
  Si  Si26  1  0.218453  0.375102  0.249845  1
  Si  Si27  1  0.782004  0.625276  0.750103  1
  Si  Si28  1  0.837902  0.534724  0.460067  1
  Si  Si29  1  0.343622  0.966516  0.461074  1
  Si  Si30  1  0.844891  0.533146  0.038938  1
  Si  Si31  1  0.656483  0.033759  0.538960  1
  Si  Si32  1  0.155122  0.466778  0.961040  1
  Si  Si33  1  0.654898  0.033329  0.961069  1
  Si  Si34  1  0.344910  0.966729  0.038917  1
  Ge  Ge35  1  0.162606  0.464622  0.539470  1
