# generated using pymatgen
data_Rb4SnI6
_symmetry_space_group_name_H-M   'P 1'
_cell_length_a   10.21305016
_cell_length_b   10.21305094
_cell_length_c   10.21305072
_cell_angle_alpha   89.83368367
_cell_angle_beta   89.83368565
_cell_angle_gamma   89.83368694
_symmetry_Int_Tables_number   1
_chemical_formula_structural   Rb4SnI6
_chemical_formula_sum   'Rb8 Sn2 I12'
_cell_volume   1065.27313202
_cell_formula_units_Z   2
loop_
 _symmetry_equiv_pos_site_id
 _symmetry_equiv_pos_as_xyz
  1  'x, y, z'
loop_
 _atom_site_type_symbol
 _atom_site_label
 _atom_site_symmetry_multiplicity
 _atom_site_fract_x
 _atom_site_fract_y
 _atom_site_fract_z
 _atom_site_occupancy
  Rb  Rb0  1  0.250000  0.250000  0.250000  1
  Rb  Rb1  1  0.750000  0.750000  0.750000  1
  Rb  Rb2  1  0.750000  0.129879  0.370121  1
  Rb  Rb3  1  0.370121  0.750000  0.129879  1
  Rb  Rb4  1  0.129879  0.370121  0.750000  1
  Rb  Rb5  1  0.250000  0.870121  0.629879  1
  Rb  Rb6  1  0.629879  0.250000  0.870121  1
  Rb  Rb7  1  0.870121  0.629879  0.250000  1
  Sn  Sn8  1  0.000000  0.000000  0.000000  1
  Sn  Sn9  1  0.500000  0.500000  0.500000  1
  I  I10  1  0.441862  0.572385  0.800733  1
  I  I11  1  0.800733  0.441862  0.572385  1
  I  I12  1  0.572385  0.800733  0.441862  1
  I  I13  1  0.058138  0.699267  0.927615  1
  I  I14  1  0.927615  0.058138  0.699267  1
  I  I15  1  0.699267  0.927615  0.058138  1
  I  I16  1  0.558138  0.427615  0.199267  1
  I  I17  1  0.199267  0.558138  0.427615  1
  I  I18  1  0.427615  0.199267  0.558138  1
  I  I19  1  0.941862  0.300733  0.072385  1
  I  I20  1  0.300733  0.072385  0.941862  1
  I  I21  1  0.072385  0.941862  0.300733  1
