# generated using pymatgen
data_Dy6Er2Ti11Si16Ru
_symmetry_space_group_name_H-M   'P 1'
_cell_length_a   7.02491405
_cell_length_b   7.02400408
_cell_length_c   12.88173413
_cell_angle_alpha   89.97560861
_cell_angle_beta   90.02584336
_cell_angle_gamma   89.91297190
_symmetry_Int_Tables_number   1
_chemical_formula_structural   Dy6Er2Ti11Si16Ru
_chemical_formula_sum   'Dy6 Er2 Ti11 Si16 Ru1'
_cell_volume   635.62287278
_cell_formula_units_Z   1
loop_
 _symmetry_equiv_pos_site_id
 _symmetry_equiv_pos_as_xyz
  1  'x, y, z'
loop_
 _atom_site_type_symbol
 _atom_site_label
 _atom_site_symmetry_multiplicity
 _atom_site_fract_x
 _atom_site_fract_y
 _atom_site_fract_z
 _atom_site_occupancy
  Dy  Dy0  1  0.659797  0.995787  0.967399  1
  Dy  Dy1  1  0.159114  0.503310  0.781969  1
  Dy  Dy2  1  0.840514  0.499578  0.285002  1
  Dy  Dy3  1  0.503267  0.159264  0.218036  1
  Dy  Dy4  1  0.499536  0.840439  0.715034  1
  Dy  Dy5  1  0.341468  0.001745  0.468304  1
  Er  Er6  1  0.996378  0.659422  0.032688  1
  Er  Er7  1  0.001370  0.341830  0.531756  1
  Ti  Ti8  1  0.344052  0.507077  0.374541  1
  Ti  Ti9  1  0.849380  0.996076  0.375834  1
  Ti  Ti10  1  0.006089  0.151701  0.124673  1
  Ti  Ti11  1  0.996120  0.849357  0.624233  1
  Ti  Ti12  1  0.507147  0.344236  0.625476  1
  Ti  Ti13  1  0.151728  0.006057  0.875360  1
  Ti  Ti14  1  0.825223  0.172468  0.748554  1
  Ti  Ti15  1  0.172383  0.825010  0.251309  1
  Ti  Ti16  1  0.325997  0.326329  0.000002  1
  Ti  Ti17  1  0.492973  0.651435  0.127862  1
  Ti  Ti18  1  0.651527  0.493144  0.872133  1
  Si  Si19  1  0.046560  0.712274  0.435656  1
  Si  Si20  1  0.952365  0.291875  0.934517  1
  Si  Si21  1  0.713232  0.046972  0.564491  1
  Si  Si22  1  0.207589  0.453539  0.184201  1
  Si  Si23  1  0.790786  0.549771  0.681776  1
  Si  Si24  1  0.453012  0.207835  0.815634  1
  Si  Si25  1  0.550057  0.790355  0.317934  1
  Si  Si26  1  0.291067  0.951878  0.065601  1
  Si  Si27  1  0.797738  0.868309  0.185053  1
  Si  Si28  1  0.299725  0.626494  0.565711  1
  Si  Si29  1  0.703813  0.369654  0.065477  1
  Si  Si30  1  0.627334  0.300309  0.434366  1
  Si  Si31  1  0.368742  0.703489  0.934617  1
  Si  Si32  1  0.130762  0.203480  0.316121  1
  Si  Si33  1  0.202969  0.131105  0.683831  1
  Si  Si34  1  0.868769  0.797392  0.814836  1
  Ru  Ru35  1  0.671415  0.671003  0.500009  1
