# generated using pymatgen
data_AlGa(SeO4)3
_symmetry_space_group_name_H-M   'P 1'
_cell_length_a   9.05347290
_cell_length_b   9.05347333
_cell_length_c   9.05347334
_cell_angle_alpha   55.86216236
_cell_angle_beta   55.86216304
_cell_angle_gamma   55.86217168
_symmetry_Int_Tables_number   1
_chemical_formula_structural   AlGa(SeO4)3
_chemical_formula_sum   'Al2 Ga2 Se6 O24'
_cell_volume   474.39177284
_cell_formula_units_Z   2
loop_
 _symmetry_equiv_pos_site_id
 _symmetry_equiv_pos_as_xyz
  1  'x, y, z'
loop_
 _atom_site_type_symbol
 _atom_site_label
 _atom_site_symmetry_multiplicity
 _atom_site_fract_x
 _atom_site_fract_y
 _atom_site_fract_z
 _atom_site_occupancy
  Al  Al0  1  0.143164  0.143164  0.143164  1
  Al  Al1  1  0.349591  0.349591  0.349591  1
  Ga  Ga2  1  0.648814  0.648814  0.648814  1
  Ga  Ga3  1  0.857088  0.857088  0.857088  1
  Se  Se4  1  0.968102  0.536207  0.247991  1
  Se  Se5  1  0.536207  0.247991  0.968102  1
  Se  Se6  1  0.247991  0.968102  0.536207  1
  Se  Se7  1  0.750568  0.038453  0.458532  1
  Se  Se8  1  0.458532  0.750568  0.038453  1
  Se  Se9  1  0.038453  0.458532  0.750568  1
  O  O10  1  0.818251  0.498030  0.476408  1
  O  O11  1  0.875281  0.757362  0.109543  1
  O  O12  1  0.994571  0.377937  0.187141  1
  O  O13  1  0.516715  0.210778  0.180682  1
  O  O14  1  0.757362  0.109543  0.875281  1
  O  O15  1  0.498030  0.476408  0.818251  1
  O  O16  1  0.476408  0.818251  0.498030  1
  O  O17  1  0.210778  0.180682  0.516715  1
  O  O18  1  0.780351  0.028598  0.630394  1
  O  O19  1  0.180682  0.516715  0.210778  1
  O  O20  1  0.898658  0.127911  0.244199  1
  O  O21  1  0.630394  0.780351  0.028598  1
  O  O22  1  0.377937  0.187141  0.994571  1
  O  O23  1  0.109543  0.875281  0.757362  1
  O  O24  1  0.821661  0.476520  0.798271  1
  O  O25  1  0.187141  0.994571  0.377937  1
  O  O26  1  0.798271  0.821661  0.476520  1
  O  O27  1  0.524892  0.186050  0.481286  1
  O  O28  1  0.481286  0.524892  0.186050  1
  O  O29  1  0.244199  0.898658  0.127911  1
  O  O30  1  0.476520  0.798271  0.821661  1
  O  O31  1  0.028598  0.630394  0.780351  1
  O  O32  1  0.127911  0.244199  0.898658  1
  O  O33  1  0.186050  0.481286  0.524892  1
