# generated using pymatgen
data_Tb9Nd8Lu3Si16
_symmetry_space_group_name_H-M   'P 1'
_cell_length_a   7.74981255
_cell_length_b   7.74981255
_cell_length_c   14.46912397
_cell_angle_alpha   90.02965396
_cell_angle_beta   89.97034604
_cell_angle_gamma   89.96853844
_symmetry_Int_Tables_number   1
_chemical_formula_structural   Tb9Nd8Lu3Si16
_chemical_formula_sum   'Tb9 Nd8 Lu3 Si16'
_cell_volume   869.00935570
_cell_formula_units_Z   1
loop_
 _symmetry_equiv_pos_site_id
 _symmetry_equiv_pos_as_xyz
  1  'x, y, z'
loop_
 _atom_site_type_symbol
 _atom_site_label
 _atom_site_symmetry_multiplicity
 _atom_site_fract_x
 _atom_site_fract_y
 _atom_site_fract_z
 _atom_site_occupancy
  Tb  Tb0  1  0.488587  0.365050  0.125232  1
  Tb  Tb1  1  0.988956  0.134561  0.624997  1
  Tb  Tb2  1  0.865533  0.011236  0.874787  1
  Tb  Tb3  1  0.134561  0.988956  0.375003  1
  Tb  Tb4  1  0.510891  0.634801  0.624956  1
  Tb  Tb5  1  0.365050  0.488587  0.874768  1
  Tb  Tb6  1  0.634801  0.510891  0.375044  1
  Tb  Tb7  1  0.011236  0.865533  0.125213  1
  Tb  Tb8  1  0.686072  0.686072  0.000000  1
  Nd  Nd9  1  0.635571  0.990534  0.454835  1
  Nd  Nd10  1  0.364440  0.009586  0.954877  1
  Nd  Nd11  1  0.990534  0.635571  0.545165  1
  Nd  Nd12  1  0.489987  0.864623  0.205136  1
  Nd  Nd13  1  0.509470  0.135412  0.704826  1
  Nd  Nd14  1  0.864623  0.489987  0.794864  1
  Nd  Nd15  1  0.135412  0.509470  0.295174  1
  Nd  Nd16  1  0.009586  0.364440  0.045123  1
  Lu  Lu17  1  0.314184  0.314184  0.500000  1
  Lu  Lu18  1  0.186174  0.814273  0.749970  1
  Lu  Lu19  1  0.814273  0.186174  0.250030  1
  Si  Si20  1  0.288148  0.931831  0.562014  1
  Si  Si21  1  0.712072  0.069416  0.062026  1
  Si  Si22  1  0.931831  0.288148  0.437986  1
  Si  Si23  1  0.431833  0.211758  0.312076  1
  Si  Si24  1  0.567697  0.788663  0.810817  1
  Si  Si25  1  0.211758  0.431833  0.687924  1
  Si  Si26  1  0.788663  0.567697  0.189183  1
  Si  Si27  1  0.069416  0.712072  0.937974  1
  Si  Si28  1  0.800851  0.840678  0.693313  1
  Si  Si29  1  0.198955  0.159542  0.193508  1
  Si  Si30  1  0.840678  0.800851  0.306687  1
  Si  Si31  1  0.340357  0.698736  0.443516  1
  Si  Si32  1  0.659338  0.300184  0.943367  1
  Si  Si33  1  0.698736  0.340357  0.556484  1
  Si  Si34  1  0.300184  0.659338  0.056633  1
  Si  Si35  1  0.159542  0.198955  0.806492  1
