# generated using pymatgen
data_SmTh(Al4Fe)2
_symmetry_space_group_name_H-M   'P 1'
_cell_length_a   7.60645900
_cell_length_b   4.08275300
_cell_length_c   6.86439000
_cell_angle_alpha   90.00000000
_cell_angle_beta   90.00000000
_cell_angle_gamma   90.00000000
_symmetry_Int_Tables_number   1
_chemical_formula_structural   SmTh(Al4Fe)2
_chemical_formula_sum   'Sm1 Th1 Al8 Fe2'
_cell_volume   213.17564479
_cell_formula_units_Z   1
loop_
 _symmetry_equiv_pos_site_id
 _symmetry_equiv_pos_as_xyz
  1  'x, y, z'
loop_
 _atom_site_type_symbol
 _atom_site_label
 _atom_site_symmetry_multiplicity
 _atom_site_fract_x
 _atom_site_fract_y
 _atom_site_fract_z
 _atom_site_occupancy
  Sm  Sm0  1  0.750000  0.000000  0.881363  1
  Th  Th1  1  0.250000  0.000000  0.112588  1
  Al  Al2  1  0.571655  0.500000  0.196945  1
  Al  Al3  1  0.928345  0.500000  0.196945  1
  Al  Al4  1  0.250000  0.500000  0.463617  1
  Al  Al5  1  0.000251  0.000000  0.500881  1
  Al  Al6  1  0.499749  0.000000  0.500881  1
  Al  Al7  1  0.750000  0.500000  0.538159  1
  Al  Al8  1  0.069246  0.500000  0.801425  1
  Al  Al9  1  0.430753  0.500000  0.801425  1
  Fe  Fe10  1  0.750000  0.000000  0.306917  1
  Fe  Fe11  1  0.250000  0.000000  0.698853  1
