# generated using pymatgen
data_Nd2DyY3IrI10
_symmetry_space_group_name_H-M   'P 1'
_cell_length_a   7.81241847
_cell_length_b   9.84883509
_cell_length_c   9.86262219
_cell_angle_alpha   106.88646368
_cell_angle_beta   96.47906393
_cell_angle_gamma   104.94941363
_symmetry_Int_Tables_number   1
_chemical_formula_structural   Nd2DyY3IrI10
_chemical_formula_sum   'Nd2 Dy1 Y3 Ir1 I10'
_cell_volume   686.94119582
_cell_formula_units_Z   1
loop_
 _symmetry_equiv_pos_site_id
 _symmetry_equiv_pos_as_xyz
  1  'x, y, z'
loop_
 _atom_site_type_symbol
 _atom_site_label
 _atom_site_symmetry_multiplicity
 _atom_site_fract_x
 _atom_site_fract_y
 _atom_site_fract_z
 _atom_site_occupancy
  Nd  Nd0  1  0.116281  0.043264  0.762036  1
  Nd  Nd1  1  0.883733  0.956739  0.237967  1
  Dy  Dy2  1  0.970117  0.286534  0.086163  1
  Y  Y3  1  0.029970  0.712985  0.913733  1
  Y  Y4  1  0.348801  0.125796  0.166154  1
  Y  Y5  1  0.651169  0.874192  0.833829  1
  Ir  Ir6  1  0.000003  0.000424  0.000137  1
  I  I7  1  0.348605  0.448027  0.270663  1
  I  I8  1  0.651237  0.551951  0.729268  1
  I  I9  1  0.265260  0.089558  0.458580  1
  I  I10  1  0.734748  0.910432  0.541419  1
  I  I11  1  0.084293  0.377316  0.823997  1
  I  I12  1  0.915693  0.622716  0.176061  1
  I  I13  1  0.449769  0.817008  0.088942  1
  I  I14  1  0.550296  0.183014  0.911096  1
  I  I15  1  0.776564  0.260495  0.343402  1
  I  I16  1  0.223461  0.739551  0.656553  1
