# generated using pymatgen
data_BaNa4(GeS3)2
_symmetry_space_group_name_H-M   'P 1'
_cell_length_a   7.04002361
_cell_length_b   7.04002377
_cell_length_c   7.88977474
_cell_angle_alpha   81.31044931
_cell_angle_beta   81.31044609
_cell_angle_gamma   119.72090142
_symmetry_Int_Tables_number   1
_chemical_formula_structural   BaNa4(GeS3)2
_chemical_formula_sum   'Ba1 Na4 Ge2 S6'
_cell_volume   323.85505469
_cell_formula_units_Z   1
loop_
 _symmetry_equiv_pos_site_id
 _symmetry_equiv_pos_as_xyz
  1  'x, y, z'
loop_
 _atom_site_type_symbol
 _atom_site_label
 _atom_site_symmetry_multiplicity
 _atom_site_fract_x
 _atom_site_fract_y
 _atom_site_fract_z
 _atom_site_occupancy
  Ba  Ba0  1  0.334389  0.665611  0.500000  1
  Na  Na1  1  0.824616  0.175384  0.000000  1
  Na  Na2  1  0.174370  0.825630  0.000000  1
  Na  Na3  1  0.499982  0.500018  0.000000  1
  Na  Na4  1  0.665600  0.334400  0.500000  1
  Ge  Ge5  1  0.052634  0.052649  0.336254  1
  Ge  Ge6  1  0.947351  0.947366  0.663746  1
  S  S7  1  0.072549  0.382269  0.241773  1
  S  S8  1  0.393887  0.096669  0.242707  1
  S  S9  1  0.903331  0.606113  0.757293  1
  S  S10  1  0.617731  0.927451  0.758227  1
  S  S11  1  0.789942  0.776383  0.243617  1
  S  S12  1  0.223617  0.210058  0.756383  1
