# generated using pymatgen
data_Na3Yb3(Fe3N5)2
_symmetry_space_group_name_H-M   'P 1'
_cell_length_a   5.38201404
_cell_length_b   6.79399019
_cell_length_c   8.13538207
_cell_angle_alpha   108.75340091
_cell_angle_beta   103.16955461
_cell_angle_gamma   94.73848522
_symmetry_Int_Tables_number   1
_chemical_formula_structural   Na3Yb3(Fe3N5)2
_chemical_formula_sum   'Na3 Yb3 Fe6 N10'
_cell_volume   270.32542831
_cell_formula_units_Z   1
loop_
 _symmetry_equiv_pos_site_id
 _symmetry_equiv_pos_as_xyz
  1  'x, y, z'
loop_
 _atom_site_type_symbol
 _atom_site_label
 _atom_site_symmetry_multiplicity
 _atom_site_fract_x
 _atom_site_fract_y
 _atom_site_fract_z
 _atom_site_occupancy
  Na  Na0  1  0.797603  0.425606  0.606008  1
  Na  Na1  1  0.193937  0.583937  0.393589  1
  Na  Na2  1  0.659778  0.854497  0.874345  1
  Yb  Yb3  1  0.333093  0.131078  0.119771  1
  Yb  Yb4  1  0.661535  0.667367  0.207204  1
  Yb  Yb5  1  0.329949  0.343165  0.788692  1
  Fe  Fe6  1  0.905746  0.318326  0.975056  1
  Fe  Fe7  1  0.087880  0.675955  0.025573  1
  Fe  Fe8  1  0.690414  0.955573  0.573526  1
  Fe  Fe9  1  0.316273  0.045313  0.430671  1
  Fe  Fe10  1  0.105744  0.886385  0.707841  1
  Fe  Fe11  1  0.899901  0.116250  0.297423  1
  N  N12  1  0.945797  0.122539  0.781001  1
  N  N13  1  0.065507  0.879448  0.222368  1
  N  N14  1  0.828610  0.723447  0.521064  1
  N  N15  1  0.182467  0.282974  0.472255  1
  N  N16  1  0.750194  0.528708  0.917848  1
  N  N17  1  0.249791  0.461054  0.085007  1
  N  N18  1  0.371415  0.952522  0.621107  1
  N  N19  1  0.630414  0.050990  0.378104  1
  N  N20  1  0.197849  0.772708  0.877397  1
  N  N21  1  0.796101  0.222158  0.124152  1
