# generated using pymatgen
data_Ti10Sb7
_symmetry_space_group_name_H-M   'P 1'
_cell_length_a   5.57890202
_cell_length_b   8.20988917
_cell_length_c   8.21020601
_cell_angle_alpha   120.00054546
_cell_angle_beta   89.99294227
_cell_angle_gamma   90.00164143
_symmetry_Int_Tables_number   1
_chemical_formula_structural   Ti10Sb7
_chemical_formula_sum   'Ti10 Sb7'
_cell_volume   325.66292835
_cell_formula_units_Z   1
loop_
 _symmetry_equiv_pos_site_id
 _symmetry_equiv_pos_as_xyz
  1  'x, y, z'
loop_
 _atom_site_type_symbol
 _atom_site_label
 _atom_site_symmetry_multiplicity
 _atom_site_fract_x
 _atom_site_fract_y
 _atom_site_fract_z
 _atom_site_occupancy
  Ti  Ti0  1  0.500009  0.333316  0.666645  1
  Ti  Ti1  1  0.500006  0.666675  0.333351  1
  Ti  Ti2  1  0.999992  0.666673  0.333347  1
  Ti  Ti3  1  0.999996  0.333323  0.666647  1
  Ti  Ti4  1  0.773934  0.268120  0.000017  1
  Ti  Ti5  1  0.773926  0.731872  0.731893  1
  Ti  Ti6  1  0.773935  0.000001  0.268108  1
  Ti  Ti7  1  0.226055  0.731882  0.999986  1
  Ti  Ti8  1  0.226065  0.268121  0.268102  1
  Ti  Ti9  1  0.226056  0.000016  0.731904  1
  Sb  Sb10  1  0.747726  0.611967  0.999993  1
  Sb  Sb11  1  0.747734  0.388013  0.388027  1
  Sb  Sb12  1  0.747758  0.000012  0.611991  1
  Sb  Sb13  1  0.252273  0.388023  0.999985  1
  Sb  Sb14  1  0.252265  0.611979  0.611987  1
  Sb  Sb15  1  0.252241  0.000010  0.388020  1
  Sb  Sb16  1  0.500025  0.000000  0.999999  1
