# generated using pymatgen
data_K6Cd2H9F
_symmetry_space_group_name_H-M   'P 1'
_cell_length_a   7.90618728
_cell_length_b   7.90618589
_cell_length_c   7.90618700
_cell_angle_alpha   122.23028033
_cell_angle_beta   122.23028257
_cell_angle_gamma   86.17858283
_symmetry_Int_Tables_number   1
_chemical_formula_structural   K6Cd2H9F
_chemical_formula_sum   'K6 Cd2 H9 F1'
_cell_volume   336.85464005
_cell_formula_units_Z   1
loop_
 _symmetry_equiv_pos_site_id
 _symmetry_equiv_pos_as_xyz
  1  'x, y, z'
loop_
 _atom_site_type_symbol
 _atom_site_label
 _atom_site_symmetry_multiplicity
 _atom_site_fract_x
 _atom_site_fract_y
 _atom_site_fract_z
 _atom_site_occupancy
  K  K0  1  0.812710  0.320110  0.132820  1
  K  K1  1  0.679890  0.812710  0.492600  1
  K  K2  1  0.320110  0.187290  0.507400  1
  K  K3  1  0.187290  0.679890  0.867180  1
  K  K4  1  0.252961  0.252961  0.000000  1
  K  K5  1  0.747039  0.747039  0.000000  1
  Cd  Cd6  1  0.250000  0.750000  0.500000  1
  Cd  Cd7  1  0.750000  0.250000  0.500000  1
  H  H8  1  0.000000  0.000000  0.000000  1
  H  H9  1  0.290264  0.520235  0.500167  1
  H  H10  1  0.020069  0.790099  0.499833  1
  H  H11  1  0.790099  0.290264  0.770030  1
  H  H12  1  0.520235  0.020069  0.229970  1
  H  H13  1  0.479765  0.979931  0.770030  1
  H  H14  1  0.209901  0.709736  0.229970  1
  H  H15  1  0.979931  0.209901  0.500167  1
  H  H16  1  0.709736  0.479765  0.499833  1
  F  F17  1  0.500000  0.500000  0.000000  1
