# generated using pymatgen
data_YTmLu14(In3Co)2
_symmetry_space_group_name_H-M   'P 1'
_cell_length_a   10.15794100
_cell_length_b   10.15794179
_cell_length_c   6.90319700
_cell_angle_alpha   90.00000000
_cell_angle_beta   90.00000000
_cell_angle_gamma   120.00000720
_symmetry_Int_Tables_number   1
_chemical_formula_structural   YTmLu14(In3Co)2
_chemical_formula_sum   'Y1 Tm1 Lu14 In6 Co2'
_cell_volume   616.86804444
_cell_formula_units_Z   1
loop_
 _symmetry_equiv_pos_site_id
 _symmetry_equiv_pos_as_xyz
  1  'x, y, z'
loop_
 _atom_site_type_symbol
 _atom_site_label
 _atom_site_symmetry_multiplicity
 _atom_site_fract_x
 _atom_site_fract_y
 _atom_site_fract_z
 _atom_site_occupancy
  Y  Y0  1  0.000000  0.000000  0.995386  1
  Tm  Tm1  1  0.000000  0.000000  0.495877  1
  Lu  Lu2  1  0.464680  0.535320  0.481830  1
  Lu  Lu3  1  0.070641  0.535320  0.481830  1
  Lu  Lu4  1  0.464680  0.929359  0.481830  1
  Lu  Lu5  1  0.535311  0.464689  0.981839  1
  Lu  Lu6  1  0.929377  0.464689  0.981839  1
  Lu  Lu7  1  0.535311  0.070623  0.981839  1
  Lu  Lu8  1  0.820346  0.179654  0.276838  1
  Lu  Lu9  1  0.359308  0.179654  0.276838  1
  Lu  Lu10  1  0.820346  0.640692  0.276838  1
  Lu  Lu11  1  0.179696  0.820304  0.776379  1
  Lu  Lu12  1  0.640608  0.820304  0.776379  1
  Lu  Lu13  1  0.179696  0.359392  0.776379  1
  Lu  Lu14  1  0.333333  0.666667  0.090989  1
  Lu  Lu15  1  0.666667  0.333333  0.590962  1
  In  In16  1  0.163380  0.836620  0.234699  1
  In  In17  1  0.673239  0.836620  0.234699  1
  In  In18  1  0.163380  0.326761  0.234699  1
  In  In19  1  0.836639  0.163361  0.734445  1
  In  In20  1  0.326723  0.163361  0.734445  1
  In  In21  1  0.836639  0.673277  0.734445  1
  Co  Co22  1  0.333333  0.666667  0.706730  1
  Co  Co23  1  0.666667  0.333333  0.206520  1
