# generated using pymatgen
data_Zr6Ti2Al(Ga2Rh)7
_symmetry_space_group_name_H-M   'P 1'
_cell_length_a   8.86003446
_cell_length_b   8.85653068
_cell_length_c   8.85653125
_cell_angle_alpha   120.46140809
_cell_angle_beta   119.62280713
_cell_angle_gamma   89.91744570
_symmetry_Int_Tables_number   1
_chemical_formula_structural   Zr6Ti2Al(Ga2Rh)7
_chemical_formula_sum   'Zr6 Ti2 Al1 Ga14 Rh7'
_cell_volume   491.11590010
_cell_formula_units_Z   1
loop_
 _symmetry_equiv_pos_site_id
 _symmetry_equiv_pos_as_xyz
  1  'x, y, z'
loop_
 _atom_site_type_symbol
 _atom_site_label
 _atom_site_symmetry_multiplicity
 _atom_site_fract_x
 _atom_site_fract_y
 _atom_site_fract_z
 _atom_site_occupancy
  Zr  Zr0  1  0.795132  0.286936  0.070719  1
  Zr  Zr1  1  0.216757  0.291042  0.495189  1
  Zr  Zr2  1  0.205795  0.704218  0.501577  1
  Zr  Zr3  1  0.216757  0.721568  0.925715  1
  Zr  Zr4  1  0.795132  0.724413  0.508196  1
  Zr  Zr5  1  0.777814  0.277972  0.499842  1
  Ti  Ti6  1  0.378484  0.124821  0.746645  1
  Ti  Ti7  1  0.378484  0.631839  0.253663  1
  Al  Al8  1  0.132683  0.874424  0.258261  1
  Ga  Ga9  1  0.988937  0.490599  0.498338  1
  Ga  Ga10  1  0.159896  0.345734  0.186251  1
  Ga  Ga11  1  0.159896  0.973646  0.814163  1
  Ga  Ga12  1  0.156198  0.347769  0.808428  1
  Ga  Ga13  1  0.540271  0.348032  0.192240  1
  Ga  Ga14  1  0.844774  0.655176  0.811952  1
  Ga  Ga15  1  0.844774  0.032821  0.189597  1
  Ga  Ga16  1  0.844550  0.656333  0.188218  1
  Ga  Ga17  1  0.471426  0.656864  0.814561  1
  Ga  Ga18  1  0.375509  0.122591  0.252918  1
  Ga  Ga19  1  0.871539  0.124773  0.746765  1
  Ga  Ga20  1  0.618463  0.869452  0.251827  1
  Ga  Ga21  1  0.618463  0.366636  0.749012  1
  Ga  Ga22  1  0.611112  0.875289  0.735823  1
  Rh  Rh23  1  0.006618  0.002018  0.502952  1
  Rh  Rh24  1  0.499442  0.002316  0.999925  1
  Rh  Rh25  1  0.496614  0.496372  0.000242  1
  Rh  Rh26  1  0.499442  0.499517  0.497126  1
  Rh  Rh27  1  0.006618  0.503666  0.004600  1
  Rh  Rh28  1  0.001401  0.999879  0.001523  1
  Rh  Rh29  1  0.487013  0.993278  0.493735  1
