# generated using pymatgen
data_TbSm6Sn23Rh6
_symmetry_space_group_name_H-M   'P 1'
_cell_length_a   9.92024905
_cell_length_b   9.91856776
_cell_length_c   10.15896501
_cell_angle_alpha   90.00000061
_cell_angle_beta   89.99568547
_cell_angle_gamma   119.99440509
_symmetry_Int_Tables_number   1
_chemical_formula_structural   TbSm6Sn23Rh6
_chemical_formula_sum   'Tb1 Sm6 Sn23 Rh6'
_cell_volume   865.71734032
_cell_formula_units_Z   1
loop_
 _symmetry_equiv_pos_site_id
 _symmetry_equiv_pos_as_xyz
  1  'x, y, z'
loop_
 _atom_site_type_symbol
 _atom_site_label
 _atom_site_symmetry_multiplicity
 _atom_site_fract_x
 _atom_site_fract_y
 _atom_site_fract_z
 _atom_site_occupancy
  Tb  Tb0  1  0.957588  0.478794  0.692925  1
  Sm  Sm1  1  0.999957  0.999979  0.999983  1
  Sm  Sm2  1  0.478447  0.521478  0.307147  1
  Sm  Sm3  1  0.521563  0.478492  0.692890  1
  Sm  Sm4  1  0.478447  0.956971  0.307147  1
  Sm  Sm5  1  0.521563  0.043070  0.692890  1
  Sm  Sm6  1  0.043024  0.521512  0.307219  1
  Sn  Sn7  1  0.351066  0.999911  0.999959  1
  Sn  Sn8  1  0.648896  0.000052  0.999969  1
  Sn  Sn9  1  0.999943  0.351210  0.999741  1
  Sn  Sn10  1  0.999943  0.648733  0.999741  1
  Sn  Sn11  1  0.648896  0.648844  0.999969  1
  Sn  Sn12  1  0.351066  0.351156  0.999959  1
  Sn  Sn13  1  0.333044  0.666523  0.819799  1
  Sn  Sn14  1  0.666693  0.333346  0.180002  1
  Sn  Sn15  1  0.999932  0.999966  0.500007  1
  Sn  Sn16  1  0.779143  0.221616  0.455911  1
  Sn  Sn17  1  0.220525  0.778068  0.544943  1
  Sn  Sn18  1  0.779143  0.557527  0.455911  1
  Sn  Sn19  1  0.220525  0.442457  0.544943  1
  Sn  Sn20  1  0.442437  0.221218  0.455501  1
  Sn  Sn21  1  0.557572  0.778786  0.544600  1
  Sn  Sn22  1  0.333300  0.666650  0.116323  1
  Sn  Sn23  1  0.667584  0.333791  0.883159  1
  Sn  Sn24  1  0.118505  0.881404  0.280166  1
  Sn  Sn25  1  0.881562  0.119283  0.719795  1
  Sn  Sn26  1  0.118505  0.237100  0.280166  1
  Sn  Sn27  1  0.881562  0.762279  0.719795  1
  Sn  Sn28  1  0.762994  0.881497  0.280119  1
  Sn  Sn29  1  0.236949  0.118474  0.719869  1
  Rh  Rh30  1  0.831612  0.168363  0.197948  1
  Rh  Rh31  1  0.168091  0.830954  0.801767  1
  Rh  Rh32  1  0.831612  0.663251  0.197948  1
  Rh  Rh33  1  0.168091  0.337137  0.801767  1
  Rh  Rh34  1  0.336886  0.168443  0.198006  1
  Rh  Rh35  1  0.663331  0.831665  0.802018  1
