# generated using pymatgen
data_Zr6Zn15Au8Se
_symmetry_space_group_name_H-M   'P 1'
_cell_length_a   8.94218889
_cell_length_b   8.94218825
_cell_length_c   8.94218800
_cell_angle_alpha   60.00000094
_cell_angle_beta   60.00000329
_cell_angle_gamma   59.99999771
_symmetry_Int_Tables_number   1
_chemical_formula_structural   Zr6Zn15Au8Se
_chemical_formula_sum   'Zr6 Zn15 Au8 Se1'
_cell_volume   505.61092877
_cell_formula_units_Z   1
loop_
 _symmetry_equiv_pos_site_id
 _symmetry_equiv_pos_as_xyz
  1  'x, y, z'
loop_
 _atom_site_type_symbol
 _atom_site_label
 _atom_site_symmetry_multiplicity
 _atom_site_fract_x
 _atom_site_fract_y
 _atom_site_fract_z
 _atom_site_occupancy
  Zr  Zr0  1  0.711503  0.288497  0.288497  1
  Zr  Zr1  1  0.288497  0.711503  0.711503  1
  Zr  Zr2  1  0.288497  0.711503  0.288497  1
  Zr  Zr3  1  0.711503  0.288497  0.711503  1
  Zr  Zr4  1  0.288497  0.288497  0.711503  1
  Zr  Zr5  1  0.711503  0.711503  0.288497  1
  Zn  Zn6  1  0.500000  0.000000  0.000000  1
  Zn  Zn7  1  0.000000  0.500000  0.500000  1
  Zn  Zn8  1  0.000000  0.500000  0.000000  1
  Zn  Zn9  1  0.500000  0.000000  0.500000  1
  Zn  Zn10  1  0.000000  0.000000  0.500000  1
  Zn  Zn11  1  0.500000  0.500000  0.000000  1
  Zn  Zn12  1  0.336368  0.336368  0.336368  1
  Zn  Zn13  1  0.663632  0.663632  0.663632  1
  Zn  Zn14  1  0.336368  0.336368  0.990896  1
  Zn  Zn15  1  0.336368  0.990896  0.336368  1
  Zn  Zn16  1  0.663632  0.663632  0.009104  1
  Zn  Zn17  1  0.663632  0.009104  0.663632  1
  Zn  Zn18  1  0.990896  0.336368  0.336368  1
  Zn  Zn19  1  0.009104  0.663632  0.663632  1
  Zn  Zn20  1  0.000000  0.000000  0.000000  1
  Au  Au21  1  0.121950  0.121950  0.121950  1
  Au  Au22  1  0.878050  0.878050  0.878050  1
  Au  Au23  1  0.121950  0.121950  0.634150  1
  Au  Au24  1  0.121950  0.634150  0.121950  1
  Au  Au25  1  0.878050  0.878050  0.365850  1
  Au  Au26  1  0.878050  0.365850  0.878050  1
  Au  Au27  1  0.634150  0.121950  0.121950  1
  Au  Au28  1  0.365850  0.878050  0.878050  1
  Se  Se29  1  0.500000  0.500000  0.500000  1
