# generated using pymatgen
data_Pa4Re3Tc5
_symmetry_space_group_name_H-M   'P 1'
_cell_length_a   5.20037900
_cell_length_b   5.20037847
_cell_length_c   9.52840800
_cell_angle_alpha   90.00000000
_cell_angle_beta   90.00000000
_cell_angle_gamma   119.99999701
_symmetry_Int_Tables_number   1
_chemical_formula_structural   Pa4Re3Tc5
_chemical_formula_sum   'Pa4 Re3 Tc5'
_cell_volume   223.16235578
_cell_formula_units_Z   1
loop_
 _symmetry_equiv_pos_site_id
 _symmetry_equiv_pos_as_xyz
  1  'x, y, z'
loop_
 _atom_site_type_symbol
 _atom_site_label
 _atom_site_symmetry_multiplicity
 _atom_site_fract_x
 _atom_site_fract_y
 _atom_site_fract_z
 _atom_site_occupancy
  Pa  Pa0  1  0.333333  0.666667  0.440201  1
  Pa  Pa1  1  0.666667  0.333333  0.561708  1
  Pa  Pa2  1  0.666667  0.333333  0.938292  1
  Pa  Pa3  1  0.333333  0.666667  0.059799  1
  Re  Re4  1  0.830775  0.169225  0.250000  1
  Re  Re5  1  0.830775  0.661551  0.250000  1
  Re  Re6  1  0.338449  0.169225  0.250000  1
  Tc  Tc7  1  0.000000  0.000000  0.499866  1
  Tc  Tc8  1  0.000000  0.000000  0.000134  1
  Tc  Tc9  1  0.169202  0.830798  0.750000  1
  Tc  Tc10  1  0.169202  0.338403  0.750000  1
  Tc  Tc11  1  0.661597  0.830798  0.750000  1
