# generated using pymatgen
data_SBr37
_symmetry_space_group_name_H-M   'P 1'
_cell_length_a   14.20848141
_cell_length_b   15.29732181
_cell_length_c   14.42416200
_cell_angle_alpha   103.00376457
_cell_angle_beta   48.80056783
_cell_angle_gamma   81.50743146
_symmetry_Int_Tables_number   1
_chemical_formula_structural   SBr37
_chemical_formula_sum   'S1 Br37'
_cell_volume   2102.91272627
_cell_formula_units_Z   1
loop_
 _symmetry_equiv_pos_site_id
 _symmetry_equiv_pos_as_xyz
  1  'x, y, z'
loop_
 _atom_site_type_symbol
 _atom_site_label
 _atom_site_symmetry_multiplicity
 _atom_site_fract_x
 _atom_site_fract_y
 _atom_site_fract_z
 _atom_site_occupancy
  S  S0  1  0.500000  0.000000  0.000000  1
  Br  Br1  1  0.787231  0.298977  0.135070  1
  Br  Br2  1  0.212769  0.701023  0.864930  1
  Br  Br3  1  0.741021  0.084807  0.363787  1
  Br  Br4  1  0.258979  0.915193  0.636213  1
  Br  Br5  1  0.127788  0.347273  0.165590  1
  Br  Br6  1  0.872212  0.652727  0.834410  1
  Br  Br7  1  0.860833  0.527007  0.246646  1
  Br  Br8  1  0.139167  0.472993  0.753354  1
  Br  Br9  1  0.683331  0.276588  0.523607  1
  Br  Br10  1  0.316669  0.723412  0.476393  1
  Br  Br11  1  0.016129  0.150420  0.538160  1
  Br  Br12  1  0.983871  0.849580  0.461840  1
  Br  Br13  1  0.974295  0.012339  0.286910  1
  Br  Br14  1  0.025705  0.987661  0.713090  1
  Br  Br15  1  0.933021  0.343579  0.621557  1
  Br  Br16  1  0.066979  0.656421  0.378443  1
  Br  Br17  1  0.577889  0.428604  0.233857  1
  Br  Br18  1  0.422111  0.571396  0.766143  1
  Br  Br19  1  0.175042  0.475362  0.287916  1
  Br  Br20  1  0.824958  0.524638  0.712084  1
  Br  Br21  1  0.000000  0.500000  0.000000  1
  Br  Br22  1  0.537252  0.974297  0.141962  1
  Br  Br23  1  0.462748  0.025703  0.858038  1
  Br  Br24  1  0.272173  0.065062  0.350792  1
  Br  Br25  1  0.727827  0.934938  0.649208  1
  Br  Br26  1  0.527190  0.133411  0.415123  1
  Br  Br27  1  0.472810  0.866589  0.584877  1
  Br  Br28  1  0.105891  0.217237  0.060025  1
  Br  Br29  1  0.894109  0.782763  0.939975  1
  Br  Br30  1  0.662994  0.689712  0.403431  1
  Br  Br31  1  0.337006  0.310288  0.596569  1
  Br  Br32  1  0.901078  0.144986  0.921400  1
  Br  Br33  1  0.098922  0.855014  0.078600  1
  Br  Br34  1  0.458578  0.170827  0.085065  1
  Br  Br35  1  0.541422  0.829173  0.914935  1
  Br  Br36  1  0.650896  0.430464  0.650682  1
  Br  Br37  1  0.349104  0.569536  0.349318  1
