# generated using pymatgen
data_AcGd(Si7Ir3)2
_symmetry_space_group_name_H-M   'P 1'
_cell_length_a   8.14582980
_cell_length_b   8.14583147
_cell_length_c   8.14583000
_cell_angle_alpha   56.46096001
_cell_angle_beta   56.46096068
_cell_angle_gamma   56.46095299
_symmetry_Int_Tables_number   1
_chemical_formula_structural   AcGd(Si7Ir3)2
_chemical_formula_sum   'Ac1 Gd1 Si14 Ir6'
_cell_volume   350.93065243
_cell_formula_units_Z   1
loop_
 _symmetry_equiv_pos_site_id
 _symmetry_equiv_pos_as_xyz
  1  'x, y, z'
loop_
 _atom_site_type_symbol
 _atom_site_label
 _atom_site_symmetry_multiplicity
 _atom_site_fract_x
 _atom_site_fract_y
 _atom_site_fract_z
 _atom_site_occupancy
  Ac  Ac0  1  0.500000  0.500000  0.500000  1
  Gd  Gd1  1  0.000000  0.000000  0.000000  1
  Si  Si2  1  0.059807  0.853431  0.674695  1
  Si  Si3  1  0.674695  0.059807  0.853431  1
  Si  Si4  1  0.853431  0.674695  0.059807  1
  Si  Si5  1  0.171237  0.347405  0.565440  1
  Si  Si6  1  0.565440  0.171237  0.347405  1
  Si  Si7  1  0.347405  0.565440  0.171237  1
  Si  Si8  1  0.940193  0.146569  0.325305  1
  Si  Si9  1  0.325305  0.940193  0.146569  1
  Si  Si10  1  0.146569  0.325305  0.940193  1
  Si  Si11  1  0.828763  0.652595  0.434560  1
  Si  Si12  1  0.434560  0.828763  0.652595  1
  Si  Si13  1  0.652595  0.434560  0.828763  1
  Si  Si14  1  0.749401  0.749401  0.749401  1
  Si  Si15  1  0.250599  0.250599  0.250599  1
  Ir  Ir16  1  0.064836  0.753378  0.429998  1
  Ir  Ir17  1  0.429998  0.064836  0.753378  1
  Ir  Ir18  1  0.753378  0.429998  0.064836  1
  Ir  Ir19  1  0.935164  0.246622  0.570002  1
  Ir  Ir20  1  0.570002  0.935164  0.246622  1
  Ir  Ir21  1  0.246622  0.570002  0.935164  1
