# generated using pymatgen
data_Hf8MnSiBi4
_symmetry_space_group_name_H-M   'P 1'
_cell_length_a   8.23440597
_cell_length_b   8.23440730
_cell_length_c   8.23440660
_cell_angle_alpha   95.93539169
_cell_angle_beta   95.93539229
_cell_angle_gamma   142.48425178
_symmetry_Int_Tables_number   1
_chemical_formula_structural   Hf8MnSiBi4
_chemical_formula_sum   'Hf8 Mn1 Si1 Bi4'
_cell_volume   321.95655602
_cell_formula_units_Z   1
loop_
 _symmetry_equiv_pos_site_id
 _symmetry_equiv_pos_as_xyz
  1  'x, y, z'
loop_
 _atom_site_type_symbol
 _atom_site_label
 _atom_site_symmetry_multiplicity
 _atom_site_fract_x
 _atom_site_fract_y
 _atom_site_fract_z
 _atom_site_occupancy
  Hf  Hf0  1  0.698411  0.584746  0.277544  1
  Hf  Hf1  1  0.307202  0.420867  0.722456  1
  Hf  Hf2  1  0.584746  0.307202  0.886335  1
  Hf  Hf3  1  0.079133  0.192798  0.277544  1
  Hf  Hf4  1  0.801589  0.079133  0.886335  1
  Hf  Hf5  1  0.420867  0.698411  0.113665  1
  Hf  Hf6  1  0.915254  0.801589  0.722456  1
  Hf  Hf7  1  0.192798  0.915254  0.113665  1
  Mn  Mn8  1  0.750000  0.750000  0.000000  1
  Si  Si9  1  0.250000  0.250000  0.000000  1
  Bi  Bi10  1  0.138578  0.638578  0.777158  1
  Bi  Bi11  1  0.361422  0.138578  0.500000  1
  Bi  Bi12  1  0.861422  0.361422  0.222842  1
  Bi  Bi13  1  0.638578  0.861422  0.500000  1
