# generated using pymatgen
data_DyEr5(Tm2In3)2
_symmetry_space_group_name_H-M   'P 1'
_cell_length_a   9.07092086
_cell_length_b   9.07091995
_cell_length_c   9.07360835
_cell_angle_alpha   96.42946428
_cell_angle_beta   96.44800457
_cell_angle_gamma   140.86419894
_symmetry_Int_Tables_number   1
_chemical_formula_structural   DyEr5(Tm2In3)2
_chemical_formula_sum   'Dy1 Er5 Tm4 In6'
_cell_volume   444.02026139
_cell_formula_units_Z   1
loop_
 _symmetry_equiv_pos_site_id
 _symmetry_equiv_pos_as_xyz
  1  'x, y, z'
loop_
 _atom_site_type_symbol
 _atom_site_label
 _atom_site_symmetry_multiplicity
 _atom_site_fract_x
 _atom_site_fract_y
 _atom_site_fract_z
 _atom_site_occupancy
  Dy  Dy0  1  0.081885  0.781802  0.863687  1
  Er  Er1  1  0.717686  0.418929  0.136615  1
  Er  Er2  1  0.282696  0.581008  0.863705  1
  Er  Er3  1  0.581602  0.717684  0.299284  1
  Er  Er4  1  0.217444  0.081713  0.299157  1
  Er  Er5  1  0.917992  0.217699  0.135691  1
  Tm  Tm6  1  0.750038  0.249760  0.499778  1
  Tm  Tm7  1  0.250017  0.749740  0.499778  1
  Tm  Tm8  1  0.782337  0.918813  0.701151  1
  Tm  Tm9  1  0.418018  0.282660  0.700679  1
  In  In10  1  0.837841  0.661682  0.499524  1
  In  In11  1  0.338985  0.838365  0.177350  1
  In  In12  1  0.749843  0.750320  0.000161  1
  In  In13  1  0.661906  0.161505  0.823410  1
  In  In14  1  0.161869  0.338003  0.499872  1
  In  In15  1  0.249841  0.250318  0.000161  1
