# generated using pymatgen
data_Er6Th2Mg2CoOs
_symmetry_space_group_name_H-M   'P 1'
_cell_length_a   9.63950207
_cell_length_b   9.63950226
_cell_length_c   9.72005300
_cell_angle_alpha   59.72319154
_cell_angle_beta   59.72319089
_cell_angle_gamma   59.44808044
_symmetry_Int_Tables_number   1
_chemical_formula_structural   Er6Th2Mg2CoOs
_chemical_formula_sum   'Er12 Th4 Mg4 Co2 Os2'
_cell_volume   633.29186033
_cell_formula_units_Z   2
loop_
 _symmetry_equiv_pos_site_id
 _symmetry_equiv_pos_as_xyz
  1  'x, y, z'
loop_
 _atom_site_type_symbol
 _atom_site_label
 _atom_site_symmetry_multiplicity
 _atom_site_fract_x
 _atom_site_fract_y
 _atom_site_fract_z
 _atom_site_occupancy
  Er  Er0  1  0.060732  0.435166  0.437112  1
  Er  Er1  1  0.435166  0.060732  0.066991  1
  Er  Er2  1  0.435166  0.060732  0.437112  1
  Er  Er3  1  0.060732  0.435166  0.066991  1
  Er  Er4  1  0.437018  0.437018  0.062982  1
  Er  Er5  1  0.064215  0.064215  0.435785  1
  Er  Er6  1  0.185662  0.811600  0.817234  1
  Er  Er7  1  0.811600  0.185662  0.185504  1
  Er  Er8  1  0.811600  0.185662  0.817234  1
  Er  Er9  1  0.185662  0.811600  0.185504  1
  Er  Er10  1  0.815758  0.815758  0.184242  1
  Er  Er11  1  0.186538  0.186538  0.813462  1
  Th  Th12  1  0.598905  0.598905  0.590355  1
  Th  Th13  1  0.598905  0.598905  0.211836  1
  Th  Th14  1  0.601902  0.209797  0.594151  1
  Th  Th15  1  0.209797  0.601902  0.594151  1
  Mg  Mg16  1  0.829531  0.829531  0.831940  1
  Mg  Mg17  1  0.829531  0.829531  0.508999  1
  Mg  Mg18  1  0.829437  0.508633  0.830965  1
  Mg  Mg19  1  0.508633  0.829437  0.830965  1
  Co  Co20  1  0.395988  0.819311  0.392350  1
  Co  Co21  1  0.819311  0.395988  0.392350  1
  Os  Os22  1  0.394105  0.394105  0.390669  1
  Os  Os23  1  0.394105  0.394105  0.821119  1
