# generated using pymatgen
data_Ho3Sc2InSb2
_symmetry_space_group_name_H-M   'P 1'
_cell_length_a   8.76029236
_cell_length_b   8.76404275
_cell_length_c   6.20162400
_cell_angle_alpha   90.00000000
_cell_angle_beta   90.00000000
_cell_angle_gamma   120.01415643
_symmetry_Int_Tables_number   1
_chemical_formula_structural   Ho3Sc2InSb2
_chemical_formula_sum   'Ho6 Sc4 In2 Sb4'
_cell_volume   412.28466507
_cell_formula_units_Z   2
loop_
 _symmetry_equiv_pos_site_id
 _symmetry_equiv_pos_as_xyz
  1  'x, y, z'
loop_
 _atom_site_type_symbol
 _atom_site_label
 _atom_site_symmetry_multiplicity
 _atom_site_fract_x
 _atom_site_fract_y
 _atom_site_fract_z
 _atom_site_occupancy
  Ho  Ho0  1  0.756769  0.998023  0.750000  1
  Ho  Ho1  1  0.756769  0.758746  0.250000  1
  Ho  Ho2  1  0.002192  0.243958  0.250000  1
  Ho  Ho3  1  0.002192  0.758235  0.750000  1
  Ho  Ho4  1  0.241618  0.237688  0.750000  1
  Ho  Ho5  1  0.241618  0.003930  0.250000  1
  Sc  Sc6  1  0.334146  0.667073  0.000000  1
  Sc  Sc7  1  0.664243  0.332121  0.500000  1
  Sc  Sc8  1  0.664243  0.332121  0.000000  1
  Sc  Sc9  1  0.334146  0.667073  0.500000  1
  In  In10  1  0.398921  0.998043  0.750000  1
  In  In11  1  0.398921  0.400878  0.250000  1
  Sb  Sb12  1  0.999624  0.604913  0.250000  1
  Sb  Sb13  1  0.999624  0.394711  0.750000  1
  Sb  Sb14  1  0.602486  0.602017  0.750000  1
  Sb  Sb15  1  0.602486  0.000469  0.250000  1
