# generated using pymatgen
data_NdSi(AsRh2)3
_symmetry_space_group_name_H-M   'P 1'
_cell_length_a   7.20268600
_cell_length_b   7.20268509
_cell_length_c   3.88715200
_cell_angle_alpha   90.00000000
_cell_angle_beta   90.00000000
_cell_angle_gamma   120.00000418
_symmetry_Int_Tables_number   1
_chemical_formula_structural   NdSi(AsRh2)3
_chemical_formula_sum   'Nd1 Si1 As3 Rh6'
_cell_volume   174.64294494
_cell_formula_units_Z   1
loop_
 _symmetry_equiv_pos_site_id
 _symmetry_equiv_pos_as_xyz
  1  'x, y, z'
loop_
 _atom_site_type_symbol
 _atom_site_label
 _atom_site_symmetry_multiplicity
 _atom_site_fract_x
 _atom_site_fract_y
 _atom_site_fract_z
 _atom_site_occupancy
  Nd  Nd0  1  0.000000  0.000000  0.000000  1
  Si  Si1  1  0.333333  0.666667  0.000000  1
  As  As2  1  0.807804  0.192196  0.500000  1
  As  As3  1  0.384394  0.192196  0.500000  1
  As  As4  1  0.807804  0.615606  0.500000  1
  Rh  Rh5  1  0.202819  0.797181  0.500000  1
  Rh  Rh6  1  0.202819  0.405637  0.500000  1
  Rh  Rh7  1  0.531164  0.062329  0.000000  1
  Rh  Rh8  1  0.937671  0.468836  0.000000  1
  Rh  Rh9  1  0.531164  0.468836  0.000000  1
  Rh  Rh10  1  0.594363  0.797181  0.500000  1
