# generated using pymatgen
data_Zr7Nb3(Ge3C)2
_symmetry_space_group_name_H-M   'P 1'
_cell_length_a   7.98061500
_cell_length_b   7.98061447
_cell_length_c   5.57012200
_cell_angle_alpha   90.00000000
_cell_angle_beta   90.00000000
_cell_angle_gamma   119.99999807
_symmetry_Int_Tables_number   1
_chemical_formula_structural   Zr7Nb3(Ge3C)2
_chemical_formula_sum   'Zr7 Nb3 Ge6 C2'
_cell_volume   307.23312536
_cell_formula_units_Z   1
loop_
 _symmetry_equiv_pos_site_id
 _symmetry_equiv_pos_as_xyz
  1  'x, y, z'
loop_
 _atom_site_type_symbol
 _atom_site_label
 _atom_site_symmetry_multiplicity
 _atom_site_fract_x
 _atom_site_fract_y
 _atom_site_fract_z
 _atom_site_occupancy
  Zr  Zr0  1  0.666667  0.333333  0.000000  1
  Zr  Zr1  1  0.765112  0.999347  0.750355  1
  Zr  Zr2  1  0.765112  0.765765  0.249645  1
  Zr  Zr3  1  0.000653  0.234888  0.249645  1
  Zr  Zr4  1  0.000653  0.765765  0.750355  1
  Zr  Zr5  1  0.234235  0.234888  0.750355  1
  Zr  Zr6  1  0.234235  0.999347  0.249645  1
  Nb  Nb7  1  0.333333  0.666667  0.500000  1
  Nb  Nb8  1  0.666667  0.333333  0.500000  1
  Nb  Nb9  1  0.333333  0.666667  0.000000  1
  Ge  Ge10  1  0.404509  0.997227  0.743881  1
  Ge  Ge11  1  0.404509  0.407283  0.256119  1
  Ge  Ge12  1  0.002773  0.595491  0.256119  1
  Ge  Ge13  1  0.002773  0.407283  0.743881  1
  Ge  Ge14  1  0.592717  0.595491  0.743881  1
  Ge  Ge15  1  0.592717  0.997227  0.256119  1
  C  C16  1  0.000000  0.000000  0.500000  1
  C  C17  1  0.000000  0.000000  0.000000  1
