# generated using pymatgen
data_Ho10Sn3BiRu2
_symmetry_space_group_name_H-M   'P 1'
_cell_length_a   7.79998044
_cell_length_b   9.06036248
_cell_length_c   12.17321860
_cell_angle_alpha   90.02857570
_cell_angle_beta   90.33392676
_cell_angle_gamma   89.87343844
_symmetry_Int_Tables_number   1
_chemical_formula_structural   Ho10Sn3BiRu2
_chemical_formula_sum   'Ho20 Sn6 Bi2 Ru4'
_cell_volume   860.27246214
_cell_formula_units_Z   2
loop_
 _symmetry_equiv_pos_site_id
 _symmetry_equiv_pos_as_xyz
  1  'x, y, z'
loop_
 _atom_site_type_symbol
 _atom_site_label
 _atom_site_symmetry_multiplicity
 _atom_site_fract_x
 _atom_site_fract_y
 _atom_site_fract_z
 _atom_site_occupancy
  Ho  Ho0  1  0.840890  0.746607  0.788465  1
  Ho  Ho1  1  0.159110  0.253393  0.211535  1
  Ho  Ho2  1  0.348297  0.254039  0.713686  1
  Ho  Ho3  1  0.651703  0.745961  0.286314  1
  Ho  Ho4  1  0.379769  0.746033  0.697174  1
  Ho  Ho5  1  0.620231  0.253967  0.302826  1
  Ho  Ho6  1  0.870784  0.253401  0.804838  1
  Ho  Ho7  1  0.129216  0.746599  0.195162  1
  Ho  Ho8  1  0.952924  0.743140  0.502808  1
  Ho  Ho9  1  0.047076  0.256860  0.497192  1
  Ho  Ho10  1  0.455973  0.250100  0.996442  1
  Ho  Ho11  1  0.544027  0.749900  0.003558  1
  Ho  Ho12  1  0.673928  0.036825  0.572225  1
  Ho  Ho13  1  0.326072  0.963175  0.427775  1
  Ho  Ho14  1  0.179998  0.963427  0.934213  1
  Ho  Ho15  1  0.322030  0.537250  0.429839  1
  Ho  Ho16  1  0.820002  0.036573  0.065787  1
  Ho  Ho17  1  0.677970  0.462750  0.570161  1
  Ho  Ho18  1  0.822538  0.464856  0.070684  1
  Ho  Ho19  1  0.177462  0.535144  0.929316  1
  Sn  Sn20  1  0.573815  0.495029  0.832324  1
  Sn  Sn21  1  0.426185  0.504971  0.167676  1
  Sn  Sn22  1  0.073462  0.505307  0.671172  1
  Sn  Sn23  1  0.426789  0.995827  0.169383  1
  Sn  Sn24  1  0.926538  0.494693  0.328828  1
  Sn  Sn25  1  0.573211  0.004173  0.830617  1
  Bi  Bi26  1  0.925954  0.006056  0.329773  1
  Bi  Bi27  1  0.074046  0.993944  0.670227  1
  Ru  Ru28  1  0.574054  0.749794  0.508855  1
  Ru  Ru29  1  0.425946  0.250206  0.491145  1
  Ru  Ru30  1  0.072681  0.249353  0.991042  1
  Ru  Ru31  1  0.927319  0.750647  0.008958  1
