# generated using pymatgen
data_Lu6Zn17AsPd6
_symmetry_space_group_name_H-M   'P 1'
_cell_length_a   9.03279240
_cell_length_b   9.03281356
_cell_length_c   9.03279600
_cell_angle_alpha   59.99991783
_cell_angle_beta   60.00006739
_cell_angle_gamma   60.00006175
_symmetry_Int_Tables_number   1
_chemical_formula_structural   Lu6Zn17AsPd6
_chemical_formula_sum   'Lu6 Zn17 As1 Pd6'
_cell_volume   521.13763053
_cell_formula_units_Z   1
loop_
 _symmetry_equiv_pos_site_id
 _symmetry_equiv_pos_as_xyz
  1  'x, y, z'
loop_
 _atom_site_type_symbol
 _atom_site_label
 _atom_site_symmetry_multiplicity
 _atom_site_fract_x
 _atom_site_fract_y
 _atom_site_fract_z
 _atom_site_occupancy
  Lu  Lu0  1  0.718426  0.281573  0.281566  1
  Lu  Lu1  1  0.718428  0.281570  0.718434  1
  Lu  Lu2  1  0.718431  0.718427  0.281564  1
  Lu  Lu3  1  0.281574  0.718427  0.718434  1
  Lu  Lu4  1  0.281572  0.718430  0.281566  1
  Lu  Lu5  1  0.281569  0.281573  0.718436  1
  Zn  Zn6  1  0.629305  0.123677  0.123459  1
  Zn  Zn7  1  0.123562  0.629262  0.123543  1
  Zn  Zn8  1  0.123464  0.123649  0.629318  1
  Zn  Zn9  1  0.123527  0.123698  0.123524  1
  Zn  Zn10  1  0.370695  0.876323  0.876541  1
  Zn  Zn11  1  0.876438  0.370738  0.876457  1
  Zn  Zn12  1  0.876536  0.876351  0.370682  1
  Zn  Zn13  1  0.876473  0.876302  0.876476  1
  Zn  Zn14  1  0.000000  0.000000  0.000000  1
  Zn  Zn15  1  0.005446  0.331639  0.331394  1
  Zn  Zn16  1  0.331508  0.005298  0.331529  1
  Zn  Zn17  1  0.331403  0.331650  0.005439  1
  Zn  Zn18  1  0.331433  0.331688  0.331423  1
  Zn  Zn19  1  0.994554  0.668361  0.668606  1
  Zn  Zn20  1  0.668492  0.994702  0.668471  1
  Zn  Zn21  1  0.668597  0.668350  0.994561  1
  Zn  Zn22  1  0.668567  0.668312  0.668577  1
  As  As23  1  0.500000  0.500000  0.500000  1
  Pd  Pd24  1  0.500000  0.000000  0.000000  1
  Pd  Pd25  1  0.500000  0.000000  0.500000  1
  Pd  Pd26  1  0.500000  0.500000  0.000000  1
  Pd  Pd27  1  0.000000  0.500000  0.500000  1
  Pd  Pd28  1  0.000000  0.500000  0.000000  1
  Pd  Pd29  1  0.000000  0.000000  0.500000  1
