# generated using pymatgen
data_Rb3Ce2PrSe6
_symmetry_space_group_name_H-M   'P 1'
_cell_length_a   7.67708920
_cell_length_b   7.67708851
_cell_length_c   8.26520800
_cell_angle_alpha   98.86524998
_cell_angle_beta   98.86524917
_cell_angle_gamma   120.07713923
_symmetry_Int_Tables_number   1
_chemical_formula_structural   Rb3Ce2PrSe6
_chemical_formula_sum   'Rb3 Ce2 Pr1 Se6'
_cell_volume   400.96848151
_cell_formula_units_Z   1
loop_
 _symmetry_equiv_pos_site_id
 _symmetry_equiv_pos_as_xyz
  1  'x, y, z'
loop_
 _atom_site_type_symbol
 _atom_site_label
 _atom_site_symmetry_multiplicity
 _atom_site_fract_x
 _atom_site_fract_y
 _atom_site_fract_z
 _atom_site_occupancy
  Rb  Rb0  1  0.835669  0.164331  0.500000  1
  Rb  Rb1  1  0.500000  0.500000  0.500000  1
  Rb  Rb2  1  0.164331  0.835669  0.500000  1
  Ce  Ce3  1  0.666894  0.333106  0.000000  1
  Ce  Ce4  1  0.333106  0.666894  0.000000  1
  Pr  Pr5  1  0.000000  0.000000  0.000000  1
  Se  Se6  1  0.732709  0.732709  0.200834  1
  Se  Se7  1  0.401120  0.067683  0.202053  1
  Se  Se8  1  0.067683  0.401120  0.202053  1
  Se  Se9  1  0.932318  0.598881  0.797948  1
  Se  Se10  1  0.598881  0.932318  0.797948  1
  Se  Se11  1  0.267292  0.267292  0.799166  1
