# generated using pymatgen
data_YbHo3(Al8Pt3)3
_symmetry_space_group_name_H-M   'P 1'
_cell_length_a   7.52652501
_cell_length_b   7.54580852
_cell_length_c   13.18631301
_cell_angle_alpha   84.60721455
_cell_angle_beta   79.11991390
_cell_angle_gamma   59.92227760
_symmetry_Int_Tables_number   1
_chemical_formula_structural   YbHo3(Al8Pt3)3
_chemical_formula_sum   'Yb1 Ho3 Al24 Pt9'
_cell_volume   636.40823515
_cell_formula_units_Z   1
loop_
 _symmetry_equiv_pos_site_id
 _symmetry_equiv_pos_as_xyz
  1  'x, y, z'
loop_
 _atom_site_type_symbol
 _atom_site_label
 _atom_site_symmetry_multiplicity
 _atom_site_fract_x
 _atom_site_fract_y
 _atom_site_fract_z
 _atom_site_occupancy
  Yb  Yb0  1  0.393791  0.168549  0.807523  1
  Ho  Ho1  1  0.605524  0.832026  0.192039  1
  Ho  Ho2  1  0.733912  0.498623  0.807737  1
  Ho  Ho3  1  0.266337  0.500881  0.192227  1
  Al  Al4  1  0.684236  0.833751  0.944560  1
  Al  Al5  1  0.315580  0.166323  0.055222  1
  Al  Al6  1  0.146744  0.832291  0.561086  1
  Al  Al7  1  0.853289  0.167830  0.438263  1
  Al  Al8  1  0.479720  0.166648  0.558843  1
  Al  Al9  1  0.520418  0.833579  0.440930  1
  Al  Al10  1  0.217877  0.165211  0.328977  1
  Al  Al11  1  0.782017  0.835394  0.670643  1
  Al  Al12  1  0.437152  0.505963  0.670365  1
  Al  Al13  1  0.562967  0.493356  0.329175  1
  Al  Al14  1  0.109999  0.160183  0.669164  1
  Al  Al15  1  0.890585  0.839769  0.330476  1
  Al  Al16  1  0.352833  0.499315  0.944802  1
  Al  Al17  1  0.646621  0.500841  0.056050  1
  Al  Al18  1  0.015404  0.168018  0.953727  1
  Al  Al19  1  0.984213  0.831770  0.047259  1
  Al  Al20  1  0.186829  0.499145  0.440946  1
  Al  Al21  1  0.813508  0.500466  0.558533  1
  Al  Al22  1  0.733899  0.164337  0.183464  1
  Al  Al23  1  0.266984  0.833414  0.816872  1
  Al  Al24  1  0.059334  0.632465  0.815822  1
  Al  Al25  1  0.938365  0.369200  0.184601  1
  Al  Al26  1  0.856247  0.042802  0.816352  1
  Al  Al27  1  0.145438  0.958030  0.184047  1
  Pt  Pt28  1  0.120002  0.492380  0.638254  1
  Pt  Pt29  1  0.880071  0.508088  0.361216  1
  Pt  Pt30  1  0.657141  0.171258  0.000369  1
  Pt  Pt31  1  0.342492  0.828513  0.000881  1
  Pt  Pt32  1  0.538177  0.166670  0.361297  1
  Pt  Pt33  1  0.461888  0.833023  0.638213  1
  Pt  Pt34  1  0.779418  0.174692  0.636693  1
  Pt  Pt35  1  0.221340  0.824924  0.362705  1
  Pt  Pt36  1  0.999646  0.500274  0.000668  1
