# generated using pymatgen
data_LaNd3Cd2NiAu3
_symmetry_space_group_name_H-M   'P 1'
_cell_length_a   8.07128613
_cell_length_b   8.07128684
_cell_length_c   3.88019100
_cell_angle_alpha   90.00000000
_cell_angle_beta   90.00000000
_cell_angle_gamma   88.77971730
_symmetry_Int_Tables_number   1
_chemical_formula_structural   LaNd3Cd2NiAu3
_chemical_formula_sum   'La1 Nd3 Cd2 Ni1 Au3'
_cell_volume   252.72029690
_cell_formula_units_Z   1
loop_
 _symmetry_equiv_pos_site_id
 _symmetry_equiv_pos_as_xyz
  1  'x, y, z'
loop_
 _atom_site_type_symbol
 _atom_site_label
 _atom_site_symmetry_multiplicity
 _atom_site_fract_x
 _atom_site_fract_y
 _atom_site_fract_z
 _atom_site_occupancy
  La  La0  1  0.809942  0.690058  0.500000  1
  Nd  Nd1  1  0.344250  0.822004  0.500000  1
  Nd  Nd2  1  0.171578  0.328422  0.500000  1
  Nd  Nd3  1  0.677996  0.155750  0.500000  1
  Cd  Cd4  1  0.999255  0.998793  0.000000  1
  Cd  Cd5  1  0.501207  0.500745  0.000000  1
  Ni  Ni6  1  0.622830  0.877170  0.000000  1
  Au  Au7  1  0.379748  0.120252  0.000000  1
  Au  Au8  1  0.868956  0.375762  0.000000  1
  Au  Au9  1  0.124238  0.631044  0.000000  1
