# generated using pymatgen
data_YbHo(In2Rh)2
_symmetry_space_group_name_H-M   'P 1'
_cell_length_a   5.47205012
_cell_length_b   5.47205008
_cell_length_c   8.31722400
_cell_angle_alpha   90.00000000
_cell_angle_beta   90.00000000
_cell_angle_gamma   134.84049603
_symmetry_Int_Tables_number   1
_chemical_formula_structural   YbHo(In2Rh)2
_chemical_formula_sum   'Yb1 Ho1 In4 Rh2'
_cell_volume   176.59125375
_cell_formula_units_Z   1
loop_
 _symmetry_equiv_pos_site_id
 _symmetry_equiv_pos_as_xyz
  1  'x, y, z'
loop_
 _atom_site_type_symbol
 _atom_site_label
 _atom_site_symmetry_multiplicity
 _atom_site_fract_x
 _atom_site_fract_y
 _atom_site_fract_z
 _atom_site_occupancy
  Yb  Yb0  1  0.933687  0.066313  0.750000  1
  Ho  Ho1  1  0.068148  0.931852  0.250000  1
  In  In2  1  0.645116  0.354884  0.550607  1
  In  In3  1  0.355535  0.644465  0.451570  1
  In  In4  1  0.645116  0.354884  0.949393  1
  In  In5  1  0.355535  0.644465  0.048430  1
  Rh  Rh6  1  0.218983  0.781017  0.750000  1
  Rh  Rh7  1  0.777882  0.222118  0.250000  1
