# generated using pymatgen
data_CeNd3In2RuRh2
_symmetry_space_group_name_H-M   'P 1'
_cell_length_a   7.54650900
_cell_length_b   7.75831688
_cell_length_c   4.15001300
_cell_angle_alpha   90.00000000
_cell_angle_beta   90.00000000
_cell_angle_gamma   119.10093824
_symmetry_Int_Tables_number   1
_chemical_formula_structural   CeNd3In2RuRh2
_chemical_formula_sum   'Ce1 Nd3 In2 Ru1 Rh2'
_cell_volume   212.30359169
_cell_formula_units_Z   1
loop_
 _symmetry_equiv_pos_site_id
 _symmetry_equiv_pos_as_xyz
  1  'x, y, z'
loop_
 _atom_site_type_symbol
 _atom_site_label
 _atom_site_symmetry_multiplicity
 _atom_site_fract_x
 _atom_site_fract_y
 _atom_site_fract_z
 _atom_site_occupancy
  Ce  Ce0  1  0.247821  0.000000  0.000000  1
  Nd  Nd1  1  0.620235  0.000000  0.500000  1
  Nd  Nd2  1  0.412088  0.440817  0.500000  1
  Nd  Nd3  1  0.971270  0.559183  0.500000  1
  In  In4  1  0.751976  0.744427  0.000000  1
  In  In5  1  0.007549  0.255573  0.000000  1
  Ru  Ru6  1  0.015390  0.000000  0.500000  1
  Rh  Rh7  1  0.327501  0.681331  0.000000  1
  Rh  Rh8  1  0.646171  0.318669  0.000000  1
