# generated using pymatgen
data_TaNb(NiB2)2
_symmetry_space_group_name_H-M   'P 1'
_cell_length_a   3.12802500
_cell_length_b   6.04209003
_cell_length_c   8.19549205
_cell_angle_alpha   89.98797789
_cell_angle_beta   90.00000000
_cell_angle_gamma   90.00000000
_symmetry_Int_Tables_number   1
_chemical_formula_structural   TaNb(NiB2)2
_chemical_formula_sum   'Ta2 Nb2 Ni4 B8'
_cell_volume   154.89322825
_cell_formula_units_Z   2
loop_
 _symmetry_equiv_pos_site_id
 _symmetry_equiv_pos_as_xyz
  1  'x, y, z'
loop_
 _atom_site_type_symbol
 _atom_site_label
 _atom_site_symmetry_multiplicity
 _atom_site_fract_x
 _atom_site_fract_y
 _atom_site_fract_z
 _atom_site_occupancy
  Ta  Ta0  1  0.250000  0.632152  0.632532  1
  Ta  Ta1  1  0.750000  0.367848  0.367468  1
  Nb  Nb2  1  0.250000  0.131392  0.867433  1
  Nb  Nb3  1  0.750000  0.868608  0.132567  1
  Ni  Ni4  1  0.750000  0.499684  0.883867  1
  Ni  Ni5  1  0.750000  0.998682  0.615370  1
  Ni  Ni6  1  0.250000  0.500316  0.116133  1
  Ni  Ni7  1  0.250000  0.001318  0.384630  1
  B  B8  1  0.250000  0.173341  0.168628  1
  B  B9  1  0.750000  0.826659  0.831372  1
  B  B10  1  0.250000  0.672066  0.333063  1
  B  B11  1  0.750000  0.327934  0.666937  1
  B  B12  1  0.250000  0.242229  0.575868  1
  B  B13  1  0.750000  0.259736  0.077050  1
  B  B14  1  0.250000  0.740264  0.922950  1
  B  B15  1  0.750000  0.757771  0.424132  1
