# generated using pymatgen
data_TbIn(WF7)2
_symmetry_space_group_name_H-M   'P 1'
_cell_length_a   5.68919589
_cell_length_b   9.02764514
_cell_length_c   12.23063800
_cell_angle_alpha   63.01448831
_cell_angle_beta   90.41590492
_cell_angle_gamma   89.93436505
_symmetry_Int_Tables_number   1
_chemical_formula_structural   TbIn(WF7)2
_chemical_formula_sum   'Tb2 In2 W4 F28'
_cell_volume   559.75047374
_cell_formula_units_Z   2
loop_
 _symmetry_equiv_pos_site_id
 _symmetry_equiv_pos_as_xyz
  1  'x, y, z'
loop_
 _atom_site_type_symbol
 _atom_site_label
 _atom_site_symmetry_multiplicity
 _atom_site_fract_x
 _atom_site_fract_y
 _atom_site_fract_z
 _atom_site_occupancy
  Tb  Tb0  1  0.763138  0.182340  0.233303  1
  Tb  Tb1  1  0.236862  0.817660  0.766697  1
  In  In2  1  0.269285  0.810039  0.265278  1
  In  In3  1  0.730715  0.189961  0.734722  1
  W  W4  1  0.758616  0.729513  0.048500  1
  W  W5  1  0.241384  0.270487  0.951500  1
  W  W6  1  0.261816  0.276781  0.456921  1
  W  W7  1  0.738184  0.723219  0.543079  1
  F  F8  1  0.946067  0.699683  0.422584  1
  F  F9  1  0.053933  0.300317  0.577416  1
  F  F10  1  0.459192  0.287704  0.074668  1
  F  F11  1  0.540808  0.712296  0.925332  1
  F  F12  1  0.477030  0.728039  0.156054  1
  F  F13  1  0.522970  0.271961  0.843946  1
  F  F14  1  0.988848  0.263882  0.349310  1
  F  F15  1  0.011152  0.736118  0.650690  1
  F  F16  1  0.975537  0.748300  0.174218  1
  F  F17  1  0.024463  0.251700  0.825782  1
  F  F18  1  0.471140  0.251658  0.333463  1
  F  F19  1  0.528860  0.748342  0.666537  1
  F  F20  1  0.762975  0.481054  0.142702  1
  F  F21  1  0.237025  0.518946  0.857298  1
  F  F22  1  0.261903  0.524058  0.353807  1
  F  F23  1  0.738097  0.475942  0.646193  1
  F  F24  1  0.956321  0.275911  0.053383  1
  F  F25  1  0.043679  0.724089  0.946617  1
  F  F26  1  0.441645  0.716129  0.443959  1
  F  F27  1  0.558355  0.283871  0.556041  1
  F  F28  1  0.740588  0.969851  0.442645  1
  F  F29  1  0.259412  0.030149  0.557355  1
  F  F30  1  0.247139  0.025505  0.046404  1
  F  F31  1  0.752861  0.974495  0.953596  1
  F  F32  1  0.563453  0.972336  0.232946  1
  F  F33  1  0.436547  0.027664  0.767054  1
  F  F34  1  0.072820  0.006547  0.264924  1
  F  F35  1  0.927180  0.993453  0.735076  1
