# generated using pymatgen
data_HoMg(ZnRu)2
_symmetry_space_group_name_H-M   'P 1'
_cell_length_a   5.25842969
_cell_length_b   5.25842954
_cell_length_c   5.25843079
_cell_angle_alpha   120.17030551
_cell_angle_beta   120.00992893
_cell_angle_gamma   89.84404906
_symmetry_Int_Tables_number   1
_chemical_formula_structural   HoMg(ZnRu)2
_chemical_formula_sum   'Ho1 Mg1 Zn2 Ru2'
_cell_volume   102.67352746
_cell_formula_units_Z   1
loop_
 _symmetry_equiv_pos_site_id
 _symmetry_equiv_pos_as_xyz
  1  'x, y, z'
loop_
 _atom_site_type_symbol
 _atom_site_label
 _atom_site_symmetry_multiplicity
 _atom_site_fract_x
 _atom_site_fract_y
 _atom_site_fract_z
 _atom_site_occupancy
  Ho  Ho0  1  0.009380  0.009380  0.000000  1
  Mg  Mg1  1  0.246333  0.746333  0.500000  1
  Zn  Zn2  1  0.623220  0.874007  0.250789  1
  Zn  Zn3  1  0.623220  0.372431  0.749211  1
  Ru  Ru4  1  0.126061  0.373925  0.752137  1
  Ru  Ru5  1  0.621788  0.373925  0.247863  1
