# generated using pymatgen
data_NaPrNd5RhBr12
_symmetry_space_group_name_H-M   'P 1'
_cell_length_a   9.68547077
_cell_length_b   9.53327960
_cell_length_c   9.52680628
_cell_angle_alpha   106.74519825
_cell_angle_beta   107.14607426
_cell_angle_gamma   107.42968587
_symmetry_Int_Tables_number   1
_chemical_formula_structural   NaPrNd5RhBr12
_chemical_formula_sum   'Na1 Pr1 Nd5 Rh1 Br12'
_cell_volume   730.41288817
_cell_formula_units_Z   1
loop_
 _symmetry_equiv_pos_site_id
 _symmetry_equiv_pos_as_xyz
  1  'x, y, z'
loop_
 _atom_site_type_symbol
 _atom_site_label
 _atom_site_symmetry_multiplicity
 _atom_site_fract_x
 _atom_site_fract_y
 _atom_site_fract_z
 _atom_site_occupancy
  Na  Na0  1  0.499815  0.500101  0.499542  1
  Pr  Pr1  1  0.889761  0.682074  0.972070  1
  Nd  Nd2  1  0.110056  0.315988  0.028052  1
  Nd  Nd3  1  0.327909  0.030755  0.116832  1
  Nd  Nd4  1  0.028815  0.111582  0.314617  1
  Nd  Nd5  1  0.971538  0.889678  0.685856  1
  Nd  Nd6  1  0.671982  0.968540  0.883190  1
  Rh  Rh7  1  0.999951  0.999646  0.000247  1
  Br  Br8  1  0.218169  0.683804  0.073890  1
  Br  Br9  1  0.449969  0.369753  0.153880  1
  Br  Br10  1  0.685779  0.073224  0.216526  1
  Br  Br11  1  0.929015  0.785371  0.319857  1
  Br  Br12  1  0.156603  0.454330  0.369239  1
  Br  Br13  1  0.366660  0.153363  0.452686  1
  Br  Br14  1  0.633483  0.847294  0.547516  1
  Br  Br15  1  0.842823  0.546015  0.628135  1
  Br  Br16  1  0.071786  0.217122  0.683133  1
  Br  Br17  1  0.314354  0.927368  0.783694  1
  Br  Br18  1  0.547623  0.629317  0.844438  1
  Br  Br19  1  0.783914  0.314677  0.926603  1
