# generated using pymatgen
data_Ti13Al9(RuRh3)2
_symmetry_space_group_name_H-M   'P 1'
_cell_length_a   8.75019355
_cell_length_b   8.75019239
_cell_length_c   8.75019328
_cell_angle_alpha   59.65102912
_cell_angle_beta   59.65103155
_cell_angle_gamma   59.65103769
_symmetry_Int_Tables_number   1
_chemical_formula_structural   Ti13Al9(RuRh3)2
_chemical_formula_sum   'Ti13 Al9 Ru2 Rh6'
_cell_volume   469.98132656
_cell_formula_units_Z   1
loop_
 _symmetry_equiv_pos_site_id
 _symmetry_equiv_pos_as_xyz
  1  'x, y, z'
loop_
 _atom_site_type_symbol
 _atom_site_label
 _atom_site_symmetry_multiplicity
 _atom_site_fract_x
 _atom_site_fract_y
 _atom_site_fract_z
 _atom_site_occupancy
  Ti  Ti0  1  0.212995  0.212995  0.788069  1
  Ti  Ti1  1  0.788069  0.212995  0.212995  1
  Ti  Ti2  1  0.212995  0.788069  0.212995  1
  Ti  Ti3  1  0.797755  0.797755  0.187362  1
  Ti  Ti4  1  0.187362  0.797755  0.797755  1
  Ti  Ti5  1  0.797755  0.187362  0.797755  1
  Ti  Ti6  1  0.379030  0.379030  0.379030  1
  Ti  Ti7  1  0.379961  0.864473  0.379961  1
  Ti  Ti8  1  0.864473  0.379961  0.379961  1
  Ti  Ti9  1  0.379961  0.379961  0.864473  1
  Ti  Ti10  1  0.846121  0.463737  0.846121  1
  Ti  Ti11  1  0.463737  0.846121  0.846121  1
  Ti  Ti12  1  0.846121  0.846121  0.463737  1
  Al  Al13  1  0.153223  0.153223  0.153223  1
  Al  Al14  1  0.157189  0.533662  0.157189  1
  Al  Al15  1  0.533662  0.157189  0.157189  1
  Al  Al16  1  0.157189  0.157189  0.533662  1
  Al  Al17  1  0.619136  0.619136  0.619136  1
  Al  Al18  1  0.619733  0.143175  0.619733  1
  Al  Al19  1  0.143175  0.619733  0.619733  1
  Al  Al20  1  0.619733  0.619733  0.143175  1
  Al  Al21  1  0.830005  0.830005  0.830005  1
  Ru  Ru22  1  0.500294  0.500294  0.500294  1
  Ru  Ru23  1  0.004140  0.004140  0.004140  1
  Rh  Rh24  1  0.003566  0.003566  0.498008  1
  Rh  Rh25  1  0.498008  0.003566  0.003566  1
  Rh  Rh26  1  0.003566  0.498008  0.003566  1
  Rh  Rh27  1  0.499991  0.499991  0.001067  1
  Rh  Rh28  1  0.001067  0.499991  0.499991  1
  Rh  Rh29  1  0.499991  0.001067  0.499991  1
