# generated using pymatgen
data_Tb4Dy3Er13Pb16
_symmetry_space_group_name_H-M   'P 1'
_cell_length_a   8.17647639
_cell_length_b   8.25037258
_cell_length_c   15.56750805
_cell_angle_alpha   90.01226502
_cell_angle_beta   90.03695091
_cell_angle_gamma   89.97437687
_symmetry_Int_Tables_number   1
_chemical_formula_structural   Tb4Dy3Er13Pb16
_chemical_formula_sum   'Tb4 Dy3 Er13 Pb16'
_cell_volume   1050.16781418
_cell_formula_units_Z   1
loop_
 _symmetry_equiv_pos_site_id
 _symmetry_equiv_pos_as_xyz
  1  'x, y, z'
loop_
 _atom_site_type_symbol
 _atom_site_label
 _atom_site_symmetry_multiplicity
 _atom_site_fract_x
 _atom_site_fract_y
 _atom_site_fract_z
 _atom_site_occupancy
  Tb  Tb0  1  0.036411  0.176770  0.599998  1
  Tb  Tb1  1  0.463585  0.676719  0.400065  1
  Tb  Tb2  1  0.963430  0.823437  0.099933  1
  Tb  Tb3  1  0.463500  0.676594  0.099911  1
  Dy  Dy4  1  0.963493  0.823344  0.399984  1
  Dy  Dy5  1  0.536481  0.323426  0.599944  1
  Dy  Dy6  1  0.036573  0.176724  0.899958  1
  Er  Er7  1  0.376498  0.841546  0.878853  1
  Er  Er8  1  0.876446  0.658537  0.621175  1
  Er  Er9  1  0.623572  0.158596  0.378942  1
  Er  Er10  1  0.123315  0.341203  0.120985  1
  Er  Er11  1  0.623345  0.158779  0.120853  1
  Er  Er12  1  0.123508  0.341320  0.378877  1
  Er  Er13  1  0.376541  0.841466  0.621271  1
  Er  Er14  1  0.876403  0.658398  0.878854  1
  Er  Er15  1  0.536904  0.323688  0.899968  1
  Er  Er16  1  0.208472  0.504534  0.750166  1
  Er  Er17  1  0.708108  0.995371  0.750172  1
  Er  Er18  1  0.791755  0.495206  0.249977  1
  Er  Er19  1  0.291686  0.004762  0.249986  1
  Pb  Pb20  1  0.281761  0.033711  0.042823  1
  Pb  Pb21  1  0.781994  0.466314  0.457185  1
  Pb  Pb22  1  0.717987  0.966259  0.542836  1
  Pb  Pb23  1  0.218766  0.532859  0.956930  1
  Pb  Pb24  1  0.717800  0.966955  0.956960  1
  Pb  Pb25  1  0.218166  0.533612  0.542953  1
  Pb  Pb26  1  0.281824  0.033530  0.457088  1
  Pb  Pb27  1  0.781465  0.465840  0.042475  1
  Pb  Pb28  1  0.571181  0.626810  0.750018  1
  Pb  Pb29  1  0.071260  0.872872  0.750029  1
  Pb  Pb30  1  0.428732  0.372820  0.249991  1
  Pb  Pb31  1  0.928711  0.127172  0.250020  1
  Pb  Pb32  1  0.348044  0.154097  0.750431  1
  Pb  Pb33  1  0.847232  0.346571  0.750233  1
  Pb  Pb34  1  0.652653  0.846774  0.250022  1
  Pb  Pb35  1  0.152398  0.653384  0.250138  1
