# generated using pymatgen
data_Rb4In2Au7
_symmetry_space_group_name_H-M   'P 1'
_cell_length_a   10.69515883
_cell_length_b   10.69515881
_cell_length_c   10.69515814
_cell_angle_alpha   38.13857304
_cell_angle_beta   38.13857178
_cell_angle_gamma   38.13857151
_symmetry_Int_Tables_number   1
_chemical_formula_structural   Rb4In2Au7
_chemical_formula_sum   'Rb4 In2 Au7'
_cell_volume   418.93165547
_cell_formula_units_Z   1
loop_
 _symmetry_equiv_pos_site_id
 _symmetry_equiv_pos_as_xyz
  1  'x, y, z'
loop_
 _atom_site_type_symbol
 _atom_site_label
 _atom_site_symmetry_multiplicity
 _atom_site_fract_x
 _atom_site_fract_y
 _atom_site_fract_z
 _atom_site_occupancy
  Rb  Rb0  1  0.684166  0.684166  0.684166  1
  Rb  Rb1  1  0.315834  0.315834  0.315834  1
  Rb  Rb2  1  0.812442  0.812442  0.812442  1
  Rb  Rb3  1  0.187558  0.187558  0.187558  1
  In  In4  1  0.450774  0.450774  0.450774  1
  In  In5  1  0.549226  0.549226  0.549226  1
  Au  Au6  1  0.000000  0.000000  0.000000  1
  Au  Au7  1  0.194215  0.787297  0.787297  1
  Au  Au8  1  0.787297  0.787297  0.194215  1
  Au  Au9  1  0.787297  0.194215  0.787297  1
  Au  Au10  1  0.212703  0.805785  0.212703  1
  Au  Au11  1  0.805785  0.212703  0.212703  1
  Au  Au12  1  0.212703  0.212703  0.805785  1
