# generated using pymatgen
data_Tm10(AlBi)3
_symmetry_space_group_name_H-M   'P 1'
_cell_length_a   8.80198447
_cell_length_b   8.85741498
_cell_length_c   6.45305000
_cell_angle_alpha   90.00000000
_cell_angle_beta   90.00000000
_cell_angle_gamma   119.76588171
_symmetry_Int_Tables_number   1
_chemical_formula_structural   Tm10(AlBi)3
_chemical_formula_sum   'Tm10 Al3 Bi3'
_cell_volume   436.71990106
_cell_formula_units_Z   1
loop_
 _symmetry_equiv_pos_site_id
 _symmetry_equiv_pos_as_xyz
  1  'x, y, z'
loop_
 _atom_site_type_symbol
 _atom_site_label
 _atom_site_symmetry_multiplicity
 _atom_site_fract_x
 _atom_site_fract_y
 _atom_site_fract_z
 _atom_site_occupancy
  Tm  Tm0  1  0.333536  0.687022  0.004054  1
  Tm  Tm1  1  0.665774  0.320558  0.495857  1
  Tm  Tm2  1  0.665774  0.320558  0.004143  1
  Tm  Tm3  1  0.333536  0.687022  0.495946  1
  Tm  Tm4  1  0.231722  0.985319  0.250000  1
  Tm  Tm5  1  0.758417  0.001081  0.750000  1
  Tm  Tm6  1  0.983273  0.230167  0.250000  1
  Tm  Tm7  1  0.768208  0.769154  0.250000  1
  Tm  Tm8  1  0.241788  0.225575  0.750000  1
  Tm  Tm9  1  0.016364  0.774928  0.750000  1
  Al  Al10  1  0.599125  0.998659  0.250000  1
  Al  Al11  1  0.406503  0.004705  0.750000  1
  Al  Al12  1  0.993563  0.598835  0.250000  1
  Bi  Bi13  1  0.385717  0.391633  0.250000  1
  Bi  Bi14  1  0.609560  0.606551  0.750000  1
  Bi  Bi15  1  0.007139  0.398233  0.750000  1
