# generated using pymatgen
data_Ca3Er3Al17Si7Os8
_symmetry_space_group_name_H-M   'P 1'
_cell_length_a   8.67940238
_cell_length_b   8.66229190
_cell_length_c   9.57944800
_cell_angle_alpha   90.00000000
_cell_angle_beta   90.00000000
_cell_angle_gamma   120.15238038
_symmetry_Int_Tables_number   1
_chemical_formula_structural   Ca3Er3Al17Si7Os8
_chemical_formula_sum   'Ca3 Er3 Al17 Si7 Os8'
_cell_volume   622.76593697
_cell_formula_units_Z   1
loop_
 _symmetry_equiv_pos_site_id
 _symmetry_equiv_pos_as_xyz
  1  'x, y, z'
loop_
 _atom_site_type_symbol
 _atom_site_label
 _atom_site_symmetry_multiplicity
 _atom_site_fract_x
 _atom_site_fract_y
 _atom_site_fract_z
 _atom_site_occupancy
  Ca  Ca0  1  0.806186  0.612405  0.750000  1
  Ca  Ca1  1  0.390081  0.192082  0.750000  1
  Ca  Ca2  1  0.801355  0.192597  0.750000  1
  Er  Er3  1  0.193997  0.390422  0.250000  1
  Er  Er4  1  0.608598  0.806149  0.250000  1
  Er  Er5  1  0.197179  0.804133  0.250000  1
  Al  Al6  1  0.165920  0.332918  0.577485  1
  Al  Al7  1  0.833511  0.669556  0.420865  1
  Al  Al8  1  0.668455  0.834014  0.576766  1
  Al  Al9  1  0.833511  0.669556  0.079135  1
  Al  Al10  1  0.331490  0.166463  0.422341  1
  Al  Al11  1  0.165920  0.332918  0.922515  1
  Al  Al12  1  0.165415  0.833196  0.575605  1
  Al  Al13  1  0.331490  0.166463  0.077659  1
  Al  Al14  1  0.834369  0.164709  0.422114  1
  Al  Al15  1  0.668455  0.834014  0.923234  1
  Al  Al16  1  0.834369  0.164709  0.077886  1
  Al  Al17  1  0.165415  0.833196  0.924395  1
  Al  Al18  1  0.125695  0.565711  0.750000  1
  Al  Al19  1  0.564735  0.434490  0.250000  1
  Al  Al20  1  0.438919  0.566020  0.750000  1
  Al  Al21  1  0.999747  0.999014  0.250000  1
  Al  Al22  1  0.000047  0.001143  0.750000  1
  Si  Si23  1  0.333410  0.664802  0.041762  1
  Si  Si24  1  0.666483  0.335981  0.963150  1
  Si  Si25  1  0.666483  0.335981  0.536850  1
  Si  Si26  1  0.333410  0.664802  0.458238  1
  Si  Si27  1  0.565053  0.125046  0.250000  1
  Si  Si28  1  0.434850  0.870863  0.750000  1
  Si  Si29  1  0.873748  0.433986  0.250000  1
  Os  Os30  1  0.499950  0.999015  0.005798  1
  Os  Os31  1  0.000283  0.500334  0.010770  1
  Os  Os32  1  0.499950  0.999015  0.494202  1
  Os  Os33  1  0.499792  0.501291  0.004288  1
  Os  Os34  1  0.000283  0.500334  0.489230  1
  Os  Os35  1  0.499792  0.501291  0.495712  1
  Os  Os36  1  0.000825  0.000692  0.999532  1
  Os  Os37  1  0.000825  0.000692  0.500468  1
