# generated using pymatgen
data_Nd7Er13Si15Au
_symmetry_space_group_name_H-M   'P 1'
_cell_length_a   7.73158328
_cell_length_b   7.74522701
_cell_length_c   14.27691987
_cell_angle_alpha   89.74542464
_cell_angle_beta   89.64717235
_cell_angle_gamma   90.14729985
_symmetry_Int_Tables_number   1
_chemical_formula_structural   Nd7Er13Si15Au
_chemical_formula_sum   'Nd7 Er13 Si15 Au1'
_cell_volume   854.91536894
_cell_formula_units_Z   1
loop_
 _symmetry_equiv_pos_site_id
 _symmetry_equiv_pos_as_xyz
  1  'x, y, z'
loop_
 _atom_site_type_symbol
 _atom_site_label
 _atom_site_symmetry_multiplicity
 _atom_site_fract_x
 _atom_site_fract_y
 _atom_site_fract_z
 _atom_site_occupancy
  Nd  Nd0  1  0.359882  0.006845  0.959124  1
  Nd  Nd1  1  0.986654  0.638528  0.538246  1
  Nd  Nd2  1  0.491838  0.855316  0.209835  1
  Nd  Nd3  1  0.513752  0.148535  0.711126  1
  Nd  Nd4  1  0.859587  0.494548  0.792914  1
  Nd  Nd5  1  0.140319  0.504552  0.291385  1
  Nd  Nd6  1  0.008412  0.356563  0.041962  1
  Er  Er7  1  0.491087  0.359004  0.124597  1
  Er  Er8  1  0.986358  0.144600  0.628861  1
  Er  Er9  1  0.860024  0.007469  0.874606  1
  Er  Er10  1  0.136374  0.987077  0.374252  1
  Er  Er11  1  0.511382  0.638834  0.621256  1
  Er  Er12  1  0.362080  0.492892  0.876922  1
  Er  Er13  1  0.641782  0.505428  0.375140  1
  Er  Er14  1  0.006273  0.861689  0.125746  1
  Er  Er15  1  0.642638  0.995551  0.457092  1
  Er  Er16  1  0.314558  0.314716  0.501018  1
  Er  Er17  1  0.187702  0.824141  0.747890  1
  Er  Er18  1  0.816617  0.180527  0.251073  1
  Er  Er19  1  0.681823  0.682956  0.000342  1
  Si  Si20  1  0.709379  0.062369  0.062042  1
  Si  Si21  1  0.935607  0.287049  0.437606  1
  Si  Si22  1  0.438138  0.207735  0.312437  1
  Si  Si23  1  0.563653  0.789897  0.810932  1
  Si  Si24  1  0.211070  0.440238  0.689483  1
  Si  Si25  1  0.788995  0.563016  0.187735  1
  Si  Si26  1  0.063579  0.710285  0.938288  1
  Si  Si27  1  0.796746  0.847646  0.689241  1
  Si  Si28  1  0.203580  0.149187  0.188317  1
  Si  Si29  1  0.843976  0.798243  0.312240  1
  Si  Si30  1  0.354202  0.702025  0.433818  1
  Si  Si31  1  0.652755  0.297405  0.939807  1
  Si  Si32  1  0.700939  0.344076  0.558348  1
  Si  Si33  1  0.295765  0.651535  0.061148  1
  Si  Si34  1  0.150921  0.208406  0.813333  1
  Au  Au35  1  0.291550  0.941119  0.561834  1
