# generated using pymatgen
data_Er11Th5(MnCd)4
_symmetry_space_group_name_H-M   'P 1'
_cell_length_a   9.57812418
_cell_length_b   9.62983248
_cell_length_c   9.62983100
_cell_angle_alpha   59.89829708
_cell_angle_beta   60.17747167
_cell_angle_gamma   60.17746514
_symmetry_Int_Tables_number   1
_chemical_formula_structural   Er11Th5(MnCd)4
_chemical_formula_sum   'Er11 Th5 Mn4 Cd4'
_cell_volume   629.25393824
_cell_formula_units_Z   1
loop_
 _symmetry_equiv_pos_site_id
 _symmetry_equiv_pos_as_xyz
  1  'x, y, z'
loop_
 _atom_site_type_symbol
 _atom_site_label
 _atom_site_symmetry_multiplicity
 _atom_site_fract_x
 _atom_site_fract_y
 _atom_site_fract_z
 _atom_site_occupancy
  Er  Er0  1  0.189603  0.810248  0.810548  1
  Er  Er1  1  0.193264  0.810163  0.186462  1
  Er  Er2  1  0.809832  0.186436  0.810437  1
  Er  Er3  1  0.193302  0.186477  0.810309  1
  Er  Er4  1  0.810040  0.810254  0.186416  1
  Er  Er5  1  0.938214  0.561795  0.561759  1
  Er  Er6  1  0.563475  0.936547  0.936554  1
  Er  Er7  1  0.561320  0.940141  0.557474  1
  Er  Er8  1  0.941074  0.557498  0.940115  1
  Er  Er9  1  0.561350  0.557492  0.940061  1
  Er  Er10  1  0.941074  0.940165  0.557463  1
  Th  Th11  1  0.343564  0.345961  0.345632  1
  Th  Th12  1  0.344012  0.345557  0.966456  1
  Th  Th13  1  0.344172  0.966302  0.345403  1
  Th  Th14  1  0.964802  0.345997  0.345685  1
  Th  Th15  1  0.815875  0.184106  0.184065  1
  Mn  Mn16  1  0.117245  0.149307  0.149325  1
  Mn  Mn17  1  0.143178  0.139561  0.574097  1
  Mn  Mn18  1  0.143206  0.573973  0.139615  1
  Mn  Mn19  1  0.584148  0.149304  0.149346  1
  Cd  Cd20  1  0.580844  0.581301  0.581312  1
  Cd  Cd21  1  0.579938  0.583370  0.256755  1
  Cd  Cd22  1  0.579929  0.256738  0.583398  1
  Cd  Cd23  1  0.256542  0.581305  0.581310  1
