# generated using pymatgen
data_Zr6ZnGaP2
_symmetry_space_group_name_H-M   'P 1'
_cell_length_a   7.16846206
_cell_length_b   7.19023601
_cell_length_c   3.65836300
_cell_angle_alpha   90.00000000
_cell_angle_beta   90.00000000
_cell_angle_gamma   89.71610394
_symmetry_Int_Tables_number   1
_chemical_formula_structural   Zr6ZnGaP2
_chemical_formula_sum   'Zr6 Zn1 Ga1 P2'
_cell_volume   188.56044796
_cell_formula_units_Z   1
loop_
 _symmetry_equiv_pos_site_id
 _symmetry_equiv_pos_as_xyz
  1  'x, y, z'
loop_
 _atom_site_type_symbol
 _atom_site_label
 _atom_site_symmetry_multiplicity
 _atom_site_fract_x
 _atom_site_fract_y
 _atom_site_fract_z
 _atom_site_occupancy
  Zr  Zr0  1  0.001287  0.006765  0.000000  1
  Zr  Zr1  1  0.503110  0.491961  0.000000  1
  Zr  Zr2  1  0.670455  0.184253  0.500000  1
  Zr  Zr3  1  0.170431  0.318049  0.500000  1
  Zr  Zr4  1  0.824004  0.659188  0.500000  1
  Zr  Zr5  1  0.322054  0.840091  0.500000  1
  Zn  Zn6  1  0.627710  0.875064  0.000000  1
  Ga  Ga7  1  0.128357  0.626414  0.000000  1
  P  P8  1  0.874975  0.374672  0.000000  1
  P  P9  1  0.377617  0.123543  0.000000  1
