# generated using pymatgen
data_La3Nd(PaOs3)2
_symmetry_space_group_name_H-M   'P 1'
_cell_length_a   5.93216600
_cell_length_b   5.93216474
_cell_length_c   8.39442800
_cell_angle_alpha   90.00000000
_cell_angle_beta   90.00000000
_cell_angle_gamma   120.00000703
_symmetry_Int_Tables_number   1
_chemical_formula_structural   La3Nd(PaOs3)2
_chemical_formula_sum   'La3 Nd1 Pa2 Os6'
_cell_volume   255.82807793
_cell_formula_units_Z   1
loop_
 _symmetry_equiv_pos_site_id
 _symmetry_equiv_pos_as_xyz
  1  'x, y, z'
loop_
 _atom_site_type_symbol
 _atom_site_label
 _atom_site_symmetry_multiplicity
 _atom_site_fract_x
 _atom_site_fract_y
 _atom_site_fract_z
 _atom_site_occupancy
  La  La0  1  0.333333  0.666667  0.435306  1
  La  La1  1  0.666667  0.333333  0.565209  1
  La  La2  1  0.666667  0.333333  0.935164  1
  Nd  Nd3  1  0.333333  0.666667  0.065714  1
  Pa  Pa4  1  0.000000  0.000000  0.999771  1
  Pa  Pa5  1  0.000000  0.000000  0.499785  1
  Os  Os6  1  0.166990  0.333977  0.750221  1
  Os  Os7  1  0.166990  0.833010  0.750221  1
  Os  Os8  1  0.333035  0.166519  0.249462  1
  Os  Os9  1  0.833481  0.666965  0.249462  1
  Os  Os10  1  0.666023  0.833010  0.750221  1
  Os  Os11  1  0.833481  0.166519  0.249462  1
