# generated using pymatgen
data_Pr6LuPCl12
_symmetry_space_group_name_H-M   'P 1'
_cell_length_a   9.06204277
_cell_length_b   9.06204193
_cell_length_c   9.06204300
_cell_angle_alpha   107.69148954
_cell_angle_beta   107.69149447
_cell_angle_gamma   107.69146640
_symmetry_Int_Tables_number   1
_chemical_formula_structural   Pr6LuPCl12
_chemical_formula_sum   'Pr6 Lu1 P1 Cl12'
_cell_volume   607.69126152
_cell_formula_units_Z   1
loop_
 _symmetry_equiv_pos_site_id
 _symmetry_equiv_pos_as_xyz
  1  'x, y, z'
loop_
 _atom_site_type_symbol
 _atom_site_label
 _atom_site_symmetry_multiplicity
 _atom_site_fract_x
 _atom_site_fract_y
 _atom_site_fract_z
 _atom_site_occupancy
  Pr  Pr0  1  0.111043  0.326950  0.029941  1
  Pr  Pr1  1  0.326950  0.029942  0.111042  1
  Pr  Pr2  1  0.029942  0.111042  0.326951  1
  Pr  Pr3  1  0.970059  0.888958  0.673050  1
  Pr  Pr4  1  0.673050  0.970059  0.888958  1
  Pr  Pr5  1  0.888957  0.673050  0.970059  1
  Lu  Lu6  1  0.500000  0.500000  0.500000  1
  P  P7  1  0.000000  0.000000  0.000000  1
  Cl  Cl8  1  0.224931  0.687658  0.075986  1
  Cl  Cl9  1  0.473885  0.395955  0.186279  1
  Cl  Cl10  1  0.687659  0.075986  0.224931  1
  Cl  Cl11  1  0.924015  0.775069  0.312342  1
  Cl  Cl12  1  0.186279  0.473885  0.395955  1
  Cl  Cl13  1  0.395955  0.186279  0.473885  1
  Cl  Cl14  1  0.604045  0.813721  0.526116  1
  Cl  Cl15  1  0.813722  0.526115  0.604045  1
  Cl  Cl16  1  0.075986  0.224931  0.687659  1
  Cl  Cl17  1  0.312342  0.924015  0.775069  1
  Cl  Cl18  1  0.526115  0.604045  0.813722  1
  Cl  Cl19  1  0.775069  0.312342  0.924014  1
