# generated using pymatgen
data_NdGaPIrRu
_symmetry_space_group_name_H-M   'P 1'
_cell_length_a   5.86016391
_cell_length_b   5.86016316
_cell_length_c   5.86016286
_cell_angle_alpha   138.21173319
_cell_angle_beta   138.23526126
_cell_angle_gamma   60.56088058
_symmetry_Int_Tables_number   1
_chemical_formula_structural   NdGaPIrRu
_chemical_formula_sum   'Nd1 Ga1 P1 Ir1 Ru1'
_cell_volume   88.37261552
_cell_formula_units_Z   1
loop_
 _symmetry_equiv_pos_site_id
 _symmetry_equiv_pos_as_xyz
  1  'x, y, z'
loop_
 _atom_site_type_symbol
 _atom_site_label
 _atom_site_symmetry_multiplicity
 _atom_site_fract_x
 _atom_site_fract_y
 _atom_site_fract_z
 _atom_site_occupancy
  Nd  Nd0  1  0.002204  0.002204  0.000000  1
  Ga  Ga1  1  0.380070  0.380070  0.000000  1
  P  P2  1  0.635835  0.635835  0.000000  1
  Ir  Ir3  1  0.241775  0.741775  0.500000  1
  Ru  Ru4  1  0.740116  0.240116  0.500000  1
