# generated using pymatgen
data_YMg(NiPt)2
_symmetry_space_group_name_H-M   'P 1'
_cell_length_a   5.15234373
_cell_length_b   5.15234323
_cell_length_c   5.15234398
_cell_angle_alpha   116.78472097
_cell_angle_beta   121.95786213
_cell_angle_gamma   91.14972444
_symmetry_Int_Tables_number   1
_chemical_formula_structural   YMg(NiPt)2
_chemical_formula_sum   'Y1 Mg1 Ni2 Pt2'
_cell_volume   97.37130526
_cell_formula_units_Z   1
loop_
 _symmetry_equiv_pos_site_id
 _symmetry_equiv_pos_as_xyz
  1  'x, y, z'
loop_
 _atom_site_type_symbol
 _atom_site_label
 _atom_site_symmetry_multiplicity
 _atom_site_fract_x
 _atom_site_fract_y
 _atom_site_fract_z
 _atom_site_occupancy
  Y  Y0  1  0.002655  0.002655  0.000000  1
  Mg  Mg1  1  0.241670  0.741670  0.500000  1
  Ni  Ni2  1  0.127877  0.377646  0.750232  1
  Ni  Ni3  1  0.627414  0.377646  0.249768  1
  Pt  Pt4  1  0.625192  0.872932  0.247741  1
  Pt  Pt5  1  0.625192  0.377452  0.752259  1
