# generated using pymatgen
data_Eu2RuC2
_symmetry_space_group_name_H-M   'P 1'
_cell_length_a   5.36127300
_cell_length_b   6.54944600
_cell_length_c   10.38809800
_cell_angle_alpha   90.00000000
_cell_angle_beta   90.00000000
_cell_angle_gamma   90.00000000
_symmetry_Int_Tables_number   1
_chemical_formula_structural   Eu2RuC2
_chemical_formula_sum   'Eu8 Ru4 C8'
_cell_volume   364.76110794
_cell_formula_units_Z   4
loop_
 _symmetry_equiv_pos_site_id
 _symmetry_equiv_pos_as_xyz
  1  'x, y, z'
loop_
 _atom_site_type_symbol
 _atom_site_label
 _atom_site_symmetry_multiplicity
 _atom_site_fract_x
 _atom_site_fract_y
 _atom_site_fract_z
 _atom_site_occupancy
  Eu  Eu0  1  0.750000  0.531268  0.780573  1
  Eu  Eu1  1  0.250000  0.968732  0.280573  1
  Eu  Eu2  1  0.750000  0.694186  0.453342  1
  Eu  Eu3  1  0.250000  0.805814  0.953342  1
  Eu  Eu4  1  0.750000  0.194186  0.046658  1
  Eu  Eu5  1  0.250000  0.305814  0.546658  1
  Eu  Eu6  1  0.250000  0.468732  0.219427  1
  Eu  Eu7  1  0.750000  0.031268  0.719427  1
  Ru  Ru8  1  0.250000  0.270486  0.851297  1
  Ru  Ru9  1  0.250000  0.770486  0.648703  1
  Ru  Ru10  1  0.750000  0.229514  0.351297  1
  Ru  Ru11  1  0.750000  0.729514  0.148703  1
  C  C12  1  0.250000  0.701827  0.473862  1
  C  C13  1  0.250000  0.531650  0.756668  1
  C  C14  1  0.750000  0.468350  0.243332  1
  C  C15  1  0.750000  0.798173  0.973862  1
  C  C16  1  0.250000  0.031650  0.743332  1
  C  C17  1  0.250000  0.201827  0.026138  1
  C  C18  1  0.750000  0.298173  0.526138  1
  C  C19  1  0.750000  0.968350  0.256668  1
