# generated using pymatgen
data_LiPr3Tl3AgPt
_symmetry_space_group_name_H-M   'P 1'
_cell_length_a   8.23707000
_cell_length_b   8.23706974
_cell_length_c   3.88774600
_cell_angle_alpha   90.00000000
_cell_angle_beta   90.00000000
_cell_angle_gamma   120.00000906
_symmetry_Int_Tables_number   1
_chemical_formula_structural   LiPr3Tl3AgPt
_chemical_formula_sum   'Li1 Pr3 Tl3 Ag1 Pt1'
_cell_volume   228.44095927
_cell_formula_units_Z   1
loop_
 _symmetry_equiv_pos_site_id
 _symmetry_equiv_pos_as_xyz
  1  'x, y, z'
loop_
 _atom_site_type_symbol
 _atom_site_label
 _atom_site_symmetry_multiplicity
 _atom_site_fract_x
 _atom_site_fract_y
 _atom_site_fract_z
 _atom_site_occupancy
  Li  Li0  1  0.000000  0.000000  0.000000  1
  Pr  Pr1  1  0.598719  0.022274  0.000000  1
  Pr  Pr2  1  0.977726  0.576445  0.000000  1
  Pr  Pr3  1  0.423555  0.401281  0.000000  1
  Tl  Tl4  1  0.247325  0.991139  0.500000  1
  Tl  Tl5  1  0.008861  0.256185  0.500000  1
  Tl  Tl6  1  0.743815  0.752675  0.500000  1
  Ag  Ag7  1  0.333333  0.666667  0.500000  1
  Pt  Pt8  1  0.666667  0.333333  0.500000  1
