# generated using pymatgen
data_MgNb3B4(AsRu5)2
_symmetry_space_group_name_H-M   'P 1'
_cell_length_a   9.37109225
_cell_length_b   9.37109225
_cell_length_c   2.97568700
_cell_angle_alpha   90.00000000
_cell_angle_beta   90.00000000
_cell_angle_gamma   89.58907057
_symmetry_Int_Tables_number   1
_chemical_formula_structural   MgNb3B4(AsRu5)2
_chemical_formula_sum   'Mg1 Nb3 B4 As2 Ru10'
_cell_volume   261.31028554
_cell_formula_units_Z   1
loop_
 _symmetry_equiv_pos_site_id
 _symmetry_equiv_pos_as_xyz
  1  'x, y, z'
loop_
 _atom_site_type_symbol
 _atom_site_label
 _atom_site_symmetry_multiplicity
 _atom_site_fract_x
 _atom_site_fract_y
 _atom_site_fract_z
 _atom_site_occupancy
  Mg  Mg0  1  0.823297  0.676703  0.000000  1
  Nb  Nb1  1  0.172755  0.327245  0.000000  1
  Nb  Nb2  1  0.325468  0.824224  0.000000  1
  Nb  Nb3  1  0.675776  0.174532  0.000000  1
  B  B4  1  0.625596  0.874404  0.000000  1
  B  B5  1  0.375263  0.124737  0.000000  1
  B  B6  1  0.122129  0.622068  0.000000  1
  B  B7  1  0.877932  0.377871  0.000000  1
  As  As8  1  0.503093  0.501349  0.000000  1
  As  As9  1  0.998651  0.996907  0.000000  1
  Ru  Ru10  1  0.561092  0.715700  0.500000  1
  Ru  Ru11  1  0.430699  0.287053  0.500000  1
  Ru  Ru12  1  0.079708  0.789523  0.500000  1
  Ru  Ru13  1  0.933931  0.210997  0.500000  1
  Ru  Ru14  1  0.289003  0.566069  0.500000  1
  Ru  Ru15  1  0.710477  0.420292  0.500000  1
  Ru  Ru16  1  0.212947  0.069301  0.500000  1
  Ru  Ru17  1  0.784300  0.938908  0.500000  1
  Ru  Ru18  1  0.499268  0.000732  0.500000  1
  Ru  Ru19  1  0.998616  0.501384  0.500000  1
