# generated using pymatgen
data_Dy6ThSn23Os6
_symmetry_space_group_name_H-M   'P 1'
_cell_length_a   9.88485400
_cell_length_b   9.88485378
_cell_length_c   10.12073300
_cell_angle_alpha   90.00000000
_cell_angle_beta   90.00000000
_cell_angle_gamma   119.99999404
_symmetry_Int_Tables_number   1
_chemical_formula_structural   Dy6ThSn23Os6
_chemical_formula_sum   'Dy6 Th1 Sn23 Os6'
_cell_volume   856.41276920
_cell_formula_units_Z   1
loop_
 _symmetry_equiv_pos_site_id
 _symmetry_equiv_pos_as_xyz
  1  'x, y, z'
loop_
 _atom_site_type_symbol
 _atom_site_label
 _atom_site_symmetry_multiplicity
 _atom_site_fract_x
 _atom_site_fract_y
 _atom_site_fract_z
 _atom_site_occupancy
  Dy  Dy0  1  0.485405  0.514595  0.302204  1
  Dy  Dy1  1  0.514595  0.485405  0.697796  1
  Dy  Dy2  1  0.485405  0.970809  0.302204  1
  Dy  Dy3  1  0.514595  0.029191  0.697796  1
  Dy  Dy4  1  0.029191  0.514595  0.302204  1
  Dy  Dy5  1  0.970809  0.485405  0.697796  1
  Th  Th6  1  0.000000  0.000000  0.000000  1
  Sn  Sn7  1  0.351622  0.000000  0.000000  1
  Sn  Sn8  1  0.648378  0.000000  0.000000  1
  Sn  Sn9  1  0.000000  0.351622  0.000000  1
  Sn  Sn10  1  0.000000  0.648378  0.000000  1
  Sn  Sn11  1  0.648378  0.648378  0.000000  1
  Sn  Sn12  1  0.351622  0.351622  0.000000  1
  Sn  Sn13  1  0.333333  0.666667  0.826431  1
  Sn  Sn14  1  0.666667  0.333333  0.173569  1
  Sn  Sn15  1  0.000000  0.000000  0.500000  1
  Sn  Sn16  1  0.779918  0.220082  0.462492  1
  Sn  Sn17  1  0.220082  0.779918  0.537508  1
  Sn  Sn18  1  0.779918  0.559837  0.462492  1
  Sn  Sn19  1  0.220082  0.440163  0.537508  1
  Sn  Sn20  1  0.440163  0.220082  0.462492  1
  Sn  Sn21  1  0.559837  0.779918  0.537508  1
  Sn  Sn22  1  0.333333  0.666667  0.128032  1
  Sn  Sn23  1  0.666667  0.333333  0.871968  1
  Sn  Sn24  1  0.118236  0.881764  0.278358  1
  Sn  Sn25  1  0.881764  0.118236  0.721642  1
  Sn  Sn26  1  0.118236  0.236472  0.278358  1
  Sn  Sn27  1  0.881764  0.763528  0.721642  1
  Sn  Sn28  1  0.763528  0.881764  0.278358  1
  Sn  Sn29  1  0.236472  0.118236  0.721642  1
  Os  Os30  1  0.830448  0.169552  0.200730  1
  Os  Os31  1  0.169552  0.830448  0.799270  1
  Os  Os32  1  0.830448  0.660895  0.200730  1
  Os  Os33  1  0.169552  0.339105  0.799270  1
  Os  Os34  1  0.339105  0.169552  0.200730  1
  Os  Os35  1  0.660895  0.830448  0.799270  1
