# generated using pymatgen
data_Gd2VIr3
_symmetry_space_group_name_H-M   'P 1'
_cell_length_a   5.61715618
_cell_length_b   5.15228412
_cell_length_c   5.61715700
_cell_angle_alpha   56.96760143
_cell_angle_beta   60.00000106
_cell_angle_gamma   56.96759337
_symmetry_Int_Tables_number   1
_chemical_formula_structural   Gd2VIr3
_chemical_formula_sum   'Gd2 V1 Ir3'
_cell_volume   109.39835684
_cell_formula_units_Z   1
loop_
 _symmetry_equiv_pos_site_id
 _symmetry_equiv_pos_as_xyz
  1  'x, y, z'
loop_
 _atom_site_type_symbol
 _atom_site_label
 _atom_site_symmetry_multiplicity
 _atom_site_fract_x
 _atom_site_fract_y
 _atom_site_fract_z
 _atom_site_occupancy
  Gd  Gd0  1  0.498727  0.503818  0.498727  1
  Gd  Gd1  1  0.751273  0.746182  0.751273  1
  V  V2  1  0.125000  0.625000  0.125000  1
  Ir  Ir3  1  0.625000  0.125000  0.125000  1
  Ir  Ir4  1  0.125000  0.125000  0.125000  1
  Ir  Ir5  1  0.125000  0.125000  0.625000  1
