# generated using pymatgen
data_Ho2ErTm9In20
_symmetry_space_group_name_H-M   'P 1'
_cell_length_a   6.46370068
_cell_length_b   10.38468606
_cell_length_c   12.22165900
_cell_angle_alpha   90.06812805
_cell_angle_beta   89.97374413
_cell_angle_gamma   90.02135571
_symmetry_Int_Tables_number   1
_chemical_formula_structural   Ho2ErTm9In20
_chemical_formula_sum   'Ho2 Er1 Tm9 In20'
_cell_volume   820.35983356
_cell_formula_units_Z   1
loop_
 _symmetry_equiv_pos_site_id
 _symmetry_equiv_pos_as_xyz
  1  'x, y, z'
loop_
 _atom_site_type_symbol
 _atom_site_label
 _atom_site_symmetry_multiplicity
 _atom_site_fract_x
 _atom_site_fract_y
 _atom_site_fract_z
 _atom_site_occupancy
  Ho  Ho0  1  0.890155  0.007938  0.141336  1
  Ho  Ho1  1  0.609461  0.492175  0.641058  1
  Er  Er2  1  0.390302  0.992606  0.358777  1
  Tm  Tm3  1  0.350620  0.751047  0.053217  1
  Tm  Tm4  1  0.149616  0.749375  0.553325  1
  Tm  Tm5  1  0.650591  0.250795  0.946572  1
  Tm  Tm6  1  0.850421  0.248596  0.446620  1
  Tm  Tm7  1  0.891458  0.492456  0.139670  1
  Tm  Tm8  1  0.608698  0.007402  0.640461  1
  Tm  Tm9  1  0.109424  0.992162  0.859127  1
  Tm  Tm10  1  0.390662  0.507554  0.359736  1
  Tm  Tm11  1  0.109116  0.507916  0.859820  1
  In  In12  1  0.614965  0.750038  0.505334  1
  In  In13  1  0.885474  0.749774  0.005452  1
  In  In14  1  0.384502  0.250114  0.494381  1
  In  In15  1  0.116286  0.250671  0.993252  1
  In  In16  1  0.650271  0.748859  0.244007  1
  In  In17  1  0.849488  0.750470  0.744102  1
  In  In18  1  0.349134  0.249752  0.756495  1
  In  In19  1  0.150506  0.251068  0.255933  1
  In  In20  1  0.128107  0.749076  0.282314  1
  In  In21  1  0.370928  0.749538  0.782553  1
  In  In22  1  0.872384  0.248941  0.717739  1
  In  In23  1  0.627415  0.251659  0.218027  1
  In  In24  1  0.875664  0.542173  0.399192  1
  In  In25  1  0.624996  0.957353  0.899135  1
  In  In26  1  0.124743  0.042505  0.600603  1
  In  In27  1  0.375867  0.457794  0.100670  1
  In  In28  1  0.123285  0.456710  0.600547  1
  In  In29  1  0.375619  0.043931  0.099335  1
  In  In30  1  0.875489  0.956029  0.400774  1
  In  In31  1  0.624356  0.543527  0.900431  1
