# generated using pymatgen
data_Sr8MnMo3O16
_symmetry_space_group_name_H-M   'P 1'
_cell_length_a   5.73096057
_cell_length_b   5.73095996
_cell_length_c   12.63258047
_cell_angle_alpha   89.82626383
_cell_angle_beta   90.17373748
_cell_angle_gamma   89.69084555
_symmetry_Int_Tables_number   1
_chemical_formula_structural   Sr8MnMo3O16
_chemical_formula_sum   'Sr8 Mn1 Mo3 O16'
_cell_volume   414.89340464
_cell_formula_units_Z   1
loop_
 _symmetry_equiv_pos_site_id
 _symmetry_equiv_pos_as_xyz
  1  'x, y, z'
loop_
 _atom_site_type_symbol
 _atom_site_label
 _atom_site_symmetry_multiplicity
 _atom_site_fract_x
 _atom_site_fract_y
 _atom_site_fract_z
 _atom_site_occupancy
  Sr  Sr0  1  0.263065  0.760949  0.106344  1
  Sr  Sr1  1  0.262901  0.237099  0.600761  1
  Sr  Sr2  1  0.737741  0.762259  0.597198  1
  Sr  Sr3  1  0.739051  0.236935  0.106344  1
  Sr  Sr4  1  0.760949  0.263065  0.393656  1
  Sr  Sr5  1  0.762259  0.737741  0.902802  1
  Sr  Sr6  1  0.237099  0.262901  0.899239  1
  Sr  Sr7  1  0.236935  0.739051  0.393656  1
  Mn  Mn8  1  0.750000  0.750000  0.250000  1
  Mo  Mo9  1  0.250000  0.750000  0.750000  1
  Mo  Mo10  1  0.250000  0.250000  0.250000  1
  Mo  Mo11  1  0.750000  0.250000  0.750000  1
  O  O12  1  0.284683  0.215317  0.088534  1
  O  O13  1  0.285183  0.785689  0.584838  1
  O  O14  1  0.500142  0.999858  0.779805  1
  O  O15  1  0.485735  0.014265  0.272124  1
  O  O16  1  0.499707  0.499707  0.750000  1
  O  O17  1  0.500466  0.500466  0.250000  1
  O  O18  1  0.714311  0.214817  0.584838  1
  O  O19  1  0.716624  0.783376  0.095144  1
  O  O20  1  0.785689  0.285183  0.915162  1
  O  O21  1  0.783376  0.716624  0.404856  1
  O  O22  1  0.999534  0.999534  0.250000  1
  O  O23  1  0.014265  0.485735  0.227876  1
  O  O24  1  0.000293  0.000293  0.750000  1
  O  O25  1  0.999858  0.500142  0.720195  1
  O  O26  1  0.214817  0.714311  0.915162  1
  O  O27  1  0.215317  0.284683  0.411466  1
