# generated using pymatgen
data_LuSc2GeSe2
_symmetry_space_group_name_H-M   'P 1'
_cell_length_a   6.83592325
_cell_length_b   6.83592503
_cell_length_c   6.83592473
_cell_angle_alpha   146.51469006
_cell_angle_beta   131.88286953
_cell_angle_gamma   59.89162693
_symmetry_Int_Tables_number   1
_chemical_formula_structural   LuSc2GeSe2
_chemical_formula_sum   'Lu1 Sc2 Ge1 Se2'
_cell_volume   130.02640229
_cell_formula_units_Z   1
loop_
 _symmetry_equiv_pos_site_id
 _symmetry_equiv_pos_as_xyz
  1  'x, y, z'
loop_
 _atom_site_type_symbol
 _atom_site_label
 _atom_site_symmetry_multiplicity
 _atom_site_fract_x
 _atom_site_fract_y
 _atom_site_fract_z
 _atom_site_occupancy
  Lu  Lu0  1  0.000000  0.000000  0.000000  1
  Sc  Sc1  1  0.344238  0.344238  0.000000  1
  Sc  Sc2  1  0.655762  0.655762  0.000000  1
  Ge  Ge3  1  0.500000  0.000000  0.500000  1
  Se  Se4  1  0.173075  0.673075  0.500000  1
  Se  Se5  1  0.826925  0.326925  0.500000  1
