# generated using pymatgen
data_CeTm11(Si3Rh)4
_symmetry_space_group_name_H-M   'P 1'
_cell_length_a   4.21029800
_cell_length_b   10.56274710
_cell_length_c   12.25470866
_cell_angle_alpha   90.21966744
_cell_angle_beta   90.00000000
_cell_angle_gamma   90.00000000
_symmetry_Int_Tables_number   1
_chemical_formula_structural   CeTm11(Si3Rh)4
_chemical_formula_sum   'Ce1 Tm11 Si12 Rh4'
_cell_volume   544.99123380
_cell_formula_units_Z   1
loop_
 _symmetry_equiv_pos_site_id
 _symmetry_equiv_pos_as_xyz
  1  'x, y, z'
loop_
 _atom_site_type_symbol
 _atom_site_label
 _atom_site_symmetry_multiplicity
 _atom_site_fract_x
 _atom_site_fract_y
 _atom_site_fract_z
 _atom_site_occupancy
  Ce  Ce0  1  0.750000  0.160385  0.697090  1
  Tm  Tm1  1  0.250000  0.878579  0.022090  1
  Tm  Tm2  1  0.250000  0.621035  0.522048  1
  Tm  Tm3  1  0.750000  0.121287  0.980882  1
  Tm  Tm4  1  0.750000  0.381440  0.476600  1
  Tm  Tm5  1  0.250000  0.920648  0.602898  1
  Tm  Tm6  1  0.250000  0.579453  0.103875  1
  Tm  Tm7  1  0.750000  0.080130  0.394668  1
  Tm  Tm8  1  0.750000  0.421732  0.897254  1
  Tm  Tm9  1  0.250000  0.662824  0.801178  1
  Tm  Tm10  1  0.250000  0.837681  0.300586  1
  Tm  Tm11  1  0.750000  0.340347  0.199690  1
  Si  Si12  1  0.250000  0.011220  0.823244  1
  Si  Si13  1  0.250000  0.486406  0.322760  1
  Si  Si14  1  0.750000  0.985342  0.177095  1
  Si  Si15  1  0.750000  0.514376  0.677763  1
  Si  Si16  1  0.250000  0.247681  0.844828  1
  Si  Si17  1  0.250000  0.252493  0.338635  1
  Si  Si18  1  0.750000  0.751945  0.158230  1
  Si  Si19  1  0.750000  0.748710  0.658131  1
  Si  Si20  1  0.250000  0.200471  0.536037  1
  Si  Si21  1  0.250000  0.302295  0.044475  1
  Si  Si22  1  0.750000  0.801322  0.456936  1
  Si  Si23  1  0.750000  0.697208  0.958915  1
  Rh  Rh24  1  0.250000  0.391435  0.683833  1
  Rh  Rh25  1  0.250000  0.108824  0.179831  1
  Rh  Rh26  1  0.750000  0.607668  0.317086  1
  Rh  Rh27  1  0.750000  0.887067  0.823341  1
