# generated using pymatgen
data_NdY2Ho(MoN3)4
_symmetry_space_group_name_H-M   'P 1'
_cell_length_a   7.32616185
_cell_length_b   7.32616310
_cell_length_c   6.27459054
_cell_angle_alpha   74.31470026
_cell_angle_beta   74.31477164
_cell_angle_gamma   82.33707883
_symmetry_Int_Tables_number   1
_chemical_formula_structural   NdY2Ho(MoN3)4
_chemical_formula_sum   'Nd1 Y2 Ho1 Mo4 N12'
_cell_volume   311.49866842
_cell_formula_units_Z   1
loop_
 _symmetry_equiv_pos_site_id
 _symmetry_equiv_pos_as_xyz
  1  'x, y, z'
loop_
 _atom_site_type_symbol
 _atom_site_label
 _atom_site_symmetry_multiplicity
 _atom_site_fract_x
 _atom_site_fract_y
 _atom_site_fract_z
 _atom_site_occupancy
  Nd  Nd0  1  0.699943  0.300056  0.250000  1
  Y  Y1  1  0.089133  0.910867  0.250000  1
  Y  Y2  1  0.297066  0.702935  0.750000  1
  Ho  Ho3  1  0.915265  0.084736  0.750000  1
  Mo  Mo4  1  0.800945  0.620627  0.760642  1
  Mo  Mo5  1  0.198835  0.381058  0.236586  1
  Mo  Mo6  1  0.618942  0.801163  0.263415  1
  Mo  Mo7  1  0.379373  0.199055  0.739357  1
  N  N8  1  0.218959  0.998236  0.848496  1
  N  N9  1  0.355220  0.354528  0.452386  1
  N  N10  1  0.638413  0.645971  0.552029  1
  N  N11  1  0.621302  0.111538  0.668947  1
  N  N12  1  0.001764  0.781042  0.651505  1
  N  N13  1  0.785950  0.995437  0.147421  1
  N  N14  1  0.107957  0.621594  0.160584  1
  N  N15  1  0.888463  0.378698  0.831054  1
  N  N16  1  0.004563  0.214050  0.352577  1
  N  N17  1  0.354029  0.361588  0.947971  1
  N  N18  1  0.645471  0.644778  0.047614  1
  N  N19  1  0.378406  0.892042  0.339417  1
