# generated using pymatgen
data_Ag7CO11
_symmetry_space_group_name_H-M   'P 1'
_cell_length_a   7.02936208
_cell_length_b   7.02936230
_cell_length_c   7.02936171
_cell_angle_alpha   61.27283004
_cell_angle_beta   61.27283115
_cell_angle_gamma   61.27282080
_symmetry_Int_Tables_number   1
_chemical_formula_structural   Ag7CO11
_chemical_formula_sum   'Ag7 C1 O11'
_cell_volume   252.63084798
_cell_formula_units_Z   1
loop_
 _symmetry_equiv_pos_site_id
 _symmetry_equiv_pos_as_xyz
  1  'x, y, z'
loop_
 _atom_site_type_symbol
 _atom_site_label
 _atom_site_symmetry_multiplicity
 _atom_site_fract_x
 _atom_site_fract_y
 _atom_site_fract_z
 _atom_site_occupancy
  Ag  Ag0  1  0.999374  0.999374  0.999374  1
  Ag  Ag1  1  0.499440  0.000543  0.000543  1
  Ag  Ag2  1  0.500264  0.500264  0.000626  1
  Ag  Ag3  1  0.500264  0.000626  0.500264  1
  Ag  Ag4  1  0.000543  0.000543  0.499440  1
  Ag  Ag5  1  0.000626  0.500264  0.500264  1
  Ag  Ag6  1  0.000543  0.499440  0.000543  1
  C  C7  1  0.499720  0.499720  0.499720  1
  O  O8  1  0.580115  0.145203  0.145203  1
  O  O9  1  0.145203  0.580115  0.145203  1
  O  O10  1  0.136975  0.136975  0.136975  1
  O  O11  1  0.145203  0.145203  0.580115  1
  O  O12  1  0.603591  0.603591  0.291953  1
  O  O13  1  0.603591  0.291953  0.603591  1
  O  O14  1  0.291953  0.603591  0.603591  1
  O  O15  1  0.855968  0.855968  0.417693  1
  O  O16  1  0.855968  0.417693  0.855968  1
  O  O17  1  0.862964  0.862964  0.862964  1
  O  O18  1  0.417693  0.855968  0.855968  1
