# generated using pymatgen
data_Nd6Cd(GeS7)2
_symmetry_space_group_name_H-M   'P 1'
_cell_length_a   10.26749600
_cell_length_b   10.26749568
_cell_length_c   5.81500800
_cell_angle_alpha   90.00000000
_cell_angle_beta   90.00000000
_cell_angle_gamma   120.00000103
_symmetry_Int_Tables_number   1
_chemical_formula_structural   Nd6Cd(GeS7)2
_chemical_formula_sum   'Nd6 Cd1 Ge2 S14'
_cell_volume   530.89668662
_cell_formula_units_Z   1
loop_
 _symmetry_equiv_pos_site_id
 _symmetry_equiv_pos_as_xyz
  1  'x, y, z'
loop_
 _atom_site_type_symbol
 _atom_site_label
 _atom_site_symmetry_multiplicity
 _atom_site_fract_x
 _atom_site_fract_y
 _atom_site_fract_z
 _atom_site_occupancy
  Nd  Nd0  1  0.309130  0.102488  0.751530  1
  Nd  Nd1  1  0.793358  0.690870  0.751530  1
  Nd  Nd2  1  0.897512  0.206642  0.751530  1
  Nd  Nd3  1  0.024206  0.563735  0.248804  1
  Nd  Nd4  1  0.539528  0.975794  0.248804  1
  Nd  Nd5  1  0.436265  0.460472  0.248804  1
  Cd  Cd6  1  0.666667  0.333333  0.514083  1
  Ge  Ge7  1  0.000000  0.000000  0.168671  1
  Ge  Ge8  1  0.333333  0.666667  0.664453  1
  S  S9  1  0.147602  0.228060  0.011551  1
  S  S10  1  0.080459  0.852398  0.011551  1
  S  S11  1  0.771940  0.919541  0.011551  1
  S  S12  1  0.186007  0.438477  0.508678  1
  S  S13  1  0.252471  0.813993  0.508678  1
  S  S14  1  0.561523  0.747529  0.508678  1
  S  S15  1  0.000000  0.000000  0.546634  1
  S  S16  1  0.333333  0.666667  0.043230  1
  S  S17  1  0.409803  0.169326  0.275944  1
  S  S18  1  0.759523  0.590197  0.275944  1
  S  S19  1  0.830674  0.240477  0.275944  1
  S  S20  1  0.922909  0.499042  0.765152  1
  S  S21  1  0.576133  0.077091  0.765152  1
  S  S22  1  0.500958  0.423867  0.765152  1
