# generated using pymatgen
data_Ce6Co3Sb8Au3
_symmetry_space_group_name_H-M   'P 1'
_cell_length_a   8.46975765
_cell_length_b   8.46975878
_cell_length_c   8.49463527
_cell_angle_alpha   109.54386422
_cell_angle_beta   109.86008003
_cell_angle_gamma   108.89088318
_symmetry_Int_Tables_number   1
_chemical_formula_structural   Ce6Co3Sb8Au3
_chemical_formula_sum   'Ce6 Co3 Sb8 Au3'
_cell_volume   469.75990723
_cell_formula_units_Z   1
loop_
 _symmetry_equiv_pos_site_id
 _symmetry_equiv_pos_as_xyz
  1  'x, y, z'
loop_
 _atom_site_type_symbol
 _atom_site_label
 _atom_site_symmetry_multiplicity
 _atom_site_fract_x
 _atom_site_fract_y
 _atom_site_fract_z
 _atom_site_occupancy
  Ce  Ce0  1  0.379892  0.258831  0.634416  1
  Ce  Ce1  1  0.727330  0.857881  0.102808  1
  Ce  Ce2  1  0.255073  0.624522  0.397192  1
  Ce  Ce3  1  0.614914  0.364914  0.250000  1
  Ce  Ce4  1  0.886538  0.136538  0.750000  1
  Ce  Ce5  1  0.124414  0.745476  0.865584  1
  Co  Co6  1  0.253588  0.131970  0.877330  1
  Co  Co7  1  0.754640  0.376258  0.622670  1
  Co  Co8  1  0.379768  0.629768  0.750000  1
  Sb  Sb9  1  0.006845  0.343802  0.518180  1
  Sb  Sb10  1  0.825770  0.493706  0.978462  1
  Sb  Sb11  1  0.480447  0.991336  0.827886  1
  Sb  Sb12  1  0.663450  0.652561  0.672114  1
  Sb  Sb13  1  0.173916  0.166205  0.152505  1
  Sb  Sb14  1  0.325623  0.488664  0.981820  1
  Sb  Sb15  1  0.513700  0.021411  0.347495  1
  Sb  Sb16  1  0.015245  0.847309  0.521538  1
  Au  Au17  1  0.123203  0.873203  0.250000  1
  Au  Au18  1  0.622606  0.747283  0.374244  1
  Au  Au19  1  0.873038  0.248361  0.125756  1
