# generated using pymatgen
data_Nb3SI6Br
_symmetry_space_group_name_H-M   'P 1'
_cell_length_a   7.62916390
_cell_length_b   7.62916437
_cell_length_c   7.29654602
_cell_angle_alpha   89.99529420
_cell_angle_beta   90.00470892
_cell_angle_gamma   120.14151417
_symmetry_Int_Tables_number   1
_chemical_formula_structural   Nb3SI6Br
_chemical_formula_sum   'Nb3 S1 I6 Br1'
_cell_volume   367.26606712
_cell_formula_units_Z   1
loop_
 _symmetry_equiv_pos_site_id
 _symmetry_equiv_pos_as_xyz
  1  'x, y, z'
loop_
 _atom_site_type_symbol
 _atom_site_label
 _atom_site_symmetry_multiplicity
 _atom_site_fract_x
 _atom_site_fract_y
 _atom_site_fract_z
 _atom_site_occupancy
  Nb  Nb0  1  0.592949  0.795295  0.222660  1
  Nb  Nb1  1  0.204705  0.407051  0.222660  1
  Nb  Nb2  1  0.203552  0.796448  0.221989  1
  S  S3  1  0.332620  0.667380  0.457246  1
  I  I4  1  0.997454  0.496755  0.964144  1
  I  I5  1  0.503245  0.002546  0.964144  1
  I  I6  1  0.001278  0.998722  0.023335  1
  I  I7  1  0.337844  0.168898  0.439642  1
  I  I8  1  0.831150  0.168850  0.435990  1
  I  I9  1  0.831102  0.662156  0.439642  1
  Br  Br10  1  0.497435  0.502565  0.993451  1
