# generated using pymatgen
data_Nd8Gd5Dy7Si16
_symmetry_space_group_name_H-M   'P 1'
_cell_length_a   7.66687562
_cell_length_b   7.66549636
_cell_length_c   14.68408900
_cell_angle_alpha   90.18219880
_cell_angle_beta   90.13606393
_cell_angle_gamma   89.97685984
_symmetry_Int_Tables_number   1
_chemical_formula_structural   Nd8Gd5Dy7Si16
_chemical_formula_sum   'Nd8 Gd5 Dy7 Si16'
_cell_volume   862.98302453
_cell_formula_units_Z   1
loop_
 _symmetry_equiv_pos_site_id
 _symmetry_equiv_pos_as_xyz
  1  'x, y, z'
loop_
 _atom_site_type_symbol
 _atom_site_label
 _atom_site_symmetry_multiplicity
 _atom_site_fract_x
 _atom_site_fract_y
 _atom_site_fract_z
 _atom_site_occupancy
  Nd  Nd0  1  0.987450  0.631236  0.048315  1
  Nd  Nd1  1  0.013107  0.367911  0.545704  1
  Nd  Nd2  1  0.631628  0.986921  0.952986  1
  Nd  Nd3  1  0.131198  0.511419  0.797966  1
  Nd  Nd4  1  0.867699  0.488852  0.297053  1
  Nd  Nd5  1  0.512888  0.133867  0.204612  1
  Nd  Nd6  1  0.488162  0.868854  0.701320  1
  Nd  Nd7  1  0.368508  0.012071  0.452438  1
  Gd  Gd8  1  0.016012  0.865941  0.623601  1
  Gd  Gd9  1  0.634677  0.517064  0.875364  1
  Gd  Gd10  1  0.483169  0.365046  0.624236  1
  Gd  Gd11  1  0.515712  0.632992  0.126691  1
  Gd  Gd12  1  0.133287  0.983931  0.875796  1
  Dy  Dy13  1  0.366658  0.486128  0.373669  1
  Dy  Dy14  1  0.867001  0.013536  0.375828  1
  Dy  Dy15  1  0.985181  0.133682  0.125086  1
  Dy  Dy16  1  0.687372  0.686072  0.500613  1
  Dy  Dy17  1  0.812360  0.188086  0.749306  1
  Dy  Dy18  1  0.187303  0.814589  0.249835  1
  Dy  Dy19  1  0.313687  0.312778  0.000308  1
  Si  Si20  1  0.071783  0.713255  0.436923  1
  Si  Si21  1  0.928643  0.285284  0.939051  1
  Si  Si22  1  0.714377  0.071569  0.560317  1
  Si  Si23  1  0.213066  0.428094  0.188955  1
  Si  Si24  1  0.786830  0.569772  0.687843  1
  Si  Si25  1  0.428939  0.213697  0.811706  1
  Si  Si26  1  0.571462  0.787758  0.312620  1
  Si  Si27  1  0.286279  0.929601  0.062662  1
  Si  Si28  1  0.836714  0.804534  0.800478  1
  Si  Si29  1  0.160701  0.197421  0.303576  1
  Si  Si30  1  0.803882  0.839801  0.198396  1
  Si  Si31  1  0.304892  0.662660  0.550141  1
  Si  Si32  1  0.696484  0.335299  0.052879  1
  Si  Si33  1  0.661698  0.302803  0.445168  1
  Si  Si34  1  0.335739  0.694878  0.949978  1
  Si  Si35  1  0.195454  0.162599  0.698580  1
