# generated using pymatgen
data_Al4Pd3Au
_symmetry_space_group_name_H-M   'P 1'
_cell_length_a   4.95369537
_cell_length_b   4.95369537
_cell_length_c   4.95369537
_cell_angle_alpha   89.82625890
_cell_angle_beta   89.82625890
_cell_angle_gamma   89.82625890
_symmetry_Int_Tables_number   1
_chemical_formula_structural   Al4Pd3Au
_chemical_formula_sum   'Al4 Pd3 Au1'
_cell_volume   121.55754202
_cell_formula_units_Z   1
loop_
 _symmetry_equiv_pos_site_id
 _symmetry_equiv_pos_as_xyz
  1  'x, y, z'
loop_
 _atom_site_type_symbol
 _atom_site_label
 _atom_site_symmetry_multiplicity
 _atom_site_fract_x
 _atom_site_fract_y
 _atom_site_fract_z
 _atom_site_occupancy
  Al  Al0  1  0.838557  0.838557  0.838557  1
  Al  Al1  1  0.655378  0.156146  0.355081  1
  Al  Al2  1  0.355081  0.655378  0.156146  1
  Al  Al3  1  0.156146  0.355081  0.655378  1
  Pd  Pd4  1  0.347132  0.850308  0.648676  1
  Pd  Pd5  1  0.648676  0.347132  0.850308  1
  Pd  Pd6  1  0.850308  0.648676  0.347132  1
  Au  Au7  1  0.148723  0.148723  0.148723  1
