# generated using pymatgen
data_La2Yb2ErSi4
_symmetry_space_group_name_H-M   'P 1'
_cell_length_a   7.89374132
_cell_length_b   7.89641524
_cell_length_c   14.55931374
_cell_angle_alpha   89.72152230
_cell_angle_beta   89.99682464
_cell_angle_gamma   89.96732461
_symmetry_Int_Tables_number   1
_chemical_formula_structural   La2Yb2ErSi4
_chemical_formula_sum   'La8 Yb8 Er4 Si16'
_cell_volume   907.50405103
_cell_formula_units_Z   4
loop_
 _symmetry_equiv_pos_site_id
 _symmetry_equiv_pos_as_xyz
  1  'x, y, z'
loop_
 _atom_site_type_symbol
 _atom_site_label
 _atom_site_symmetry_multiplicity
 _atom_site_fract_x
 _atom_site_fract_y
 _atom_site_fract_z
 _atom_site_occupancy
  La  La0  1  0.988925  0.636169  0.042129  1
  La  La1  1  0.009479  0.366781  0.543786  1
  La  La2  1  0.637255  0.990393  0.957254  1
  La  La3  1  0.134188  0.510759  0.793000  1
  La  La4  1  0.868785  0.490506  0.293244  1
  La  La5  1  0.508889  0.134333  0.206577  1
  La  La6  1  0.489371  0.864914  0.707535  1
  La  La7  1  0.364716  0.009105  0.456798  1
  Yb  Yb8  1  0.367872  0.493393  0.375955  1
  Yb  Yb9  1  0.865673  0.007984  0.374170  1
  Yb  Yb10  1  0.992559  0.133713  0.123986  1
  Yb  Yb11  1  0.007874  0.866073  0.628078  1
  Yb  Yb12  1  0.688053  0.689256  0.499694  1
  Yb  Yb13  1  0.816767  0.182013  0.749432  1
  Yb  Yb14  1  0.182323  0.815439  0.250018  1
  Yb  Yb15  1  0.309367  0.311984  0.000230  1
  Er  Er16  1  0.633025  0.503866  0.875719  1
  Er  Er17  1  0.495843  0.367012  0.626829  1
  Er  Er18  1  0.504500  0.633854  0.121734  1
  Er  Er19  1  0.135709  0.994573  0.873875  1
  Si  Si20  1  0.078571  0.707413  0.443684  1
  Si  Si21  1  0.921240  0.291011  0.938928  1
  Si  Si22  1  0.704901  0.080157  0.560492  1
  Si  Si23  1  0.214269  0.427000  0.189871  1
  Si  Si24  1  0.784526  0.572024  0.694569  1
  Si  Si25  1  0.424676  0.214141  0.809562  1
  Si  Si26  1  0.574418  0.787834  0.304043  1
  Si  Si27  1  0.292608  0.919795  0.055294  1
  Si  Si28  1  0.843727  0.788046  0.814789  1
  Si  Si29  1  0.161612  0.207995  0.306956  1
  Si  Si30  1  0.786971  0.836867  0.186575  1
  Si  Si31  1  0.293570  0.652091  0.563223  1
  Si  Si32  1  0.702788  0.346237  0.056989  1
  Si  Si33  1  0.657810  0.295408  0.444784  1
  Si  Si34  1  0.346689  0.708764  0.937097  1
  Si  Si35  1  0.210452  0.163096  0.693100  1
