# generated using pymatgen
data_TbNdUCo2Si7
_symmetry_space_group_name_H-M   'P 1'
_cell_length_a   4.04573931
_cell_length_b   4.06736100
_cell_length_c   12.41529823
_cell_angle_alpha   90.00000000
_cell_angle_beta   99.37721883
_cell_angle_gamma   90.00000000
_symmetry_Int_Tables_number   1
_chemical_formula_structural   TbNdUCo2Si7
_chemical_formula_sum   'Tb1 Nd1 U1 Co2 Si7'
_cell_volume   201.56966793
_cell_formula_units_Z   1
loop_
 _symmetry_equiv_pos_site_id
 _symmetry_equiv_pos_as_xyz
  1  'x, y, z'
loop_
 _atom_site_type_symbol
 _atom_site_label
 _atom_site_symmetry_multiplicity
 _atom_site_fract_x
 _atom_site_fract_y
 _atom_site_fract_z
 _atom_site_occupancy
  Tb  Tb0  1  0.317518  0.000000  0.635038  1
  Nd  Nd1  1  0.683739  0.000000  0.367475  1
  U  U2  1  0.999641  0.500000  0.999282  1
  Co  Co3  1  0.125601  0.500000  0.251201  1
  Co  Co4  1  0.873751  0.500000  0.747504  1
  Si  Si5  1  0.499882  0.000000  0.999764  1
  Si  Si6  1  0.414038  0.500000  0.828075  1
  Si  Si7  1  0.584871  0.500000  0.169743  1
  Si  Si8  1  0.084668  0.000000  0.169334  1
  Si  Si9  1  0.914147  0.000000  0.828295  1
  Si  Si10  1  0.221960  0.500000  0.443918  1
  Si  Si11  1  0.780184  0.500000  0.560370  1
