# generated using pymatgen
data_Tb7Th(Si3Ni)4
_symmetry_space_group_name_H-M   'P 1'
_cell_length_a   7.99082900
_cell_length_b   7.95987775
_cell_length_c   8.18089800
_cell_angle_alpha   90.00000000
_cell_angle_beta   90.00000000
_cell_angle_gamma   120.12871524
_symmetry_Int_Tables_number   1
_chemical_formula_structural   Tb7Th(Si3Ni)4
_chemical_formula_sum   'Tb7 Th1 Si12 Ni4'
_cell_volume   450.05448402
_cell_formula_units_Z   1
loop_
 _symmetry_equiv_pos_site_id
 _symmetry_equiv_pos_as_xyz
  1  'x, y, z'
loop_
 _atom_site_type_symbol
 _atom_site_label
 _atom_site_symmetry_multiplicity
 _atom_site_fract_x
 _atom_site_fract_y
 _atom_site_fract_z
 _atom_site_occupancy
  Tb  Tb0  1  0.499816  0.999634  0.750000  1
  Tb  Tb1  1  0.999726  0.499862  0.250000  1
  Tb  Tb2  1  0.000388  0.500186  0.750000  1
  Tb  Tb3  1  0.500137  0.499862  0.250000  1
  Tb  Tb4  1  0.499796  0.500186  0.750000  1
  Tb  Tb5  1  0.000000  0.999999  0.250000  1
  Tb  Tb6  1  0.999989  0.999979  0.750000  1
  Th  Th7  1  0.500125  0.000249  0.250000  1
  Si  Si8  1  0.171914  0.343827  0.000172  1
  Si  Si9  1  0.828062  0.656125  0.999634  1
  Si  Si10  1  0.659849  0.828309  0.997474  1
  Si  Si11  1  0.828062  0.656125  0.500366  1
  Si  Si12  1  0.340180  0.171683  0.996980  1
  Si  Si13  1  0.171914  0.343827  0.499828  1
  Si  Si14  1  0.168458  0.828309  0.997474  1
  Si  Si15  1  0.340180  0.171683  0.503020  1
  Si  Si16  1  0.831503  0.171683  0.996980  1
  Si  Si17  1  0.659849  0.828309  0.502526  1
  Si  Si18  1  0.831503  0.171683  0.503020  1
  Si  Si19  1  0.168458  0.828309  0.502526  1
  Ni  Ni20  1  0.334408  0.668816  0.999189  1
  Ni  Ni21  1  0.665635  0.331270  0.998672  1
  Ni  Ni22  1  0.665635  0.331270  0.501328  1
  Ni  Ni23  1  0.334408  0.668816  0.500811  1
