# generated using pymatgen
data_Nd4TmSn4
_symmetry_space_group_name_H-M   'P 1'
_cell_length_a   8.22169700
_cell_length_b   8.35345300
_cell_length_c   15.91465800
_cell_angle_alpha   90.00000000
_cell_angle_beta   90.00000000
_cell_angle_gamma   90.00000000
_symmetry_Int_Tables_number   1
_chemical_formula_structural   Nd4TmSn4
_chemical_formula_sum   'Nd16 Tm4 Sn16'
_cell_volume   1093.01170055
_cell_formula_units_Z   4
loop_
 _symmetry_equiv_pos_site_id
 _symmetry_equiv_pos_as_xyz
  1  'x, y, z'
loop_
 _atom_site_type_symbol
 _atom_site_label
 _atom_site_symmetry_multiplicity
 _atom_site_fract_x
 _atom_site_fract_y
 _atom_site_fract_z
 _atom_site_occupancy
  Nd  Nd0  1  0.017830  0.181025  0.401318  1
  Nd  Nd1  1  0.368200  0.837206  0.120877  1
  Nd  Nd2  1  0.131800  0.337206  0.620877  1
  Nd  Nd3  1  0.482170  0.681025  0.901318  1
  Nd  Nd4  1  0.868200  0.662794  0.120877  1
  Nd  Nd5  1  0.131800  0.337206  0.879123  1
  Nd  Nd6  1  0.482170  0.681025  0.598682  1
  Nd  Nd7  1  0.631800  0.162794  0.620877  1
  Nd  Nd8  1  0.868200  0.662794  0.379123  1
  Nd  Nd9  1  0.017830  0.181025  0.098682  1
  Nd  Nd10  1  0.982170  0.818975  0.901318  1
  Nd  Nd11  1  0.631800  0.162794  0.879123  1
  Nd  Nd12  1  0.517830  0.318975  0.098682  1
  Nd  Nd13  1  0.368200  0.837206  0.379123  1
  Nd  Nd14  1  0.982170  0.818975  0.598682  1
  Nd  Nd15  1  0.517830  0.318975  0.401318  1
  Tm  Tm16  1  0.199455  0.502010  0.250000  1
  Tm  Tm17  1  0.699455  0.997990  0.250000  1
  Tm  Tm18  1  0.300545  0.002010  0.750000  1
  Tm  Tm19  1  0.800545  0.497990  0.750000  1
  Sn  Sn20  1  0.791734  0.464845  0.543794  1
  Sn  Sn21  1  0.708266  0.964845  0.456206  1
  Sn  Sn22  1  0.675409  0.853608  0.750000  1
  Sn  Sn23  1  0.208266  0.535155  0.456206  1
  Sn  Sn24  1  0.291734  0.035155  0.956206  1
  Sn  Sn25  1  0.824591  0.353608  0.250000  1
  Sn  Sn26  1  0.791734  0.464845  0.956206  1
  Sn  Sn27  1  0.564306  0.616504  0.250000  1
  Sn  Sn28  1  0.208266  0.535155  0.043794  1
  Sn  Sn29  1  0.435694  0.383496  0.750000  1
  Sn  Sn30  1  0.175409  0.646392  0.750000  1
  Sn  Sn31  1  0.935694  0.116504  0.750000  1
  Sn  Sn32  1  0.291734  0.035155  0.543794  1
  Sn  Sn33  1  0.708266  0.964845  0.043794  1
  Sn  Sn34  1  0.324591  0.146392  0.250000  1
  Sn  Sn35  1  0.064306  0.883496  0.250000  1
