# generated using pymatgen
data_Tb8Er2Ga3NiBi2
_symmetry_space_group_name_H-M   'P 1'
_cell_length_a   8.57253974
_cell_length_b   8.57254085
_cell_length_c   8.76269904
_cell_angle_alpha   124.07923696
_cell_angle_beta   124.07924058
_cell_angle_gamma   81.63161974
_symmetry_Int_Tables_number   1
_chemical_formula_structural   Tb8Er2Ga3NiBi2
_chemical_formula_sum   'Tb8 Er2 Ga3 Ni1 Bi2'
_cell_volume   428.24406139
_cell_formula_units_Z   1
loop_
 _symmetry_equiv_pos_site_id
 _symmetry_equiv_pos_as_xyz
  1  'x, y, z'
loop_
 _atom_site_type_symbol
 _atom_site_label
 _atom_site_symmetry_multiplicity
 _atom_site_fract_x
 _atom_site_fract_y
 _atom_site_fract_z
 _atom_site_occupancy
  Tb  Tb0  1  0.780497  0.297134  0.796001  1
  Tb  Tb1  1  0.202866  0.719503  0.203999  1
  Tb  Tb2  1  0.484496  0.001133  0.203999  1
  Tb  Tb3  1  0.303757  0.459557  0.500000  1
  Tb  Tb4  1  0.040443  0.196243  0.500000  1
  Tb  Tb5  1  0.498867  0.015504  0.796001  1
  Tb  Tb6  1  0.705266  0.516447  0.500000  1
  Tb  Tb7  1  0.983553  0.794734  0.500000  1
  Er  Er8  1  0.993896  0.996830  0.990727  1
  Er  Er9  1  0.503170  0.506104  0.009273  1
  Ga  Ga10  1  0.148327  0.645277  0.793603  1
  Ga  Ga11  1  0.854723  0.351673  0.206397  1
  Ga  Ga12  1  0.634632  0.865368  0.500000  1
  Ni  Ni13  1  0.376872  0.123128  0.500000  1
  Bi  Bi14  1  0.244316  0.255684  0.000000  1
  Bi  Bi15  1  0.744316  0.755684  0.000000  1
