# generated using pymatgen
data_Sr4MnOsO8
_symmetry_space_group_name_H-M   'P 1'
_cell_length_a   6.85355656
_cell_length_b   6.85355742
_cell_length_c   5.68916900
_cell_angle_alpha   90.00000000
_cell_angle_beta   90.00000000
_cell_angle_gamma   130.95075654
_symmetry_Int_Tables_number   1
_chemical_formula_structural   Sr4MnOsO8
_chemical_formula_sum   'Sr4 Mn1 Os1 O8'
_cell_volume   201.82963842
_cell_formula_units_Z   1
loop_
 _symmetry_equiv_pos_site_id
 _symmetry_equiv_pos_as_xyz
  1  'x, y, z'
loop_
 _atom_site_type_symbol
 _atom_site_label
 _atom_site_symmetry_multiplicity
 _atom_site_fract_x
 _atom_site_fract_y
 _atom_site_fract_z
 _atom_site_occupancy
  Sr  Sr0  1  0.642341  0.357659  0.000000  1
  Sr  Sr1  1  0.144733  0.855267  0.500000  1
  Sr  Sr2  1  0.855267  0.144733  0.500000  1
  Sr  Sr3  1  0.357659  0.642341  0.000000  1
  Mn  Mn4  1  0.500000  0.500000  0.500000  1
  Os  Os5  1  0.000000  0.000000  0.000000  1
  O  O6  1  0.755661  0.755661  0.755692  1
  O  O7  1  0.244339  0.244339  0.244308  1
  O  O8  1  0.244339  0.244339  0.755692  1
  O  O9  1  0.755661  0.755661  0.244308  1
  O  O10  1  0.838510  0.161490  0.000000  1
  O  O11  1  0.342511  0.657489  0.500000  1
  O  O12  1  0.657489  0.342511  0.500000  1
  O  O13  1  0.161490  0.838510  0.000000  1
