# generated using pymatgen
data_Y4Hf3InIr4
_symmetry_space_group_name_H-M   'P 1'
_cell_length_a   4.46710200
_cell_length_b   7.14486556
_cell_length_c   8.33005126
_cell_angle_alpha   93.35750765
_cell_angle_beta   90.00000000
_cell_angle_gamma   90.00000000
_symmetry_Int_Tables_number   1
_chemical_formula_structural   Y4Hf3InIr4
_chemical_formula_sum   'Y4 Hf3 In1 Ir4'
_cell_volume   265.41258582
_cell_formula_units_Z   1
loop_
 _symmetry_equiv_pos_site_id
 _symmetry_equiv_pos_as_xyz
  1  'x, y, z'
loop_
 _atom_site_type_symbol
 _atom_site_label
 _atom_site_symmetry_multiplicity
 _atom_site_fract_x
 _atom_site_fract_y
 _atom_site_fract_z
 _atom_site_occupancy
  Y  Y0  1  0.250000  0.980007  0.320356  1
  Y  Y1  1  0.250000  0.467485  0.164861  1
  Y  Y2  1  0.750000  0.034883  0.684017  1
  Y  Y3  1  0.750000  0.506920  0.832734  1
  Hf  Hf4  1  0.250000  0.370020  0.571119  1
  Hf  Hf5  1  0.250000  0.856541  0.937372  1
  Hf  Hf6  1  0.750000  0.639695  0.429622  1
  In  In7  1  0.750000  0.145688  0.073252  1
  Ir  Ir8  1  0.250000  0.226749  0.866427  1
  Ir  Ir9  1  0.250000  0.741050  0.602282  1
  Ir  Ir10  1  0.750000  0.757583  0.113744  1
  Ir  Ir11  1  0.750000  0.273380  0.404212  1
