# generated using pymatgen
data_Tb9Y(Er5Pb8)2
_symmetry_space_group_name_H-M   'P 1'
_cell_length_a   8.19335139
_cell_length_b   8.27348202
_cell_length_c   15.61632203
_cell_angle_alpha   90.00294020
_cell_angle_beta   90.01685047
_cell_angle_gamma   90.03729820
_symmetry_Int_Tables_number   1
_chemical_formula_structural   Tb9Y(Er5Pb8)2
_chemical_formula_sum   'Tb9 Y1 Er10 Pb16'
_cell_volume   1058.59186743
_cell_formula_units_Z   1
loop_
 _symmetry_equiv_pos_site_id
 _symmetry_equiv_pos_as_xyz
  1  'x, y, z'
loop_
 _atom_site_type_symbol
 _atom_site_label
 _atom_site_symmetry_multiplicity
 _atom_site_fract_x
 _atom_site_fract_y
 _atom_site_fract_z
 _atom_site_occupancy
  Tb  Tb0  1  0.876683  0.659421  0.879407  1
  Tb  Tb1  1  0.534421  0.322846  0.900271  1
  Tb  Tb2  1  0.034585  0.176917  0.599568  1
  Tb  Tb3  1  0.465463  0.676948  0.400196  1
  Tb  Tb4  1  0.965444  0.823561  0.100306  1
  Tb  Tb5  1  0.465758  0.676546  0.100080  1
  Tb  Tb6  1  0.965365  0.823119  0.400170  1
  Tb  Tb7  1  0.534407  0.322986  0.599667  1
  Tb  Tb8  1  0.034523  0.176750  0.900143  1
  Y  Y9  1  0.376192  0.840921  0.878962  1
  Er  Er10  1  0.876274  0.658845  0.620903  1
  Er  Er11  1  0.623821  0.158870  0.378988  1
  Er  Er12  1  0.123577  0.341248  0.121019  1
  Er  Er13  1  0.623405  0.158761  0.121396  1
  Er  Er14  1  0.123728  0.340987  0.378970  1
  Er  Er15  1  0.376503  0.841164  0.620762  1
  Er  Er16  1  0.208171  0.504204  0.749647  1
  Er  Er17  1  0.708089  0.995731  0.749580  1
  Er  Er18  1  0.791831  0.495182  0.250186  1
  Er  Er19  1  0.291813  0.004627  0.250006  1
  Pb  Pb20  1  0.282387  0.034538  0.043003  1
  Pb  Pb21  1  0.782665  0.465756  0.457251  1
  Pb  Pb22  1  0.717359  0.965782  0.542671  1
  Pb  Pb23  1  0.218787  0.533149  0.957522  1
  Pb  Pb24  1  0.716922  0.967492  0.957484  1
  Pb  Pb25  1  0.217269  0.534237  0.542693  1
  Pb  Pb26  1  0.282582  0.034276  0.457209  1
  Pb  Pb27  1  0.782279  0.464964  0.043590  1
  Pb  Pb28  1  0.571093  0.627064  0.749350  1
  Pb  Pb29  1  0.071562  0.873406  0.749309  1
  Pb  Pb30  1  0.428591  0.372631  0.250084  1
  Pb  Pb31  1  0.928779  0.127409  0.250035  1
  Pb  Pb32  1  0.345580  0.152626  0.749777  1
  Pb  Pb33  1  0.845551  0.347109  0.749697  1
  Pb  Pb34  1  0.654278  0.847506  0.250050  1
  Pb  Pb35  1  0.154262  0.652425  0.250049  1
