# generated using pymatgen
data_Tb16NiHg4Ir3
_symmetry_space_group_name_H-M   'P 1'
_cell_length_a   9.59109061
_cell_length_b   9.59109008
_cell_length_c   9.59109119
_cell_angle_alpha   60.46666693
_cell_angle_beta   60.46667639
_cell_angle_gamma   60.46666921
_symmetry_Int_Tables_number   1
_chemical_formula_structural   Tb16NiHg4Ir3
_chemical_formula_sum   'Tb16 Ni1 Hg4 Ir3'
_cell_volume   630.44378034
_cell_formula_units_Z   1
loop_
 _symmetry_equiv_pos_site_id
 _symmetry_equiv_pos_as_xyz
  1  'x, y, z'
loop_
 _atom_site_type_symbol
 _atom_site_label
 _atom_site_symmetry_multiplicity
 _atom_site_fract_x
 _atom_site_fract_y
 _atom_site_fract_z
 _atom_site_occupancy
  Tb  Tb0  1  0.600135  0.600135  0.600135  1
  Tb  Tb1  1  0.600197  0.600197  0.197583  1
  Tb  Tb2  1  0.600197  0.197583  0.600197  1
  Tb  Tb3  1  0.197583  0.600197  0.600197  1
  Tb  Tb4  1  0.060494  0.440641  0.440641  1
  Tb  Tb5  1  0.438566  0.059724  0.059724  1
  Tb  Tb6  1  0.440641  0.060494  0.440641  1
  Tb  Tb7  1  0.059724  0.438566  0.059724  1
  Tb  Tb8  1  0.440641  0.440641  0.060494  1
  Tb  Tb9  1  0.059724  0.059724  0.438566  1
  Tb  Tb10  1  0.189745  0.811220  0.811220  1
  Tb  Tb11  1  0.813632  0.187664  0.187664  1
  Tb  Tb12  1  0.811220  0.189745  0.811220  1
  Tb  Tb13  1  0.187664  0.813632  0.187664  1
  Tb  Tb14  1  0.811220  0.811220  0.189745  1
  Tb  Tb15  1  0.187664  0.187664  0.813632  1
  Ni  Ni16  1  0.392150  0.392150  0.392150  1
  Hg  Hg17  1  0.834204  0.834204  0.834204  1
  Hg  Hg18  1  0.835785  0.835785  0.494286  1
  Hg  Hg19  1  0.835785  0.494286  0.835785  1
  Hg  Hg20  1  0.494286  0.835785  0.835785  1
  Ir  Ir21  1  0.392531  0.392531  0.823684  1
  Ir  Ir22  1  0.392531  0.823684  0.392531  1
  Ir  Ir23  1  0.823684  0.392531  0.392531  1
