# generated using pymatgen
data_Tb8TaTi8Si16Mo3
_symmetry_space_group_name_H-M   'P 1'
_cell_length_a   7.03091209
_cell_length_b   7.03091274
_cell_length_c   12.92993871
_cell_angle_alpha   90.02170582
_cell_angle_beta   89.97829422
_cell_angle_gamma   90.02937901
_symmetry_Int_Tables_number   1
_chemical_formula_structural   Tb8TaTi8Si16Mo3
_chemical_formula_sum   'Tb8 Ta1 Ti8 Si16 Mo3'
_cell_volume   639.17491525
_cell_formula_units_Z   1
loop_
 _symmetry_equiv_pos_site_id
 _symmetry_equiv_pos_as_xyz
  1  'x, y, z'
loop_
 _atom_site_type_symbol
 _atom_site_label
 _atom_site_symmetry_multiplicity
 _atom_site_fract_x
 _atom_site_fract_y
 _atom_site_fract_z
 _atom_site_occupancy
  Tb  Tb0  1  0.340346  0.000917  0.466869  1
  Tb  Tb1  1  0.499370  0.840069  0.716689  1
  Tb  Tb2  1  0.501191  0.158684  0.217735  1
  Tb  Tb3  1  0.840069  0.499370  0.283311  1
  Tb  Tb4  1  0.158684  0.501191  0.782265  1
  Tb  Tb5  1  0.660500  0.998046  0.966714  1
  Tb  Tb6  1  0.000917  0.340346  0.533131  1
  Tb  Tb7  1  0.998046  0.660500  0.033286  1
  Ta  Ta8  1  0.326598  0.326598  0.000000  1
  Ti  Ti9  1  0.153313  0.009347  0.875947  1
  Ti  Ti10  1  0.491000  0.653454  0.126480  1
  Ti  Ti11  1  0.509629  0.346839  0.625759  1
  Ti  Ti12  1  0.653454  0.491000  0.873520  1
  Ti  Ti13  1  0.346839  0.509629  0.374241  1
  Ti  Ti14  1  0.846769  0.990400  0.376313  1
  Ti  Ti15  1  0.009347  0.153313  0.124053  1
  Ti  Ti16  1  0.990400  0.846769  0.623687  1
  Si  Si17  1  0.201069  0.129440  0.685407  1
  Si  Si18  1  0.370421  0.702393  0.935422  1
  Si  Si19  1  0.629228  0.299086  0.435545  1
  Si  Si20  1  0.702393  0.370421  0.064578  1
  Si  Si21  1  0.299086  0.629228  0.564455  1
  Si  Si22  1  0.798931  0.870606  0.185347  1
  Si  Si23  1  0.129440  0.201069  0.314593  1
  Si  Si24  1  0.870606  0.798931  0.814653  1
  Si  Si25  1  0.291551  0.951773  0.065663  1
  Si  Si26  1  0.547117  0.791017  0.314934  1
  Si  Si27  1  0.454157  0.208334  0.814196  1
  Si  Si28  1  0.791017  0.547117  0.685066  1
  Si  Si29  1  0.208334  0.454157  0.185804  1
  Si  Si30  1  0.708918  0.047216  0.565317  1
  Si  Si31  1  0.951773  0.291551  0.934337  1
  Si  Si32  1  0.047216  0.708918  0.434683  1
  Mo  Mo33  1  0.172950  0.826237  0.250581  1
  Mo  Mo34  1  0.826237  0.172950  0.749419  1
  Mo  Mo35  1  0.673082  0.673082  0.500000  1
