# generated using pymatgen
data_Ca3TbAl18Pd5Rh
_symmetry_space_group_name_H-M   'P 1'
_cell_length_a   7.65926500
_cell_length_b   7.65419563
_cell_length_c   9.53293932
_cell_angle_alpha   90.00912024
_cell_angle_beta   90.03319878
_cell_angle_gamma   119.49451564
_symmetry_Int_Tables_number   1
_chemical_formula_structural   Ca3TbAl18Pd5Rh
_chemical_formula_sum   'Ca3 Tb1 Al18 Pd5 Rh1'
_cell_volume   486.44489030
_cell_formula_units_Z   1
loop_
 _symmetry_equiv_pos_site_id
 _symmetry_equiv_pos_as_xyz
  1  'x, y, z'
loop_
 _atom_site_type_symbol
 _atom_site_label
 _atom_site_symmetry_multiplicity
 _atom_site_fract_x
 _atom_site_fract_y
 _atom_site_fract_z
 _atom_site_occupancy
  Ca  Ca0  1  0.994373  0.670591  0.248980  1
  Ca  Ca1  1  0.005007  0.329727  0.750427  1
  Ca  Ca2  1  0.672071  0.995093  0.249496  1
  Tb  Tb3  1  0.329442  0.001803  0.751035  1
  Al  Al4  1  0.131245  0.133224  0.249230  1
  Al  Al5  1  0.871379  0.869471  0.750538  1
  Al  Al6  1  0.995575  0.334463  0.074296  1
  Al  Al7  1  0.996078  0.660057  0.923829  1
  Al  Al8  1  0.998266  0.664966  0.577895  1
  Al  Al9  1  0.334435  0.001256  0.421828  1
  Al  Al10  1  0.001055  0.335462  0.424659  1
  Al  Al11  1  0.665449  0.999713  0.576915  1
  Al  Al12  1  0.667009  0.004361  0.924580  1
  Al  Al13  1  0.339336  0.003282  0.076796  1
  Al  Al14  1  0.333150  0.333116  0.556675  1
  Al  Al15  1  0.665167  0.665766  0.446303  1
  Al  Al16  1  0.667619  0.663934  0.047872  1
  Al  Al17  1  0.334819  0.331457  0.949391  1
  Al  Al18  1  0.339667  0.546223  0.249096  1
  Al  Al19  1  0.656581  0.450907  0.753156  1
  Al  Al20  1  0.547484  0.341369  0.246507  1
  Al  Al21  1  0.457006  0.664094  0.750945  1
  Pd  Pd22  1  0.328199  0.671947  0.998770  1
  Pd  Pd23  1  0.327855  0.672299  0.501317  1
  Pd  Pd24  1  0.669934  0.327735  0.500676  1
  Pd  Pd25  1  0.001618  0.999892  0.999119  1
  Pd  Pd26  1  0.000888  0.000229  0.500725  1
  Rh  Rh27  1  0.669290  0.327568  0.998946  1
