# generated using pymatgen
data_Pr8TmLuRu4
_symmetry_space_group_name_H-M   'P 1'
_cell_length_a   6.59313366
_cell_length_b   7.32652030
_cell_length_c   8.86461323
_cell_angle_alpha   95.95085008
_cell_angle_beta   111.83157167
_cell_angle_gamma   89.99999825
_symmetry_Int_Tables_number   1
_chemical_formula_structural   Pr8TmLuRu4
_chemical_formula_sum   'Pr8 Tm1 Lu1 Ru4'
_cell_volume   395.00561984
_cell_formula_units_Z   1
loop_
 _symmetry_equiv_pos_site_id
 _symmetry_equiv_pos_as_xyz
  1  'x, y, z'
loop_
 _atom_site_type_symbol
 _atom_site_label
 _atom_site_symmetry_multiplicity
 _atom_site_fract_x
 _atom_site_fract_y
 _atom_site_fract_z
 _atom_site_occupancy
  Pr  Pr0  1  0.523885  0.082908  0.817843  1
  Pr  Pr1  1  0.476124  0.916939  0.182130  1
  Pr  Pr2  1  0.706041  0.417092  0.182157  1
  Pr  Pr3  1  0.293995  0.583061  0.817870  1
  Pr  Pr4  1  0.293942  0.311213  0.428367  1
  Pr  Pr5  1  0.706055  0.688850  0.571725  1
  Pr  Pr6  1  0.865576  0.188787  0.571633  1
  Pr  Pr7  1  0.134330  0.811150  0.428275  1
  Tm  Tm8  1  0.069506  0.250000  0.000000  1
  Lu  Lu9  1  0.930679  0.750000  0.000000  1
  Ru  Ru10  1  0.309093  0.571849  0.210753  1
  Ru  Ru11  1  0.690856  0.428404  0.789276  1
  Ru  Ru12  1  0.098341  0.928151  0.789247  1
  Ru  Ru13  1  0.901579  0.071596  0.210724  1
