# generated using pymatgen
data_TmU(FeGe)2
_symmetry_space_group_name_H-M   'P 1'
_cell_length_a   4.37459300
_cell_length_b   7.02012234
_cell_length_c   6.82451778
_cell_angle_alpha   85.05508426
_cell_angle_beta   90.00000000
_cell_angle_gamma   90.00000000
_symmetry_Int_Tables_number   1
_chemical_formula_structural   TmU(FeGe)2
_chemical_formula_sum   'Tm2 U2 Fe4 Ge4'
_cell_volume   208.80209748
_cell_formula_units_Z   2
loop_
 _symmetry_equiv_pos_site_id
 _symmetry_equiv_pos_as_xyz
  1  'x, y, z'
loop_
 _atom_site_type_symbol
 _atom_site_label
 _atom_site_symmetry_multiplicity
 _atom_site_fract_x
 _atom_site_fract_y
 _atom_site_fract_z
 _atom_site_occupancy
  Tm  Tm0  1  0.250000  0.474397  0.723341  1
  Tm  Tm1  1  0.750000  0.525603  0.276659  1
  U  U2  1  0.250000  0.984706  0.801921  1
  U  U3  1  0.750000  0.015294  0.198079  1
  Fe  Fe4  1  0.750000  0.869726  0.526495  1
  Fe  Fe5  1  0.250000  0.130274  0.473505  1
  Fe  Fe6  1  0.750000  0.236235  0.962795  1
  Fe  Fe7  1  0.250000  0.763765  0.037205  1
  Ge  Ge8  1  0.250000  0.304615  0.118182  1
  Ge  Ge9  1  0.750000  0.695385  0.881818  1
  Ge  Ge10  1  0.250000  0.785565  0.399576  1
  Ge  Ge11  1  0.750000  0.214435  0.600424  1
