# generated using pymatgen
data_Nd3Sn6Rh
_symmetry_space_group_name_H-M   'P 1'
_cell_length_a   8.77546579
_cell_length_b   8.77546608
_cell_length_c   13.42037200
_cell_angle_alpha   90.00000000
_cell_angle_beta   90.00000000
_cell_angle_gamma   148.98207442
_symmetry_Int_Tables_number   1
_chemical_formula_structural   Nd3Sn6Rh
_chemical_formula_sum   'Nd6 Sn12 Rh2'
_cell_volume   532.56216670
_cell_formula_units_Z   2
loop_
 _symmetry_equiv_pos_site_id
 _symmetry_equiv_pos_as_xyz
  1  'x, y, z'
loop_
 _atom_site_type_symbol
 _atom_site_label
 _atom_site_symmetry_multiplicity
 _atom_site_fract_x
 _atom_site_fract_y
 _atom_site_fract_z
 _atom_site_occupancy
  Nd  Nd0  1  0.602293  0.397707  0.250000  1
  Nd  Nd1  1  0.397707  0.602293  0.750000  1
  Nd  Nd2  1  0.399885  0.600115  0.405673  1
  Nd  Nd3  1  0.600115  0.399885  0.594327  1
  Nd  Nd4  1  0.399885  0.600115  0.094327  1
  Nd  Nd5  1  0.600115  0.399885  0.905673  1
  Sn  Sn6  1  0.927663  0.072337  0.924546  1
  Sn  Sn7  1  0.072337  0.927663  0.075454  1
  Sn  Sn8  1  0.927663  0.072337  0.575454  1
  Sn  Sn9  1  0.072337  0.927663  0.424546  1
  Sn  Sn10  1  0.959873  0.040127  0.250000  1
  Sn  Sn11  1  0.040127  0.959873  0.750000  1
  Sn  Sn12  1  0.745238  0.254763  0.432516  1
  Sn  Sn13  1  0.254763  0.745237  0.567484  1
  Sn  Sn14  1  0.745238  0.254763  0.067484  1
  Sn  Sn15  1  0.254763  0.745237  0.932516  1
  Sn  Sn16  1  0.232127  0.767873  0.250000  1
  Sn  Sn17  1  0.767873  0.232127  0.750000  1
  Rh  Rh18  1  0.802981  0.197019  0.250000  1
  Rh  Rh19  1  0.197019  0.802981  0.750000  1
