# generated using pymatgen
data_Er6Al24CuPd2Ru5
_symmetry_space_group_name_H-M   'P 1'
_cell_length_a   8.81168443
_cell_length_b   8.79082562
_cell_length_c   9.52488197
_cell_angle_alpha   90.14076273
_cell_angle_beta   89.94738976
_cell_angle_gamma   119.50796053
_symmetry_Int_Tables_number   1
_chemical_formula_structural   Er6Al24CuPd2Ru5
_chemical_formula_sum   'Er6 Al24 Cu1 Pd2 Ru5'
_cell_volume   642.11009790
_cell_formula_units_Z   1
loop_
 _symmetry_equiv_pos_site_id
 _symmetry_equiv_pos_as_xyz
  1  'x, y, z'
loop_
 _atom_site_type_symbol
 _atom_site_label
 _atom_site_symmetry_multiplicity
 _atom_site_fract_x
 _atom_site_fract_y
 _atom_site_fract_z
 _atom_site_occupancy
  Er  Er0  1  0.189875  0.386543  0.253496  1
  Er  Er1  1  0.810125  0.613457  0.746504  1
  Er  Er2  1  0.615031  0.808888  0.251044  1
  Er  Er3  1  0.384969  0.191112  0.748956  1
  Er  Er4  1  0.192156  0.803929  0.250694  1
  Er  Er5  1  0.807844  0.196071  0.749306  1
  Al  Al6  1  0.328364  0.663797  0.029624  1
  Al  Al7  1  0.671636  0.336203  0.970376  1
  Al  Al8  1  0.667939  0.331136  0.527415  1
  Al  Al9  1  0.332061  0.668864  0.472585  1
  Al  Al10  1  0.157886  0.325593  0.577074  1
  Al  Al11  1  0.842114  0.674407  0.422926  1
  Al  Al12  1  0.675288  0.843370  0.575934  1
  Al  Al13  1  0.841817  0.675046  0.076935  1
  Al  Al14  1  0.324712  0.156630  0.424066  1
  Al  Al15  1  0.158183  0.324954  0.923065  1
  Al  Al16  1  0.164513  0.836709  0.577988  1
  Al  Al17  1  0.323069  0.163293  0.078142  1
  Al  Al18  1  0.835487  0.163291  0.422012  1
  Al  Al19  1  0.676931  0.836707  0.921858  1
  Al  Al20  1  0.842128  0.168013  0.080097  1
  Al  Al21  1  0.157872  0.831987  0.919903  1
  Al  Al22  1  0.562233  0.124748  0.253644  1
  Al  Al23  1  0.437767  0.875252  0.746356  1
  Al  Al24  1  0.876763  0.439008  0.250068  1
  Al  Al25  1  0.123237  0.560992  0.749932  1
  Al  Al26  1  0.561981  0.438269  0.251891  1
  Al  Al27  1  0.438019  0.561731  0.748109  1
  Al  Al28  1  0.996919  0.000942  0.250242  1
  Al  Al29  1  0.003081  0.999058  0.749758  1
  Cu  Cu30  1  0.500000  0.500000  0.500000  1
  Pd  Pd31  1  0.500000  0.000000  0.000000  1
  Pd  Pd32  1  0.500000  0.500000  0.000000  1
  Ru  Ru33  1  0.000000  0.500000  0.000000  1
  Ru  Ru34  1  0.500000  0.000000  0.500000  1
  Ru  Ru35  1  0.000000  0.500000  0.500000  1
  Ru  Ru36  1  0.000000  0.000000  0.000000  1
  Ru  Ru37  1  0.000000  0.000000  0.500000  1
