# generated using pymatgen
data_PrNdGa2PtRh
_symmetry_space_group_name_H-M   'P 1'
_cell_length_a   4.48759300
_cell_length_b   7.10541200
_cell_length_c   7.87273000
_cell_angle_alpha   90.00000000
_cell_angle_beta   90.00000000
_cell_angle_gamma   90.00000000
_symmetry_Int_Tables_number   1
_chemical_formula_structural   PrNdGa2PtRh
_chemical_formula_sum   'Pr2 Nd2 Ga4 Pt2 Rh2'
_cell_volume   251.03142091
_cell_formula_units_Z   2
loop_
 _symmetry_equiv_pos_site_id
 _symmetry_equiv_pos_as_xyz
  1  'x, y, z'
loop_
 _atom_site_type_symbol
 _atom_site_label
 _atom_site_symmetry_multiplicity
 _atom_site_fract_x
 _atom_site_fract_y
 _atom_site_fract_z
 _atom_site_occupancy
  Pr  Pr0  1  0.750000  0.974860  0.309219  1
  Pr  Pr1  1  0.750000  0.474860  0.190781  1
  Nd  Nd2  1  0.250000  0.030503  0.685179  1
  Nd  Nd3  1  0.250000  0.530503  0.814821  1
  Ga  Ga4  1  0.250000  0.153400  0.070916  1
  Ga  Ga5  1  0.250000  0.653400  0.429084  1
  Ga  Ga6  1  0.750000  0.842395  0.932673  1
  Ga  Ga7  1  0.750000  0.342395  0.567327  1
  Pt  Pt8  1  0.750000  0.720132  0.611686  1
  Pt  Pt9  1  0.750000  0.220132  0.888314  1
  Rh  Rh10  1  0.250000  0.278711  0.391431  1
  Rh  Rh11  1  0.250000  0.778711  0.108569  1
