# generated using pymatgen
data_Ca3HoSb6Rh7
_symmetry_space_group_name_H-M   'P 1'
_cell_length_a   7.66660317
_cell_length_b   7.61171305
_cell_length_c   7.61171265
_cell_angle_alpha   109.32467924
_cell_angle_beta   109.61738139
_cell_angle_gamma   109.61735651
_symmetry_Int_Tables_number   1
_chemical_formula_structural   Ca3HoSb6Rh7
_chemical_formula_sum   'Ca3 Ho1 Sb6 Rh7'
_cell_volume   341.31814416
_cell_formula_units_Z   1
loop_
 _symmetry_equiv_pos_site_id
 _symmetry_equiv_pos_as_xyz
  1  'x, y, z'
loop_
 _atom_site_type_symbol
 _atom_site_label
 _atom_site_symmetry_multiplicity
 _atom_site_fract_x
 _atom_site_fract_y
 _atom_site_fract_z
 _atom_site_occupancy
  Ca  Ca0  1  0.000000  0.500000  0.000000  1
  Ca  Ca1  1  0.000000  0.000000  0.500000  1
  Ca  Ca2  1  0.500000  0.500000  0.500000  1
  Ho  Ho3  1  0.500000  0.000000  0.000000  1
  Sb  Sb4  1  0.316868  0.000000  0.320215  1
  Sb  Sb5  1  0.996653  0.679785  0.679785  1
  Sb  Sb6  1  0.683132  0.679785  0.000000  1
  Sb  Sb7  1  0.683132  0.000000  0.679785  1
  Sb  Sb8  1  0.003347  0.320215  0.320215  1
  Sb  Sb9  1  0.316868  0.320215  0.000000  1
  Rh  Rh10  1  0.253093  0.506186  0.753093  1
  Rh  Rh11  1  0.500000  0.246907  0.753093  1
  Rh  Rh12  1  0.746907  0.246907  0.493814  1
  Rh  Rh13  1  0.500000  0.753093  0.246907  1
  Rh  Rh14  1  0.000000  0.000000  0.000000  1
  Rh  Rh15  1  0.253093  0.753093  0.506186  1
  Rh  Rh16  1  0.746907  0.493814  0.246907  1
