# generated using pymatgen
data_TbDy4(ThS4)3
_symmetry_space_group_name_H-M   'P 1'
_cell_length_a   3.92582600
_cell_length_b   10.49972433
_cell_length_c   10.72604960
_cell_angle_alpha   89.86407703
_cell_angle_beta   90.00000000
_cell_angle_gamma   90.00000000
_symmetry_Int_Tables_number   1
_chemical_formula_structural   TbDy4(ThS4)3
_chemical_formula_sum   'Tb1 Dy4 Th3 S12'
_cell_volume   442.12749411
_cell_formula_units_Z   1
loop_
 _symmetry_equiv_pos_site_id
 _symmetry_equiv_pos_as_xyz
  1  'x, y, z'
loop_
 _atom_site_type_symbol
 _atom_site_label
 _atom_site_symmetry_multiplicity
 _atom_site_fract_x
 _atom_site_fract_y
 _atom_site_fract_z
 _atom_site_occupancy
  Tb  Tb0  1  0.250000  0.505310  0.305078  1
  Dy  Dy1  1  0.250000  0.187495  0.484882  1
  Dy  Dy2  1  0.750000  0.813113  0.511755  1
  Dy  Dy3  1  0.750000  0.683859  0.014894  1
  Dy  Dy4  1  0.250000  0.315995  0.990420  1
  Th  Th5  1  0.250000  0.999789  0.804076  1
  Th  Th6  1  0.750000  0.998347  0.196568  1
  Th  Th7  1  0.750000  0.498181  0.692159  1
  S  S8  1  0.250000  0.295534  0.728569  1
  S  S9  1  0.750000  0.702550  0.272780  1
  S  S10  1  0.750000  0.797204  0.772687  1
  S  S11  1  0.250000  0.199502  0.226051  1
  S  S12  1  0.250000  0.944469  0.383498  1
  S  S13  1  0.750000  0.056048  0.616023  1
  S  S14  1  0.750000  0.445803  0.121598  1
  S  S15  1  0.250000  0.554790  0.882401  1
  S  S16  1  0.250000  0.869465  0.045426  1
  S  S17  1  0.750000  0.130347  0.953939  1
  S  S18  1  0.750000  0.372604  0.451704  1
  S  S19  1  0.250000  0.629594  0.545494  1
