# generated using pymatgen
data_Yb8In4Ag7Pt
_symmetry_space_group_name_H-M   'P 1'
_cell_length_a   7.84807327
_cell_length_b   7.84807229
_cell_length_c   7.95483906
_cell_angle_alpha   90.00919656
_cell_angle_beta   89.99079829
_cell_angle_gamma   90.14334751
_symmetry_Int_Tables_number   1
_chemical_formula_structural   Yb8In4Ag7Pt
_chemical_formula_sum   'Yb8 In4 Ag7 Pt1'
_cell_volume   489.95486116
_cell_formula_units_Z   1
loop_
 _symmetry_equiv_pos_site_id
 _symmetry_equiv_pos_as_xyz
  1  'x, y, z'
loop_
 _atom_site_type_symbol
 _atom_site_label
 _atom_site_symmetry_multiplicity
 _atom_site_fract_x
 _atom_site_fract_y
 _atom_site_fract_z
 _atom_site_occupancy
  Yb  Yb0  1  0.663294  0.678867  0.992531  1
  Yb  Yb1  1  0.328523  0.341658  0.507967  1
  Yb  Yb2  1  0.824954  0.175046  0.498305  1
  Yb  Yb3  1  0.658342  0.671477  0.507967  1
  Yb  Yb4  1  0.321133  0.336706  0.992531  1
  Yb  Yb5  1  0.183082  0.816918  0.508480  1
  Yb  Yb6  1  0.833067  0.166933  0.002019  1
  Yb  Yb7  1  0.177818  0.822182  0.990449  1
  In  In8  1  0.498425  0.996495  0.749950  1
  In  In9  1  0.500591  0.003979  0.250383  1
  In  In10  1  0.003505  0.501575  0.749950  1
  In  In11  1  0.996021  0.499409  0.250383  1
  Ag  Ag12  1  0.873375  0.871729  0.743032  1
  Ag  Ag13  1  0.128271  0.126625  0.743032  1
  Ag  Ag14  1  0.630486  0.369514  0.758092  1
  Ag  Ag15  1  0.626193  0.373807  0.242752  1
  Ag  Ag16  1  0.371124  0.628876  0.244910  1
  Ag  Ag17  1  0.133546  0.124312  0.256939  1
  Ag  Ag18  1  0.875688  0.866454  0.256939  1
  Pt  Pt19  1  0.372561  0.627439  0.753388  1
