# generated using pymatgen
data_Ho3Th4Sc3(In2Rh)4
_symmetry_space_group_name_H-M   'P 1'
_cell_length_a   3.76261200
_cell_length_b   7.92617394
_cell_length_c   17.76647088
_cell_angle_alpha   90.40284434
_cell_angle_beta   90.00000000
_cell_angle_gamma   90.00000000
_symmetry_Int_Tables_number   1
_chemical_formula_structural   Ho3Th4Sc3(In2Rh)4
_chemical_formula_sum   'Ho3 Th4 Sc3 In8 Rh4'
_cell_volume   529.83844625
_cell_formula_units_Z   1
loop_
 _symmetry_equiv_pos_site_id
 _symmetry_equiv_pos_as_xyz
  1  'x, y, z'
loop_
 _atom_site_type_symbol
 _atom_site_label
 _atom_site_symmetry_multiplicity
 _atom_site_fract_x
 _atom_site_fract_y
 _atom_site_fract_z
 _atom_site_occupancy
  Ho  Ho0  1  0.000000  0.999135  0.000708  1
  Ho  Ho1  1  0.000000  0.502465  0.497925  1
  Ho  Ho2  1  0.000000  0.893321  0.585232  1
  Th  Th3  1  0.000000  0.765800  0.786395  1
  Th  Th4  1  0.000000  0.232508  0.214687  1
  Th  Th5  1  0.000000  0.264642  0.718809  1
  Th  Th6  1  0.000000  0.732460  0.282336  1
  Sc  Sc7  1  0.000000  0.107693  0.411424  1
  Sc  Sc8  1  0.000000  0.394858  0.914115  1
  Sc  Sc9  1  0.000000  0.603950  0.086844  1
  In  In10  1  0.500000  0.806534  0.439462  1
  In  In11  1  0.500000  0.205332  0.555509  1
  In  In12  1  0.500000  0.308290  0.054479  1
  In  In13  1  0.500000  0.690884  0.946287  1
  In  In14  1  0.500000  0.898500  0.143475  1
  In  In15  1  0.500000  0.100460  0.858071  1
  In  In16  1  0.500000  0.400615  0.354764  1
  In  In17  1  0.500000  0.590058  0.646194  1
  Rh  Rh18  1  0.500000  0.984523  0.700302  1
  Rh  Rh19  1  0.500000  0.019274  0.302328  1
  Rh  Rh20  1  0.500000  0.482050  0.805298  1
  Rh  Rh21  1  0.500000  0.516648  0.195355  1
