# generated using pymatgen
data_Y3Ho5Re(TcB8)3
_symmetry_space_group_name_H-M   'P 1'
_cell_length_a   3.68143800
_cell_length_b   9.15956202
_cell_length_c   11.54556901
_cell_angle_alpha   90.02434159
_cell_angle_beta   90.00000000
_cell_angle_gamma   90.00000000
_symmetry_Int_Tables_number   1
_chemical_formula_structural   Y3Ho5Re(TcB8)3
_chemical_formula_sum   'Y3 Ho5 Re1 Tc3 B24'
_cell_volume   389.32070456
_cell_formula_units_Z   1
loop_
 _symmetry_equiv_pos_site_id
 _symmetry_equiv_pos_as_xyz
  1  'x, y, z'
loop_
 _atom_site_type_symbol
 _atom_site_label
 _atom_site_symmetry_multiplicity
 _atom_site_fract_x
 _atom_site_fract_y
 _atom_site_fract_z
 _atom_site_occupancy
  Y  Y0  1  0.000000  0.323497  0.414253  1
  Y  Y1  1  0.000000  0.676726  0.585789  1
  Y  Y2  1  0.000000  0.823364  0.085857  1
  Ho  Ho3  1  0.000000  0.176583  0.914339  1
  Ho  Ho4  1  0.000000  0.942448  0.368967  1
  Ho  Ho5  1  0.000000  0.058262  0.630068  1
  Ho  Ho6  1  0.000000  0.442217  0.130813  1
  Ho  Ho7  1  0.000000  0.556541  0.869690  1
  Re  Re8  1  0.000000  0.861952  0.820537  1
  Tc  Tc9  1  0.000000  0.638573  0.320233  1
  Tc  Tc10  1  0.000000  0.361242  0.679881  1
  Tc  Tc11  1  0.000000  0.138676  0.179352  1
  B  B12  1  0.500000  0.553395  0.432751  1
  B  B13  1  0.500000  0.446737  0.567516  1
  B  B14  1  0.500000  0.053620  0.067016  1
  B  B15  1  0.500000  0.947210  0.932890  1
  B  B16  1  0.500000  0.749063  0.418106  1
  B  B17  1  0.500000  0.251299  0.582011  1
  B  B18  1  0.500000  0.248843  0.081379  1
  B  B19  1  0.500000  0.750812  0.918313  1
  B  B20  1  0.500000  0.791492  0.265051  1
  B  B21  1  0.500000  0.208344  0.735118  1
  B  B22  1  0.500000  0.291402  0.234699  1
  B  B23  1  0.500000  0.708252  0.765373  1
  B  B24  1  0.500000  0.630059  0.185538  1
  B  B25  1  0.500000  0.369281  0.814817  1
  B  B26  1  0.500000  0.130213  0.314323  1
  B  B27  1  0.500000  0.870191  0.685486  1
  B  B28  1  0.500000  0.982061  0.211580  1
  B  B29  1  0.500000  0.018701  0.788245  1
  B  B30  1  0.500000  0.481917  0.288185  1
  B  B31  1  0.500000  0.517822  0.712123  1
  B  B32  1  0.500000  0.599092  0.027844  1
  B  B33  1  0.500000  0.399766  0.972285  1
  B  B34  1  0.500000  0.099426  0.471970  1
  B  B35  1  0.500000  0.900920  0.527602  1
