# generated using pymatgen
data_TmSc2Ga5Ir
_symmetry_space_group_name_H-M   'P 1'
_cell_length_a   6.78681496
_cell_length_b   6.78681435
_cell_length_c   4.16940600
_cell_angle_alpha   90.00000000
_cell_angle_beta   90.00000000
_cell_angle_gamma   120.63924461
_symmetry_Int_Tables_number   1
_chemical_formula_structural   TmSc2Ga5Ir
_chemical_formula_sum   'Tm1 Sc2 Ga5 Ir1'
_cell_volume   165.23540658
_cell_formula_units_Z   1
loop_
 _symmetry_equiv_pos_site_id
 _symmetry_equiv_pos_as_xyz
  1  'x, y, z'
loop_
 _atom_site_type_symbol
 _atom_site_label
 _atom_site_symmetry_multiplicity
 _atom_site_fract_x
 _atom_site_fract_y
 _atom_site_fract_z
 _atom_site_occupancy
  Tm  Tm0  1  0.416821  0.416821  0.000000  1
  Sc  Sc1  1  0.590978  0.002598  0.000000  1
  Sc  Sc2  1  0.002598  0.590978  0.000000  1
  Ga  Ga3  1  0.240397  0.999436  0.500000  1
  Ga  Ga4  1  0.999436  0.240397  0.500000  1
  Ga  Ga5  1  0.757057  0.757057  0.500000  1
  Ga  Ga6  1  0.330677  0.672071  0.500000  1
  Ga  Ga7  1  0.672071  0.330677  0.500000  1
  Ir  Ir8  1  0.989966  0.989966  0.000000  1
