# generated using pymatgen
data_TiRuI18
_symmetry_space_group_name_H-M   'P 1'
_cell_length_a   10.10158551
_cell_length_b   10.10158368
_cell_length_c   10.10158303
_cell_angle_alpha   90.67935966
_cell_angle_beta   90.67935121
_cell_angle_gamma   90.67935651
_symmetry_Int_Tables_number   1
_chemical_formula_structural   TiRuI18
_chemical_formula_sum   'Ti1 Ru1 I18'
_cell_volume   1030.56674347
_cell_formula_units_Z   1
loop_
 _symmetry_equiv_pos_site_id
 _symmetry_equiv_pos_as_xyz
  1  'x, y, z'
loop_
 _atom_site_type_symbol
 _atom_site_label
 _atom_site_symmetry_multiplicity
 _atom_site_fract_x
 _atom_site_fract_y
 _atom_site_fract_z
 _atom_site_occupancy
  Ti  Ti0  1  0.000000  0.000000  0.000000  1
  Ru  Ru1  1  0.500000  0.500000  0.500000  1
  I  I2  1  0.272934  0.989470  0.022282  1
  I  I3  1  0.022282  0.272934  0.989470  1
  I  I4  1  0.989470  0.022282  0.272934  1
  I  I5  1  0.727066  0.010530  0.977718  1
  I  I6  1  0.977718  0.727066  0.010530  1
  I  I7  1  0.010530  0.977718  0.727066  1
  I  I8  1  0.623157  0.251498  0.125065  1
  I  I9  1  0.125065  0.623157  0.251498  1
  I  I10  1  0.251498  0.125065  0.623157  1
  I  I11  1  0.376843  0.748502  0.874935  1
  I  I12  1  0.874935  0.376843  0.748502  1
  I  I13  1  0.748502  0.874935  0.376843  1
  I  I14  1  0.491672  0.234065  0.513358  1
  I  I15  1  0.513358  0.491672  0.234065  1
  I  I16  1  0.234065  0.513358  0.491672  1
  I  I17  1  0.508328  0.765935  0.486642  1
  I  I18  1  0.486642  0.508328  0.765935  1
  I  I19  1  0.765935  0.486642  0.508328  1
