# generated using pymatgen
data_Cs2K9Rb(AlS3)4
_symmetry_space_group_name_H-M   'P 1'
_cell_length_a   13.25969842
_cell_length_b   7.94006789
_cell_length_c   10.08835655
_cell_angle_alpha   53.21476369
_cell_angle_beta   89.69114385
_cell_angle_gamma   90.03142365
_symmetry_Int_Tables_number   1
_chemical_formula_structural   Cs2K9Rb(AlS3)4
_chemical_formula_sum   'Cs2 K9 Rb1 Al4 S12'
_cell_volume   850.62410360
_cell_formula_units_Z   1
loop_
 _symmetry_equiv_pos_site_id
 _symmetry_equiv_pos_as_xyz
  1  'x, y, z'
loop_
 _atom_site_type_symbol
 _atom_site_label
 _atom_site_symmetry_multiplicity
 _atom_site_fract_x
 _atom_site_fract_y
 _atom_site_fract_z
 _atom_site_occupancy
  Cs  Cs0  1  0.682347  0.826545  0.947330  1
  Cs  Cs1  1  0.816952  0.827531  0.449464  1
  K  K2  1  0.902132  0.316949  0.400853  1
  K  K3  1  0.618613  0.378896  0.473891  1
  K  K4  1  0.119142  0.622274  0.024177  1
  K  K5  1  0.379636  0.625562  0.526983  1
  K  K6  1  0.884703  0.371243  0.976850  1
  K  K7  1  0.605995  0.314087  0.902315  1
  K  K8  1  0.105528  0.682833  0.598352  1
  K  K9  1  0.391717  0.690226  0.097180  1
  K  K10  1  0.185174  0.166446  0.561670  1
  Rb  Rb11  1  0.312496  0.174755  0.056252  1
  Al  Al12  1  0.066042  0.945817  0.152952  1
  Al  Al13  1  0.560090  0.049636  0.347025  1
  Al  Al14  1  0.432099  0.960240  0.649861  1
  Al  Al15  1  0.940470  0.045465  0.846368  1
  S  S16  1  0.410070  0.187347  0.363979  1
  S  S17  1  0.914140  0.819409  0.131397  1
  S  S18  1  0.581010  0.820101  0.632891  1
  S  S19  1  0.093071  0.172114  0.866174  1
  S  S20  1  0.684365  0.293036  0.217610  1
  S  S21  1  0.183288  0.689663  0.290187  1
  S  S22  1  0.308344  0.715779  0.780126  1
  S  S23  1  0.819840  0.293993  0.716085  1
  S  S24  1  0.542021  0.870995  0.240972  1
  S  S25  1  0.051867  0.131409  0.254286  1
  S  S26  1  0.451280  0.139948  0.755261  1
  S  S27  1  0.957570  0.867699  0.739506  1
