# generated using pymatgen
data_LiEr3In4Co
_symmetry_space_group_name_H-M   'P 1'
_cell_length_a   8.02483300
_cell_length_b   8.02483254
_cell_length_c   3.58601900
_cell_angle_alpha   90.00000000
_cell_angle_beta   90.00000000
_cell_angle_gamma   119.99999776
_symmetry_Int_Tables_number   1
_chemical_formula_structural   LiEr3In4Co
_chemical_formula_sum   'Li1 Er3 In4 Co1'
_cell_volume   199.99319092
_cell_formula_units_Z   1
loop_
 _symmetry_equiv_pos_site_id
 _symmetry_equiv_pos_as_xyz
  1  'x, y, z'
loop_
 _atom_site_type_symbol
 _atom_site_label
 _atom_site_symmetry_multiplicity
 _atom_site_fract_x
 _atom_site_fract_y
 _atom_site_fract_z
 _atom_site_occupancy
  Li  Li0  1  0.666667  0.333333  0.500000  1
  Er  Er1  1  0.714751  0.954147  0.500000  1
  Er  Er2  1  0.239396  0.285249  0.500000  1
  Er  Er3  1  0.045853  0.760604  0.500000  1
  In  In4  1  0.932450  0.335810  0.000000  1
  In  In5  1  0.403361  0.067550  0.000000  1
  In  In6  1  0.664190  0.596639  0.000000  1
  In  In7  1  0.333333  0.666667  0.000000  1
  Co  Co8  1  0.000000  0.000000  0.000000  1
