# generated using pymatgen
data_YbSc6SBr12
_symmetry_space_group_name_H-M   'P 1'
_cell_length_a   8.65646472
_cell_length_b   8.65646603
_cell_length_c   8.65646600
_cell_angle_alpha   106.43612095
_cell_angle_beta   106.43612350
_cell_angle_gamma   106.43613904
_symmetry_Int_Tables_number   1
_chemical_formula_structural   YbSc6SBr12
_chemical_formula_sum   'Yb1 Sc6 S1 Br12'
_cell_volume   548.31344613
_cell_formula_units_Z   1
loop_
 _symmetry_equiv_pos_site_id
 _symmetry_equiv_pos_as_xyz
  1  'x, y, z'
loop_
 _atom_site_type_symbol
 _atom_site_label
 _atom_site_symmetry_multiplicity
 _atom_site_fract_x
 _atom_site_fract_y
 _atom_site_fract_z
 _atom_site_occupancy
  Yb  Yb0  1  0.500000  0.500000  0.500000  1
  Sc  Sc1  1  0.299785  0.094672  0.021732  1
  Sc  Sc2  1  0.094672  0.021732  0.299785  1
  Sc  Sc3  1  0.021732  0.299785  0.094672  1
  Sc  Sc4  1  0.700215  0.905328  0.978268  1
  Sc  Sc5  1  0.905328  0.978268  0.700215  1
  Sc  Sc6  1  0.978268  0.700215  0.905328  1
  S  S7  1  0.000000  0.000000  0.000000  1
  Br  Br8  1  0.221402  0.073405  0.682798  1
  Br  Br9  1  0.073405  0.682798  0.221402  1
  Br  Br10  1  0.682798  0.221402  0.073405  1
  Br  Br11  1  0.778598  0.926595  0.317202  1
  Br  Br12  1  0.926595  0.317202  0.778598  1
  Br  Br13  1  0.317202  0.778598  0.926595  1
  Br  Br14  1  0.366226  0.443374  0.136919  1
  Br  Br15  1  0.443374  0.136919  0.366226  1
  Br  Br16  1  0.136919  0.366226  0.443374  1
  Br  Br17  1  0.633774  0.556626  0.863081  1
  Br  Br18  1  0.556626  0.863081  0.633774  1
  Br  Br19  1  0.863081  0.633774  0.556626  1
