# generated using pymatgen
data_Tm8Lu12Sn3Pb13
_symmetry_space_group_name_H-M   'P 1'
_cell_length_a   8.08343934
_cell_length_b   15.40154800
_cell_length_c   8.14702500
_cell_angle_alpha   90.00000000
_cell_angle_beta   89.87465492
_cell_angle_gamma   90.00000000
_symmetry_Int_Tables_number   1
_chemical_formula_structural   Tm8Lu12Sn3Pb13
_chemical_formula_sum   'Tm8 Lu12 Sn3 Pb13'
_cell_volume   1014.28164713
_cell_formula_units_Z   1
loop_
 _symmetry_equiv_pos_site_id
 _symmetry_equiv_pos_as_xyz
  1  'x, y, z'
loop_
 _atom_site_type_symbol
 _atom_site_label
 _atom_site_symmetry_multiplicity
 _atom_site_fract_x
 _atom_site_fract_y
 _atom_site_fract_z
 _atom_site_occupancy
  Tm  Tm0  1  0.463529  0.600283  0.674538  1
  Tm  Tm1  1  0.963803  0.899643  0.825603  1
  Tm  Tm2  1  0.536475  0.099747  0.325804  1
  Tm  Tm3  1  0.036368  0.400760  0.176641  1
  Tm  Tm4  1  0.536475  0.400253  0.325804  1
  Tm  Tm5  1  0.036368  0.099240  0.176641  1
  Tm  Tm6  1  0.463529  0.899717  0.674538  1
  Tm  Tm7  1  0.963803  0.600357  0.825603  1
  Lu  Lu8  1  0.623520  0.623589  0.160041  1
  Lu  Lu9  1  0.123738  0.876363  0.339668  1
  Lu  Lu10  1  0.378261  0.122831  0.839673  1
  Lu  Lu11  1  0.874258  0.377836  0.658068  1
  Lu  Lu12  1  0.378261  0.377169  0.839673  1
  Lu  Lu13  1  0.874258  0.122164  0.658068  1
  Lu  Lu14  1  0.623520  0.876411  0.160041  1
  Lu  Lu15  1  0.123738  0.623637  0.339668  1
  Lu  Lu16  1  0.790941  0.750000  0.491222  1
  Lu  Lu17  1  0.290813  0.750000  0.008543  1
  Lu  Lu18  1  0.209853  0.250000  0.506409  1
  Lu  Lu19  1  0.706532  0.250000  0.992058  1
  Sn  Sn20  1  0.428731  0.750000  0.373904  1
  Sn  Sn21  1  0.929083  0.750000  0.126270  1
  Sn  Sn22  1  0.571065  0.250000  0.626077  1
  Pb  Pb23  1  0.716790  0.458189  0.966203  1
  Pb  Pb24  1  0.216549  0.041855  0.534457  1
  Pb  Pb25  1  0.283500  0.958107  0.033975  1
  Pb  Pb26  1  0.783656  0.542318  0.465325  1
  Pb  Pb27  1  0.283500  0.541893  0.033975  1
  Pb  Pb28  1  0.783656  0.957682  0.465325  1
  Pb  Pb29  1  0.716790  0.041811  0.966203  1
  Pb  Pb30  1  0.216549  0.458145  0.534457  1
  Pb  Pb31  1  0.069558  0.250000  0.873954  1
  Pb  Pb32  1  0.653613  0.750000  0.845868  1
  Pb  Pb33  1  0.154021  0.750000  0.653769  1
  Pb  Pb34  1  0.348231  0.250000  0.155962  1
  Pb  Pb35  1  0.846661  0.250000  0.345974  1
