# generated using pymatgen
data_SrHo(Th2Ir9)2
_symmetry_space_group_name_H-M   'P 1'
_cell_length_a   5.37285800
_cell_length_b   5.37285668
_cell_length_c   17.75313000
_cell_angle_alpha   90.00000000
_cell_angle_beta   90.00000000
_cell_angle_gamma   120.00000810
_symmetry_Int_Tables_number   1
_chemical_formula_structural   SrHo(Th2Ir9)2
_chemical_formula_sum   'Sr1 Ho1 Th4 Ir18'
_cell_volume   443.82948313
_cell_formula_units_Z   1
loop_
 _symmetry_equiv_pos_site_id
 _symmetry_equiv_pos_as_xyz
  1  'x, y, z'
loop_
 _atom_site_type_symbol
 _atom_site_label
 _atom_site_symmetry_multiplicity
 _atom_site_fract_x
 _atom_site_fract_y
 _atom_site_fract_z
 _atom_site_occupancy
  Sr  Sr0  1  0.333333  0.666667  0.960795  1
  Ho  Ho1  1  0.333333  0.666667  0.544861  1
  Th  Th2  1  0.666667  0.333333  0.038257  1
  Th  Th3  1  0.666667  0.333333  0.460704  1
  Th  Th4  1  0.333333  0.666667  0.754352  1
  Th  Th5  1  0.666667  0.333333  0.249586  1
  Ir  Ir6  1  0.167340  0.832660  0.373981  1
  Ir  Ir7  1  0.167340  0.334680  0.373981  1
  Ir  Ir8  1  0.665320  0.832660  0.373981  1
  Ir  Ir9  1  0.833220  0.166780  0.625645  1
  Ir  Ir10  1  0.833220  0.666437  0.625645  1
  Ir  Ir11  1  0.333563  0.166780  0.625645  1
  Ir  Ir12  1  0.833779  0.166221  0.870328  1
  Ir  Ir13  1  0.833779  0.667555  0.870328  1
  Ir  Ir14  1  0.332445  0.166221  0.870328  1
  Ir  Ir15  1  0.166506  0.833494  0.128165  1
  Ir  Ir16  1  0.166506  0.333013  0.128165  1
  Ir  Ir17  1  0.666987  0.833494  0.128165  1
  Ir  Ir18  1  0.333333  0.666667  0.250533  1
  Ir  Ir19  1  0.666667  0.333333  0.748287  1
  Ir  Ir20  1  0.000000  0.000000  0.251289  1
  Ir  Ir21  1  0.000000  0.000000  0.747812  1
  Ir  Ir22  1  0.000000  0.000000  0.500494  1
  Ir  Ir23  1  0.000000  0.000000  0.998677  1
