# generated using pymatgen
data_Ho11PaGa20
_symmetry_space_group_name_H-M   'P 1'
_cell_length_a   6.12797825
_cell_length_b   9.58132237
_cell_length_c   11.48881378
_cell_angle_alpha   89.99361256
_cell_angle_beta   89.90713527
_cell_angle_gamma   90.03124335
_symmetry_Int_Tables_number   1
_chemical_formula_structural   Ho11PaGa20
_chemical_formula_sum   'Ho11 Pa1 Ga20'
_cell_volume   674.55477335
_cell_formula_units_Z   1
loop_
 _symmetry_equiv_pos_site_id
 _symmetry_equiv_pos_as_xyz
  1  'x, y, z'
loop_
 _atom_site_type_symbol
 _atom_site_label
 _atom_site_symmetry_multiplicity
 _atom_site_fract_x
 _atom_site_fract_y
 _atom_site_fract_z
 _atom_site_occupancy
  Ho  Ho0  1  0.850672  0.748897  0.074933  1
  Ho  Ho1  1  0.650789  0.749564  0.575283  1
  Ho  Ho2  1  0.150528  0.249845  0.923951  1
  Ho  Ho3  1  0.352158  0.252165  0.425220  1
  Ho  Ho4  1  0.609252  0.988605  0.851799  1
  Ho  Ho5  1  0.111995  0.010648  0.648508  1
  Ho  Ho6  1  0.389606  0.489788  0.149121  1
  Ho  Ho7  1  0.110508  0.489450  0.649068  1
  Ho  Ho8  1  0.389307  0.011110  0.148991  1
  Ho  Ho9  1  0.889320  0.989645  0.351494  1
  Ho  Ho10  1  0.609207  0.510454  0.850632  1
  Pa  Pa11  1  0.887234  0.509993  0.352398  1
  Ga  Ga12  1  0.873704  0.052564  0.091737  1
  Ga  Ga13  1  0.627376  0.445663  0.589934  1
  Ga  Ga14  1  0.126389  0.553558  0.908554  1
  Ga  Ga15  1  0.373931  0.948161  0.408286  1
  Ga  Ga16  1  0.126182  0.946677  0.909672  1
  Ga  Ga17  1  0.377617  0.554101  0.408563  1
  Ga  Ga18  1  0.874157  0.446250  0.090572  1
  Ga  Ga19  1  0.627048  0.053052  0.592057  1
  Ga  Ga20  1  0.172074  0.749684  0.253658  1
  Ga  Ga21  1  0.325461  0.749760  0.752462  1
  Ga  Ga22  1  0.824396  0.249359  0.748432  1
  Ga  Ga23  1  0.674087  0.249764  0.246512  1
  Ga  Ga24  1  0.374811  0.750238  0.005262  1
  Ga  Ga25  1  0.124212  0.749322  0.502529  1
  Ga  Ga26  1  0.624597  0.249423  0.994363  1
  Ga  Ga27  1  0.874470  0.249829  0.494977  1
  Ga  Ga28  1  0.602595  0.750887  0.298523  1
  Ga  Ga29  1  0.898346  0.750233  0.798349  1
  Ga  Ga30  1  0.397869  0.249528  0.701045  1
  Ga  Ga31  1  0.100105  0.251782  0.203116  1
