# generated using pymatgen
data_Li4Ac3LaIn8
_symmetry_space_group_name_H-M   'P 1'
_cell_length_a   5.04968200
_cell_length_b   7.30330246
_cell_length_c   11.62895009
_cell_angle_alpha   90.23332180
_cell_angle_beta   90.00000000
_cell_angle_gamma   90.00000000
_symmetry_Int_Tables_number   1
_chemical_formula_structural   Li4Ac3LaIn8
_chemical_formula_sum   'Li4 Ac3 La1 In8'
_cell_volume   428.86462222
_cell_formula_units_Z   1
loop_
 _symmetry_equiv_pos_site_id
 _symmetry_equiv_pos_as_xyz
  1  'x, y, z'
loop_
 _atom_site_type_symbol
 _atom_site_label
 _atom_site_symmetry_multiplicity
 _atom_site_fract_x
 _atom_site_fract_y
 _atom_site_fract_z
 _atom_site_occupancy
  Li  Li0  1  0.250000  0.934803  0.381546  1
  Li  Li1  1  0.250000  0.456006  0.113077  1
  Li  Li2  1  0.750000  0.048222  0.613062  1
  Li  Li3  1  0.750000  0.560730  0.882657  1
  Ac  Ac4  1  0.250000  0.250939  0.846821  1
  Ac  Ac5  1  0.250000  0.742148  0.653829  1
  Ac  Ac6  1  0.750000  0.760833  0.154992  1
  La  La7  1  0.750000  0.248976  0.349070  1
  In  In8  1  0.250000  0.241435  0.546634  1
  In  In9  1  0.250000  0.759674  0.951716  1
  In  In10  1  0.750000  0.739464  0.449190  1
  In  In11  1  0.750000  0.258193  0.054043  1
  In  In12  1  0.250000  0.544923  0.350935  1
  In  In13  1  0.250000  0.076657  0.153571  1
  In  In14  1  0.750000  0.431263  0.645128  1
  In  In15  1  0.750000  0.945736  0.853729  1
