# generated using pymatgen
data_Tm20Cd6CoNi
_symmetry_space_group_name_H-M   'P 1'
_cell_length_a   9.47134700
_cell_length_b   9.47134752
_cell_length_c   9.61060300
_cell_angle_alpha   90.00000000
_cell_angle_beta   90.00000000
_cell_angle_gamma   119.99999469
_symmetry_Int_Tables_number   1
_chemical_formula_structural   Tm20Cd6CoNi
_chemical_formula_sum   'Tm20 Cd6 Co1 Ni1'
_cell_volume   746.62892788
_cell_formula_units_Z   1
loop_
 _symmetry_equiv_pos_site_id
 _symmetry_equiv_pos_as_xyz
  1  'x, y, z'
loop_
 _atom_site_type_symbol
 _atom_site_label
 _atom_site_symmetry_multiplicity
 _atom_site_fract_x
 _atom_site_fract_y
 _atom_site_fract_z
 _atom_site_occupancy
  Tm  Tm0  1  0.000000  0.000000  0.499696  1
  Tm  Tm1  1  0.000000  0.000000  0.000304  1
  Tm  Tm2  1  0.542478  0.457522  0.250000  1
  Tm  Tm3  1  0.542478  0.084955  0.250000  1
  Tm  Tm4  1  0.915045  0.457522  0.250000  1
  Tm  Tm5  1  0.456623  0.543377  0.750000  1
  Tm  Tm6  1  0.456623  0.913245  0.750000  1
  Tm  Tm7  1  0.086755  0.543377  0.750000  1
  Tm  Tm8  1  0.211792  0.788208  0.436485  1
  Tm  Tm9  1  0.211792  0.423585  0.436485  1
  Tm  Tm10  1  0.576415  0.788208  0.436485  1
  Tm  Tm11  1  0.789177  0.210823  0.562378  1
  Tm  Tm12  1  0.789177  0.578353  0.562378  1
  Tm  Tm13  1  0.421647  0.210823  0.562378  1
  Tm  Tm14  1  0.789177  0.210823  0.937622  1
  Tm  Tm15  1  0.789177  0.578353  0.937622  1
  Tm  Tm16  1  0.421647  0.210823  0.937622  1
  Tm  Tm17  1  0.211792  0.788208  0.063515  1
  Tm  Tm18  1  0.211792  0.423585  0.063515  1
  Tm  Tm19  1  0.576415  0.788208  0.063515  1
  Cd  Cd20  1  0.884978  0.115022  0.250000  1
  Cd  Cd21  1  0.884978  0.769957  0.250000  1
  Cd  Cd22  1  0.230043  0.115022  0.250000  1
  Cd  Cd23  1  0.115234  0.884766  0.750000  1
  Cd  Cd24  1  0.115234  0.230469  0.750000  1
  Cd  Cd25  1  0.769531  0.884766  0.750000  1
  Co  Co26  1  0.333333  0.666667  0.250000  1
  Ni  Ni27  1  0.666667  0.333333  0.750000  1
