# generated using pymatgen
data_Th10ZnSi(SnBi2)2
_symmetry_space_group_name_H-M   'P 1'
_cell_length_a   9.65936017
_cell_length_b   9.65936014
_cell_length_c   6.54863410
_cell_angle_alpha   89.99341421
_cell_angle_beta   89.99340700
_cell_angle_gamma   119.97541102
_symmetry_Int_Tables_number   1
_chemical_formula_structural   Th10ZnSi(SnBi2)2
_chemical_formula_sum   'Th10 Zn1 Si1 Sn2 Bi4'
_cell_volume   529.28016356
_cell_formula_units_Z   1
loop_
 _symmetry_equiv_pos_site_id
 _symmetry_equiv_pos_as_xyz
  1  'x, y, z'
loop_
 _atom_site_type_symbol
 _atom_site_label
 _atom_site_symmetry_multiplicity
 _atom_site_fract_x
 _atom_site_fract_y
 _atom_site_fract_z
 _atom_site_occupancy
  Th  Th0  1  0.667192  0.330474  0.002238  1
  Th  Th1  1  0.330474  0.667192  0.002238  1
  Th  Th2  1  0.330299  0.667276  0.497242  1
  Th  Th3  1  0.667276  0.330299  0.497242  1
  Th  Th4  1  0.741395  0.741395  0.743102  1
  Th  Th5  1  0.259637  0.999461  0.743346  1
  Th  Th6  1  0.999461  0.259637  0.743346  1
  Th  Th7  1  0.261014  0.261014  0.256606  1
  Th  Th8  1  0.739290  0.004665  0.256083  1
  Th  Th9  1  0.004665  0.739290  0.256083  1
  Zn  Zn10  1  0.999570  0.999570  0.004297  1
  Si  Si11  1  0.999375  0.999375  0.496927  1
  Sn  Sn12  1  0.385570  0.000269  0.247505  1
  Sn  Sn13  1  0.000269  0.385570  0.247505  1
  Bi  Bi14  1  0.387643  0.387643  0.752688  1
  Bi  Bi15  1  0.612161  0.999290  0.753442  1
  Bi  Bi16  1  0.999290  0.612161  0.753442  1
  Bi  Bi17  1  0.615420  0.615420  0.246667  1
