# generated using pymatgen
data_CaLa6Cd22Ge
_symmetry_space_group_name_H-M   'P 1'
_cell_length_a   10.24735903
_cell_length_b   10.24712152
_cell_length_c   10.24713000
_cell_angle_alpha   60.06372200
_cell_angle_beta   60.06356408
_cell_angle_gamma   60.06148233
_symmetry_Int_Tables_number   1
_chemical_formula_structural   CaLa6Cd22Ge
_chemical_formula_sum   'Ca1 La6 Cd22 Ge1'
_cell_volume   761.93859232
_cell_formula_units_Z   1
loop_
 _symmetry_equiv_pos_site_id
 _symmetry_equiv_pos_as_xyz
  1  'x, y, z'
loop_
 _atom_site_type_symbol
 _atom_site_label
 _atom_site_symmetry_multiplicity
 _atom_site_fract_x
 _atom_site_fract_y
 _atom_site_fract_z
 _atom_site_occupancy
  Ca  Ca0  1  0.500000  0.500000  0.500000  1
  La  La1  1  0.790784  0.790816  0.209473  1
  La  La2  1  0.209192  0.790552  0.209201  1
  La  La3  1  0.790488  0.209217  0.209214  1
  La  La4  1  0.209216  0.209184  0.790527  1
  La  La5  1  0.790808  0.209448  0.790799  1
  La  La6  1  0.209512  0.790783  0.790786  1
  Cd  Cd7  1  0.831668  0.831666  0.503995  1
  Cd  Cd8  1  0.831674  0.503991  0.831660  1
  Cd  Cd9  1  0.504002  0.831667  0.831667  1
  Cd  Cd10  1  0.832129  0.832136  0.832131  1
  Cd  Cd11  1  0.168332  0.168334  0.496005  1
  Cd  Cd12  1  0.168326  0.496009  0.168340  1
  Cd  Cd13  1  0.495998  0.168333  0.168333  1
  Cd  Cd14  1  0.167871  0.167864  0.167869  1
  Cd  Cd15  1  0.624967  0.624977  0.124948  1
  Cd  Cd16  1  0.624958  0.124943  0.624973  1
  Cd  Cd17  1  0.124939  0.624959  0.624976  1
  Cd  Cd18  1  0.624978  0.624979  0.624961  1
  Cd  Cd19  1  0.375033  0.375023  0.875052  1
  Cd  Cd20  1  0.375042  0.875057  0.375027  1
  Cd  Cd21  1  0.875061  0.375041  0.375024  1
  Cd  Cd22  1  0.375022  0.375021  0.375039  1
  Cd  Cd23  1  0.000000  0.000000  0.500000  1
  Cd  Cd24  1  0.500000  0.000000  0.500000  1
  Cd  Cd25  1  0.000000  0.500000  0.500000  1
  Cd  Cd26  1  0.500000  0.500000  0.000000  1
  Cd  Cd27  1  0.000000  0.500000  0.000000  1
  Cd  Cd28  1  0.500000  0.000000  0.000000  1
  Ge  Ge29  1  0.000000  0.000000  0.000000  1
