# generated using pymatgen
data_Y2Sc3Sn3Hg
_symmetry_space_group_name_H-M   'P 1'
_cell_length_a   7.57694000
_cell_length_b   8.00247300
_cell_length_c   14.84798700
_cell_angle_alpha   90.00000000
_cell_angle_beta   90.00000000
_cell_angle_gamma   90.00000000
_symmetry_Int_Tables_number   1
_chemical_formula_structural   Y2Sc3Sn3Hg
_chemical_formula_sum   'Y8 Sc12 Sn12 Hg4'
_cell_volume   900.29667116
_cell_formula_units_Z   4
loop_
 _symmetry_equiv_pos_site_id
 _symmetry_equiv_pos_as_xyz
  1  'x, y, z'
loop_
 _atom_site_type_symbol
 _atom_site_label
 _atom_site_symmetry_multiplicity
 _atom_site_fract_x
 _atom_site_fract_y
 _atom_site_fract_z
 _atom_site_occupancy
  Y  Y0  1  0.996126  0.181657  0.091152  1
  Y  Y1  1  0.003874  0.818343  0.908848  1
  Y  Y2  1  0.503874  0.681657  0.908848  1
  Y  Y3  1  0.003874  0.818343  0.591152  1
  Y  Y4  1  0.496126  0.318343  0.091152  1
  Y  Y5  1  0.996126  0.181657  0.408848  1
  Y  Y6  1  0.496126  0.318343  0.408848  1
  Y  Y7  1  0.503874  0.681657  0.591152  1
  Sc  Sc8  1  0.172288  0.497747  0.750000  1
  Sc  Sc9  1  0.827712  0.502253  0.250000  1
  Sc  Sc10  1  0.327712  0.997747  0.250000  1
  Sc  Sc11  1  0.672288  0.002253  0.750000  1
  Sc  Sc12  1  0.333525  0.163557  0.627393  1
  Sc  Sc13  1  0.666475  0.836443  0.372607  1
  Sc  Sc14  1  0.166475  0.663557  0.372607  1
  Sc  Sc15  1  0.666475  0.836443  0.127393  1
  Sc  Sc16  1  0.833525  0.336443  0.627393  1
  Sc  Sc17  1  0.333525  0.163557  0.872607  1
  Sc  Sc18  1  0.833525  0.336443  0.872607  1
  Sc  Sc19  1  0.166475  0.663557  0.127393  1
  Sn  Sn20  1  0.300447  0.857571  0.750000  1
  Sn  Sn21  1  0.699553  0.142429  0.250000  1
  Sn  Sn22  1  0.199553  0.357571  0.250000  1
  Sn  Sn23  1  0.800447  0.642429  0.750000  1
  Sn  Sn24  1  0.180548  0.458962  0.542686  1
  Sn  Sn25  1  0.819452  0.541038  0.457314  1
  Sn  Sn26  1  0.319452  0.958962  0.457314  1
  Sn  Sn27  1  0.819452  0.541038  0.042686  1
  Sn  Sn28  1  0.680548  0.041038  0.542686  1
  Sn  Sn29  1  0.180548  0.458962  0.957314  1
  Sn  Sn30  1  0.680548  0.041038  0.957314  1
  Sn  Sn31  1  0.319452  0.958962  0.042686  1
  Hg  Hg32  1  0.029478  0.122280  0.750000  1
  Hg  Hg33  1  0.970522  0.877720  0.250000  1
  Hg  Hg34  1  0.470522  0.622280  0.250000  1
  Hg  Hg35  1  0.529478  0.377720  0.750000  1
