# generated using pymatgen
data_Y5Tl3Hg
_symmetry_space_group_name_H-M   'P 1'
_cell_length_a   9.30738500
_cell_length_b   9.30738574
_cell_length_c   6.74895000
_cell_angle_alpha   90.00000000
_cell_angle_beta   90.00000000
_cell_angle_gamma   119.99999380
_symmetry_Int_Tables_number   1
_chemical_formula_structural   Y5Tl3Hg
_chemical_formula_sum   'Y10 Tl6 Hg2'
_cell_volume   506.31671145
_cell_formula_units_Z   2
loop_
 _symmetry_equiv_pos_site_id
 _symmetry_equiv_pos_as_xyz
  1  'x, y, z'
loop_
 _atom_site_type_symbol
 _atom_site_label
 _atom_site_symmetry_multiplicity
 _atom_site_fract_x
 _atom_site_fract_y
 _atom_site_fract_z
 _atom_site_occupancy
  Y  Y0  1  0.333333  0.666667  0.500000  1
  Y  Y1  1  0.666667  0.333333  0.500000  1
  Y  Y2  1  0.666667  0.333333  0.000000  1
  Y  Y3  1  0.333333  0.666667  0.000000  1
  Y  Y4  1  0.284792  0.000000  0.750000  1
  Y  Y5  1  0.715208  0.000000  0.250000  1
  Y  Y6  1  0.000000  0.284792  0.750000  1
  Y  Y7  1  0.000000  0.715208  0.250000  1
  Y  Y8  1  0.715208  0.715208  0.750000  1
  Y  Y9  1  0.284792  0.284792  0.250000  1
  Tl  Tl10  1  0.624300  0.000000  0.750000  1
  Tl  Tl11  1  0.375700  0.000000  0.250000  1
  Tl  Tl12  1  0.000000  0.624300  0.750000  1
  Tl  Tl13  1  0.000000  0.375700  0.250000  1
  Tl  Tl14  1  0.375700  0.375700  0.750000  1
  Tl  Tl15  1  0.624300  0.624300  0.250000  1
  Hg  Hg16  1  0.000000  0.000000  0.500000  1
  Hg  Hg17  1  0.000000  0.000000  0.000000  1
