# generated using pymatgen
data_Sm8Zn3Si12Rh
_symmetry_space_group_name_H-M   'P 1'
_cell_length_a   8.17365700
_cell_length_b   8.17365709
_cell_length_c   8.36244700
_cell_angle_alpha   90.00000000
_cell_angle_beta   90.00000000
_cell_angle_gamma   119.99999558
_symmetry_Int_Tables_number   1
_chemical_formula_structural   Sm8Zn3Si12Rh
_chemical_formula_sum   'Sm8 Zn3 Si12 Rh1'
_cell_volume   483.83452185
_cell_formula_units_Z   1
loop_
 _symmetry_equiv_pos_site_id
 _symmetry_equiv_pos_as_xyz
  1  'x, y, z'
loop_
 _atom_site_type_symbol
 _atom_site_label
 _atom_site_symmetry_multiplicity
 _atom_site_fract_x
 _atom_site_fract_y
 _atom_site_fract_z
 _atom_site_occupancy
  Sm  Sm0  1  0.000000  0.000000  0.250707  1
  Sm  Sm1  1  0.000000  0.000000  0.749290  1
  Sm  Sm2  1  0.500038  0.499962  0.250065  1
  Sm  Sm3  1  0.500038  0.000076  0.250065  1
  Sm  Sm4  1  0.999924  0.499962  0.250065  1
  Sm  Sm5  1  0.498354  0.501646  0.750109  1
  Sm  Sm6  1  0.498354  0.996709  0.750109  1
  Sm  Sm7  1  0.003291  0.501646  0.750109  1
  Zn  Zn8  1  0.333333  0.666667  0.493980  1
  Zn  Zn9  1  0.666667  0.333333  0.506817  1
  Zn  Zn10  1  0.666667  0.333333  0.996949  1
  Si  Si11  1  0.166693  0.833307  0.501468  1
  Si  Si12  1  0.166693  0.333387  0.501468  1
  Si  Si13  1  0.666613  0.833307  0.501468  1
  Si  Si14  1  0.833805  0.166195  0.498565  1
  Si  Si15  1  0.833805  0.667610  0.498565  1
  Si  Si16  1  0.332390  0.166195  0.498565  1
  Si  Si17  1  0.837083  0.162917  0.999115  1
  Si  Si18  1  0.837083  0.674166  0.999115  1
  Si  Si19  1  0.325834  0.162917  0.999115  1
  Si  Si20  1  0.170462  0.829538  0.001489  1
  Si  Si21  1  0.170462  0.340925  0.001489  1
  Si  Si22  1  0.659075  0.829538  0.001489  1
  Rh  Rh23  1  0.333333  0.666667  0.999823  1
