# generated using pymatgen
data_RbNp3O9
_symmetry_space_group_name_H-M   'P 1'
_cell_length_a   8.00988600
_cell_length_b   8.00988621
_cell_length_c   8.31341100
_cell_angle_alpha   90.00000000
_cell_angle_beta   90.00000000
_cell_angle_gamma   119.99999913
_symmetry_Int_Tables_number   1
_chemical_formula_structural   RbNp3O9
_chemical_formula_sum   'Rb2 Np6 O18'
_cell_volume   461.91553526
_cell_formula_units_Z   2
loop_
 _symmetry_equiv_pos_site_id
 _symmetry_equiv_pos_as_xyz
  1  'x, y, z'
loop_
 _atom_site_type_symbol
 _atom_site_label
 _atom_site_symmetry_multiplicity
 _atom_site_fract_x
 _atom_site_fract_y
 _atom_site_fract_z
 _atom_site_occupancy
  Rb  Rb0  1  0.000000  0.000000  0.502036  1
  Rb  Rb1  1  0.000000  0.000000  0.002036  1
  Np  Np2  1  0.499979  0.000001  0.750022  1
  Np  Np3  1  0.499979  0.499979  0.250022  1
  Np  Np4  1  0.000001  0.500021  0.250022  1
  Np  Np5  1  0.999999  0.499979  0.750022  1
  Np  Np6  1  0.500021  0.500021  0.750022  1
  Np  Np7  1  0.500021  0.999999  0.250022  1
  O  O8  1  0.500039  0.000089  0.500020  1
  O  O9  1  0.499951  0.500039  0.000020  1
  O  O10  1  0.000089  0.500049  0.000020  1
  O  O11  1  0.999911  0.499951  0.500020  1
  O  O12  1  0.500049  0.499961  0.500020  1
  O  O13  1  0.499961  0.999911  0.000020  1
  O  O14  1  0.793831  0.587671  0.750024  1
  O  O15  1  0.206160  0.793831  0.250024  1
  O  O16  1  0.412331  0.206169  0.249921  1
  O  O17  1  0.206162  0.412331  0.749921  1
  O  O18  1  0.206169  0.793838  0.749921  1
  O  O19  1  0.793831  0.206162  0.249921  1
  O  O20  1  0.793838  0.587669  0.249921  1
  O  O21  1  0.587669  0.793831  0.749921  1
  O  O22  1  0.206169  0.412329  0.250024  1
  O  O23  1  0.793840  0.206169  0.750024  1
  O  O24  1  0.412329  0.206160  0.750024  1
  O  O25  1  0.587671  0.793840  0.250024  1
