# generated using pymatgen
data_EuEr(BIr)8
_symmetry_space_group_name_H-M   'P 1'
_cell_length_a   7.66439600
_cell_length_b   7.66439600
_cell_length_c   3.99514900
_cell_angle_alpha   90.00000000
_cell_angle_beta   90.00000000
_cell_angle_gamma   90.00000000
_symmetry_Int_Tables_number   1
_chemical_formula_structural   EuEr(BIr)8
_chemical_formula_sum   'Eu1 Er1 B8 Ir8'
_cell_volume   234.68690205
_cell_formula_units_Z   1
loop_
 _symmetry_equiv_pos_site_id
 _symmetry_equiv_pos_as_xyz
  1  'x, y, z'
loop_
 _atom_site_type_symbol
 _atom_site_label
 _atom_site_symmetry_multiplicity
 _atom_site_fract_x
 _atom_site_fract_y
 _atom_site_fract_z
 _atom_site_occupancy
  Eu  Eu0  1  0.500000  0.500000  0.000000  1
  Er  Er1  1  0.000000  0.000000  0.500000  1
  B  B2  1  0.657764  0.779859  0.608385  1
  B  B3  1  0.157495  0.277163  0.888005  1
  B  B4  1  0.277163  0.842505  0.111995  1
  B  B5  1  0.722837  0.157495  0.111995  1
  B  B6  1  0.342236  0.220141  0.608385  1
  B  B7  1  0.842505  0.722837  0.888005  1
  B  B8  1  0.220141  0.657764  0.391615  1
  B  B9  1  0.779859  0.342236  0.391615  1
  Ir  Ir10  1  0.337938  0.109117  0.111885  1
  Ir  Ir11  1  0.662062  0.890883  0.111885  1
  Ir  Ir12  1  0.610931  0.154732  0.610759  1
  Ir  Ir13  1  0.109117  0.662062  0.888115  1
  Ir  Ir14  1  0.154732  0.389069  0.389241  1
  Ir  Ir15  1  0.845268  0.610931  0.389241  1
  Ir  Ir16  1  0.890883  0.337938  0.888115  1
  Ir  Ir17  1  0.389069  0.845268  0.610759  1
