# generated using pymatgen
data_Zr8Mn11Tc5
_symmetry_space_group_name_H-M   'P 1'
_cell_length_a   5.13742300
_cell_length_b   5.12941981
_cell_length_c   16.49695300
_cell_angle_alpha   90.00000000
_cell_angle_beta   90.00000000
_cell_angle_gamma   120.05160684
_symmetry_Int_Tables_number   1
_chemical_formula_structural   Zr8Mn11Tc5
_chemical_formula_sum   'Zr8 Mn11 Tc5'
_cell_volume   376.28929224
_cell_formula_units_Z   1
loop_
 _symmetry_equiv_pos_site_id
 _symmetry_equiv_pos_as_xyz
  1  'x, y, z'
loop_
 _atom_site_type_symbol
 _atom_site_label
 _atom_site_symmetry_multiplicity
 _atom_site_fract_x
 _atom_site_fract_y
 _atom_site_fract_z
 _atom_site_occupancy
  Zr  Zr0  1  0.000095  0.000190  0.095668  1
  Zr  Zr1  1  0.666769  0.333538  0.157020  1
  Zr  Zr2  1  0.666769  0.333538  0.342979  1
  Zr  Zr3  1  0.000095  0.000190  0.404332  1
  Zr  Zr4  1  0.000273  0.000546  0.590807  1
  Zr  Zr5  1  0.333519  0.667039  0.653943  1
  Zr  Zr6  1  0.333519  0.667039  0.846056  1
  Zr  Zr7  1  0.000273  0.000546  0.909193  1
  Mn  Mn8  1  0.499136  0.998271  0.002053  1
  Mn  Mn9  1  0.999916  0.499589  0.002344  1
  Mn  Mn10  1  0.499675  0.499589  0.002344  1
  Mn  Mn11  1  0.162819  0.325637  0.250000  1
  Mn  Mn12  1  0.163782  0.836861  0.250000  1
  Mn  Mn13  1  0.673076  0.836861  0.250000  1
  Mn  Mn14  1  0.499136  0.998271  0.497947  1
  Mn  Mn15  1  0.999916  0.499589  0.497656  1
  Mn  Mn16  1  0.499675  0.499589  0.497656  1
  Mn  Mn17  1  0.327520  0.163742  0.750000  1
  Mn  Mn18  1  0.836222  0.163742  0.750000  1
  Tc  Tc19  1  0.333948  0.667898  0.125888  1
  Tc  Tc20  1  0.333948  0.667898  0.374111  1
  Tc  Tc21  1  0.664690  0.329381  0.621178  1
  Tc  Tc22  1  0.840538  0.681075  0.750000  1
  Tc  Tc23  1  0.664690  0.329381  0.878821  1
