# generated using pymatgen
data_Dy2LuNb3(B2Ru5)2
_symmetry_space_group_name_H-M   'P 1'
_cell_length_a   9.58623318
_cell_length_b   9.58623328
_cell_length_c   3.12022900
_cell_angle_alpha   90.00000000
_cell_angle_beta   90.00000000
_cell_angle_gamma   89.46390656
_symmetry_Int_Tables_number   1
_chemical_formula_structural   Dy2LuNb3(B2Ru5)2
_chemical_formula_sum   'Dy2 Lu1 Nb3 B4 Ru10'
_cell_volume   286.72359970
_cell_formula_units_Z   1
loop_
 _symmetry_equiv_pos_site_id
 _symmetry_equiv_pos_as_xyz
  1  'x, y, z'
loop_
 _atom_site_type_symbol
 _atom_site_label
 _atom_site_symmetry_multiplicity
 _atom_site_fract_x
 _atom_site_fract_y
 _atom_site_fract_z
 _atom_site_occupancy
  Dy  Dy0  1  0.324692  0.324046  0.000000  1
  Dy  Dy1  1  0.675954  0.675308  0.000000  1
  Lu  Lu2  1  0.174466  0.825534  0.000000  1
  Nb  Nb3  1  0.496267  0.997817  0.000000  1
  Nb  Nb4  1  0.002183  0.503733  0.000000  1
  Nb  Nb5  1  0.824953  0.175047  0.000000  1
  B  B6  1  0.623927  0.376073  0.000000  1
  B  B7  1  0.380113  0.619887  0.000000  1
  B  B8  1  0.118692  0.122554  0.000000  1
  B  B9  1  0.877446  0.881308  0.000000  1
  Ru  Ru10  1  0.503704  0.496296  0.500000  1
  Ru  Ru11  1  0.991873  0.008127  0.500000  1
  Ru  Ru12  1  0.584333  0.213308  0.500000  1
  Ru  Ru13  1  0.428533  0.780984  0.500000  1
  Ru  Ru14  1  0.059277  0.279960  0.500000  1
  Ru  Ru15  1  0.930708  0.722870  0.500000  1
  Ru  Ru16  1  0.277130  0.069292  0.500000  1
  Ru  Ru17  1  0.720040  0.940723  0.500000  1
  Ru  Ru18  1  0.219016  0.571467  0.500000  1
  Ru  Ru19  1  0.786692  0.415667  0.500000  1
