# generated using pymatgen
data_AlAg3Au
_symmetry_space_group_name_H-M   'P 1'
_cell_length_a   7.04928400
_cell_length_b   7.04928400
_cell_length_c   7.04928400
_cell_angle_alpha   90.00000000
_cell_angle_beta   90.00000000
_cell_angle_gamma   90.00000000
_symmetry_Int_Tables_number   1
_chemical_formula_structural   AlAg3Au
_chemical_formula_sum   'Al4 Ag12 Au4'
_cell_volume   350.29587487
_cell_formula_units_Z   4
loop_
 _symmetry_equiv_pos_site_id
 _symmetry_equiv_pos_as_xyz
  1  'x, y, z'
loop_
 _atom_site_type_symbol
 _atom_site_label
 _atom_site_symmetry_multiplicity
 _atom_site_fract_x
 _atom_site_fract_y
 _atom_site_fract_z
 _atom_site_occupancy
  Al  Al0  1  0.065647  0.065647  0.065647  1
  Al  Al1  1  0.434353  0.934353  0.565647  1
  Al  Al2  1  0.565647  0.434353  0.934353  1
  Al  Al3  1  0.934353  0.565647  0.434353  1
  Ag  Ag4  1  0.788202  0.952082  0.382425  1
  Ag  Ag5  1  0.382425  0.788202  0.952082  1
  Ag  Ag6  1  0.952082  0.382425  0.788202  1
  Ag  Ag7  1  0.547918  0.617575  0.288202  1
  Ag  Ag8  1  0.882425  0.711798  0.047918  1
  Ag  Ag9  1  0.047918  0.882425  0.711798  1
  Ag  Ag10  1  0.117575  0.211798  0.452082  1
  Ag  Ag11  1  0.617575  0.288202  0.547918  1
  Ag  Ag12  1  0.452082  0.117575  0.211798  1
  Ag  Ag13  1  0.288202  0.547918  0.617575  1
  Ag  Ag14  1  0.211798  0.452082  0.117575  1
  Ag  Ag15  1  0.711798  0.047918  0.882425  1
  Au  Au16  1  0.682910  0.682910  0.682910  1
  Au  Au17  1  0.817090  0.317090  0.182910  1
  Au  Au18  1  0.182910  0.817090  0.317090  1
  Au  Au19  1  0.317090  0.182910  0.817090  1
