# generated using pymatgen
data_Sm8Tm11MgPb16
_symmetry_space_group_name_H-M   'P 1'
_cell_length_a   8.20509700
_cell_length_b   8.29238121
_cell_length_c   15.62472000
_cell_angle_alpha   90.00000000
_cell_angle_beta   90.00000000
_cell_angle_gamma   90.01301740
_symmetry_Int_Tables_number   1
_chemical_formula_structural   Sm8Tm11MgPb16
_chemical_formula_sum   'Sm8 Tm11 Mg1 Pb16'
_cell_volume   1063.10267489
_cell_formula_units_Z   1
loop_
 _symmetry_equiv_pos_site_id
 _symmetry_equiv_pos_as_xyz
  1  'x, y, z'
loop_
 _atom_site_type_symbol
 _atom_site_label
 _atom_site_symmetry_multiplicity
 _atom_site_fract_x
 _atom_site_fract_y
 _atom_site_fract_z
 _atom_site_occupancy
  Sm  Sm0  1  0.470202  0.676790  0.598103  1
  Sm  Sm1  1  0.971085  0.823559  0.902030  1
  Sm  Sm2  1  0.530211  0.317508  0.097516  1
  Sm  Sm3  1  0.025156  0.175039  0.403128  1
  Sm  Sm4  1  0.530211  0.317508  0.402484  1
  Sm  Sm5  1  0.025156  0.175039  0.096872  1
  Sm  Sm6  1  0.470202  0.676790  0.901897  1
  Sm  Sm7  1  0.971085  0.823559  0.597970  1
  Tm  Tm8  1  0.630531  0.159797  0.622723  1
  Tm  Tm9  1  0.130375  0.343421  0.877919  1
  Tm  Tm10  1  0.376592  0.842157  0.122461  1
  Tm  Tm11  1  0.868808  0.660748  0.378425  1
  Tm  Tm12  1  0.376592  0.842157  0.377539  1
  Tm  Tm13  1  0.868808  0.660748  0.121575  1
  Tm  Tm14  1  0.630531  0.159797  0.877277  1
  Tm  Tm15  1  0.130375  0.343421  0.622081  1
  Tm  Tm16  1  0.796980  0.494180  0.750000  1
  Tm  Tm17  1  0.297389  0.006018  0.750000  1
  Tm  Tm18  1  0.200683  0.507781  0.250000  1
  Mg  Mg19  1  0.704057  0.994680  0.250000  1
  Pb  Pb20  1  0.710041  0.959248  0.458451  1
  Pb  Pb21  1  0.210898  0.537328  0.044228  1
  Pb  Pb22  1  0.290442  0.039392  0.957189  1
  Pb  Pb23  1  0.789756  0.461839  0.543056  1
  Pb  Pb24  1  0.290442  0.039392  0.542811  1
  Pb  Pb25  1  0.789756  0.461839  0.956944  1
  Pb  Pb26  1  0.710041  0.959248  0.041549  1
  Pb  Pb27  1  0.210898  0.537328  0.455772  1
  Pb  Pb28  1  0.434698  0.372229  0.750000  1
  Pb  Pb29  1  0.935420  0.127189  0.750000  1
  Pb  Pb30  1  0.567177  0.623290  0.250000  1
  Pb  Pb31  1  0.063831  0.875853  0.250000  1
  Pb  Pb32  1  0.658145  0.848795  0.750000  1
  Pb  Pb33  1  0.158628  0.653322  0.750000  1
  Pb  Pb34  1  0.333101  0.152161  0.250000  1
  Pb  Pb35  1  0.841694  0.350856  0.250000  1
