# generated using pymatgen
data_Hf4CrGa3N
_symmetry_space_group_name_H-M   'P 1'
_cell_length_a   7.86207300
_cell_length_b   7.86207416
_cell_length_c   5.43428900
_cell_angle_alpha   90.00000000
_cell_angle_beta   90.00000000
_cell_angle_gamma   119.99999931
_symmetry_Int_Tables_number   1
_chemical_formula_structural   Hf4CrGa3N
_chemical_formula_sum   'Hf8 Cr2 Ga6 N2'
_cell_volume   290.90258053
_cell_formula_units_Z   2
loop_
 _symmetry_equiv_pos_site_id
 _symmetry_equiv_pos_as_xyz
  1  'x, y, z'
loop_
 _atom_site_type_symbol
 _atom_site_label
 _atom_site_symmetry_multiplicity
 _atom_site_fract_x
 _atom_site_fract_y
 _atom_site_fract_z
 _atom_site_occupancy
  Hf  Hf0  1  0.230578  0.000000  0.250826  1
  Hf  Hf1  1  0.769422  0.000000  0.749174  1
  Hf  Hf2  1  0.000000  0.230578  0.250826  1
  Hf  Hf3  1  0.000000  0.769422  0.749174  1
  Hf  Hf4  1  0.769422  0.769422  0.250826  1
  Hf  Hf5  1  0.230578  0.230578  0.749174  1
  Hf  Hf6  1  0.666667  0.333333  0.500000  1
  Hf  Hf7  1  0.333333  0.666667  0.500000  1
  Cr  Cr8  1  0.333333  0.666667  0.000000  1
  Cr  Cr9  1  0.666667  0.333333  0.000000  1
  Ga  Ga10  1  0.591720  0.000000  0.226725  1
  Ga  Ga11  1  0.408280  0.000000  0.773275  1
  Ga  Ga12  1  0.000000  0.591720  0.226725  1
  Ga  Ga13  1  0.000000  0.408280  0.773275  1
  Ga  Ga14  1  0.408280  0.408280  0.226725  1
  Ga  Ga15  1  0.591720  0.591720  0.773275  1
  N  N16  1  0.000000  0.000000  0.000000  1
  N  N17  1  0.000000  0.000000  0.500000  1
