# generated using pymatgen
data_Tb3Sm4Y(B6Os)4
_symmetry_space_group_name_H-M   'P 1'
_cell_length_a   3.69549700
_cell_length_b   9.22511101
_cell_length_c   11.62560101
_cell_angle_alpha   90.00459958
_cell_angle_beta   90.00000000
_cell_angle_gamma   90.00000000
_symmetry_Int_Tables_number   1
_chemical_formula_structural   Tb3Sm4Y(B6Os)4
_chemical_formula_sum   'Tb3 Sm4 Y1 B24 Os4'
_cell_volume   396.33266482
_cell_formula_units_Z   1
loop_
 _symmetry_equiv_pos_site_id
 _symmetry_equiv_pos_as_xyz
  1  'x, y, z'
loop_
 _atom_site_type_symbol
 _atom_site_label
 _atom_site_symmetry_multiplicity
 _atom_site_fract_x
 _atom_site_fract_y
 _atom_site_fract_z
 _atom_site_occupancy
  Tb  Tb0  1  0.000000  0.944084  0.372601  1
  Tb  Tb1  1  0.000000  0.055920  0.627424  1
  Tb  Tb2  1  0.000000  0.444116  0.127320  1
  Sm  Sm3  1  0.000000  0.322862  0.413917  1
  Sm  Sm4  1  0.000000  0.677140  0.586138  1
  Sm  Sm5  1  0.000000  0.822829  0.086069  1
  Sm  Sm6  1  0.000000  0.177189  0.913869  1
  Y  Y7  1  0.000000  0.555830  0.872763  1
  B  B8  1  0.500000  0.555054  0.431547  1
  B  B9  1  0.500000  0.444963  0.568467  1
  B  B10  1  0.500000  0.055043  0.068445  1
  B  B11  1  0.500000  0.944907  0.931550  1
  B  B12  1  0.500000  0.748200  0.418576  1
  B  B13  1  0.500000  0.251807  0.581418  1
  B  B14  1  0.500000  0.248202  0.081433  1
  B  B15  1  0.500000  0.751654  0.918626  1
  B  B16  1  0.500000  0.790247  0.267114  1
  B  B17  1  0.500000  0.209792  0.732913  1
  B  B18  1  0.500000  0.290249  0.232891  1
  B  B19  1  0.500000  0.709569  0.767090  1
  B  B20  1  0.500000  0.631721  0.185778  1
  B  B21  1  0.500000  0.368359  0.814343  1
  B  B22  1  0.500000  0.131734  0.314238  1
  B  B23  1  0.500000  0.868252  0.685769  1
  B  B24  1  0.500000  0.985266  0.213454  1
  B  B25  1  0.500000  0.014738  0.786540  1
  B  B26  1  0.500000  0.485257  0.286547  1
  B  B27  1  0.500000  0.514894  0.713532  1
  B  B28  1  0.500000  0.606649  0.029221  1
  B  B29  1  0.500000  0.393510  0.970431  1
  B  B30  1  0.500000  0.106702  0.470566  1
  B  B31  1  0.500000  0.893290  0.529430  1
  Os  Os32  1  0.000000  0.638341  0.320635  1
  Os  Os33  1  0.000000  0.361741  0.679372  1
  Os  Os34  1  0.000000  0.138367  0.179299  1
  Os  Os35  1  0.000000  0.861524  0.820673  1
