# generated using pymatgen
data_TaBe7SiMo3
_symmetry_space_group_name_H-M   'P 1'
_cell_length_a   4.51357000
_cell_length_b   4.51356976
_cell_length_c   7.47807200
_cell_angle_alpha   90.00000000
_cell_angle_beta   90.00000000
_cell_angle_gamma   120.00000179
_symmetry_Int_Tables_number   1
_chemical_formula_structural   TaBe7SiMo3
_chemical_formula_sum   'Ta1 Be7 Si1 Mo3'
_cell_volume   131.93517794
_cell_formula_units_Z   1
loop_
 _symmetry_equiv_pos_site_id
 _symmetry_equiv_pos_as_xyz
  1  'x, y, z'
loop_
 _atom_site_type_symbol
 _atom_site_label
 _atom_site_symmetry_multiplicity
 _atom_site_fract_x
 _atom_site_fract_y
 _atom_site_fract_z
 _atom_site_occupancy
  Ta  Ta0  1  0.333333  0.666667  0.436838  1
  Be  Be1  1  0.000000  0.000000  0.998206  1
  Be  Be2  1  0.828935  0.171065  0.240582  1
  Be  Be3  1  0.828935  0.657870  0.240582  1
  Be  Be4  1  0.342130  0.171065  0.240582  1
  Be  Be5  1  0.171194  0.828806  0.759274  1
  Be  Be6  1  0.171194  0.342388  0.759274  1
  Be  Be7  1  0.657612  0.828806  0.759274  1
  Si  Si8  1  0.000000  0.000000  0.501752  1
  Mo  Mo9  1  0.666667  0.333333  0.565814  1
  Mo  Mo10  1  0.666667  0.333333  0.938354  1
  Mo  Mo11  1  0.333333  0.666667  0.059466  1
