# generated using pymatgen
data_YbEu3(Ga2Ag)4
_symmetry_space_group_name_H-M   'P 1'
_cell_length_a   4.47051300
_cell_length_b   7.14965819
_cell_length_c   10.65758988
_cell_angle_alpha   89.81565655
_cell_angle_beta   90.00000000
_cell_angle_gamma   90.00000000
_symmetry_Int_Tables_number   1
_chemical_formula_structural   YbEu3(Ga2Ag)4
_chemical_formula_sum   'Yb1 Eu3 Ga8 Ag4'
_cell_volume   340.64294432
_cell_formula_units_Z   1
loop_
 _symmetry_equiv_pos_site_id
 _symmetry_equiv_pos_as_xyz
  1  'x, y, z'
loop_
 _atom_site_type_symbol
 _atom_site_label
 _atom_site_symmetry_multiplicity
 _atom_site_fract_x
 _atom_site_fract_y
 _atom_site_fract_z
 _atom_site_occupancy
  Yb  Yb0  1  0.250000  0.278050  0.670973  1
  Eu  Eu1  1  0.250000  0.781528  0.825018  1
  Eu  Eu2  1  0.750000  0.218985  0.172389  1
  Eu  Eu3  1  0.750000  0.719833  0.328803  1
  Ga  Ga4  1  0.250000  0.697292  0.534866  1
  Ga  Ga5  1  0.750000  0.299174  0.468155  1
  Ga  Ga6  1  0.750000  0.796369  0.033945  1
  Ga  Ga7  1  0.250000  0.205331  0.962447  1
  Ga  Ga8  1  0.250000  0.920723  0.146230  1
  Ga  Ga9  1  0.750000  0.081547  0.851694  1
  Ga  Ga10  1  0.750000  0.574374  0.647522  1
  Ga  Ga11  1  0.250000  0.420424  0.353026  1
  Ag  Ag12  1  0.250000  0.539649  0.098252  1
  Ag  Ag13  1  0.750000  0.459890  0.898323  1
  Ag  Ag14  1  0.750000  0.965284  0.601574  1
  Ag  Ag15  1  0.250000  0.041547  0.406783  1
