# generated using pymatgen
data_TbEr4(MnB3)2
_symmetry_space_group_name_H-M   'P 1'
_cell_length_a   5.40766060
_cell_length_b   5.40766115
_cell_length_c   8.19631917
_cell_angle_alpha   70.73830668
_cell_angle_beta   70.73830289
_cell_angle_gamma   60.00000589
_symmetry_Int_Tables_number   1
_chemical_formula_structural   TbEr4(MnB3)2
_chemical_formula_sum   'Tb1 Er4 Mn2 B6'
_cell_volume   191.92287570
_cell_formula_units_Z   1
loop_
 _symmetry_equiv_pos_site_id
 _symmetry_equiv_pos_as_xyz
  1  'x, y, z'
loop_
 _atom_site_type_symbol
 _atom_site_label
 _atom_site_symmetry_multiplicity
 _atom_site_fract_x
 _atom_site_fract_y
 _atom_site_fract_z
 _atom_site_occupancy
  Tb  Tb0  1  0.000000  0.000000  0.000000  1
  Er  Er1  1  0.250319  0.250319  0.249041  1
  Er  Er2  1  0.749681  0.749681  0.750959  1
  Er  Er3  1  0.416723  0.416723  0.749831  1
  Er  Er4  1  0.583277  0.583277  0.250169  1
  Mn  Mn5  1  0.113930  0.113930  0.658210  1
  Mn  Mn6  1  0.886070  0.886070  0.341790  1
  B  B7  1  0.166952  0.833048  0.500000  1
  B  B8  1  0.833048  0.500000  0.500000  1
  B  B9  1  0.500000  0.166952  0.500000  1
  B  B10  1  0.166952  0.500000  0.500000  1
  B  B11  1  0.500000  0.833048  0.500000  1
  B  B12  1  0.833048  0.166952  0.500000  1
