# generated using pymatgen
data_Hf4Ta4SiP3
_symmetry_space_group_name_H-M   'P 1'
_cell_length_a   3.53327700
_cell_length_b   6.91219276
_cell_length_c   8.35032904
_cell_angle_alpha   89.74468275
_cell_angle_beta   90.00000000
_cell_angle_gamma   90.00000000
_symmetry_Int_Tables_number   1
_chemical_formula_structural   Hf4Ta4SiP3
_chemical_formula_sum   'Hf4 Ta4 Si1 P3'
_cell_volume   203.93548691
_cell_formula_units_Z   1
loop_
 _symmetry_equiv_pos_site_id
 _symmetry_equiv_pos_as_xyz
  1  'x, y, z'
loop_
 _atom_site_type_symbol
 _atom_site_label
 _atom_site_symmetry_multiplicity
 _atom_site_fract_x
 _atom_site_fract_y
 _atom_site_fract_z
 _atom_site_occupancy
  Hf  Hf0  1  0.250000  0.033466  0.666850  1
  Hf  Hf1  1  0.250000  0.531316  0.831130  1
  Hf  Hf2  1  0.750000  0.469102  0.165046  1
  Hf  Hf3  1  0.750000  0.964205  0.332342  1
  Ta  Ta4  1  0.750000  0.857102  0.939479  1
  Ta  Ta5  1  0.250000  0.641728  0.440909  1
  Ta  Ta6  1  0.750000  0.363183  0.563946  1
  Ta  Ta7  1  0.250000  0.138755  0.057598  1
  Si  Si8  1  0.250000  0.261927  0.357684  1
  P  P9  1  0.250000  0.763734  0.144868  1
  P  P10  1  0.750000  0.739813  0.643717  1
  P  P11  1  0.750000  0.235669  0.856429  1
