# generated using pymatgen
data_Ho3ErPd2Pt2F28
_symmetry_space_group_name_H-M   'P 1'
_cell_length_a   5.51392804
_cell_length_b   8.81920725
_cell_length_c   11.92098940
_cell_angle_alpha   62.57965310
_cell_angle_beta   89.98829244
_cell_angle_gamma   90.00000556
_symmetry_Int_Tables_number   1
_chemical_formula_structural   Ho3ErPd2Pt2F28
_chemical_formula_sum   'Ho3 Er1 Pd2 Pt2 F28'
_cell_volume   514.57137221
_cell_formula_units_Z   1
loop_
 _symmetry_equiv_pos_site_id
 _symmetry_equiv_pos_as_xyz
  1  'x, y, z'
loop_
 _atom_site_type_symbol
 _atom_site_label
 _atom_site_symmetry_multiplicity
 _atom_site_fract_x
 _atom_site_fract_y
 _atom_site_fract_z
 _atom_site_occupancy
  Ho  Ho0  1  0.761452  0.813175  0.763623  1
  Ho  Ho1  1  0.261215  0.186711  0.736376  1
  Ho  Ho2  1  0.237861  0.185012  0.235040  1
  Er  Er3  1  0.737488  0.814155  0.265262  1
  Pd  Pd4  1  0.759096  0.272110  0.957167  1
  Pd  Pd5  1  0.259272  0.727684  0.542550  1
  Pt  Pt6  1  0.240789  0.728041  0.043372  1
  Pt  Pt7  1  0.741243  0.272533  0.456823  1
  F  F8  1  0.436274  0.702403  0.915370  1
  F  F9  1  0.936080  0.297859  0.585140  1
  F  F10  1  0.565535  0.297372  0.084017  1
  F  F11  1  0.065136  0.702498  0.415829  1
  F  F12  1  0.437805  0.277649  0.542470  1
  F  F13  1  0.937815  0.722778  0.957470  1
  F  F14  1  0.560422  0.723237  0.457299  1
  F  F15  1  0.060167  0.276930  0.042126  1
  F  F16  1  0.778310  0.520435  0.858584  1
  F  F17  1  0.278879  0.479523  0.641198  1
  F  F18  1  0.225012  0.477427  0.141784  1
  F  F19  1  0.725848  0.523297  0.358311  1
  F  F20  1  0.752493  0.024298  0.050076  1
  F  F21  1  0.252603  0.975464  0.450049  1
  F  F22  1  0.245777  0.978248  0.950034  1
  F  F23  1  0.746138  0.022351  0.549963  1
  F  F24  1  0.966825  0.723504  0.635388  1
  F  F25  1  0.466242  0.276422  0.864626  1
  F  F26  1  0.037026  0.274504  0.364033  1
  F  F27  1  0.536149  0.725776  0.136706  1
  F  F28  1  0.049891  0.747523  0.176130  1
  F  F29  1  0.551728  0.253232  0.323718  1
  F  F30  1  0.946328  0.253923  0.824728  1
  F  F31  1  0.447016  0.745940  0.674906  1
  F  F32  1  0.414398  0.968757  0.232116  1
  F  F33  1  0.912994  0.029362  0.267868  1
  F  F34  1  0.584235  0.029566  0.767133  1
  F  F35  1  0.084460  0.970302  0.732715  1
