# generated using pymatgen
data_Yb7ZrP6
_symmetry_space_group_name_H-M   'P 1'
_cell_length_a   7.32783282
_cell_length_b   7.43323832
_cell_length_c   7.43323803
_cell_angle_alpha   109.75669347
_cell_angle_beta   109.18422573
_cell_angle_gamma   109.18421352
_symmetry_Int_Tables_number   1
_chemical_formula_structural   Yb7ZrP6
_chemical_formula_sum   'Yb7 Zr1 P6'
_cell_volume   312.77768409
_cell_formula_units_Z   1
loop_
 _symmetry_equiv_pos_site_id
 _symmetry_equiv_pos_as_xyz
  1  'x, y, z'
loop_
 _atom_site_type_symbol
 _atom_site_label
 _atom_site_symmetry_multiplicity
 _atom_site_fract_x
 _atom_site_fract_y
 _atom_site_fract_z
 _atom_site_occupancy
  Yb  Yb0  1  0.501784  0.001118  0.644299  1
  Yb  Yb1  1  0.367283  0.362138  0.364783  1
  Yb  Yb2  1  0.002500  0.135217  0.497355  1
  Yb  Yb3  1  0.857485  0.855701  0.856819  1
  Yb  Yb4  1  0.000667  0.643181  0.498882  1
  Yb  Yb5  1  0.631894  0.500000  0.000000  1
  Yb  Yb6  1  0.505145  0.002645  0.137862  1
  Zr  Zr7  1  0.123208  0.500000  0.000000  1
  P  P8  1  0.891533  0.262524  0.119752  1
  P  P9  1  0.129010  0.857228  0.237476  1
  P  P10  1  0.365053  0.620707  0.756745  1
  P  P11  1  0.244346  0.136037  0.879293  1
  P  P12  1  0.771781  0.380248  0.642772  1
  P  P13  1  0.608309  0.743255  0.363963  1
