# generated using pymatgen
data_La4Pr4Cd2OsPd
_symmetry_space_group_name_H-M   'P 1'
_cell_length_a   10.07606864
_cell_length_b   10.07596157
_cell_length_c   10.26935313
_cell_angle_alpha   59.31897715
_cell_angle_beta   59.31951685
_cell_angle_gamma   59.91867726
_symmetry_Int_Tables_number   1
_chemical_formula_structural   La4Pr4Cd2OsPd
_chemical_formula_sum   'La8 Pr8 Cd4 Os2 Pd2'
_cell_volume   729.11750056
_cell_formula_units_Z   2
loop_
 _symmetry_equiv_pos_site_id
 _symmetry_equiv_pos_as_xyz
  1  'x, y, z'
loop_
 _atom_site_type_symbol
 _atom_site_label
 _atom_site_symmetry_multiplicity
 _atom_site_fract_x
 _atom_site_fract_y
 _atom_site_fract_z
 _atom_site_occupancy
  La  La0  1  0.344355  0.344368  0.357552  1
  La  La1  1  0.346079  0.346073  0.950167  1
  La  La2  1  0.344542  0.958938  0.347423  1
  La  La3  1  0.958927  0.344555  0.347421  1
  La  La4  1  0.818099  0.188727  0.190795  1
  La  La5  1  0.187836  0.817292  0.802307  1
  La  La6  1  0.188746  0.818096  0.190783  1
  La  La7  1  0.817300  0.187825  0.802322  1
  Pr  Pr8  1  0.190947  0.190945  0.808535  1
  Pr  Pr9  1  0.801822  0.801809  0.198112  1
  Pr  Pr10  1  0.935489  0.560905  0.567905  1
  Pr  Pr11  1  0.559581  0.935606  0.937487  1
  Pr  Pr12  1  0.560903  0.935498  0.567897  1
  Pr  Pr13  1  0.935615  0.559565  0.937490  1
  Pr  Pr14  1  0.562991  0.562990  0.939039  1
  Pr  Pr15  1  0.938760  0.938767  0.560979  1
  Cd  Cd16  1  0.579848  0.579843  0.579597  1
  Cd  Cd17  1  0.580073  0.580073  0.259968  1
  Cd  Cd18  1  0.579753  0.257869  0.580956  1
  Cd  Cd19  1  0.257864  0.579756  0.580959  1
  Os  Os20  1  0.141661  0.141674  0.141463  1
  Os  Os21  1  0.141115  0.141125  0.576316  1
  Pd  Pd22  1  0.150531  0.577171  0.137256  1
  Pd  Pd23  1  0.577162  0.150530  0.137270  1
