# generated using pymatgen
data_SrYb3Pt8
_symmetry_space_group_name_H-M   'P 1'
_cell_length_a   9.38730227
_cell_length_b   9.38730163
_cell_length_c   9.38730300
_cell_angle_alpha   33.58707054
_cell_angle_beta   33.58707645
_cell_angle_gamma   33.58707362
_symmetry_Int_Tables_number   1
_chemical_formula_structural   SrYb3Pt8
_chemical_formula_sum   'Sr1 Yb3 Pt8'
_cell_volume   225.50523869
_cell_formula_units_Z   1
loop_
 _symmetry_equiv_pos_site_id
 _symmetry_equiv_pos_as_xyz
  1  'x, y, z'
loop_
 _atom_site_type_symbol
 _atom_site_label
 _atom_site_symmetry_multiplicity
 _atom_site_fract_x
 _atom_site_fract_y
 _atom_site_fract_z
 _atom_site_occupancy
  Sr  Sr0  1  0.812121  0.812121  0.812121  1
  Yb  Yb1  1  0.312865  0.312865  0.312865  1
  Yb  Yb2  1  0.686191  0.686191  0.686191  1
  Yb  Yb3  1  0.189325  0.189325  0.189325  1
  Pt  Pt4  1  0.500200  0.500200  0.500200  1
  Pt  Pt5  1  0.999855  0.999855  0.999855  1
  Pt  Pt6  1  0.249149  0.249149  0.746777  1
  Pt  Pt7  1  0.750469  0.750469  0.253428  1
  Pt  Pt8  1  0.249149  0.746777  0.249149  1
  Pt  Pt9  1  0.750469  0.253428  0.750469  1
  Pt  Pt10  1  0.746777  0.249149  0.249149  1
  Pt  Pt11  1  0.253428  0.750469  0.750469  1
