# generated using pymatgen
data_CsZn4As2P
_symmetry_space_group_name_H-M   'P 1'
_cell_length_a   4.17565700
_cell_length_b   4.17565700
_cell_length_c   10.53448600
_cell_angle_alpha   90.00000000
_cell_angle_beta   90.00000000
_cell_angle_gamma   90.00000000
_symmetry_Int_Tables_number   1
_chemical_formula_structural   CsZn4As2P
_chemical_formula_sum   'Cs1 Zn4 As2 P1'
_cell_volume   183.68047124
_cell_formula_units_Z   1
loop_
 _symmetry_equiv_pos_site_id
 _symmetry_equiv_pos_as_xyz
  1  'x, y, z'
loop_
 _atom_site_type_symbol
 _atom_site_label
 _atom_site_symmetry_multiplicity
 _atom_site_fract_x
 _atom_site_fract_y
 _atom_site_fract_z
 _atom_site_occupancy
  Cs  Cs0  1  0.000000  0.000000  0.500000  1
  Zn  Zn1  1  0.500000  0.000000  0.147617  1
  Zn  Zn2  1  0.000000  0.500000  0.147617  1
  Zn  Zn3  1  0.500000  0.000000  0.852384  1
  Zn  Zn4  1  0.000000  0.500000  0.852384  1
  As  As5  1  0.500000  0.500000  0.280068  1
  As  As6  1  0.500000  0.500000  0.719932  1
  P  P7  1  0.000000  0.000000  0.000000  1
