# generated using pymatgen
data_BaFeAs2O7
_symmetry_space_group_name_H-M   'P 1'
_cell_length_a   5.64026185
_cell_length_b   7.57334338
_cell_length_c   7.95320901
_cell_angle_alpha   102.40611035
_cell_angle_beta   91.84701068
_cell_angle_gamma   95.60718057
_symmetry_Int_Tables_number   1
_chemical_formula_structural   BaFeAs2O7
_chemical_formula_sum   'Ba2 Fe2 As4 O14'
_cell_volume   329.71060654
_cell_formula_units_Z   2
loop_
 _symmetry_equiv_pos_site_id
 _symmetry_equiv_pos_as_xyz
  1  'x, y, z'
loop_
 _atom_site_type_symbol
 _atom_site_label
 _atom_site_symmetry_multiplicity
 _atom_site_fract_x
 _atom_site_fract_y
 _atom_site_fract_z
 _atom_site_occupancy
  Ba  Ba0  1  0.702454  0.277015  0.928148  1
  Ba  Ba1  1  0.297546  0.722985  0.071852  1
  Fe  Fe2  1  0.315381  0.876257  0.604535  1
  Fe  Fe3  1  0.684619  0.123743  0.395465  1
  As  As4  1  0.806579  0.772606  0.799278  1
  As  As5  1  0.193421  0.227394  0.200722  1
  As  As6  1  0.794855  0.680550  0.398163  1
  As  As7  1  0.205145  0.319450  0.601837  1
  O  O8  1  0.918844  0.221171  0.605316  1
  O  O9  1  0.081156  0.778829  0.394684  1
  O  O10  1  0.790144  0.653355  0.957015  1
  O  O11  1  0.209856  0.346645  0.042985  1
  O  O12  1  0.771523  0.607906  0.598507  1
  O  O13  1  0.228477  0.392094  0.401493  1
  O  O14  1  0.571674  0.902208  0.805035  1
  O  O15  1  0.428326  0.097792  0.194965  1
  O  O16  1  0.594463  0.842123  0.406045  1
  O  O17  1  0.405537  0.157877  0.593955  1
  O  O18  1  0.284502  0.510009  0.750992  1
  O  O19  1  0.715498  0.489991  0.249008  1
  O  O20  1  0.075280  0.899141  0.808181  1
  O  O21  1  0.924720  0.100859  0.191819  1
