# generated using pymatgen
data_Mg2ZnCo(BIr2)2
_symmetry_space_group_name_H-M   'P 1'
_cell_length_a   9.32049900
_cell_length_b   9.32049900
_cell_length_c   2.92786400
_cell_angle_alpha   90.00000000
_cell_angle_beta   90.00000000
_cell_angle_gamma   90.00000000
_symmetry_Int_Tables_number   1
_chemical_formula_structural   Mg2ZnCo(BIr2)2
_chemical_formula_sum   'Mg4 Zn2 Co2 B4 Ir8'
_cell_volume   254.34852776
_cell_formula_units_Z   2
loop_
 _symmetry_equiv_pos_site_id
 _symmetry_equiv_pos_as_xyz
  1  'x, y, z'
loop_
 _atom_site_type_symbol
 _atom_site_label
 _atom_site_symmetry_multiplicity
 _atom_site_fract_x
 _atom_site_fract_y
 _atom_site_fract_z
 _atom_site_occupancy
  Mg  Mg0  1  0.322046  0.822046  0.000000  1
  Mg  Mg1  1  0.677954  0.177954  0.000000  1
  Mg  Mg2  1  0.177954  0.322046  0.000000  1
  Mg  Mg3  1  0.822046  0.677954  0.000000  1
  Zn  Zn4  1  0.500000  0.500000  0.000000  1
  Zn  Zn5  1  0.000000  0.000000  0.000000  1
  Co  Co6  1  0.000000  0.500000  0.500000  1
  Co  Co7  1  0.500000  0.000000  0.500000  1
  B  B8  1  0.116492  0.616492  0.000000  1
  B  B9  1  0.883508  0.383508  0.000000  1
  B  B10  1  0.383508  0.116492  0.000000  1
  B  B11  1  0.616492  0.883508  0.000000  1
  Ir  Ir12  1  0.562643  0.722840  0.500000  1
  Ir  Ir13  1  0.437357  0.277160  0.500000  1
  Ir  Ir14  1  0.937357  0.222840  0.500000  1
  Ir  Ir15  1  0.062643  0.777160  0.500000  1
  Ir  Ir16  1  0.777160  0.937357  0.500000  1
  Ir  Ir17  1  0.222840  0.062643  0.500000  1
  Ir  Ir18  1  0.277160  0.562643  0.500000  1
  Ir  Ir19  1  0.722840  0.437357  0.500000  1
