# generated using pymatgen
data_YbFeNi(Sb6Os)2
_symmetry_space_group_name_H-M   'P 1'
_cell_length_a   8.10096012
_cell_length_b   8.02974039
_cell_length_c   8.08616624
_cell_angle_alpha   109.43193932
_cell_angle_beta   109.67911742
_cell_angle_gamma   109.58134424
_symmetry_Int_Tables_number   1
_chemical_formula_structural   YbFeNi(Sb6Os)2
_chemical_formula_sum   'Yb1 Fe1 Ni1 Sb12 Os2'
_cell_volume   403.50991899
_cell_formula_units_Z   1
loop_
 _symmetry_equiv_pos_site_id
 _symmetry_equiv_pos_as_xyz
  1  'x, y, z'
loop_
 _atom_site_type_symbol
 _atom_site_label
 _atom_site_symmetry_multiplicity
 _atom_site_fract_x
 _atom_site_fract_y
 _atom_site_fract_z
 _atom_site_occupancy
  Yb  Yb0  1  0.000000  0.000000  0.000000  1
  Fe  Fe1  1  0.000000  0.000000  0.500000  1
  Ni  Ni2  1  0.500000  0.000000  0.000000  1
  Sb  Sb3  1  0.845317  0.670191  0.504798  1
  Sb  Sb4  1  0.154683  0.329809  0.495202  1
  Sb  Sb5  1  0.159149  0.662749  0.816669  1
  Sb  Sb6  1  0.840851  0.337251  0.183331  1
  Sb  Sb7  1  0.660359  0.503001  0.843447  1
  Sb  Sb8  1  0.339641  0.496999  0.156553  1
  Sb  Sb9  1  0.668397  0.823495  0.163405  1
  Sb  Sb10  1  0.331603  0.176505  0.836595  1
  Sb  Sb11  1  0.503248  0.846707  0.662935  1
  Sb  Sb12  1  0.496752  0.153293  0.337065  1
  Sb  Sb13  1  0.175372  0.846754  0.342374  1
  Sb  Sb14  1  0.824628  0.153246  0.657626  1
  Os  Os15  1  0.500000  0.500000  0.500000  1
  Os  Os16  1  0.000000  0.500000  0.000000  1
