# generated using pymatgen
data_Rb3BaTlSb3Pt4
_symmetry_space_group_name_H-M   'P 1'
_cell_length_a   7.30784463
_cell_length_b   7.30784450
_cell_length_c   7.30784459
_cell_angle_alpha   88.33717772
_cell_angle_beta   88.33719054
_cell_angle_gamma   88.33718383
_symmetry_Int_Tables_number   1
_chemical_formula_structural   Rb3BaTlSb3Pt4
_chemical_formula_sum   'Rb3 Ba1 Tl1 Sb3 Pt4'
_cell_volume   389.78877159
_cell_formula_units_Z   1
loop_
 _symmetry_equiv_pos_site_id
 _symmetry_equiv_pos_as_xyz
  1  'x, y, z'
loop_
 _atom_site_type_symbol
 _atom_site_label
 _atom_site_symmetry_multiplicity
 _atom_site_fract_x
 _atom_site_fract_y
 _atom_site_fract_z
 _atom_site_occupancy
  Rb  Rb0  1  0.612060  0.393828  0.887714  1
  Rb  Rb1  1  0.393828  0.887714  0.612060  1
  Rb  Rb2  1  0.887714  0.612060  0.393828  1
  Ba  Ba3  1  0.099051  0.099051  0.099051  1
  Tl  Tl4  1  0.399601  0.399601  0.399601  1
  Sb  Sb5  1  0.588848  0.916168  0.091538  1
  Sb  Sb6  1  0.091538  0.588848  0.916168  1
  Sb  Sb7  1  0.916168  0.091538  0.588848  1
  Pt  Pt8  1  0.141052  0.338899  0.677604  1
  Pt  Pt9  1  0.677604  0.141052  0.338899  1
  Pt  Pt10  1  0.853635  0.853635  0.853635  1
  Pt  Pt11  1  0.338899  0.677604  0.141052  1
