# generated using pymatgen
data_Ti2Be8CoRe
_symmetry_space_group_name_H-M   'P 1'
_cell_length_a   4.36861200
_cell_length_b   4.36861202
_cell_length_c   7.18718800
_cell_angle_alpha   90.00000000
_cell_angle_beta   90.00000000
_cell_angle_gamma   119.99999981
_symmetry_Int_Tables_number   1
_chemical_formula_structural   Ti2Be8CoRe
_chemical_formula_sum   'Ti2 Be8 Co1 Re1'
_cell_volume   118.78909917
_cell_formula_units_Z   1
loop_
 _symmetry_equiv_pos_site_id
 _symmetry_equiv_pos_as_xyz
  1  'x, y, z'
loop_
 _atom_site_type_symbol
 _atom_site_label
 _atom_site_symmetry_multiplicity
 _atom_site_fract_x
 _atom_site_fract_y
 _atom_site_fract_z
 _atom_site_occupancy
  Ti  Ti0  1  0.333333  0.666667  0.060192  1
  Ti  Ti1  1  0.666667  0.333333  0.568734  1
  Be  Be2  1  0.000000  0.000000  0.994537  1
  Be  Be3  1  0.000000  0.000000  0.503436  1
  Be  Be4  1  0.831517  0.663035  0.251127  1
  Be  Be5  1  0.168785  0.831215  0.751092  1
  Be  Be6  1  0.662430  0.831215  0.751092  1
  Be  Be7  1  0.336965  0.168483  0.251127  1
  Be  Be8  1  0.831517  0.168483  0.251127  1
  Be  Be9  1  0.168785  0.337570  0.751092  1
  Co  Co10  1  0.666667  0.333333  0.931508  1
  Re  Re11  1  0.333333  0.666667  0.434933  1
