# generated using pymatgen
data_Tm2LuAl3Ge2Ir
_symmetry_space_group_name_H-M   'P 1'
_cell_length_a   6.90641100
_cell_length_b   6.89856226
_cell_length_c   4.18536100
_cell_angle_alpha   90.00000000
_cell_angle_beta   90.00000000
_cell_angle_gamma   120.03763834
_symmetry_Int_Tables_number   1
_chemical_formula_structural   Tm2LuAl3Ge2Ir
_chemical_formula_sum   'Tm2 Lu1 Al3 Ge2 Ir1'
_cell_volume   172.62739751
_cell_formula_units_Z   1
loop_
 _symmetry_equiv_pos_site_id
 _symmetry_equiv_pos_as_xyz
  1  'x, y, z'
loop_
 _atom_site_type_symbol
 _atom_site_label
 _atom_site_symmetry_multiplicity
 _atom_site_fract_x
 _atom_site_fract_y
 _atom_site_fract_z
 _atom_site_occupancy
  Tm  Tm0  1  0.999588  0.412858  0.000000  1
  Tm  Tm1  1  0.586730  0.587142  0.000000  1
  Lu  Lu2  1  0.412082  0.000000  0.000000  1
  Al  Al3  1  0.769017  0.000000  0.499999  1
  Al  Al4  1  0.230897  0.230813  0.499999  1
  Al  Al5  1  0.000085  0.769188  0.499999  1
  Ge  Ge6  1  0.666047  0.332384  0.499999  1
  Ge  Ge7  1  0.333663  0.667615  0.499999  1
  Ir  Ir8  1  0.001888  0.000000  0.000000  1
