# generated using pymatgen
data_Nb5Pb3WO18
_symmetry_space_group_name_H-M   'P 1'
_cell_length_a   7.36579563
_cell_length_b   7.35797808
_cell_length_c   7.33403353
_cell_angle_alpha   93.95306035
_cell_angle_beta   94.11318184
_cell_angle_gamma   94.24620499
_symmetry_Int_Tables_number   1
_chemical_formula_structural   Nb5Pb3WO18
_chemical_formula_sum   'Nb5 Pb3 W1 O18'
_cell_volume   394.27015222
_cell_formula_units_Z   1
loop_
 _symmetry_equiv_pos_site_id
 _symmetry_equiv_pos_as_xyz
  1  'x, y, z'
loop_
 _atom_site_type_symbol
 _atom_site_label
 _atom_site_symmetry_multiplicity
 _atom_site_fract_x
 _atom_site_fract_y
 _atom_site_fract_z
 _atom_site_occupancy
  Nb  Nb0  1  0.837247  0.194655  0.540820  1
  Nb  Nb1  1  0.202188  0.542053  0.839026  1
  Nb  Nb2  1  0.160151  0.815863  0.506272  1
  Nb  Nb3  1  0.816085  0.507292  0.151694  1
  Nb  Nb4  1  0.510454  0.150772  0.817067  1
  Pb  Pb5  1  0.987700  0.990398  0.989236  1
  Pb  Pb6  1  0.361330  0.359780  0.365580  1
  Pb  Pb7  1  0.732608  0.652179  0.647749  1
  W  W8  1  0.542287  0.830348  0.192680  1
  O  O9  1  0.392917  0.683985  0.975839  1
  O  O10  1  0.669012  0.960769  0.390471  1
  O  O11  1  0.956217  0.400202  0.677514  1
  O  O12  1  0.947604  0.675565  0.400014  1
  O  O13  1  0.675995  0.387264  0.956109  1
  O  O14  1  0.374554  0.963838  0.675955  1
  O  O15  1  0.763567  0.057066  0.766381  1
  O  O16  1  0.052683  0.768627  0.770808  1
  O  O17  1  0.769219  0.768304  0.061783  1
  O  O18  1  0.051830  0.514297  0.050814  1
  O  O19  1  0.505893  0.051291  0.050281  1
  O  O20  1  0.044053  0.052244  0.513242  1
  O  O21  1  0.583191  0.294409  0.581503  1
  O  O22  1  0.287200  0.586380  0.584878  1
  O  O23  1  0.582157  0.580390  0.294688  1
  O  O24  1  0.293956  0.843057  0.298870  1
  O  O25  1  0.837434  0.300243  0.300602  1
  O  O26  1  0.302267  0.308527  0.839921  1
