# generated using pymatgen
data_Nd3YSe3O4
_symmetry_space_group_name_H-M   'P 1'
_cell_length_a   8.41821000
_cell_length_b   6.76476856
_cell_length_c   6.76476900
_cell_angle_alpha   34.27335444
_cell_angle_beta   90.00000000
_cell_angle_gamma   90.00000000
_symmetry_Int_Tables_number   1
_chemical_formula_structural   Nd3YSe3O4
_chemical_formula_sum   'Nd3 Y1 Se3 O4'
_cell_volume   216.94190054
_cell_formula_units_Z   1
loop_
 _symmetry_equiv_pos_site_id
 _symmetry_equiv_pos_as_xyz
  1  'x, y, z'
loop_
 _atom_site_type_symbol
 _atom_site_label
 _atom_site_symmetry_multiplicity
 _atom_site_fract_x
 _atom_site_fract_y
 _atom_site_fract_z
 _atom_site_occupancy
  Nd  Nd0  1  0.000000  0.999714  0.999714  1
  Nd  Nd1  1  0.239930  0.683344  0.683344  1
  Nd  Nd2  1  0.760071  0.683344  0.683344  1
  Y  Y3  1  0.500000  0.019978  0.019978  1
  Se  Se4  1  0.000000  0.312511  0.312511  1
  Se  Se5  1  0.349968  0.359499  0.359499  1
  Se  Se6  1  0.650033  0.359499  0.359499  1
  O  O7  1  0.500000  0.610741  0.610741  1
  O  O8  1  0.000000  0.588594  0.588594  1
  O  O9  1  0.249843  0.086299  0.086299  1
  O  O10  1  0.750156  0.086299  0.086299  1
