# generated using pymatgen
data_Tm12TcOsRu2
_symmetry_space_group_name_H-M   'P 1'
_cell_length_a   7.33873248
_cell_length_b   8.93303900
_cell_length_c   6.20911000
_cell_angle_alpha   90.00000000
_cell_angle_beta   89.91986658
_cell_angle_gamma   90.00000000
_symmetry_Int_Tables_number   1
_chemical_formula_structural   Tm12TcOsRu2
_chemical_formula_sum   'Tm12 Tc1 Os1 Ru2'
_cell_volume   407.05136551
_cell_formula_units_Z   1
loop_
 _symmetry_equiv_pos_site_id
 _symmetry_equiv_pos_as_xyz
  1  'x, y, z'
loop_
 _atom_site_type_symbol
 _atom_site_label
 _atom_site_symmetry_multiplicity
 _atom_site_fract_x
 _atom_site_fract_y
 _atom_site_fract_z
 _atom_site_occupancy
  Tm  Tm0  1  0.039850  0.250000  0.628293  1
  Tm  Tm1  1  0.959104  0.750000  0.371041  1
  Tm  Tm2  1  0.460593  0.750000  0.129965  1
  Tm  Tm3  1  0.540042  0.250000  0.874799  1
  Tm  Tm4  1  0.174911  0.062120  0.164267  1
  Tm  Tm5  1  0.824798  0.937791  0.833521  1
  Tm  Tm6  1  0.325105  0.937633  0.664758  1
  Tm  Tm7  1  0.824798  0.562209  0.833521  1
  Tm  Tm8  1  0.675051  0.062776  0.334674  1
  Tm  Tm9  1  0.174911  0.437880  0.164267  1
  Tm  Tm10  1  0.675051  0.437224  0.334674  1
  Tm  Tm11  1  0.325105  0.562367  0.664758  1
  Tc  Tc12  1  0.382661  0.250000  0.464116  1
  Os  Os13  1  0.117575  0.750000  0.962237  1
  Ru  Ru14  1  0.618892  0.750000  0.538255  1
  Ru  Ru15  1  0.881552  0.250000  0.036852  1
