# generated using pymatgen
data_Tm6FeCo13(P3Rh)4
_symmetry_space_group_name_H-M   'P 1'
_cell_length_a   3.70265700
_cell_length_b   10.66772400
_cell_length_c   12.28668600
_cell_angle_alpha   90.00000000
_cell_angle_beta   90.00000000
_cell_angle_gamma   90.00000000
_symmetry_Int_Tables_number   1
_chemical_formula_structural   Tm6FeCo13(P3Rh)4
_chemical_formula_sum   'Tm6 Fe1 Co13 P12 Rh4'
_cell_volume   485.31086353
_cell_formula_units_Z   1
loop_
 _symmetry_equiv_pos_site_id
 _symmetry_equiv_pos_as_xyz
  1  'x, y, z'
loop_
 _atom_site_type_symbol
 _atom_site_label
 _atom_site_symmetry_multiplicity
 _atom_site_fract_x
 _atom_site_fract_y
 _atom_site_fract_z
 _atom_site_occupancy
  Tm  Tm0  1  0.000000  0.500000  0.520986  1
  Tm  Tm1  1  0.500000  0.000000  0.479029  1
  Tm  Tm2  1  0.500000  0.814528  0.205638  1
  Tm  Tm3  1  0.500000  0.185472  0.205638  1
  Tm  Tm4  1  0.000000  0.683764  0.795278  1
  Tm  Tm5  1  0.000000  0.316236  0.795278  1
  Fe  Fe6  1  0.000000  0.500000  0.990300  1
  Co  Co7  1  0.500000  0.000000  0.011234  1
  Co  Co8  1  0.500000  0.330295  0.994282  1
  Co  Co9  1  0.500000  0.669705  0.994282  1
  Co  Co10  1  0.000000  0.167282  0.006013  1
  Co  Co11  1  0.000000  0.832718  0.006013  1
  Co  Co12  1  0.500000  0.300184  0.430223  1
  Co  Co13  1  0.500000  0.699816  0.430223  1
  Co  Co14  1  0.000000  0.200235  0.570085  1
  Co  Co15  1  0.000000  0.799765  0.570085  1
  Co  Co16  1  0.500000  0.879058  0.709048  1
  Co  Co17  1  0.500000  0.120942  0.709048  1
  Co  Co18  1  0.000000  0.620661  0.290636  1
  Co  Co19  1  0.000000  0.379339  0.290636  1
  P  P20  1  0.500000  0.500000  0.891077  1
  P  P21  1  0.000000  0.000000  0.110450  1
  P  P22  1  0.500000  0.500000  0.351148  1
  P  P23  1  0.000000  0.000000  0.648122  1
  P  P24  1  0.500000  0.303417  0.614228  1
  P  P25  1  0.500000  0.696583  0.614228  1
  P  P26  1  0.000000  0.196851  0.385765  1
  P  P27  1  0.000000  0.803149  0.385765  1
  P  P28  1  0.500000  0.843892  0.893279  1
  P  P29  1  0.500000  0.156108  0.893279  1
  P  P30  1  0.000000  0.656371  0.105325  1
  P  P31  1  0.000000  0.343629  0.105325  1
  Rh  Rh32  1  0.500000  0.500000  0.159527  1
  Rh  Rh33  1  0.000000  0.000000  0.838829  1
  Rh  Rh34  1  0.500000  0.500000  0.702570  1
  Rh  Rh35  1  0.000000  0.000000  0.297135  1
