# generated using pymatgen
data_Lu15U(CdCo)4
_symmetry_space_group_name_H-M   'P 1'
_cell_length_a   9.41201492
_cell_length_b   9.41201595
_cell_length_c   9.41201556
_cell_angle_alpha   58.84844804
_cell_angle_beta   58.84844439
_cell_angle_gamma   58.84845098
_symmetry_Int_Tables_number   1
_chemical_formula_structural   Lu15U(CdCo)4
_chemical_formula_sum   'Lu15 U1 Cd4 Co4'
_cell_volume   574.06660017
_cell_formula_units_Z   1
loop_
 _symmetry_equiv_pos_site_id
 _symmetry_equiv_pos_as_xyz
  1  'x, y, z'
loop_
 _atom_site_type_symbol
 _atom_site_label
 _atom_site_symmetry_multiplicity
 _atom_site_fract_x
 _atom_site_fract_y
 _atom_site_fract_z
 _atom_site_occupancy
  Lu  Lu0  1  0.346764  0.346764  0.954464  1
  Lu  Lu1  1  0.346764  0.954464  0.346764  1
  Lu  Lu2  1  0.954464  0.346764  0.346764  1
  Lu  Lu3  1  0.814090  0.189727  0.189727  1
  Lu  Lu4  1  0.187690  0.814806  0.814806  1
  Lu  Lu5  1  0.189727  0.814090  0.189727  1
  Lu  Lu6  1  0.814806  0.187690  0.814806  1
  Lu  Lu7  1  0.189727  0.189727  0.814090  1
  Lu  Lu8  1  0.814806  0.814806  0.187690  1
  Lu  Lu9  1  0.939701  0.560631  0.560631  1
  Lu  Lu10  1  0.562075  0.935475  0.935475  1
  Lu  Lu11  1  0.560631  0.939701  0.560631  1
  Lu  Lu12  1  0.935475  0.562075  0.935475  1
  Lu  Lu13  1  0.560631  0.560631  0.939701  1
  Lu  Lu14  1  0.935475  0.935475  0.562075  1
  U  U15  1  0.331535  0.331535  0.331535  1
  Cd  Cd16  1  0.579722  0.579722  0.579722  1
  Cd  Cd17  1  0.579379  0.579379  0.254586  1
  Cd  Cd18  1  0.579379  0.254586  0.579379  1
  Cd  Cd19  1  0.254586  0.579379  0.579379  1
  Co  Co20  1  0.141874  0.141874  0.141874  1
  Co  Co21  1  0.159584  0.159584  0.561531  1
  Co  Co22  1  0.159584  0.561531  0.159584  1
  Co  Co23  1  0.561531  0.159584  0.159584  1
