# generated using pymatgen
data_Sc3Co2Sn3Hg
_symmetry_space_group_name_H-M   'P 1'
_cell_length_a   7.46255600
_cell_length_b   7.46261684
_cell_length_c   7.15524000
_cell_angle_alpha   89.99958757
_cell_angle_beta   90.00042560
_cell_angle_gamma   120.00019600
_symmetry_Int_Tables_number   1
_chemical_formula_structural   Sc3Co2Sn3Hg
_chemical_formula_sum   'Sc6 Co4 Sn6 Hg2'
_cell_volume   345.09027997
_cell_formula_units_Z   2
loop_
 _symmetry_equiv_pos_site_id
 _symmetry_equiv_pos_as_xyz
  1  'x, y, z'
loop_
 _atom_site_type_symbol
 _atom_site_label
 _atom_site_symmetry_multiplicity
 _atom_site_fract_x
 _atom_site_fract_y
 _atom_site_fract_z
 _atom_site_occupancy
  Sc  Sc0  1  0.379969  0.969587  0.250031  1
  Sc  Sc1  1  0.589612  0.620029  0.250028  1
  Sc  Sc2  1  0.030411  0.410378  0.250027  1
  Sc  Sc3  1  0.378296  0.966597  0.749969  1
  Sc  Sc4  1  0.588293  0.621700  0.749967  1
  Sc  Sc5  1  0.033411  0.411704  0.749968  1
  Co  Co6  1  0.333329  0.666662  0.001619  1
  Co  Co7  1  0.333328  0.666661  0.498376  1
  Co  Co8  1  0.000001  0.000002  0.250011  1
  Co  Co9  1  0.000000  0.000001  0.749987  1
  Sn  Sn10  1  0.739319  0.993142  0.000302  1
  Sn  Sn11  1  0.253846  0.260678  0.499705  1
  Sn  Sn12  1  0.006851  0.746167  0.499699  1
  Sn  Sn13  1  0.006869  0.746194  0.000307  1
  Sn  Sn14  1  0.253815  0.260671  0.000308  1
  Sn  Sn15  1  0.739315  0.993154  0.499692  1
  Hg  Hg16  1  0.666670  0.333337  0.994648  1
  Hg  Hg17  1  0.666667  0.333335  0.505355  1
