# generated using pymatgen
data_Y3Er3Th2(MgCo)2
_symmetry_space_group_name_H-M   'P 1'
_cell_length_a   9.65324887
_cell_length_b   9.65324864
_cell_length_c   9.65325000
_cell_angle_alpha   60.00000218
_cell_angle_beta   60.00000298
_cell_angle_gamma   60.00000712
_symmetry_Int_Tables_number   1
_chemical_formula_structural   Y3Er3Th2(MgCo)2
_chemical_formula_sum   'Y6 Er6 Th4 Mg4 Co4'
_cell_volume   636.07099376
_cell_formula_units_Z   2
loop_
 _symmetry_equiv_pos_site_id
 _symmetry_equiv_pos_as_xyz
  1  'x, y, z'
loop_
 _atom_site_type_symbol
 _atom_site_label
 _atom_site_symmetry_multiplicity
 _atom_site_fract_x
 _atom_site_fract_y
 _atom_site_fract_z
 _atom_site_occupancy
  Y  Y0  1  0.936465  0.563535  0.563535  1
  Y  Y1  1  0.563535  0.936465  0.936465  1
  Y  Y2  1  0.563535  0.936465  0.563535  1
  Y  Y3  1  0.936465  0.563535  0.936465  1
  Y  Y4  1  0.563535  0.563535  0.936465  1
  Y  Y5  1  0.936465  0.936465  0.563535  1
  Er  Er6  1  0.814385  0.185615  0.185615  1
  Er  Er7  1  0.185615  0.814385  0.814385  1
  Er  Er8  1  0.185615  0.814385  0.185615  1
  Er  Er9  1  0.814385  0.185615  0.814385  1
  Er  Er10  1  0.185615  0.185615  0.814385  1
  Er  Er11  1  0.814385  0.814385  0.185615  1
  Th  Th12  1  0.344295  0.344295  0.344295  1
  Th  Th13  1  0.344295  0.344295  0.967116  1
  Th  Th14  1  0.344295  0.967116  0.344295  1
  Th  Th15  1  0.967116  0.344295  0.344295  1
  Mg  Mg16  1  0.579482  0.579482  0.579482  1
  Mg  Mg17  1  0.579482  0.579482  0.261552  1
  Mg  Mg18  1  0.579482  0.261552  0.579482  1
  Mg  Mg19  1  0.261552  0.579482  0.579482  1
  Co  Co20  1  0.144784  0.144784  0.144784  1
  Co  Co21  1  0.144784  0.144784  0.565646  1
  Co  Co22  1  0.144784  0.565646  0.144784  1
  Co  Co23  1  0.565646  0.144784  0.144784  1
