# generated using pymatgen
data_Dy2Lu2Pa(FeB3)2
_symmetry_space_group_name_H-M   'P 1'
_cell_length_a   5.40693717
_cell_length_b   5.40693619
_cell_length_c   7.87787720
_cell_angle_alpha   69.92973833
_cell_angle_beta   69.92974577
_cell_angle_gamma   59.99997967
_symmetry_Int_Tables_number   1
_chemical_formula_structural   Dy2Lu2Pa(FeB3)2
_chemical_formula_sum   'Dy2 Lu2 Pa1 Fe2 B6'
_cell_volume   183.12609156
_cell_formula_units_Z   1
loop_
 _symmetry_equiv_pos_site_id
 _symmetry_equiv_pos_as_xyz
  1  'x, y, z'
loop_
 _atom_site_type_symbol
 _atom_site_label
 _atom_site_symmetry_multiplicity
 _atom_site_fract_x
 _atom_site_fract_y
 _atom_site_fract_z
 _atom_site_occupancy
  Dy  Dy0  1  0.411537  0.411537  0.765389  1
  Dy  Dy1  1  0.588463  0.588463  0.234611  1
  Lu  Lu2  1  0.252183  0.252183  0.243452  1
  Lu  Lu3  1  0.747817  0.747817  0.756548  1
  Pa  Pa4  1  0.000000  0.000000  0.000000  1
  Fe  Fe5  1  0.107808  0.107808  0.676578  1
  Fe  Fe6  1  0.892192  0.892192  0.323422  1
  B  B7  1  0.167077  0.832923  0.500000  1
  B  B8  1  0.832923  0.500000  0.500000  1
  B  B9  1  0.500000  0.167077  0.500000  1
  B  B10  1  0.167077  0.500000  0.500000  1
  B  B11  1  0.500000  0.832923  0.500000  1
  B  B12  1  0.832923  0.167077  0.500000  1
