# generated using pymatgen
data_Er9Mg(Co2Rh)2
_symmetry_space_group_name_H-M   'P 1'
_cell_length_a   7.13193588
_cell_length_b   7.13193579
_cell_length_c   8.55956000
_cell_angle_alpha   114.62051912
_cell_angle_beta   114.62051877
_cell_angle_gamma   90.00000404
_symmetry_Int_Tables_number   1
_chemical_formula_structural   Er9Mg(Co2Rh)2
_chemical_formula_sum   'Er9 Mg1 Co4 Rh2'
_cell_volume   351.78910472
_cell_formula_units_Z   1
loop_
 _symmetry_equiv_pos_site_id
 _symmetry_equiv_pos_as_xyz
  1  'x, y, z'
loop_
 _atom_site_type_symbol
 _atom_site_label
 _atom_site_symmetry_multiplicity
 _atom_site_fract_x
 _atom_site_fract_y
 _atom_site_fract_z
 _atom_site_occupancy
  Er  Er0  1  0.000000  0.000000  0.000000  1
  Er  Er1  1  0.463358  0.321072  0.275018  1
  Er  Er2  1  0.953947  0.463358  0.275018  1
  Er  Er3  1  0.321072  0.811658  0.275018  1
  Er  Er4  1  0.811658  0.953947  0.275018  1
  Er  Er5  1  0.188341  0.046054  0.724981  1
  Er  Er6  1  0.678927  0.188341  0.724981  1
  Er  Er7  1  0.046054  0.536641  0.724981  1
  Er  Er8  1  0.536641  0.678927  0.724981  1
  Mg  Mg9  1  0.500000  0.500000  0.000000  1
  Co  Co10  1  0.613582  0.111917  0.000000  1
  Co  Co11  1  0.111917  0.386419  0.000000  1
  Co  Co12  1  0.888083  0.613582  0.000000  1
  Co  Co13  1  0.386419  0.888083  0.000000  1
  Rh  Rh14  1  0.247502  0.247502  0.495003  1
  Rh  Rh15  1  0.752498  0.752498  0.504997  1
