# generated using pymatgen
data_Sm7Pa(Pt2Pb)4
_symmetry_space_group_name_H-M   'P 1'
_cell_length_a   8.08508839
_cell_length_b   8.08508899
_cell_length_c   7.30366500
_cell_angle_alpha   90.00000000
_cell_angle_beta   90.00000000
_cell_angle_gamma   88.76346335
_symmetry_Int_Tables_number   1
_chemical_formula_structural   Sm7Pa(Pt2Pb)4
_chemical_formula_sum   'Sm7 Pa1 Pt8 Pb4'
_cell_volume   477.31960591
_cell_formula_units_Z   1
loop_
 _symmetry_equiv_pos_site_id
 _symmetry_equiv_pos_as_xyz
  1  'x, y, z'
loop_
 _atom_site_type_symbol
 _atom_site_label
 _atom_site_symmetry_multiplicity
 _atom_site_fract_x
 _atom_site_fract_y
 _atom_site_fract_z
 _atom_site_occupancy
  Sm  Sm0  1  0.673572  0.667778  0.000000  1
  Sm  Sm1  1  0.331011  0.333705  0.500000  1
  Sm  Sm2  1  0.830308  0.169692  0.500000  1
  Sm  Sm3  1  0.666295  0.668989  0.500000  1
  Sm  Sm4  1  0.332222  0.326428  0.000000  1
  Sm  Sm5  1  0.171758  0.828242  0.500000  1
  Sm  Sm6  1  0.828478  0.171522  0.000000  1
  Pa  Pa7  1  0.164562  0.835438  0.000000  1
  Pt  Pt8  1  0.882123  0.868691  0.755279  1
  Pt  Pt9  1  0.131309  0.117877  0.755279  1
  Pt  Pt10  1  0.621391  0.378609  0.749152  1
  Pt  Pt11  1  0.621391  0.378609  0.250848  1
  Pt  Pt12  1  0.363341  0.636659  0.228238  1
  Pt  Pt13  1  0.131309  0.117877  0.244721  1
  Pt  Pt14  1  0.882123  0.868691  0.244721  1
  Pt  Pt15  1  0.363341  0.636659  0.771762  1
  Pb  Pb16  1  0.503866  0.001133  0.749412  1
  Pb  Pb17  1  0.503866  0.001133  0.250588  1
  Pb  Pb18  1  0.998867  0.496134  0.749412  1
  Pb  Pb19  1  0.998867  0.496134  0.250588  1
