# generated using pymatgen
data_Tb4Y5Lu3Ga20
_symmetry_space_group_name_H-M   'P 1'
_cell_length_a   6.08593557
_cell_length_b   9.61243700
_cell_length_c   11.50450320
_cell_angle_alpha   90.00313659
_cell_angle_beta   90.01430862
_cell_angle_gamma   90.00180912
_symmetry_Int_Tables_number   1
_chemical_formula_structural   Tb4Y5Lu3Ga20
_chemical_formula_sum   'Tb4 Y5 Lu3 Ga20'
_cell_volume   673.02114912
_cell_formula_units_Z   1
loop_
 _symmetry_equiv_pos_site_id
 _symmetry_equiv_pos_as_xyz
  1  'x, y, z'
loop_
 _atom_site_type_symbol
 _atom_site_label
 _atom_site_symmetry_multiplicity
 _atom_site_fract_x
 _atom_site_fract_y
 _atom_site_fract_z
 _atom_site_occupancy
  Tb  Tb0  1  0.891150  0.509043  0.351408  1
  Tb  Tb1  1  0.608813  0.991158  0.850459  1
  Tb  Tb2  1  0.109342  0.010173  0.648540  1
  Tb  Tb3  1  0.389815  0.490515  0.148690  1
  Y  Y4  1  0.849300  0.749960  0.075498  1
  Y  Y5  1  0.109273  0.489875  0.648673  1
  Y  Y6  1  0.389852  0.009404  0.148815  1
  Y  Y7  1  0.891203  0.990995  0.351259  1
  Y  Y8  1  0.608784  0.508796  0.850333  1
  Lu  Lu9  1  0.651814  0.750057  0.574593  1
  Lu  Lu10  1  0.150976  0.249947  0.924841  1
  Lu  Lu11  1  0.348912  0.250046  0.424964  1
  Ga  Ga12  1  0.874952  0.055468  0.089412  1
  Ga  Ga13  1  0.624474  0.446662  0.589061  1
  Ga  Ga14  1  0.124085  0.552134  0.909865  1
  Ga  Ga15  1  0.375663  0.947546  0.411282  1
  Ga  Ga16  1  0.123950  0.947829  0.909875  1
  Ga  Ga17  1  0.375820  0.552509  0.411286  1
  Ga  Ga18  1  0.875116  0.444491  0.089427  1
  Ga  Ga19  1  0.624329  0.053384  0.589044  1
  Ga  Ga20  1  0.174846  0.750015  0.253524  1
  Ga  Ga21  1  0.329532  0.749986  0.750808  1
  Ga  Ga22  1  0.829430  0.250020  0.747949  1
  Ga  Ga23  1  0.670638  0.249992  0.248248  1
  Ga  Ga24  1  0.372563  0.750023  0.002381  1
  Ga  Ga25  1  0.124967  0.749964  0.504564  1
  Ga  Ga26  1  0.622248  0.250026  0.996023  1
  Ga  Ga27  1  0.875882  0.249971  0.496282  1
  Ga  Ga28  1  0.601386  0.750019  0.301856  1
  Ga  Ga29  1  0.899386  0.749980  0.797693  1
  Ga  Ga30  1  0.399427  0.250026  0.701436  1
  Ga  Ga31  1  0.102076  0.249985  0.201913  1
