# generated using pymatgen
data_Sm3LuMn4F28
_symmetry_space_group_name_H-M   'P 1'
_cell_length_a   5.48217149
_cell_length_b   8.84257623
_cell_length_c   11.85140300
_cell_angle_alpha   62.21245483
_cell_angle_beta   90.05460801
_cell_angle_gamma   90.02506269
_symmetry_Int_Tables_number   1
_chemical_formula_structural   Sm3LuMn4F28
_chemical_formula_sum   'Sm3 Lu1 Mn4 F28'
_cell_volume   508.26283499
_cell_formula_units_Z   1
loop_
 _symmetry_equiv_pos_site_id
 _symmetry_equiv_pos_as_xyz
  1  'x, y, z'
loop_
 _atom_site_type_symbol
 _atom_site_label
 _atom_site_symmetry_multiplicity
 _atom_site_fract_x
 _atom_site_fract_y
 _atom_site_fract_z
 _atom_site_occupancy
  Sm  Sm0  1  0.260943  0.185855  0.735929  1
  Sm  Sm1  1  0.239251  0.190509  0.235421  1
  Sm  Sm2  1  0.738613  0.808053  0.264124  1
  Lu  Lu3  1  0.764671  0.808382  0.763909  1
  Mn  Mn4  1  0.757957  0.279553  0.954605  1
  Mn  Mn5  1  0.261100  0.726910  0.547872  1
  Mn  Mn6  1  0.240945  0.725713  0.038252  1
  Mn  Mn7  1  0.743774  0.270950  0.459252  1
  F  F8  1  0.434340  0.706060  0.919663  1
  F  F9  1  0.930571  0.291528  0.580032  1
  F  F10  1  0.569499  0.296196  0.076346  1
  F  F11  1  0.067072  0.707604  0.428637  1
  F  F12  1  0.459850  0.280521  0.540181  1
  F  F13  1  0.957609  0.719673  0.953141  1
  F  F14  1  0.538628  0.717766  0.462650  1
  F  F15  1  0.040786  0.286473  0.037037  1
  F  F16  1  0.767207  0.516617  0.860561  1
  F  F17  1  0.271477  0.491972  0.640941  1
  F  F18  1  0.227021  0.491356  0.133653  1
  F  F19  1  0.731656  0.506889  0.365177  1
  F  F20  1  0.760050  0.045172  0.045010  1
  F  F21  1  0.261035  0.960526  0.455431  1
  F  F22  1  0.241336  0.959997  0.950917  1
  F  F23  1  0.742246  0.037143  0.549133  1
  F  F24  1  0.987187  0.730986  0.638485  1
  F  F25  1  0.482517  0.273058  0.867893  1
  F  F26  1  0.021289  0.270542  0.372097  1
  F  F27  1  0.514991  0.727671  0.127984  1
  F  F28  1  0.051536  0.741150  0.162820  1
  F  F29  1  0.558750  0.257470  0.333364  1
  F  F30  1  0.943658  0.263014  0.830271  1
  F  F31  1  0.458454  0.745951  0.669578  1
  F  F32  1  0.398146  0.964955  0.226461  1
  F  F33  1  0.898922  0.033317  0.272858  1
  F  F34  1  0.595822  0.017712  0.771101  1
  F  F35  1  0.081090  0.962758  0.729214  1
