# generated using pymatgen
data_SmPdPt4
_symmetry_space_group_name_H-M   'P 1'
_cell_length_a   5.36635769
_cell_length_b   5.36635800
_cell_length_c   5.36635800
_cell_angle_alpha   60.00000000
_cell_angle_beta   59.99999811
_cell_angle_gamma   60.00000063
_symmetry_Int_Tables_number   1
_chemical_formula_structural   SmPdPt4
_chemical_formula_sum   'Sm1 Pd1 Pt4'
_cell_volume   109.27577592
_cell_formula_units_Z   1
loop_
 _symmetry_equiv_pos_site_id
 _symmetry_equiv_pos_as_xyz
  1  'x, y, z'
loop_
 _atom_site_type_symbol
 _atom_site_label
 _atom_site_symmetry_multiplicity
 _atom_site_fract_x
 _atom_site_fract_y
 _atom_site_fract_z
 _atom_site_occupancy
  Sm  Sm0  1  0.000000  0.000000  0.000000  1
  Pd  Pd1  1  0.250000  0.250000  0.250000  1
  Pt  Pt2  1  0.624601  0.624601  0.126197  1
  Pt  Pt3  1  0.624601  0.126197  0.624601  1
  Pt  Pt4  1  0.126197  0.624601  0.624601  1
  Pt  Pt5  1  0.624601  0.624601  0.624601  1
