# generated using pymatgen
data_Nd3Np(TcB4)4
_symmetry_space_group_name_H-M   'P 1'
_cell_length_a   3.65783100
_cell_length_b   6.03092689
_cell_length_c   11.66762008
_cell_angle_alpha   89.78222229
_cell_angle_beta   90.00000000
_cell_angle_gamma   90.00000000
_symmetry_Int_Tables_number   1
_chemical_formula_structural   Nd3Np(TcB4)4
_chemical_formula_sum   'Nd3 Np1 Tc4 B16'
_cell_volume   257.38713858
_cell_formula_units_Z   1
loop_
 _symmetry_equiv_pos_site_id
 _symmetry_equiv_pos_as_xyz
  1  'x, y, z'
loop_
 _atom_site_type_symbol
 _atom_site_label
 _atom_site_symmetry_multiplicity
 _atom_site_fract_x
 _atom_site_fract_y
 _atom_site_fract_z
 _atom_site_occupancy
  Nd  Nd0  1  0.000000  0.625818  0.349282  1
  Nd  Nd1  1  0.000000  0.374084  0.650497  1
  Nd  Nd2  1  0.000000  0.127155  0.149881  1
  Np  Np3  1  0.000000  0.872547  0.850416  1
  Tc  Tc4  1  0.000000  0.639368  0.082705  1
  Tc  Tc5  1  0.000000  0.362072  0.907862  1
  Tc  Tc6  1  0.000000  0.131406  0.414570  1
  Tc  Tc7  1  0.000000  0.869090  0.592740  1
  B  B8  1  0.500000  0.782179  0.183333  1
  B  B9  1  0.500000  0.207091  0.816273  1
  B  B10  1  0.500000  0.283205  0.316392  1
  B  B11  1  0.500000  0.717830  0.689010  1
  B  B12  1  0.500000  0.863579  0.028168  1
  B  B13  1  0.500000  0.133819  0.965566  1
  B  B14  1  0.500000  0.360979  0.468763  1
  B  B15  1  0.500000  0.640439  0.533398  1
  B  B16  1  0.500000  0.888650  0.455240  1
  B  B17  1  0.500000  0.110770  0.546968  1
  B  B18  1  0.500000  0.390146  0.044122  1
  B  B19  1  0.500000  0.616321  0.951374  1
  B  B20  1  0.500000  0.976580  0.310353  1
  B  B21  1  0.500000  0.019382  0.694958  1
  B  B22  1  0.500000  0.476315  0.188432  1
  B  B23  1  0.500000  0.531175  0.809696  1
