# generated using pymatgen
data_Er3AlC3
_symmetry_space_group_name_H-M   'P 1'
_cell_length_a   3.52772800
_cell_length_b   6.95240000
_cell_length_c   9.90674000
_cell_angle_alpha   90.00000000
_cell_angle_beta   90.00000000
_cell_angle_gamma   90.00000000
_symmetry_Int_Tables_number   1
_chemical_formula_structural   Er3AlC3
_chemical_formula_sum   'Er6 Al2 C6'
_cell_volume   242.97445028
_cell_formula_units_Z   2
loop_
 _symmetry_equiv_pos_site_id
 _symmetry_equiv_pos_as_xyz
  1  'x, y, z'
loop_
 _atom_site_type_symbol
 _atom_site_label
 _atom_site_symmetry_multiplicity
 _atom_site_fract_x
 _atom_site_fract_y
 _atom_site_fract_z
 _atom_site_occupancy
  Er  Er0  1  0.500000  0.509771  0.200248  1
  Er  Er1  1  0.500000  0.490229  0.799752  1
  Er  Er2  1  0.500000  0.990229  0.200248  1
  Er  Er3  1  0.500000  0.009771  0.799752  1
  Er  Er4  1  0.000000  0.750000  0.457796  1
  Er  Er5  1  0.000000  0.250000  0.542204  1
  Al  Al6  1  0.000000  0.750000  0.005012  1
  Al  Al7  1  0.000000  0.250000  0.994988  1
  C  C8  1  0.500000  0.509875  0.566774  1
  C  C9  1  0.500000  0.490125  0.433226  1
  C  C10  1  0.500000  0.990125  0.566774  1
  C  C11  1  0.500000  0.009875  0.433226  1
  C  C12  1  0.000000  0.750000  0.208864  1
  C  C13  1  0.000000  0.250000  0.791136  1
