# generated using pymatgen
data_DyErCdCuNi
_symmetry_space_group_name_H-M   'P 1'
_cell_length_a   7.48731485
_cell_length_b   7.48731476
_cell_length_c   3.61346100
_cell_angle_alpha   90.00000000
_cell_angle_beta   90.00000000
_cell_angle_gamma   91.30145260
_symmetry_Int_Tables_number   1
_chemical_formula_structural   DyErCdCuNi
_chemical_formula_sum   'Dy2 Er2 Cd2 Cu2 Ni2'
_cell_volume   202.51794461
_cell_formula_units_Z   2
loop_
 _symmetry_equiv_pos_site_id
 _symmetry_equiv_pos_as_xyz
  1  'x, y, z'
loop_
 _atom_site_type_symbol
 _atom_site_label
 _atom_site_symmetry_multiplicity
 _atom_site_fract_x
 _atom_site_fract_y
 _atom_site_fract_z
 _atom_site_occupancy
  Dy  Dy0  1  0.684815  0.184815  0.500000  1
  Dy  Dy1  1  0.315185  0.815185  0.500000  1
  Er  Er2  1  0.165743  0.334257  0.500000  1
  Er  Er3  1  0.834257  0.665743  0.500000  1
  Cd  Cd4  1  0.000000  0.000000  0.000000  1
  Cd  Cd5  1  0.500000  0.500000  0.000000  1
  Cu  Cu6  1  0.619753  0.880247  0.000000  1
  Cu  Cu7  1  0.380247  0.119753  0.000000  1
  Ni  Ni8  1  0.118288  0.618288  0.000000  1
  Ni  Ni9  1  0.881712  0.381712  0.000000  1
