# generated using pymatgen
data_Tb3YTcB12Os
_symmetry_space_group_name_H-M   'P 1'
_cell_length_a   3.68333500
_cell_length_b   9.18443358
_cell_length_c   11.57636900
_cell_angle_alpha   89.92698861
_cell_angle_beta   90.00000000
_cell_angle_gamma   90.00000000
_symmetry_Int_Tables_number   1
_chemical_formula_structural   Tb3YTcB12Os
_chemical_formula_sum   'Tb6 Y2 Tc2 B24 Os2'
_cell_volume   391.62067058
_cell_formula_units_Z   2
loop_
 _symmetry_equiv_pos_site_id
 _symmetry_equiv_pos_as_xyz
  1  'x, y, z'
loop_
 _atom_site_type_symbol
 _atom_site_label
 _atom_site_symmetry_multiplicity
 _atom_site_fract_x
 _atom_site_fract_y
 _atom_site_fract_z
 _atom_site_occupancy
  Tb  Tb0  1  0.000000  0.325168  0.415133  1
  Tb  Tb1  1  0.000000  0.674832  0.584867  1
  Tb  Tb2  1  0.000000  0.821490  0.087356  1
  Tb  Tb3  1  0.000000  0.178510  0.912644  1
  Tb  Tb4  1  0.000000  0.941628  0.370817  1
  Tb  Tb5  1  0.000000  0.058372  0.629183  1
  Y  Y6  1  0.000000  0.443791  0.129682  1
  Y  Y7  1  0.000000  0.556209  0.870318  1
  Tc  Tc8  1  0.000000  0.638214  0.320352  1
  Tc  Tc9  1  0.000000  0.361786  0.679648  1
  B  B10  1  0.500000  0.553161  0.432691  1
  B  B11  1  0.500000  0.446839  0.567309  1
  B  B12  1  0.500000  0.053815  0.067311  1
  B  B13  1  0.500000  0.946185  0.932689  1
  B  B14  1  0.500000  0.747519  0.418698  1
  B  B15  1  0.500000  0.252481  0.581302  1
  B  B16  1  0.500000  0.248184  0.081453  1
  B  B17  1  0.500000  0.751816  0.918547  1
  B  B18  1  0.500000  0.790680  0.265765  1
  B  B19  1  0.500000  0.209320  0.734235  1
  B  B20  1  0.500000  0.290349  0.233883  1
  B  B21  1  0.500000  0.709651  0.766117  1
  B  B22  1  0.500000  0.631536  0.185696  1
  B  B23  1  0.500000  0.368464  0.814304  1
  B  B24  1  0.500000  0.131259  0.313366  1
  B  B25  1  0.500000  0.868741  0.686634  1
  B  B26  1  0.500000  0.983586  0.211906  1
  B  B27  1  0.500000  0.016414  0.788094  1
  B  B28  1  0.500000  0.483230  0.287613  1
  B  B29  1  0.500000  0.516770  0.712387  1
  B  B30  1  0.500000  0.604419  0.028802  1
  B  B31  1  0.500000  0.395581  0.971198  1
  B  B32  1  0.500000  0.104767  0.470666  1
  B  B33  1  0.500000  0.895233  0.529334  1
  Os  Os34  1  0.000000  0.137548  0.177985  1
  Os  Os35  1  0.000000  0.862452  0.822015  1
