# generated using pymatgen
data_Dy6HoCo6Sn22Hg
_symmetry_space_group_name_H-M   'P 1'
_cell_length_a   9.68100700
_cell_length_b   9.68100526
_cell_length_c   10.01510600
_cell_angle_alpha   89.99787252
_cell_angle_beta   90.00212940
_cell_angle_gamma   120.00032543
_symmetry_Int_Tables_number   1
_chemical_formula_structural   Dy6HoCo6Sn22Hg
_chemical_formula_sum   'Dy6 Ho1 Co6 Sn22 Hg1'
_cell_volume   812.87870784
_cell_formula_units_Z   1
loop_
 _symmetry_equiv_pos_site_id
 _symmetry_equiv_pos_as_xyz
  1  'x, y, z'
loop_
 _atom_site_type_symbol
 _atom_site_label
 _atom_site_symmetry_multiplicity
 _atom_site_fract_x
 _atom_site_fract_y
 _atom_site_fract_z
 _atom_site_occupancy
  Dy  Dy0  1  0.999999  0.000001  0.000004  1
  Dy  Dy1  1  0.520706  0.479294  0.693580  1
  Dy  Dy2  1  0.520706  0.041413  0.693597  1
  Dy  Dy3  1  0.958587  0.479294  0.693597  1
  Dy  Dy4  1  0.041410  0.520705  0.306401  1
  Dy  Dy5  1  0.479295  0.958590  0.306401  1
  Ho  Ho6  1  0.479312  0.520688  0.306407  1
  Co  Co7  1  0.168084  0.831916  0.802992  1
  Co  Co8  1  0.168083  0.336167  0.802991  1
  Co  Co9  1  0.663833  0.831917  0.802991  1
  Co  Co10  1  0.336181  0.168121  0.197022  1
  Co  Co11  1  0.831879  0.663819  0.197022  1
  Co  Co12  1  0.831918  0.168082  0.197010  1
  Sn  Sn13  1  0.666656  0.333344  0.181486  1
  Sn  Sn14  1  0.666666  0.333334  0.879876  1
  Sn  Sn15  1  0.333367  0.666633  0.120166  1
  Sn  Sn16  1  0.346383  0.346379  0.000016  1
  Sn  Sn17  1  0.999992  0.653628  0.000001  1
  Sn  Sn18  1  0.653631  0.000000  0.000002  1
  Sn  Sn19  1  0.653621  0.653617  0.000016  1
  Sn  Sn20  1  0.333334  0.666666  0.818515  1
  Sn  Sn21  1  0.435147  0.217628  0.453411  1
  Sn  Sn22  1  0.217572  0.782428  0.546560  1
  Sn  Sn23  1  0.217598  0.435147  0.546533  1
  Sn  Sn24  1  0.564853  0.782402  0.546533  1
  Sn  Sn25  1  0.116839  0.883161  0.269921  1
  Sn  Sn26  1  0.782372  0.564853  0.453411  1
  Sn  Sn27  1  0.782428  0.217572  0.453439  1
  Sn  Sn28  1  0.346372  0.000008  0.000001  1
  Sn  Sn29  1  0.116884  0.233711  0.269925  1
  Sn  Sn30  1  0.766289  0.883116  0.269925  1
  Sn  Sn31  1  0.233680  0.116840  0.730082  1
  Sn  Sn32  1  0.883160  0.766320  0.730082  1
  Sn  Sn33  1  0.883159  0.116841  0.730080  1
  Sn  Sn34  1  0.000000  0.346369  0.000002  1
  Hg  Hg35  1  0.000000  0.000000  0.499997  1
