# generated using pymatgen
data_Ca3Zr2Ga2GeO12
_symmetry_space_group_name_H-M   'P 1'
_cell_length_a   11.08990863
_cell_length_b   11.08990976
_cell_length_c   11.08990971
_cell_angle_alpha   109.23235380
_cell_angle_beta   109.23235783
_cell_angle_gamma   109.95001642
_symmetry_Int_Tables_number   1
_chemical_formula_structural   Ca3Zr2Ga2GeO12
_chemical_formula_sum   'Ca12 Zr8 Ga8 Ge4 O48'
_cell_volume   1049.87916638
_cell_formula_units_Z   4
loop_
 _symmetry_equiv_pos_site_id
 _symmetry_equiv_pos_as_xyz
  1  'x, y, z'
loop_
 _atom_site_type_symbol
 _atom_site_label
 _atom_site_symmetry_multiplicity
 _atom_site_fract_x
 _atom_site_fract_y
 _atom_site_fract_z
 _atom_site_occupancy
  Ca  Ca0  1  0.750000  0.750000  0.000000  1
  Ca  Ca1  1  0.875000  0.250313  0.875313  1
  Ca  Ca2  1  0.500313  0.125000  0.875313  1
  Ca  Ca3  1  0.250000  0.250000  0.000000  1
  Ca  Ca4  1  0.875000  0.750313  0.375313  1
  Ca  Ca5  1  0.249687  0.625000  0.124687  1
  Ca  Ca6  1  0.000313  0.125000  0.375313  1
  Ca  Ca7  1  0.000000  0.500000  0.500000  1
  Ca  Ca8  1  0.375000  0.999687  0.124687  1
  Ca  Ca9  1  0.749687  0.625000  0.624687  1
  Ca  Ca10  1  0.375000  0.499687  0.624687  1
  Ca  Ca11  1  0.500000  0.000000  0.500000  1
  Zr  Zr12  1  0.125000  0.375000  0.750000  1
  Zr  Zr13  1  0.625000  0.875000  0.250000  1
  Zr  Zr14  1  0.125000  0.875000  0.750000  1
  Zr  Zr15  1  0.625000  0.375000  0.250000  1
  Zr  Zr16  1  0.125000  0.375000  0.250000  1
  Zr  Zr17  1  0.125000  0.875000  0.250000  1
  Zr  Zr18  1  0.625000  0.875000  0.750000  1
  Zr  Zr19  1  0.625000  0.375000  0.750000  1
  Ga  Ga20  1  0.000439  0.625000  0.875439  1
  Ga  Ga21  1  0.375000  0.750439  0.875439  1
  Ga  Ga22  1  0.875000  0.499561  0.124561  1
  Ga  Ga23  1  0.749561  0.125000  0.124561  1
  Ga  Ga24  1  0.500439  0.625000  0.375439  1
  Ga  Ga25  1  0.375000  0.250439  0.375439  1
  Ga  Ga26  1  0.875000  0.999561  0.624561  1
  Ga  Ga27  1  0.249561  0.125000  0.624561  1
  Ge  Ge28  1  0.000000  0.000000  0.000000  1
  Ge  Ge29  1  0.500000  0.500000  0.000000  1
  Ge  Ge30  1  0.250000  0.750000  0.500000  1
  Ge  Ge31  1  0.750000  0.250000  0.500000  1
  O  O32  1  0.817099  0.860849  0.855240  1
  O  O33  1  0.026581  0.192231  0.775092  1
  O  O34  1  0.043104  0.474938  0.872219  1
  O  O35  1  0.807769  0.582861  0.834351  1
  O  O36  1  0.526581  0.751490  0.834351  1
  O  O37  1  0.538142  0.494391  0.855240  1
  O  O38  1  0.724938  0.352718  0.931835  1
  O  O39  1  0.917139  0.692231  0.165649  1
  O  O40  1  0.025062  0.456896  0.127781  1
  O  O41  1  0.038142  0.182901  0.043750  1
  O  O42  1  0.420883  0.793104  0.068165  1
  O  O43  1  0.248510  0.082861  0.775092  1
  O  O44  1  0.706896  0.079117  0.931835  1
  O  O45  1  0.317099  0.461858  0.956250  1
  O  O46  1  0.639151  0.682901  0.144760  1
  O  O47  1  0.505609  0.360849  0.043750  1
  O  O48  1  0.147282  0.775062  0.068165  1
  O  O49  1  0.329117  0.897282  0.872219  1
  O  O50  1  0.005609  0.961858  0.144760  1
  O  O51  1  0.832861  0.498510  0.275092  1
  O  O52  1  0.942231  0.276581  0.275092  1
  O  O53  1  0.602718  0.170883  0.127781  1
  O  O54  1  0.501490  0.776581  0.334351  1
  O  O55  1  0.139151  0.994391  0.956250  1
  O  O56  1  0.110849  0.755609  0.543750  1
  O  O57  1  0.748510  0.973419  0.165649  1
  O  O58  1  0.647282  0.579117  0.372219  1
  O  O59  1  0.307769  0.473419  0.224908  1
  O  O60  1  0.417139  0.251490  0.224908  1
  O  O61  1  0.244391  0.788142  0.355240  1
  O  O62  1  0.920883  0.852718  0.627781  1
  O  O63  1  0.102718  0.974938  0.431835  1
  O  O64  1  0.744391  0.389151  0.456250  1
  O  O65  1  0.610849  0.067099  0.355240  1
  O  O66  1  0.932901  0.288142  0.543750  1
  O  O67  1  0.543104  0.670883  0.568165  1
  O  O68  1  0.001490  0.667139  0.724908  1
  O  O69  1  0.829117  0.956896  0.431835  1
  O  O70  1  0.224938  0.293104  0.372219  1
  O  O71  1  0.211858  0.567099  0.456250  1
  O  O72  1  0.332861  0.057769  0.334351  1
  O  O73  1  0.525062  0.397282  0.568165  1
  O  O74  1  0.711858  0.255609  0.644760  1
  O  O75  1  0.723419  0.998510  0.665649  1
  O  O76  1  0.442231  0.167139  0.665649  1
  O  O77  1  0.206896  0.275062  0.627781  1
  O  O78  1  0.223419  0.557769  0.724908  1
  O  O79  1  0.432901  0.889151  0.644760  1
