# generated using pymatgen
data_Ce3Dy(B2Os)4
_symmetry_space_group_name_H-M   'P 1'
_cell_length_a   5.89646344
_cell_length_b   5.36052900
_cell_length_c   6.49118567
_cell_angle_alpha   90.00000000
_cell_angle_beta   89.84648861
_cell_angle_gamma   90.00000000
_symmetry_Int_Tables_number   1
_chemical_formula_structural   Ce3Dy(B2Os)4
_chemical_formula_sum   'Ce3 Dy1 B8 Os4'
_cell_volume   205.17371981
_cell_formula_units_Z   1
loop_
 _symmetry_equiv_pos_site_id
 _symmetry_equiv_pos_as_xyz
  1  'x, y, z'
loop_
 _atom_site_type_symbol
 _atom_site_label
 _atom_site_symmetry_multiplicity
 _atom_site_fract_x
 _atom_site_fract_y
 _atom_site_fract_z
 _atom_site_occupancy
  Ce  Ce0  1  0.002952  0.250000  0.339238  1
  Ce  Ce1  1  0.504003  0.250000  0.164070  1
  Ce  Ce2  1  0.994663  0.750000  0.658232  1
  Dy  Dy3  1  0.494877  0.750000  0.838519  1
  B  B4  1  0.370588  0.086550  0.539899  1
  B  B5  1  0.869000  0.415273  0.960956  1
  B  B6  1  0.627944  0.586676  0.463974  1
  B  B7  1  0.132722  0.914217  0.035804  1
  B  B8  1  0.627944  0.913324  0.463974  1
  B  B9  1  0.132722  0.585783  0.035804  1
  B  B10  1  0.370588  0.413450  0.539899  1
  B  B11  1  0.869000  0.084727  0.960956  1
  Os  Os12  1  0.184435  0.250000  0.814065  1
  Os  Os13  1  0.686416  0.250000  0.685597  1
  Os  Os14  1  0.818693  0.750000  0.188294  1
  Os  Os15  1  0.313454  0.750000  0.310717  1
