# generated using pymatgen
data_Er12Th4Mg3InCo4
_symmetry_space_group_name_H-M   'P 1'
_cell_length_a   9.56241841
_cell_length_b   9.56241881
_cell_length_c   9.56241839
_cell_angle_alpha   59.97344557
_cell_angle_beta   59.97344446
_cell_angle_gamma   59.97344129
_symmetry_Int_Tables_number   1
_chemical_formula_structural   Er12Th4Mg3InCo4
_chemical_formula_sum   'Er12 Th4 Mg3 In1 Co4'
_cell_volume   617.91201178
_cell_formula_units_Z   1
loop_
 _symmetry_equiv_pos_site_id
 _symmetry_equiv_pos_as_xyz
  1  'x, y, z'
loop_
 _atom_site_type_symbol
 _atom_site_label
 _atom_site_symmetry_multiplicity
 _atom_site_fract_x
 _atom_site_fract_y
 _atom_site_fract_z
 _atom_site_occupancy
  Er  Er0  1  0.063226  0.436619  0.436619  1
  Er  Er1  1  0.435572  0.063273  0.063273  1
  Er  Er2  1  0.436619  0.063226  0.436619  1
  Er  Er3  1  0.063273  0.435572  0.063273  1
  Er  Er4  1  0.436619  0.436619  0.063226  1
  Er  Er5  1  0.063273  0.063273  0.435572  1
  Er  Er6  1  0.186421  0.814955  0.814955  1
  Er  Er7  1  0.814756  0.184921  0.184921  1
  Er  Er8  1  0.814955  0.186421  0.814955  1
  Er  Er9  1  0.184921  0.814756  0.184921  1
  Er  Er10  1  0.814955  0.814955  0.186421  1
  Er  Er11  1  0.184921  0.184921  0.814756  1
  Th  Th12  1  0.594363  0.594363  0.594363  1
  Th  Th13  1  0.596197  0.596197  0.214160  1
  Th  Th14  1  0.596197  0.214160  0.596197  1
  Th  Th15  1  0.214160  0.596197  0.596197  1
  Mg  Mg16  1  0.829980  0.829980  0.509613  1
  Mg  Mg17  1  0.829980  0.509613  0.829980  1
  Mg  Mg18  1  0.509613  0.829980  0.829980  1
  In  In19  1  0.831713  0.831713  0.831713  1
  Co  Co20  1  0.394014  0.394014  0.394014  1
  Co  Co21  1  0.393832  0.393832  0.816613  1
  Co  Co22  1  0.393832  0.816613  0.393832  1
  Co  Co23  1  0.816613  0.393832  0.393832  1
