# generated using pymatgen
data_Na4PaMoO6
_symmetry_space_group_name_H-M   'P 1'
_cell_length_a   5.79404912
_cell_length_b   5.79405819
_cell_length_c   5.87250622
_cell_angle_alpha   99.22103793
_cell_angle_beta   99.22110066
_cell_angle_gamma   120.12061891
_symmetry_Int_Tables_number   1
_chemical_formula_structural   Na4PaMoO6
_chemical_formula_sum   'Na4 Pa1 Mo1 O6'
_cell_volume   161.49713042
_cell_formula_units_Z   1
loop_
 _symmetry_equiv_pos_site_id
 _symmetry_equiv_pos_as_xyz
  1  'x, y, z'
loop_
 _atom_site_type_symbol
 _atom_site_label
 _atom_site_symmetry_multiplicity
 _atom_site_fract_x
 _atom_site_fract_y
 _atom_site_fract_z
 _atom_site_occupancy
  Na  Na0  1  0.500990  0.499010  0.000000  1
  Na  Na1  1  0.985690  0.014308  0.499999  1
  Na  Na2  1  0.661521  0.338479  0.500001  1
  Na  Na3  1  0.347012  0.652986  0.500001  1
  Pa  Pa4  1  0.167443  0.832556  0.000000  1
  Mo  Mo5  1  0.833463  0.166542  0.000000  1
  O  O6  1  0.570190  0.930982  0.215742  1
  O  O7  1  0.933730  0.570005  0.215207  1
  O  O8  1  0.211491  0.210552  0.217543  1
  O  O9  1  0.789453  0.788511  0.782460  1
  O  O10  1  0.429997  0.066267  0.784792  1
  O  O11  1  0.069026  0.429811  0.784259  1
