# generated using pymatgen
data_Lu4Tc7W
_symmetry_space_group_name_H-M   'P 1'
_cell_length_a   5.41355800
_cell_length_b   5.34574001
_cell_length_c   8.76548100
_cell_angle_alpha   90.00000000
_cell_angle_beta   90.00000000
_cell_angle_gamma   120.42055635
_symmetry_Int_Tables_number   1
_chemical_formula_structural   Lu4Tc7W
_chemical_formula_sum   'Lu4 Tc7 W1'
_cell_volume   218.74639931
_cell_formula_units_Z   1
loop_
 _symmetry_equiv_pos_site_id
 _symmetry_equiv_pos_as_xyz
  1  'x, y, z'
loop_
 _atom_site_type_symbol
 _atom_site_label
 _atom_site_symmetry_multiplicity
 _atom_site_fract_x
 _atom_site_fract_y
 _atom_site_fract_z
 _atom_site_occupancy
  Lu  Lu0  1  0.333594  0.667189  0.436394  1
  Lu  Lu1  1  0.668444  0.336889  0.560177  1
  Lu  Lu2  1  0.668444  0.336889  0.939823  1
  Lu  Lu3  1  0.333594  0.667189  0.063606  1
  Tc  Tc4  1  0.172993  0.829672  0.750000  1
  Tc  Tc5  1  0.342867  0.171083  0.250000  1
  Tc  Tc6  1  0.828217  0.656433  0.250000  1
  Tc  Tc7  1  0.656678  0.829672  0.750000  1
  Tc  Tc8  1  0.000211  0.000423  0.003564  1
  Tc  Tc9  1  0.828217  0.171083  0.250000  1
  Tc  Tc10  1  0.000211  0.000423  0.496436  1
  W  W11  1  0.166529  0.333059  0.750000  1
