# generated using pymatgen
data_Sr4AlRuO8
_symmetry_space_group_name_H-M   'P 1'
_cell_length_a   6.89923265
_cell_length_b   6.89923207
_cell_length_c   5.48814800
_cell_angle_alpha   90.00000000
_cell_angle_beta   90.00000000
_cell_angle_gamma   133.10543957
_symmetry_Int_Tables_number   1
_chemical_formula_structural   Sr4AlRuO8
_chemical_formula_sum   'Sr4 Al1 Ru1 O8'
_cell_volume   190.72523656
_cell_formula_units_Z   1
loop_
 _symmetry_equiv_pos_site_id
 _symmetry_equiv_pos_as_xyz
  1  'x, y, z'
loop_
 _atom_site_type_symbol
 _atom_site_label
 _atom_site_symmetry_multiplicity
 _atom_site_fract_x
 _atom_site_fract_y
 _atom_site_fract_z
 _atom_site_occupancy
  Sr  Sr0  1  0.646991  0.353009  0.000000  1
  Sr  Sr1  1  0.143614  0.856386  0.500000  1
  Sr  Sr2  1  0.856386  0.143614  0.500000  1
  Sr  Sr3  1  0.353009  0.646991  0.000000  1
  Al  Al4  1  0.000000  0.000000  0.000000  1
  Ru  Ru5  1  0.500000  0.500000  0.500000  1
  O  O6  1  0.752410  0.752410  0.248398  1
  O  O7  1  0.247590  0.247590  0.751602  1
  O  O8  1  0.247590  0.247590  0.248398  1
  O  O9  1  0.752410  0.752410  0.751602  1
  O  O10  1  0.846088  0.153912  0.000000  1
  O  O11  1  0.339779  0.660221  0.500000  1
  O  O12  1  0.660221  0.339779  0.500000  1
  O  O13  1  0.153912  0.846088  0.000000  1
