# generated using pymatgen
data_Dy8Ti10ReSi16Au
_symmetry_space_group_name_H-M   'P 1'
_cell_length_a   7.04588603
_cell_length_b   7.04588615
_cell_length_c   12.84712319
_cell_angle_alpha   89.82689950
_cell_angle_beta   90.17310165
_cell_angle_gamma   89.59941785
_symmetry_Int_Tables_number   1
_chemical_formula_structural   Dy8Ti10ReSi16Au
_chemical_formula_sum   'Dy8 Ti10 Re1 Si16 Au1'
_cell_volume   637.76769623
_cell_formula_units_Z   1
loop_
 _symmetry_equiv_pos_site_id
 _symmetry_equiv_pos_as_xyz
  1  'x, y, z'
loop_
 _atom_site_type_symbol
 _atom_site_label
 _atom_site_symmetry_multiplicity
 _atom_site_fract_x
 _atom_site_fract_y
 _atom_site_fract_z
 _atom_site_occupancy
  Dy  Dy0  1  0.999334  0.657853  0.032101  1
  Dy  Dy1  1  0.999504  0.344214  0.531276  1
  Dy  Dy2  1  0.657853  0.999334  0.967899  1
  Dy  Dy3  1  0.160291  0.501031  0.784535  1
  Dy  Dy4  1  0.842122  0.498624  0.284633  1
  Dy  Dy5  1  0.501031  0.160291  0.215465  1
  Dy  Dy6  1  0.498624  0.842122  0.715367  1
  Dy  Dy7  1  0.344214  0.999504  0.468724  1
  Ti  Ti8  1  0.349606  0.504903  0.375066  1
  Ti  Ti9  1  0.851081  0.992742  0.377177  1
  Ti  Ti10  1  0.008160  0.152611  0.124570  1
  Ti  Ti11  1  0.992742  0.851081  0.622823  1
  Ti  Ti12  1  0.504903  0.349606  0.624934  1
  Ti  Ti13  1  0.152611  0.008160  0.875430  1
  Ti  Ti14  1  0.825905  0.174720  0.750356  1
  Ti  Ti15  1  0.174720  0.825905  0.249644  1
  Ti  Ti16  1  0.491990  0.648577  0.124978  1
  Ti  Ti17  1  0.648577  0.491990  0.875022  1
  Re  Re18  1  0.327063  0.327063  0.000000  1
  Si  Si19  1  0.062874  0.714262  0.433780  1
  Si  Si20  1  0.953779  0.289382  0.935407  1
  Si  Si21  1  0.714262  0.062874  0.566220  1
  Si  Si22  1  0.208850  0.450963  0.183843  1
  Si  Si23  1  0.793579  0.545651  0.689623  1
  Si  Si24  1  0.450963  0.208850  0.816157  1
  Si  Si25  1  0.545651  0.793579  0.310377  1
  Si  Si26  1  0.289382  0.953779  0.064593  1
  Si  Si27  1  0.798110  0.867856  0.185041  1
  Si  Si28  1  0.280906  0.626436  0.570289  1
  Si  Si29  1  0.702874  0.369815  0.066640  1
  Si  Si30  1  0.626436  0.280906  0.429711  1
  Si  Si31  1  0.369815  0.702874  0.933360  1
  Si  Si32  1  0.132310  0.201156  0.316661  1
  Si  Si33  1  0.201156  0.132310  0.683339  1
  Si  Si34  1  0.867856  0.798110  0.814959  1
  Au  Au35  1  0.670868  0.670868  0.500000  1
