# generated using pymatgen
data_Ho7Sn22Os6Au
_symmetry_space_group_name_H-M   'P 1'
_cell_length_a   9.82963700
_cell_length_b   9.82963508
_cell_length_c   10.07048600
_cell_angle_alpha   90.00000000
_cell_angle_beta   90.00000000
_cell_angle_gamma   119.99999637
_symmetry_Int_Tables_number   1
_chemical_formula_structural   Ho7Sn22Os6Au
_chemical_formula_sum   'Ho7 Sn22 Os6 Au1'
_cell_volume   842.66693421
_cell_formula_units_Z   1
loop_
 _symmetry_equiv_pos_site_id
 _symmetry_equiv_pos_as_xyz
  1  'x, y, z'
loop_
 _atom_site_type_symbol
 _atom_site_label
 _atom_site_symmetry_multiplicity
 _atom_site_fract_x
 _atom_site_fract_y
 _atom_site_fract_z
 _atom_site_occupancy
  Ho  Ho0  1  0.000000  0.000000  0.000000  1
  Ho  Ho1  1  0.514624  0.485376  0.696736  1
  Ho  Ho2  1  0.514624  0.029246  0.696736  1
  Ho  Ho3  1  0.970754  0.485376  0.696736  1
  Ho  Ho4  1  0.029246  0.514624  0.303264  1
  Ho  Ho5  1  0.485376  0.970754  0.303264  1
  Ho  Ho6  1  0.485376  0.514624  0.303264  1
  Sn  Sn7  1  0.666667  0.333333  0.171074  1
  Sn  Sn8  1  0.666667  0.333333  0.868718  1
  Sn  Sn9  1  0.333333  0.666667  0.131282  1
  Sn  Sn10  1  0.349177  0.349177  0.000000  1
  Sn  Sn11  1  0.000000  0.650823  0.000000  1
  Sn  Sn12  1  0.650823  0.000000  0.000000  1
  Sn  Sn13  1  0.650823  0.650823  0.000000  1
  Sn  Sn14  1  0.333333  0.666667  0.828926  1
  Sn  Sn15  1  0.443287  0.221645  0.464385  1
  Sn  Sn16  1  0.221645  0.778355  0.535615  1
  Sn  Sn17  1  0.221645  0.443287  0.535615  1
  Sn  Sn18  1  0.556713  0.778355  0.535615  1
  Sn  Sn19  1  0.118003  0.881997  0.279986  1
  Sn  Sn20  1  0.778355  0.556713  0.464385  1
  Sn  Sn21  1  0.778355  0.221645  0.464385  1
  Sn  Sn22  1  0.349177  0.000000  0.000000  1
  Sn  Sn23  1  0.118003  0.236006  0.279986  1
  Sn  Sn24  1  0.763994  0.881997  0.279986  1
  Sn  Sn25  1  0.236006  0.118003  0.720014  1
  Sn  Sn26  1  0.881997  0.763994  0.720014  1
  Sn  Sn27  1  0.881997  0.118003  0.720014  1
  Sn  Sn28  1  0.000000  0.349177  0.000000  1
  Os  Os29  1  0.168920  0.831080  0.794745  1
  Os  Os30  1  0.168920  0.337840  0.794745  1
  Os  Os31  1  0.662160  0.831080  0.794745  1
  Os  Os32  1  0.337840  0.168920  0.205255  1
  Os  Os33  1  0.831080  0.662160  0.205255  1
  Os  Os34  1  0.831080  0.168920  0.205255  1
  Au  Au35  1  0.000000  0.000000  0.500000  1
