# generated using pymatgen
data_Yb3Bi5(RuO6)4
_symmetry_space_group_name_H-M   'P 1'
_cell_length_a   5.33397428
_cell_length_b   9.10143287
_cell_length_c   9.85856600
_cell_angle_alpha   90.31154708
_cell_angle_beta   90.01862605
_cell_angle_gamma   90.11794100
_symmetry_Int_Tables_number   1
_chemical_formula_structural   Yb3Bi5(RuO6)4
_chemical_formula_sum   'Yb3 Bi5 Ru4 O24'
_cell_volume   478.59380261
_cell_formula_units_Z   1
loop_
 _symmetry_equiv_pos_site_id
 _symmetry_equiv_pos_as_xyz
  1  'x, y, z'
loop_
 _atom_site_type_symbol
 _atom_site_label
 _atom_site_symmetry_multiplicity
 _atom_site_fract_x
 _atom_site_fract_y
 _atom_site_fract_z
 _atom_site_occupancy
  Yb  Yb0  1  0.038059  0.284036  0.631176  1
  Yb  Yb1  1  0.464329  0.717732  0.129552  1
  Yb  Yb2  1  0.964609  0.783064  0.873215  1
  Bi  Bi3  1  0.526435  0.101677  0.970686  1
  Bi  Bi4  1  0.029193  0.403521  0.029728  1
  Bi  Bi5  1  0.473084  0.598388  0.529405  1
  Bi  Bi6  1  0.972668  0.895612  0.466769  1
  Bi  Bi7  1  0.527404  0.212589  0.367691  1
  Ru  Ru8  1  0.453364  0.003799  0.654014  1
  Ru  Ru9  1  0.953443  0.496141  0.348236  1
  Ru  Ru10  1  0.549875  0.509850  0.848163  1
  Ru  Ru11  1  0.039213  0.993005  0.146742  1
  O  O12  1  0.319970  0.136835  0.176642  1
  O  O13  1  0.806100  0.366644  0.826302  1
  O  O14  1  0.683509  0.632219  0.326253  1
  O  O15  1  0.189027  0.866242  0.675195  1
  O  O16  1  0.725052  0.106622  0.569724  1
  O  O17  1  0.231684  0.389213  0.430140  1
  O  O18  1  0.277518  0.608341  0.930692  1
  O  O19  1  0.765528  0.891417  0.069354  1
  O  O20  1  0.691991  0.642574  0.732304  1
  O  O21  1  0.183980  0.857379  0.263915  1
  O  O22  1  0.315084  0.142767  0.767712  1
  O  O23  1  0.809644  0.357989  0.231497  1
  O  O24  1  0.664968  0.948656  0.796616  1
  O  O25  1  0.165871  0.551031  0.204725  1
  O  O26  1  0.335351  0.451871  0.704579  1
  O  O27  1  0.834361  0.049785  0.298466  1
  O  O28  1  0.247222  0.090176  0.503968  1
  O  O29  1  0.753170  0.408222  0.495885  1
  O  O30  1  0.755055  0.592243  0.996286  1
  O  O31  1  0.250649  0.912515  0.002484  1
  O  O32  1  0.080629  0.653241  0.477662  1
  O  O33  1  0.575121  0.843450  0.521391  1
  O  O34  1  0.924662  0.155233  0.024083  1
  O  O35  1  0.422179  0.345925  0.978750  1
