# generated using pymatgen
data_Li4Ac3DySi8
_symmetry_space_group_name_H-M   'P 1'
_cell_length_a   3.94746000
_cell_length_b   7.90336549
_cell_length_c   10.87605433
_cell_angle_alpha   90.22639159
_cell_angle_beta   90.00000000
_cell_angle_gamma   90.00000000
_symmetry_Int_Tables_number   1
_chemical_formula_structural   Li4Ac3DySi8
_chemical_formula_sum   'Li4 Ac3 Dy1 Si8'
_cell_volume   339.31087733
_cell_formula_units_Z   1
loop_
 _symmetry_equiv_pos_site_id
 _symmetry_equiv_pos_as_xyz
  1  'x, y, z'
loop_
 _atom_site_type_symbol
 _atom_site_label
 _atom_site_symmetry_multiplicity
 _atom_site_fract_x
 _atom_site_fract_y
 _atom_site_fract_z
 _atom_site_occupancy
  Li  Li0  1  0.250000  0.993876  0.389389  1
  Li  Li1  1  0.250000  0.501077  0.113649  1
  Li  Li2  1  0.750000  0.000778  0.606061  1
  Li  Li3  1  0.750000  0.503717  0.888552  1
  Ac  Ac4  1  0.250000  0.144119  0.868198  1
  Ac  Ac5  1  0.250000  0.636570  0.631372  1
  Ac  Ac6  1  0.750000  0.862987  0.135545  1
  Dy  Dy7  1  0.750000  0.367943  0.367001  1
  Si  Si8  1  0.250000  0.221182  0.563344  1
  Si  Si9  1  0.250000  0.718448  0.924045  1
  Si  Si10  1  0.750000  0.765705  0.423517  1
  Si  Si11  1  0.750000  0.290759  0.086741  1
  Si  Si12  1  0.250000  0.653969  0.322939  1
  Si  Si13  1  0.250000  0.178984  0.188438  1
  Si  Si14  1  0.750000  0.328098  0.667267  1
  Si  Si15  1  0.750000  0.831791  0.823942  1
