# generated using pymatgen
data_Sc6ReHgTe
_symmetry_space_group_name_H-M   'P 1'
_cell_length_a   7.71458800
_cell_length_b   7.71458784
_cell_length_c   3.94309200
_cell_angle_alpha   90.00000000
_cell_angle_beta   90.00000000
_cell_angle_gamma   120.00000070
_symmetry_Int_Tables_number   1
_chemical_formula_structural   Sc6ReHgTe
_chemical_formula_sum   'Sc6 Re1 Hg1 Te1'
_cell_volume   203.23242740
_cell_formula_units_Z   1
loop_
 _symmetry_equiv_pos_site_id
 _symmetry_equiv_pos_as_xyz
  1  'x, y, z'
loop_
 _atom_site_type_symbol
 _atom_site_label
 _atom_site_symmetry_multiplicity
 _atom_site_fract_x
 _atom_site_fract_y
 _atom_site_fract_z
 _atom_site_occupancy
  Sc  Sc0  1  0.761689  0.005711  0.000000  1
  Sc  Sc1  1  0.244022  0.238311  0.000000  1
  Sc  Sc2  1  0.994289  0.755978  0.000000  1
  Sc  Sc3  1  0.387776  0.000957  0.500000  1
  Sc  Sc4  1  0.999043  0.386818  0.500000  1
  Sc  Sc5  1  0.613182  0.612225  0.500000  1
  Re  Re6  1  0.000000  0.000000  0.500000  1
  Hg  Hg7  1  0.666667  0.333333  0.000000  1
  Te  Te8  1  0.333334  0.666667  0.000000  1
