# generated using pymatgen
data_Sr3CaSnPd7
_symmetry_space_group_name_H-M   'P 1'
_cell_length_a   9.52264538
_cell_length_b   9.52264593
_cell_length_c   9.52264513
_cell_angle_alpha   35.06923223
_cell_angle_beta   35.06922487
_cell_angle_gamma   35.06922611
_symmetry_Int_Tables_number   1
_chemical_formula_structural   Sr3CaSnPd7
_chemical_formula_sum   'Sr3 Ca1 Sn1 Pd7'
_cell_volume   254.56410920
_cell_formula_units_Z   1
loop_
 _symmetry_equiv_pos_site_id
 _symmetry_equiv_pos_as_xyz
  1  'x, y, z'
loop_
 _atom_site_type_symbol
 _atom_site_label
 _atom_site_symmetry_multiplicity
 _atom_site_fract_x
 _atom_site_fract_y
 _atom_site_fract_z
 _atom_site_occupancy
  Sr  Sr0  1  0.564791  0.564791  0.564791  1
  Sr  Sr1  1  0.438096  0.438096  0.438096  1
  Sr  Sr2  1  0.936282  0.936282  0.936282  1
  Ca  Ca3  1  0.062709  0.062709  0.062709  1
  Sn  Sn4  1  0.749595  0.749595  0.749595  1
  Pd  Pd5  1  0.249801  0.249801  0.249801  1
  Pd  Pd6  1  0.010599  0.498270  0.498270  1
  Pd  Pd7  1  0.488169  0.001709  0.001709  1
  Pd  Pd8  1  0.498270  0.010599  0.498270  1
  Pd  Pd9  1  0.001709  0.488169  0.001709  1
  Pd  Pd10  1  0.498270  0.498270  0.010599  1
  Pd  Pd11  1  0.001709  0.001709  0.488169  1
