# generated using pymatgen
data_Lu2Mn2I
_symmetry_space_group_name_H-M   'P 1'
_cell_length_a   3.84010800
_cell_length_b   3.84010756
_cell_length_c   17.26056600
_cell_angle_alpha   90.00000000
_cell_angle_beta   90.00000000
_cell_angle_gamma   120.00002099
_symmetry_Int_Tables_number   1
_chemical_formula_structural   Lu2Mn2I
_chemical_formula_sum   'Lu4 Mn4 I2'
_cell_volume   220.43086289
_cell_formula_units_Z   2
loop_
 _symmetry_equiv_pos_site_id
 _symmetry_equiv_pos_as_xyz
  1  'x, y, z'
loop_
 _atom_site_type_symbol
 _atom_site_label
 _atom_site_symmetry_multiplicity
 _atom_site_fract_x
 _atom_site_fract_y
 _atom_site_fract_z
 _atom_site_occupancy
  Lu  Lu0  1  0.000000  0.000000  0.108279  1
  Lu  Lu1  1  0.000000  0.000000  0.891721  1
  Lu  Lu2  1  0.000000  0.000000  0.608279  1
  Lu  Lu3  1  0.000000  0.000000  0.391721  1
  Mn  Mn4  1  0.333333  0.666667  0.508729  1
  Mn  Mn5  1  0.666667  0.333333  0.491271  1
  Mn  Mn6  1  0.666667  0.333333  0.008729  1
  Mn  Mn7  1  0.333333  0.666667  0.991271  1
  I  I8  1  0.333333  0.666667  0.250000  1
  I  I9  1  0.666667  0.333333  0.750000  1
