# generated using pymatgen
data_CsSm(TaBr3)6
_symmetry_space_group_name_H-M   'P 1'
_cell_length_a   10.86436211
_cell_length_b   10.86436206
_cell_length_c   10.86436253
_cell_angle_alpha   55.54553580
_cell_angle_beta   55.54553196
_cell_angle_gamma   55.54553719
_symmetry_Int_Tables_number   1
_chemical_formula_structural   CsSm(TaBr3)6
_chemical_formula_sum   'Cs1 Sm1 Ta6 Br18'
_cell_volume   813.00709270
_cell_formula_units_Z   1
loop_
 _symmetry_equiv_pos_site_id
 _symmetry_equiv_pos_as_xyz
  1  'x, y, z'
loop_
 _atom_site_type_symbol
 _atom_site_label
 _atom_site_symmetry_multiplicity
 _atom_site_fract_x
 _atom_site_fract_y
 _atom_site_fract_z
 _atom_site_occupancy
  Cs  Cs0  1  0.222573  0.222573  0.222573  1
  Sm  Sm1  1  0.498002  0.498002  0.498002  1
  Ta  Ta2  1  0.813677  0.139344  0.917466  1
  Ta  Ta3  1  0.917466  0.813677  0.139344  1
  Ta  Ta4  1  0.139344  0.917466  0.813677  1
  Ta  Ta5  1  0.187344  0.861099  0.081534  1
  Ta  Ta6  1  0.081534  0.187344  0.861099  1
  Ta  Ta7  1  0.861099  0.081534  0.187344  1
  Br  Br8  1  0.867216  0.406684  0.728004  1
  Br  Br9  1  0.728004  0.867216  0.406684  1
  Br  Br10  1  0.406684  0.728004  0.867216  1
  Br  Br11  1  0.131452  0.593627  0.274779  1
  Br  Br12  1  0.274779  0.131452  0.593627  1
  Br  Br13  1  0.593627  0.274779  0.131452  1
  Br  Br14  1  0.541681  0.337161  0.803108  1
  Br  Br15  1  0.803108  0.541681  0.337161  1
  Br  Br16  1  0.337161  0.803108  0.541681  1
  Br  Br17  1  0.457369  0.665310  0.196726  1
  Br  Br18  1  0.196726  0.457369  0.665310  1
  Br  Br19  1  0.665310  0.196726  0.457369  1
  Br  Br20  1  0.666713  0.939847  0.068600  1
  Br  Br21  1  0.068600  0.666713  0.939847  1
  Br  Br22  1  0.939847  0.068600  0.666713  1
  Br  Br23  1  0.337300  0.059110  0.925414  1
  Br  Br24  1  0.925414  0.337300  0.059110  1
  Br  Br25  1  0.059110  0.925414  0.337300  1
