# generated using pymatgen
data_Tb4Fe13Ni3(P3W)4
_symmetry_space_group_name_H-M   'P 1'
_cell_length_a   3.69818900
_cell_length_b   10.37023529
_cell_length_c   12.08028665
_cell_angle_alpha   89.88671228
_cell_angle_beta   90.00000000
_cell_angle_gamma   90.00000000
_symmetry_Int_Tables_number   1
_chemical_formula_structural   Tb4Fe13Ni3(P3W)4
_chemical_formula_sum   'Tb4 Fe13 Ni3 P12 W4'
_cell_volume   463.29125585
_cell_formula_units_Z   1
loop_
 _symmetry_equiv_pos_site_id
 _symmetry_equiv_pos_as_xyz
  1  'x, y, z'
loop_
 _atom_site_type_symbol
 _atom_site_label
 _atom_site_symmetry_multiplicity
 _atom_site_fract_x
 _atom_site_fract_y
 _atom_site_fract_z
 _atom_site_occupancy
  Tb  Tb0  1  0.250000  0.582963  0.709098  1
  Tb  Tb1  1  0.250000  0.916898  0.209299  1
  Tb  Tb2  1  0.750000  0.417144  0.291445  1
  Tb  Tb3  1  0.750000  0.082567  0.791093  1
  Fe  Fe4  1  0.750000  0.908954  0.013662  1
  Fe  Fe5  1  0.250000  0.217054  0.172240  1
  Fe  Fe6  1  0.250000  0.282684  0.672182  1
  Fe  Fe7  1  0.750000  0.781763  0.827335  1
  Fe  Fe8  1  0.750000  0.716456  0.327802  1
  Fe  Fe9  1  0.250000  0.883460  0.698125  1
  Fe  Fe10  1  0.250000  0.617377  0.197623  1
  Fe  Fe11  1  0.750000  0.117541  0.302531  1
  Fe  Fe12  1  0.750000  0.382929  0.802067  1
  Fe  Fe13  1  0.250000  0.463886  0.935730  1
  Fe  Fe14  1  0.250000  0.035717  0.436402  1
  Fe  Fe15  1  0.750000  0.535560  0.064819  1
  Fe  Fe16  1  0.750000  0.963747  0.564155  1
  Ni  Ni17  1  0.250000  0.407874  0.485366  1
  Ni  Ni18  1  0.250000  0.093861  0.983792  1
  Ni  Ni19  1  0.750000  0.591616  0.514555  1
  P  P20  1  0.250000  0.421569  0.113938  1
  P  P21  1  0.250000  0.078805  0.614117  1
  P  P22  1  0.750000  0.578359  0.886346  1
  P  P23  1  0.750000  0.920777  0.385947  1
  P  P24  1  0.250000  0.274692  0.856892  1
  P  P25  1  0.250000  0.225143  0.356399  1
  P  P26  1  0.750000  0.728723  0.141470  1
  P  P27  1  0.750000  0.774278  0.643511  1
  P  P28  1  0.250000  0.599694  0.383535  1
  P  P29  1  0.250000  0.901237  0.884325  1
  P  P30  1  0.750000  0.400272  0.616467  1
  P  P31  1  0.750000  0.096949  0.116427  1
  W  W32  1  0.250000  0.703211  0.992281  1
  W  W33  1  0.250000  0.796592  0.491756  1
  W  W34  1  0.750000  0.296863  0.008333  1
  W  W35  1  0.750000  0.202785  0.508935  1
