# generated using pymatgen
data_Gd3Ho(AuBr6)4
_symmetry_space_group_name_H-M   'P 1'
_cell_length_a   8.42772175
_cell_length_b   10.49573963
_cell_length_c   14.88924000
_cell_angle_alpha   104.32051069
_cell_angle_beta   94.50631198
_cell_angle_gamma   112.85242935
_symmetry_Int_Tables_number   1
_chemical_formula_structural   Gd3Ho(AuBr6)4
_chemical_formula_sum   'Gd3 Ho1 Au4 Br24'
_cell_volume   1153.23262335
_cell_formula_units_Z   1
loop_
 _symmetry_equiv_pos_site_id
 _symmetry_equiv_pos_as_xyz
  1  'x, y, z'
loop_
 _atom_site_type_symbol
 _atom_site_label
 _atom_site_symmetry_multiplicity
 _atom_site_fract_x
 _atom_site_fract_y
 _atom_site_fract_z
 _atom_site_occupancy
  Gd  Gd0  1  0.580505  0.925660  0.620975  1
  Gd  Gd1  1  0.026847  0.687952  0.130736  1
  Gd  Gd2  1  0.422471  0.074264  0.378547  1
  Ho  Ho3  1  0.972301  0.311639  0.869601  1
  Au  Au4  1  0.293224  0.633420  0.762411  1
  Au  Au5  1  0.498903  0.499719  0.499591  1
  Au  Au6  1  0.706688  0.367171  0.237679  1
  Au  Au7  1  0.998621  0.999867  0.000518  1
  Br  Br8  1  0.788134  0.105238  0.973604  1
  Br  Br9  1  0.717191  0.144835  0.260082  1
  Br  Br10  1  0.283008  0.855126  0.738473  1
  Br  Br11  1  0.775567  0.794111  0.039108  1
  Br  Br12  1  0.628597  0.198000  0.749539  1
  Br  Br13  1  0.300505  0.407811  0.782679  1
  Br  Br14  1  0.697485  0.592973  0.219330  1
  Br  Br15  1  0.312851  0.633392  0.495862  1
  Br  Br16  1  0.219806  0.205987  0.961653  1
  Br  Br17  1  0.755880  0.731180  0.519245  1
  Br  Br18  1  0.211653  0.896206  0.025959  1
  Br  Br19  1  0.720951  0.046704  0.476553  1
  Br  Br20  1  0.604813  0.737021  0.746299  1
  Br  Br21  1  0.941595  0.057463  0.723489  1
  Br  Br22  1  0.242488  0.268390  0.479617  1
  Br  Br23  1  0.375927  0.801745  0.251126  1
  Br  Br24  1  0.979735  0.530523  0.774753  1
  Br  Br25  1  0.771057  0.434558  0.980942  1
  Br  Br26  1  0.226831  0.561226  0.016589  1
  Br  Br27  1  0.020616  0.467194  0.226154  1
  Br  Br28  1  0.395507  0.263741  0.253766  1
  Br  Br29  1  0.282978  0.953897  0.522956  1
  Br  Br30  1  0.685626  0.366471  0.503859  1
  Br  Br31  1  0.061641  0.946513  0.278303  1
