# generated using pymatgen
data_LiPr2Co8TcP6
_symmetry_space_group_name_H-M   'P 1'
_cell_length_a   3.74837500
_cell_length_b   10.53828600
_cell_length_c   11.97159500
_cell_angle_alpha   90.00000000
_cell_angle_beta   90.00000000
_cell_angle_gamma   90.00000000
_symmetry_Int_Tables_number   1
_chemical_formula_structural   LiPr2Co8TcP6
_chemical_formula_sum   'Li2 Pr4 Co16 Tc2 P12'
_cell_volume   472.89533480
_cell_formula_units_Z   2
loop_
 _symmetry_equiv_pos_site_id
 _symmetry_equiv_pos_as_xyz
  1  'x, y, z'
loop_
 _atom_site_type_symbol
 _atom_site_label
 _atom_site_symmetry_multiplicity
 _atom_site_fract_x
 _atom_site_fract_y
 _atom_site_fract_z
 _atom_site_occupancy
  Li  Li0  1  0.750000  0.299182  0.008856  1
  Li  Li1  1  0.750000  0.200818  0.508856  1
  Pr  Pr2  1  0.250000  0.583513  0.702770  1
  Pr  Pr3  1  0.250000  0.916487  0.202770  1
  Pr  Pr4  1  0.750000  0.415870  0.298418  1
  Pr  Pr5  1  0.750000  0.084130  0.798418  1
  Co  Co6  1  0.250000  0.412827  0.491484  1
  Co  Co7  1  0.250000  0.087173  0.991484  1
  Co  Co8  1  0.750000  0.597540  0.508688  1
  Co  Co9  1  0.750000  0.902460  0.008688  1
  Co  Co10  1  0.250000  0.217822  0.173425  1
  Co  Co11  1  0.250000  0.282178  0.673425  1
  Co  Co12  1  0.750000  0.777275  0.824605  1
  Co  Co13  1  0.750000  0.722725  0.324605  1
  Co  Co14  1  0.250000  0.884321  0.701164  1
  Co  Co15  1  0.250000  0.615679  0.201164  1
  Co  Co16  1  0.750000  0.116025  0.301691  1
  Co  Co17  1  0.750000  0.383975  0.801691  1
  Co  Co18  1  0.250000  0.465901  0.934195  1
  Co  Co19  1  0.250000  0.034099  0.434195  1
  Co  Co20  1  0.750000  0.532988  0.069019  1
  Co  Co21  1  0.750000  0.967012  0.569019  1
  Tc  Tc22  1  0.250000  0.706213  0.990035  1
  Tc  Tc23  1  0.250000  0.793787  0.490035  1
  P  P24  1  0.250000  0.419126  0.112269  1
  P  P25  1  0.250000  0.080874  0.612269  1
  P  P26  1  0.750000  0.577658  0.890811  1
  P  P27  1  0.750000  0.922342  0.390811  1
  P  P28  1  0.250000  0.278928  0.860448  1
  P  P29  1  0.250000  0.221072  0.360448  1
  P  P30  1  0.750000  0.723876  0.133390  1
  P  P31  1  0.750000  0.776124  0.633390  1
  P  P32  1  0.250000  0.602560  0.393882  1
  P  P33  1  0.250000  0.897440  0.893882  1
  P  P34  1  0.750000  0.395901  0.604849  1
  P  P35  1  0.750000  0.104099  0.104849  1
