# generated using pymatgen
data_YLu(PaAl5)3
_symmetry_space_group_name_H-M   'P 1'
_cell_length_a   12.59671952
_cell_length_b   12.59671927
_cell_length_c   12.59672010
_cell_angle_alpha   28.08510260
_cell_angle_beta   28.08510567
_cell_angle_gamma   28.08510666
_symmetry_Int_Tables_number   1
_chemical_formula_structural   YLu(PaAl5)3
_chemical_formula_sum   'Y1 Lu1 Pa3 Al15'
_cell_volume   391.33089088
_cell_formula_units_Z   1
loop_
 _symmetry_equiv_pos_site_id
 _symmetry_equiv_pos_as_xyz
  1  'x, y, z'
loop_
 _atom_site_type_symbol
 _atom_site_label
 _atom_site_symmetry_multiplicity
 _atom_site_fract_x
 _atom_site_fract_y
 _atom_site_fract_z
 _atom_site_occupancy
  Y  Y0  1  0.999708  0.999708  0.999708  1
  Lu  Lu1  1  0.599517  0.599517  0.599517  1
  Pa  Pa2  1  0.130872  0.130872  0.130872  1
  Pa  Pa3  1  0.869152  0.869152  0.869152  1
  Pa  Pa4  1  0.400897  0.400897  0.400897  1
  Al  Al5  1  0.132345  0.635391  0.635391  1
  Al  Al6  1  0.635391  0.635391  0.132345  1
  Al  Al7  1  0.635391  0.132345  0.635391  1
  Al  Al8  1  0.364868  0.871632  0.364868  1
  Al  Al9  1  0.364868  0.364868  0.871632  1
  Al  Al10  1  0.871632  0.364868  0.364868  1
  Al  Al11  1  0.429754  0.883263  0.883263  1
  Al  Al12  1  0.883263  0.883263  0.429754  1
  Al  Al13  1  0.883263  0.429754  0.883263  1
  Al  Al14  1  0.116518  0.567993  0.116518  1
  Al  Al15  1  0.116518  0.116518  0.567993  1
  Al  Al16  1  0.567993  0.116518  0.116518  1
  Al  Al17  1  0.498008  0.498008  0.002034  1
  Al  Al18  1  0.498008  0.002034  0.498008  1
  Al  Al19  1  0.002034  0.498008  0.498008  1
