# generated using pymatgen
data_La3PrYIr2
_symmetry_space_group_name_H-M   'P 1'
_cell_length_a   6.72420265
_cell_length_b   7.31936790
_cell_length_c   9.14832962
_cell_angle_alpha   95.84168874
_cell_angle_beta   111.56212406
_cell_angle_gamma   89.99999537
_symmetry_Int_Tables_number   1
_chemical_formula_structural   La3PrYIr2
_chemical_formula_sum   'La6 Pr2 Y2 Ir4'
_cell_volume   416.22854233
_cell_formula_units_Z   2
loop_
 _symmetry_equiv_pos_site_id
 _symmetry_equiv_pos_as_xyz
  1  'x, y, z'
loop_
 _atom_site_type_symbol
 _atom_site_label
 _atom_site_symmetry_multiplicity
 _atom_site_fract_x
 _atom_site_fract_y
 _atom_site_fract_z
 _atom_site_occupancy
  La  La0  1  0.980339  0.916380  0.182174  1
  La  La1  1  0.798164  0.583620  0.817826  1
  La  La2  1  0.017009  0.086899  0.816694  1
  La  La3  1  0.200316  0.413101  0.183306  1
  La  La4  1  0.639521  0.815938  0.423872  1
  La  La5  1  0.215648  0.684062  0.576128  1
  Pr  Pr6  1  0.357572  0.185983  0.571792  1
  Pr  Pr7  1  0.785781  0.314017  0.428208  1
  Y  Y8  1  0.436023  0.750000  0.000000  1
  Y  Y9  1  0.566526  0.250000  0.000000  1
  Ir  Ir10  1  0.814221  0.576042  0.213591  1
  Ir  Ir11  1  0.600629  0.923958  0.786409  1
  Ir  Ir12  1  0.187923  0.426826  0.787596  1
  Ir  Ir13  1  0.400329  0.073174  0.212404  1
