# generated using pymatgen
data_U7Nb12CuSi16
_symmetry_space_group_name_H-M   'P 1'
_cell_length_a   7.02279773
_cell_length_b   7.01345530
_cell_length_c   12.96649654
_cell_angle_alpha   90.41242727
_cell_angle_beta   90.06851414
_cell_angle_gamma   89.97809590
_symmetry_Int_Tables_number   1
_chemical_formula_structural   U7Nb12CuSi16
_chemical_formula_sum   'U7 Nb12 Cu1 Si16'
_cell_volume   638.63578449
_cell_formula_units_Z   1
loop_
 _symmetry_equiv_pos_site_id
 _symmetry_equiv_pos_as_xyz
  1  'x, y, z'
loop_
 _atom_site_type_symbol
 _atom_site_label
 _atom_site_symmetry_multiplicity
 _atom_site_fract_x
 _atom_site_fract_y
 _atom_site_fract_z
 _atom_site_occupancy
  U  U0  1  0.005365  0.672430  0.719272  1
  U  U1  1  0.165831  0.489987  0.466632  1
  U  U2  1  0.510901  0.832268  0.032651  1
  U  U3  1  0.826343  0.511754  0.968319  1
  U  U4  1  0.488887  0.169303  0.529375  1
  U  U5  1  0.327521  0.993908  0.779656  1
  U  U6  1  0.669736  0.004574  0.280122  1
  Nb  Nb7  1  0.167158  0.172633  0.001059  1
  Nb  Nb8  1  0.829639  0.828498  0.497613  1
  Nb  Nb9  1  0.331331  0.669813  0.249272  1
  Nb  Nb10  1  0.665511  0.333162  0.750923  1
  Nb  Nb11  1  0.151046  0.996310  0.372851  1
  Nb  Nb12  1  0.842510  0.004021  0.876091  1
  Nb  Nb13  1  0.498405  0.655973  0.622993  1
  Nb  Nb14  1  0.341988  0.500703  0.877654  1
  Nb  Nb15  1  0.489287  0.347791  0.122530  1
  Nb  Nb16  1  0.652777  0.497961  0.375605  1
  Nb  Nb17  1  0.997981  0.155110  0.626178  1
  Nb  Nb18  1  0.995766  0.852644  0.124818  1
  Cu  Cu19  1  0.065251  0.311358  0.218881  1
  Si  Si20  1  0.297862  0.037874  0.184260  1
  Si  Si21  1  0.700332  0.961467  0.683870  1
  Si  Si22  1  0.458641  0.797241  0.432578  1
  Si  Si23  1  0.188220  0.540282  0.070552  1
  Si  Si24  1  0.539377  0.202908  0.935061  1
  Si  Si25  1  0.795420  0.459184  0.566113  1
  Si  Si26  1  0.037507  0.300412  0.816330  1
  Si  Si27  1  0.962397  0.686981  0.309786  1
  Si  Si28  1  0.369037  0.289059  0.315192  1
  Si  Si29  1  0.625788  0.710686  0.815029  1
  Si  Si30  1  0.204508  0.868480  0.563450  1
  Si  Si31  1  0.129291  0.795605  0.935568  1
  Si  Si32  1  0.800872  0.151139  0.073776  1
  Si  Si33  1  0.867449  0.203374  0.436780  1
  Si  Si34  1  0.291021  0.371758  0.684876  1
  Si  Si35  1  0.709042  0.623345  0.184284  1
