# generated using pymatgen
data_HoTa(SnRu2)2
_symmetry_space_group_name_H-M   'P 1'
_cell_length_a   4.58569200
_cell_length_b   6.49063900
_cell_length_c   13.78512500
_cell_angle_alpha   90.00000000
_cell_angle_beta   89.99960890
_cell_angle_gamma   90.00000000
_symmetry_Int_Tables_number   1
_chemical_formula_structural   HoTa(SnRu2)2
_chemical_formula_sum   'Ho3 Ta3 Sn6 Ru12'
_cell_volume   410.30144389
_cell_formula_units_Z   3
loop_
 _symmetry_equiv_pos_site_id
 _symmetry_equiv_pos_as_xyz
  1  'x, y, z'
loop_
 _atom_site_type_symbol
 _atom_site_label
 _atom_site_symmetry_multiplicity
 _atom_site_fract_x
 _atom_site_fract_y
 _atom_site_fract_z
 _atom_site_occupancy
  Ho  Ho0  1  0.000015  0.000000  0.997590  1
  Ho  Ho1  1  0.499999  0.500001  0.166655  1
  Ho  Ho2  1  0.999993  0.000000  0.335745  1
  Ta  Ta3  1  0.499989  0.500001  0.500581  1
  Ta  Ta4  1  0.000006  0.000000  0.666667  1
  Ta  Ta5  1  0.499985  0.500001  0.832756  1
  Sn  Sn6  1  0.999995  0.500001  0.000122  1
  Sn  Sn7  1  0.499989  0.000000  0.166664  1
  Sn  Sn8  1  0.999988  0.500001  0.333203  1
  Sn  Sn9  1  0.500002  0.000000  0.502450  1
  Sn  Sn10  1  0.999995  0.500001  0.666628  1
  Sn  Sn11  1  0.500011  0.000000  0.830890  1
  Ru  Ru12  1  0.500003  0.260737  0.987751  1
  Ru  Ru13  1  0.500003  0.739263  0.987751  1
  Ru  Ru14  1  0.000043  0.247852  0.166668  1
  Ru  Ru15  1  0.000043  0.752149  0.166668  1
  Ru  Ru16  1  0.499994  0.260725  0.345584  1
  Ru  Ru17  1  0.499994  0.739275  0.345584  1
  Ru  Ru18  1  0.999996  0.257646  0.509567  1
  Ru  Ru19  1  0.999996  0.742355  0.509567  1
  Ru  Ru20  1  0.499973  0.247052  0.666665  1
  Ru  Ru21  1  0.499973  0.752948  0.666665  1
  Ru  Ru22  1  0.000010  0.257603  0.823789  1
  Ru  Ru23  1  0.000010  0.742398  0.823789  1
