# generated using pymatgen
data_DyHgO
_symmetry_space_group_name_H-M   'P 1'
_cell_length_a   3.89767400
_cell_length_b   3.89767400
_cell_length_c   7.89964200
_cell_angle_alpha   89.99742321
_cell_angle_beta   89.99742321
_cell_angle_gamma   90.00008817
_symmetry_Int_Tables_number   1
_chemical_formula_structural   DyHgO
_chemical_formula_sum   'Dy2 Hg2 O2'
_cell_volume   120.01027581
_cell_formula_units_Z   2
loop_
 _symmetry_equiv_pos_site_id
 _symmetry_equiv_pos_as_xyz
  1  'x, y, z'
loop_
 _atom_site_type_symbol
 _atom_site_label
 _atom_site_symmetry_multiplicity
 _atom_site_fract_x
 _atom_site_fract_y
 _atom_site_fract_z
 _atom_site_occupancy
  Dy  Dy0  1  0.749987  0.749987  0.360669  1
  Dy  Dy1  1  0.250016  0.250016  0.639321  1
  Hg  Hg2  1  0.250000  0.250000  0.097951  1
  Hg  Hg3  1  0.749999  0.749999  0.902052  1
  O  O4  1  0.749984  0.250014  0.500005  1
  O  O5  1  0.250014  0.749984  0.500005  1
