# generated using pymatgen
data_Dy3Ho(MgRh)4
_symmetry_space_group_name_H-M   'P 1'
_cell_length_a   4.12380600
_cell_length_b   7.09330674
_cell_length_c   8.48625931
_cell_angle_alpha   90.01532339
_cell_angle_beta   90.00000000
_cell_angle_gamma   90.00000000
_symmetry_Int_Tables_number   1
_chemical_formula_structural   Dy3Ho(MgRh)4
_chemical_formula_sum   'Dy3 Ho1 Mg4 Rh4'
_cell_volume   248.23513396
_cell_formula_units_Z   1
loop_
 _symmetry_equiv_pos_site_id
 _symmetry_equiv_pos_as_xyz
  1  'x, y, z'
loop_
 _atom_site_type_symbol
 _atom_site_label
 _atom_site_symmetry_multiplicity
 _atom_site_fract_x
 _atom_site_fract_y
 _atom_site_fract_z
 _atom_site_occupancy
  Dy  Dy0  1  0.750000  0.463258  0.823528  1
  Dy  Dy1  1  0.250000  0.036686  0.322996  1
  Dy  Dy2  1  0.750000  0.963867  0.676882  1
  Ho  Ho3  1  0.250000  0.536206  0.176508  1
  Mg  Mg4  1  0.250000  0.136974  0.939302  1
  Mg  Mg5  1  0.750000  0.861843  0.061160  1
  Mg  Mg6  1  0.250000  0.637329  0.560725  1
  Mg  Mg7  1  0.750000  0.363514  0.438549  1
  Rh  Rh8  1  0.750000  0.748394  0.373441  1
  Rh  Rh9  1  0.250000  0.252216  0.626467  1
  Rh  Rh10  1  0.750000  0.248555  0.126604  1
  Rh  Rh11  1  0.250000  0.751155  0.873838  1
