# generated using pymatgen
data_Hf8Ti11Ge16W
_symmetry_space_group_name_H-M   'P 1'
_cell_length_a   6.75692500
_cell_length_b   6.87542732
_cell_length_c   13.10709200
_cell_angle_alpha   90.00000000
_cell_angle_beta   90.00000000
_cell_angle_gamma   90.04711713
_symmetry_Int_Tables_number   1
_chemical_formula_structural   Hf8Ti11Ge16W
_chemical_formula_sum   'Hf8 Ti11 Ge16 W1'
_cell_volume   608.91264813
_cell_formula_units_Z   1
loop_
 _symmetry_equiv_pos_site_id
 _symmetry_equiv_pos_as_xyz
  1  'x, y, z'
loop_
 _atom_site_type_symbol
 _atom_site_label
 _atom_site_symmetry_multiplicity
 _atom_site_fract_x
 _atom_site_fract_y
 _atom_site_fract_z
 _atom_site_occupancy
  Hf  Hf0  1  0.490597  0.675515  0.592576  1
  Hf  Hf1  1  0.990334  0.824678  0.907393  1
  Hf  Hf2  1  0.511796  0.323987  0.093538  1
  Hf  Hf3  1  0.011143  0.173114  0.405976  1
  Hf  Hf4  1  0.511796  0.323987  0.406462  1
  Hf  Hf5  1  0.011143  0.173114  0.094024  1
  Hf  Hf6  1  0.490597  0.675515  0.907424  1
  Hf  Hf7  1  0.990334  0.824678  0.592607  1
  Ti  Ti8  1  0.657994  0.167070  0.625763  1
  Ti  Ti9  1  0.157262  0.333825  0.874418  1
  Ti  Ti10  1  0.343271  0.834775  0.125609  1
  Ti  Ti11  1  0.840158  0.667244  0.374581  1
  Ti  Ti12  1  0.343271  0.834775  0.374391  1
  Ti  Ti13  1  0.840158  0.667244  0.125419  1
  Ti  Ti14  1  0.657994  0.167070  0.874237  1
  Ti  Ti15  1  0.157262  0.333825  0.625582  1
  Ti  Ti16  1  0.829650  0.494386  0.750000  1
  Ti  Ti17  1  0.329874  0.004160  0.750000  1
  Ti  Ti18  1  0.169864  0.507125  0.250000  1
  Ge  Ge19  1  0.683978  0.959252  0.460401  1
  Ge  Ge20  1  0.183578  0.539944  0.040680  1
  Ge  Ge21  1  0.316513  0.040808  0.959400  1
  Ge  Ge22  1  0.816199  0.459122  0.540399  1
  Ge  Ge23  1  0.316513  0.040808  0.540600  1
  Ge  Ge24  1  0.816199  0.459122  0.959601  1
  Ge  Ge25  1  0.683978  0.959252  0.039599  1
  Ge  Ge26  1  0.183578  0.539944  0.459320  1
  Ge  Ge27  1  0.459428  0.379896  0.750000  1
  Ge  Ge28  1  0.959427  0.119993  0.750000  1
  Ge  Ge29  1  0.538600  0.618511  0.250000  1
  Ge  Ge30  1  0.040143  0.878861  0.250000  1
  Ge  Ge31  1  0.689722  0.854410  0.750000  1
  Ge  Ge32  1  0.188709  0.645584  0.750000  1
  Ge  Ge33  1  0.307630  0.148286  0.250000  1
  Ge  Ge34  1  0.812499  0.356368  0.250000  1
  W  W35  1  0.668805  0.993758  0.250000  1
