# generated using pymatgen
data_Ho3CuSn3IrRu
_symmetry_space_group_name_H-M   'P 1'
_cell_length_a   7.53406700
_cell_length_b   7.53406589
_cell_length_c   3.86406400
_cell_angle_alpha   90.00000000
_cell_angle_beta   90.00000000
_cell_angle_gamma   119.99999170
_symmetry_Int_Tables_number   1
_chemical_formula_structural   Ho3CuSn3IrRu
_chemical_formula_sum   'Ho3 Cu1 Sn3 Ir1 Ru1'
_cell_volume   189.94762645
_cell_formula_units_Z   1
loop_
 _symmetry_equiv_pos_site_id
 _symmetry_equiv_pos_as_xyz
  1  'x, y, z'
loop_
 _atom_site_type_symbol
 _atom_site_label
 _atom_site_symmetry_multiplicity
 _atom_site_fract_x
 _atom_site_fract_y
 _atom_site_fract_z
 _atom_site_occupancy
  Ho  Ho0  1  0.393720  0.409740  0.500000  1
  Ho  Ho1  1  0.590260  0.983981  0.500000  1
  Ho  Ho2  1  0.016019  0.606280  0.500000  1
  Cu  Cu3  1  0.666667  0.333333  0.000000  1
  Sn  Sn4  1  0.740717  0.733318  0.000000  1
  Sn  Sn5  1  0.266682  0.007400  0.000000  1
  Sn  Sn6  1  0.992600  0.259283  0.000000  1
  Ir  Ir7  1  0.333333  0.666667  0.000000  1
  Ru  Ru8  1  0.000000  0.000000  0.500000  1
