# generated using pymatgen
data_Nd6Al24PdRu7
_symmetry_space_group_name_H-M   'P 1'
_cell_length_a   8.92016148
_cell_length_b   8.92016184
_cell_length_c   9.68928768
_cell_angle_alpha   89.85981000
_cell_angle_beta   90.14018758
_cell_angle_gamma   119.68930964
_symmetry_Int_Tables_number   1
_chemical_formula_structural   Nd6Al24PdRu7
_chemical_formula_sum   'Nd6 Al24 Pd1 Ru7'
_cell_volume   669.75714214
_cell_formula_units_Z   1
loop_
 _symmetry_equiv_pos_site_id
 _symmetry_equiv_pos_as_xyz
  1  'x, y, z'
loop_
 _atom_site_type_symbol
 _atom_site_label
 _atom_site_symmetry_multiplicity
 _atom_site_fract_x
 _atom_site_fract_y
 _atom_site_fract_z
 _atom_site_occupancy
  Nd  Nd0  1  0.190323  0.383960  0.250444  1
  Nd  Nd1  1  0.809677  0.616040  0.749556  1
  Nd  Nd2  1  0.616040  0.809677  0.250444  1
  Nd  Nd3  1  0.383960  0.190323  0.749556  1
  Nd  Nd4  1  0.192862  0.807138  0.251906  1
  Nd  Nd5  1  0.807138  0.192862  0.748094  1
  Al  Al6  1  0.329911  0.670089  0.011613  1
  Al  Al7  1  0.670089  0.329911  0.988387  1
  Al  Al8  1  0.666724  0.333276  0.509939  1
  Al  Al9  1  0.333276  0.666724  0.490061  1
  Al  Al10  1  0.162224  0.324749  0.576676  1
  Al  Al11  1  0.837776  0.675251  0.423324  1
  Al  Al12  1  0.675251  0.837776  0.576676  1
  Al  Al13  1  0.843845  0.677389  0.077844  1
  Al  Al14  1  0.324749  0.162224  0.423324  1
  Al  Al15  1  0.156155  0.322611  0.922156  1
  Al  Al16  1  0.162652  0.837348  0.576477  1
  Al  Al17  1  0.322611  0.156155  0.077844  1
  Al  Al18  1  0.837348  0.162652  0.423523  1
  Al  Al19  1  0.677389  0.843845  0.922156  1
  Al  Al20  1  0.837341  0.162659  0.075967  1
  Al  Al21  1  0.162659  0.837341  0.924033  1
  Al  Al22  1  0.561959  0.124813  0.249097  1
  Al  Al23  1  0.438041  0.875187  0.750903  1
  Al  Al24  1  0.875187  0.438041  0.249097  1
  Al  Al25  1  0.124813  0.561959  0.750903  1
  Al  Al26  1  0.563101  0.436899  0.253622  1
  Al  Al27  1  0.436899  0.563101  0.746378  1
  Al  Al28  1  0.999565  0.000435  0.250180  1
  Al  Al29  1  0.000435  0.999565  0.749820  1
  Pd  Pd30  1  0.500000  0.500000  0.000000  1
  Ru  Ru31  1  0.500000  0.000000  0.000000  1
  Ru  Ru32  1  0.000000  0.500000  0.000000  1
  Ru  Ru33  1  0.500000  0.000000  0.500000  1
  Ru  Ru34  1  0.000000  0.500000  0.500000  1
  Ru  Ru35  1  0.500000  0.500000  0.500000  1
  Ru  Ru36  1  0.000000  0.000000  0.000000  1
  Ru  Ru37  1  0.000000  0.000000  0.500000  1
