# generated using pymatgen
data_Tb3Dy5Sc12Si15Au
_symmetry_space_group_name_H-M   'P 1'
_cell_length_a   7.13391841
_cell_length_b   7.38987303
_cell_length_c   14.08146407
_cell_angle_alpha   89.95058285
_cell_angle_beta   89.70641072
_cell_angle_gamma   90.16866154
_symmetry_Int_Tables_number   1
_chemical_formula_structural   Tb3Dy5Sc12Si15Au
_chemical_formula_sum   'Tb3 Dy5 Sc12 Si15 Au1'
_cell_volume   742.34395342
_cell_formula_units_Z   1
loop_
 _symmetry_equiv_pos_site_id
 _symmetry_equiv_pos_as_xyz
  1  'x, y, z'
loop_
 _atom_site_type_symbol
 _atom_site_label
 _atom_site_symmetry_multiplicity
 _atom_site_fract_x
 _atom_site_fract_y
 _atom_site_fract_z
 _atom_site_occupancy
  Tb  Tb0  1  0.012476  0.175271  0.097530  1
  Tb  Tb1  1  0.987299  0.825280  0.903435  1
  Tb  Tb2  1  0.487109  0.676349  0.903284  1
  Dy  Dy3  1  0.987903  0.827929  0.597809  1
  Dy  Dy4  1  0.512270  0.323990  0.096798  1
  Dy  Dy5  1  0.010793  0.174092  0.399860  1
  Dy  Dy6  1  0.510598  0.324625  0.400828  1
  Dy  Dy7  1  0.490760  0.676050  0.599071  1
  Sc  Sc8  1  0.162620  0.501192  0.751037  1
  Sc  Sc9  1  0.837735  0.498547  0.250753  1
  Sc  Sc10  1  0.338240  0.000639  0.249277  1
  Sc  Sc11  1  0.663694  0.996479  0.750824  1
  Sc  Sc12  1  0.337701  0.175974  0.625724  1
  Sc  Sc13  1  0.667077  0.823423  0.373733  1
  Sc  Sc14  1  0.169186  0.673635  0.373516  1
  Sc  Sc15  1  0.670251  0.824075  0.125152  1
  Sc  Sc16  1  0.827981  0.325471  0.625339  1
  Sc  Sc17  1  0.328817  0.175335  0.875817  1
  Sc  Sc18  1  0.829970  0.322642  0.875814  1
  Sc  Sc19  1  0.169459  0.676609  0.125131  1
  Si  Si20  1  0.035012  0.119445  0.750548  1
  Si  Si21  1  0.966545  0.883252  0.249458  1
  Si  Si22  1  0.466677  0.616290  0.248531  1
  Si  Si23  1  0.534844  0.384129  0.752130  1
  Si  Si24  1  0.284710  0.874590  0.750560  1
  Si  Si25  1  0.713160  0.127360  0.249055  1
  Si  Si26  1  0.214815  0.371854  0.248306  1
  Si  Si27  1  0.786915  0.626600  0.752233  1
  Si  Si28  1  0.835553  0.537326  0.459353  1
  Si  Si29  1  0.341411  0.963289  0.460076  1
  Si  Si30  1  0.843838  0.535525  0.039038  1
  Si  Si31  1  0.657423  0.036081  0.538029  1
  Si  Si32  1  0.155478  0.464244  0.961485  1
  Si  Si33  1  0.656408  0.035254  0.960962  1
  Si  Si34  1  0.343507  0.964355  0.039378  1
  Au  Au35  1  0.161766  0.462801  0.540125  1
