# generated using pymatgen
data_Li8La7Pr(Sn3Bi)2
_symmetry_space_group_name_H-M   'P 1'
_cell_length_a   9.73021561
_cell_length_b   9.72326902
_cell_length_c   7.82632705
_cell_angle_alpha   90.00000007
_cell_angle_beta   90.07472236
_cell_angle_gamma   119.97637753
_symmetry_Int_Tables_number   1
_chemical_formula_structural   Li8La7Pr(Sn3Bi)2
_chemical_formula_sum   'Li8 La7 Pr1 Sn6 Bi2'
_cell_volume   641.39596877
_cell_formula_units_Z   1
loop_
 _symmetry_equiv_pos_site_id
 _symmetry_equiv_pos_as_xyz
  1  'x, y, z'
loop_
 _atom_site_type_symbol
 _atom_site_label
 _atom_site_symmetry_multiplicity
 _atom_site_fract_x
 _atom_site_fract_y
 _atom_site_fract_z
 _atom_site_occupancy
  Li  Li0  1  0.831877  0.166047  0.719650  1
  Li  Li1  1  0.831877  0.665829  0.719650  1
  Li  Li2  1  0.335122  0.167561  0.715220  1
  Li  Li3  1  0.170559  0.835241  0.213942  1
  Li  Li4  1  0.170559  0.335319  0.213942  1
  Li  Li5  1  0.662676  0.831339  0.208863  1
  Li  Li6  1  0.662974  0.331487  0.331974  1
  Li  Li7  1  0.334362  0.667182  0.826788  1
  La  La8  1  0.484007  0.508772  0.507509  1
  La  La9  1  0.484007  0.975235  0.507509  1
  La  La10  1  0.026986  0.513493  0.509581  1
  La  La11  1  0.506754  0.486437  0.002032  1
  La  La12  1  0.506754  0.020316  0.002032  1
  La  La13  1  0.982808  0.491404  0.000238  1
  La  La14  1  0.004284  0.002142  0.506289  1
  Pr  Pr15  1  0.004775  0.002387  0.996929  1
  Sn  Sn16  1  0.332859  0.166430  0.269219  1
  Sn  Sn17  1  0.165789  0.833406  0.768806  1
  Sn  Sn18  1  0.165789  0.332383  0.768806  1
  Sn  Sn19  1  0.667188  0.833594  0.769897  1
  Sn  Sn20  1  0.667605  0.333802  0.733487  1
  Sn  Sn21  1  0.332702  0.666351  0.233515  1
  Bi  Bi22  1  0.833844  0.166959  0.266064  1
  Bi  Bi23  1  0.833844  0.666885  0.266064  1
