# generated using pymatgen
data_ZrSc(Zn4Ru)2
_symmetry_space_group_name_H-M   'P 1'
_cell_length_a   5.01939400
_cell_length_b   5.01939425
_cell_length_c   8.15288300
_cell_angle_alpha   90.00000000
_cell_angle_beta   90.00000000
_cell_angle_gamma   119.99999838
_symmetry_Int_Tables_number   1
_chemical_formula_structural   ZrSc(Zn4Ru)2
_chemical_formula_sum   'Zr1 Sc1 Zn8 Ru2'
_cell_volume   177.88709563
_cell_formula_units_Z   1
loop_
 _symmetry_equiv_pos_site_id
 _symmetry_equiv_pos_as_xyz
  1  'x, y, z'
loop_
 _atom_site_type_symbol
 _atom_site_label
 _atom_site_symmetry_multiplicity
 _atom_site_fract_x
 _atom_site_fract_y
 _atom_site_fract_z
 _atom_site_occupancy
  Zr  Zr0  1  0.666667  0.333333  0.433351  1
  Sc  Sc1  1  0.333333  0.666667  0.934179  1
  Zn  Zn2  1  0.000000  0.000000  0.001282  1
  Zn  Zn3  1  0.000000  0.000000  0.502935  1
  Zn  Zn4  1  0.170935  0.341867  0.247809  1
  Zn  Zn5  1  0.828823  0.171177  0.751404  1
  Zn  Zn6  1  0.342352  0.171177  0.751404  1
  Zn  Zn7  1  0.658133  0.829065  0.247809  1
  Zn  Zn8  1  0.170935  0.829065  0.247809  1
  Zn  Zn9  1  0.828823  0.657648  0.751404  1
  Ru  Ru10  1  0.333333  0.666667  0.559980  1
  Ru  Ru11  1  0.666667  0.333333  0.070633  1
