# generated using pymatgen
data_Tb8GeAsBr12
_symmetry_space_group_name_H-M   'P 1'
_cell_length_a   4.08299100
_cell_length_b   13.30249359
_cell_length_c   14.08640694
_cell_angle_alpha   89.84417014
_cell_angle_beta   90.00000000
_cell_angle_gamma   90.00000000
_symmetry_Int_Tables_number   1
_chemical_formula_structural   Tb8GeAsBr12
_chemical_formula_sum   'Tb8 Ge1 As1 Br12'
_cell_volume   765.08573641
_cell_formula_units_Z   1
loop_
 _symmetry_equiv_pos_site_id
 _symmetry_equiv_pos_as_xyz
  1  'x, y, z'
loop_
 _atom_site_type_symbol
 _atom_site_label
 _atom_site_symmetry_multiplicity
 _atom_site_fract_x
 _atom_site_fract_y
 _atom_site_fract_z
 _atom_site_occupancy
  Tb  Tb0  1  0.500000  0.118443  0.340871  1
  Tb  Tb1  1  0.500000  0.881557  0.659129  1
  Tb  Tb2  1  0.500000  0.618873  0.159751  1
  Tb  Tb3  1  0.500000  0.381127  0.840249  1
  Tb  Tb4  1  0.000000  0.117411  0.577815  1
  Tb  Tb5  1  0.000000  0.882589  0.422185  1
  Tb  Tb6  1  0.000000  0.618893  0.921102  1
  Tb  Tb7  1  0.000000  0.381107  0.078898  1
  Ge  Ge8  1  0.500000  0.500000  0.000000  1
  As  As9  1  0.500000  0.000000  0.500000  1
  Br  Br10  1  0.500000  0.243763  0.162673  1
  Br  Br11  1  0.500000  0.756237  0.837327  1
  Br  Br12  1  0.500000  0.744016  0.337552  1
  Br  Br13  1  0.500000  0.255984  0.662448  1
  Br  Br14  1  0.000000  0.254749  0.411590  1
  Br  Br15  1  0.000000  0.745251  0.588410  1
  Br  Br16  1  0.000000  0.755082  0.088606  1
  Br  Br17  1  0.000000  0.244918  0.911394  1
  Br  Br18  1  0.000000  0.001548  0.243843  1
  Br  Br19  1  0.000000  0.998452  0.756157  1
  Br  Br20  1  0.000000  0.501637  0.256568  1
  Br  Br21  1  0.000000  0.498363  0.743432  1
