# generated using pymatgen
data_Sc4TcPt3
_symmetry_space_group_name_H-M   'P 1'
_cell_length_a   5.67276345
_cell_length_b   5.67276365
_cell_length_c   5.67276414
_cell_angle_alpha   109.47028218
_cell_angle_beta   109.47028135
_cell_angle_gamma   109.47310253
_symmetry_Int_Tables_number   1
_chemical_formula_structural   Sc4TcPt3
_chemical_formula_sum   'Sc4 Tc1 Pt3'
_cell_volume   140.52777731
_cell_formula_units_Z   1
loop_
 _symmetry_equiv_pos_site_id
 _symmetry_equiv_pos_as_xyz
  1  'x, y, z'
loop_
 _atom_site_type_symbol
 _atom_site_label
 _atom_site_symmetry_multiplicity
 _atom_site_fract_x
 _atom_site_fract_y
 _atom_site_fract_z
 _atom_site_occupancy
  Sc  Sc0  1  0.750461  0.249415  0.000000  1
  Sc  Sc1  1  0.249415  0.750461  0.000000  1
  Sc  Sc2  1  0.249416  0.249416  0.498956  1
  Sc  Sc3  1  0.750461  0.750461  0.501045  1
  Tc  Tc4  1  0.251266  0.251266  0.000000  1
  Pt  Pt5  1  0.748155  0.748155  0.000000  1
  Pt  Pt6  1  0.750414  0.250414  0.500001  1
  Pt  Pt7  1  0.250414  0.750414  0.500001  1
