# generated using pymatgen
data_Ca2Nd2Sb3RhO14
_symmetry_space_group_name_H-M   'P 1'
_cell_length_a   7.45468865
_cell_length_b   7.41484632
_cell_length_c   7.45468800
_cell_angle_alpha   60.55863245
_cell_angle_beta   60.73343959
_cell_angle_gamma   60.55863471
_symmetry_Int_Tables_number   1
_chemical_formula_structural   Ca2Nd2Sb3RhO14
_chemical_formula_sum   'Ca2 Nd2 Sb3 Rh1 O14'
_cell_volume   295.42822978
_cell_formula_units_Z   1
loop_
 _symmetry_equiv_pos_site_id
 _symmetry_equiv_pos_as_xyz
  1  'x, y, z'
loop_
 _atom_site_type_symbol
 _atom_site_label
 _atom_site_symmetry_multiplicity
 _atom_site_fract_x
 _atom_site_fract_y
 _atom_site_fract_z
 _atom_site_occupancy
  Ca  Ca0  1  0.625000  0.125000  0.625000  1
  Ca  Ca1  1  0.625000  0.625000  0.625000  1
  Nd  Nd2  1  0.625000  0.625000  0.125000  1
  Nd  Nd3  1  0.125000  0.625000  0.625000  1
  Sb  Sb4  1  0.625000  0.125000  0.125000  1
  Sb  Sb5  1  0.125000  0.625000  0.125000  1
  Sb  Sb6  1  0.125000  0.125000  0.625000  1
  Rh  Rh7  1  0.125000  0.125000  0.125000  1
  O  O8  1  0.203122  0.208576  0.789179  1
  O  O9  1  0.207008  0.788036  0.207008  1
  O  O10  1  0.460821  0.041424  0.046878  1
  O  O11  1  0.200572  0.798665  0.801796  1
  O  O12  1  0.049428  0.451335  0.448204  1
  O  O13  1  0.801796  0.798665  0.200572  1
  O  O14  1  0.448204  0.451335  0.049428  1
  O  O15  1  0.500522  0.501657  0.500522  1
  O  O16  1  0.046878  0.041424  0.460821  1
  O  O17  1  0.447836  0.048404  0.447836  1
  O  O18  1  0.042992  0.461964  0.042992  1
  O  O19  1  0.749478  0.748343  0.749478  1
  O  O20  1  0.802164  0.201596  0.802164  1
  O  O21  1  0.789179  0.208576  0.203122  1
