# generated using pymatgen
data_Hf6Zn9Cu14As
_symmetry_space_group_name_H-M   'P 1'
_cell_length_a   8.51563016
_cell_length_b   8.51560806
_cell_length_c   8.51568300
_cell_angle_alpha   59.99869500
_cell_angle_beta   59.99838461
_cell_angle_gamma   59.99955116
_symmetry_Int_Tables_number   1
_chemical_formula_structural   Hf6Zn9Cu14As
_chemical_formula_sum   'Hf6 Zn9 Cu14 As1'
_cell_volume   436.64237994
_cell_formula_units_Z   1
loop_
 _symmetry_equiv_pos_site_id
 _symmetry_equiv_pos_as_xyz
  1  'x, y, z'
loop_
 _atom_site_type_symbol
 _atom_site_label
 _atom_site_symmetry_multiplicity
 _atom_site_fract_x
 _atom_site_fract_y
 _atom_site_fract_z
 _atom_site_occupancy
  Hf  Hf0  1  0.723032  0.276962  0.277019  1
  Hf  Hf1  1  0.276968  0.723038  0.722981  1
  Hf  Hf2  1  0.276982  0.723028  0.277011  1
  Hf  Hf3  1  0.723018  0.276972  0.722989  1
  Hf  Hf4  1  0.277015  0.276998  0.722995  1
  Hf  Hf5  1  0.722985  0.723002  0.277005  1
  Zn  Zn6  1  0.333636  0.333623  0.333598  1
  Zn  Zn7  1  0.666364  0.666377  0.666402  1
  Zn  Zn8  1  0.333604  0.333617  0.999181  1
  Zn  Zn9  1  0.333574  0.999175  0.333622  1
  Zn  Zn10  1  0.666396  0.666383  0.000819  1
  Zn  Zn11  1  0.666426  0.000825  0.666378  1
  Zn  Zn12  1  0.999177  0.333575  0.333608  1
  Zn  Zn13  1  0.000823  0.666425  0.666392  1
  Zn  Zn14  1  0.000000  0.000000  0.000000  1
  Cu  Cu15  1  0.121751  0.121767  0.121119  1
  Cu  Cu16  1  0.878249  0.878233  0.878881  1
  Cu  Cu17  1  0.121516  0.121337  0.635402  1
  Cu  Cu18  1  0.121698  0.635177  0.121352  1
  Cu  Cu19  1  0.878484  0.878663  0.364598  1
  Cu  Cu20  1  0.878302  0.364823  0.878648  1
  Cu  Cu21  1  0.635228  0.121662  0.121317  1
  Cu  Cu22  1  0.364772  0.878338  0.878683  1
  Cu  Cu23  1  0.500000  0.000000  0.000000  1
  Cu  Cu24  1  0.000000  0.500000  0.500000  1
  Cu  Cu25  1  0.000000  0.500000  0.000000  1
  Cu  Cu26  1  0.500000  0.000000  0.500000  1
  Cu  Cu27  1  0.000000  0.000000  0.500000  1
  Cu  Cu28  1  0.500000  0.500000  0.000000  1
  As  As29  1  0.500000  0.500000  0.500000  1
