# generated using pymatgen
data_Sm3Ho2Si12Rh19
_symmetry_space_group_name_H-M   'P 1'
_cell_length_a   12.83642800
_cell_length_b   12.83417882
_cell_length_c   4.00085600
_cell_angle_alpha   90.00000000
_cell_angle_beta   90.00000000
_cell_angle_gamma   119.99420389
_symmetry_Int_Tables_number   1
_chemical_formula_structural   Sm3Ho2Si12Rh19
_chemical_formula_sum   'Sm3 Ho2 Si12 Rh19'
_cell_volume   570.84892771
_cell_formula_units_Z   1
loop_
 _symmetry_equiv_pos_site_id
 _symmetry_equiv_pos_as_xyz
  1  'x, y, z'
loop_
 _atom_site_type_symbol
 _atom_site_label
 _atom_site_symmetry_multiplicity
 _atom_site_fract_x
 _atom_site_fract_y
 _atom_site_fract_z
 _atom_site_occupancy
  Sm  Sm0  1  0.000000  0.186756  0.500000  1
  Sm  Sm1  1  0.667395  0.333833  0.000000  1
  Sm  Sm2  1  0.332605  0.666439  0.000000  1
  Ho  Ho3  1  0.812578  0.812434  0.500000  1
  Ho  Ho4  1  0.187422  0.999856  0.500000  1
  Si  Si5  1  0.477321  0.313327  0.500000  1
  Si  Si6  1  0.816617  0.998216  0.000000  1
  Si  Si7  1  0.183383  0.181599  0.000000  1
  Si  Si8  1  0.000000  0.818177  0.000000  1
  Si  Si9  1  0.372173  0.000113  0.000000  1
  Si  Si10  1  0.686663  0.162865  0.500000  1
  Si  Si11  1  0.837083  0.524215  0.500000  1
  Si  Si12  1  0.522679  0.836005  0.500000  1
  Si  Si13  1  0.162917  0.687132  0.500000  1
  Si  Si14  1  0.313337  0.476202  0.500000  1
  Si  Si15  1  0.000000  0.373192  0.000000  1
  Si  Si16  1  0.627827  0.627940  0.000000  1
  Rh  Rh17  1  0.806560  0.182006  0.000000  1
  Rh  Rh18  1  0.375605  0.192296  0.000000  1
  Rh  Rh19  1  0.640029  0.514002  0.500000  1
  Rh  Rh20  1  0.873740  0.360259  0.500000  1
  Rh  Rh21  1  0.359971  0.873974  0.500000  1
  Rh  Rh22  1  0.513885  0.639835  0.500000  1
  Rh  Rh23  1  0.126260  0.486520  0.500000  1
  Rh  Rh24  1  0.817300  0.625623  0.000000  1
  Rh  Rh25  1  0.624395  0.816691  0.000000  1
  Rh  Rh26  1  0.182700  0.808324  0.000000  1
  Rh  Rh27  1  0.193440  0.375446  0.000000  1
  Rh  Rh28  1  0.000000  0.722600  0.500000  1
  Rh  Rh29  1  0.279400  0.278064  0.500000  1
  Rh  Rh30  1  0.720600  0.998664  0.500000  1
  Rh  Rh31  1  0.000000  0.555830  0.000000  1
  Rh  Rh32  1  0.444461  0.445427  0.000000  1
  Rh  Rh33  1  0.555539  0.000966  0.000000  1
  Rh  Rh34  1  0.000000  0.999223  0.000000  1
  Rh  Rh35  1  0.486115  0.125949  0.500000  1
