# generated using pymatgen
data_Sc3Tc2Ge3Pt
_symmetry_space_group_name_H-M   'P 1'
_cell_length_a   7.01544399
_cell_length_b   6.95410094
_cell_length_c   3.58255600
_cell_angle_alpha   90.00000000
_cell_angle_beta   90.00000000
_cell_angle_gamma   119.71116964
_symmetry_Int_Tables_number   1
_chemical_formula_structural   Sc3Tc2Ge3Pt
_chemical_formula_sum   'Sc3 Tc2 Ge3 Pt1'
_cell_volume   151.80162429
_cell_formula_units_Z   1
loop_
 _symmetry_equiv_pos_site_id
 _symmetry_equiv_pos_as_xyz
  1  'x, y, z'
loop_
 _atom_site_type_symbol
 _atom_site_label
 _atom_site_symmetry_multiplicity
 _atom_site_fract_x
 _atom_site_fract_y
 _atom_site_fract_z
 _atom_site_occupancy
  Sc  Sc0  1  0.407447  0.403562  0.500000  1
  Sc  Sc1  1  0.592553  0.996117  0.500000  1
  Sc  Sc2  1  0.000000  0.597468  0.500000  1
  Tc  Tc3  1  0.746653  0.747463  0.000000  1
  Tc  Tc4  1  0.253347  0.000809  0.000000  1
  Ge  Ge5  1  0.662131  0.333636  0.000000  1
  Ge  Ge6  1  0.337869  0.671507  0.000000  1
  Ge  Ge7  1  0.000000  0.992589  0.500000  1
  Pt  Pt8  1  0.000000  0.256850  0.000000  1
