# generated using pymatgen
data_Ho3Tm(Pd2O7)2
_symmetry_space_group_name_H-M   'P 1'
_cell_length_a   7.21876623
_cell_length_b   7.21666246
_cell_length_c   7.21876600
_cell_angle_alpha   59.99035731
_cell_angle_beta   60.00000103
_cell_angle_gamma   59.99035168
_symmetry_Int_Tables_number   1
_chemical_formula_structural   Ho3Tm(Pd2O7)2
_chemical_formula_sum   'Ho3 Tm1 Pd4 O14'
_cell_volume   265.87898252
_cell_formula_units_Z   1
loop_
 _symmetry_equiv_pos_site_id
 _symmetry_equiv_pos_as_xyz
  1  'x, y, z'
loop_
 _atom_site_type_symbol
 _atom_site_label
 _atom_site_symmetry_multiplicity
 _atom_site_fract_x
 _atom_site_fract_y
 _atom_site_fract_z
 _atom_site_occupancy
  Ho  Ho0  1  0.625000  0.625000  0.125000  1
  Ho  Ho1  1  0.625000  0.625000  0.625000  1
  Ho  Ho2  1  0.125000  0.625000  0.625000  1
  Tm  Tm3  1  0.625000  0.125000  0.625000  1
  Pd  Pd4  1  0.125000  0.125000  0.125000  1
  Pd  Pd5  1  0.625000  0.125000  0.125000  1
  Pd  Pd6  1  0.125000  0.625000  0.125000  1
  Pd  Pd7  1  0.125000  0.125000  0.625000  1
  O  O8  1  0.033500  0.466473  0.466528  1
  O  O9  1  0.783472  0.783527  0.216500  1
  O  O10  1  0.783151  0.215795  0.217904  1
  O  O11  1  0.466849  0.034205  0.466849  1
  O  O12  1  0.032096  0.034205  0.466849  1
  O  O13  1  0.033500  0.466473  0.033500  1
  O  O14  1  0.749033  0.752902  0.749033  1
  O  O15  1  0.500967  0.497098  0.500967  1
  O  O16  1  0.783151  0.215795  0.783151  1
  O  O17  1  0.216500  0.783527  0.216500  1
  O  O18  1  0.217904  0.215795  0.783151  1
  O  O19  1  0.466849  0.034205  0.032096  1
  O  O20  1  0.466528  0.466473  0.033500  1
  O  O21  1  0.216500  0.783527  0.783472  1
