# generated using pymatgen
data_Tm3Th(Al3Rh)6
_symmetry_space_group_name_H-M   'P 1'
_cell_length_a   7.56141437
_cell_length_b   7.58085010
_cell_length_c   9.44920800
_cell_angle_alpha   90.00000000
_cell_angle_beta   90.00000000
_cell_angle_gamma   119.34721650
_symmetry_Int_Tables_number   1
_chemical_formula_structural   Tm3Th(Al3Rh)6
_chemical_formula_sum   'Tm3 Th1 Al18 Rh6'
_cell_volume   472.13511855
_cell_formula_units_Z   1
loop_
 _symmetry_equiv_pos_site_id
 _symmetry_equiv_pos_as_xyz
  1  'x, y, z'
loop_
 _atom_site_type_symbol
 _atom_site_label
 _atom_site_symmetry_multiplicity
 _atom_site_fract_x
 _atom_site_fract_y
 _atom_site_fract_z
 _atom_site_occupancy
  Tm  Tm0  1  0.004174  0.327533  0.750000  1
  Tm  Tm1  1  0.672471  0.994362  0.250000  1
  Tm  Tm2  1  0.327520  0.005300  0.750000  1
  Th  Th3  1  0.994266  0.671318  0.250000  1
  Al  Al4  1  0.130967  0.132757  0.250000  1
  Al  Al5  1  0.872676  0.875385  0.750000  1
  Al  Al6  1  0.001031  0.330877  0.072423  1
  Al  Al7  1  0.999865  0.664022  0.917042  1
  Al  Al8  1  0.999865  0.664022  0.582958  1
  Al  Al9  1  0.340637  0.005053  0.427470  1
  Al  Al10  1  0.001031  0.330877  0.427577  1
  Al  Al11  1  0.664308  0.001159  0.576879  1
  Al  Al12  1  0.664308  0.001159  0.923121  1
  Al  Al13  1  0.340637  0.005053  0.072530  1
  Al  Al14  1  0.331822  0.331957  0.555955  1
  Al  Al15  1  0.663290  0.666855  0.456293  1
  Al  Al16  1  0.663290  0.666855  0.043707  1
  Al  Al17  1  0.331822  0.331957  0.944045  1
  Al  Al18  1  0.344781  0.549139  0.250000  1
  Al  Al19  1  0.657900  0.447154  0.750000  1
  Al  Al20  1  0.545062  0.335975  0.250000  1
  Al  Al21  1  0.448090  0.661078  0.750000  1
  Rh  Rh22  1  0.672734  0.328624  0.000073  1
  Rh  Rh23  1  0.327018  0.671861  0.999878  1
  Rh  Rh24  1  0.327018  0.671861  0.500122  1
  Rh  Rh25  1  0.672734  0.328624  0.499927  1
  Rh  Rh26  1  0.000342  0.999592  0.999939  1
  Rh  Rh27  1  0.000342  0.999592  0.500061  1
