# generated using pymatgen
data_Nd8Ho11Si16Ag
_symmetry_space_group_name_H-M   'P 1'
_cell_length_a   7.77371423
_cell_length_b   7.77371360
_cell_length_c   14.26670800
_cell_angle_alpha   90.26513083
_cell_angle_beta   89.73486919
_cell_angle_gamma   90.09922338
_symmetry_Int_Tables_number   1
_chemical_formula_structural   Nd8Ho11Si16Ag
_chemical_formula_sum   'Nd8 Ho11 Si16 Ag1'
_cell_volume   862.12640221
_cell_formula_units_Z   1
loop_
 _symmetry_equiv_pos_site_id
 _symmetry_equiv_pos_as_xyz
  1  'x, y, z'
loop_
 _atom_site_type_symbol
 _atom_site_label
 _atom_site_symmetry_multiplicity
 _atom_site_fract_x
 _atom_site_fract_y
 _atom_site_fract_z
 _atom_site_occupancy
  Nd  Nd0  1  0.630187  0.998920  0.460257  1
  Nd  Nd1  1  0.362999  0.009358  0.956953  1
  Nd  Nd2  1  0.998920  0.630187  0.539743  1
  Nd  Nd3  1  0.489366  0.859285  0.211985  1
  Nd  Nd4  1  0.501280  0.137726  0.699998  1
  Nd  Nd5  1  0.859285  0.489366  0.788015  1
  Nd  Nd6  1  0.137726  0.501280  0.300002  1
  Nd  Nd7  1  0.009358  0.362999  0.043047  1
  Ho  Ho8  1  0.489048  0.367812  0.125626  1
  Ho  Ho9  1  0.003255  0.138508  0.621041  1
  Ho  Ho10  1  0.861465  0.009842  0.872175  1
  Ho  Ho11  1  0.138508  0.003255  0.378959  1
  Ho  Ho12  1  0.502930  0.629052  0.619575  1
  Ho  Ho13  1  0.367812  0.489048  0.874374  1
  Ho  Ho14  1  0.629052  0.502930  0.380425  1
  Ho  Ho15  1  0.009842  0.861465  0.127825  1
  Ho  Ho16  1  0.185035  0.812839  0.748677  1
  Ho  Ho17  1  0.812839  0.185035  0.251323  1
  Ho  Ho18  1  0.687006  0.687006  0.000000  1
  Si  Si19  1  0.284724  0.915977  0.562607  1
  Si  Si20  1  0.711261  0.067362  0.061911  1
  Si  Si21  1  0.915977  0.284724  0.437393  1
  Si  Si22  1  0.431258  0.211836  0.311230  1
  Si  Si23  1  0.568660  0.790297  0.807701  1
  Si  Si24  1  0.211836  0.431258  0.688770  1
  Si  Si25  1  0.790297  0.568660  0.192299  1
  Si  Si26  1  0.067362  0.711261  0.938089  1
  Si  Si27  1  0.794630  0.845851  0.685540  1
  Si  Si28  1  0.202052  0.155942  0.192154  1
  Si  Si29  1  0.845851  0.794630  0.314460  1
  Si  Si30  1  0.351726  0.719213  0.433077  1
  Si  Si31  1  0.656739  0.298654  0.940897  1
  Si  Si32  1  0.719213  0.351726  0.566923  1
  Si  Si33  1  0.298654  0.656739  0.059103  1
  Si  Si34  1  0.155942  0.202052  0.807846  1
  Ag  Ag35  1  0.317904  0.317904  0.500000  1
