# generated using pymatgen
data_HgP6PbO18
_symmetry_space_group_name_H-M   'P 1'
_cell_length_a   6.94758800
_cell_length_b   6.94758789
_cell_length_c   10.26490700
_cell_angle_alpha   90.00000000
_cell_angle_beta   90.00000000
_cell_angle_gamma   120.00001004
_symmetry_Int_Tables_number   1
_chemical_formula_structural   HgP6PbO18
_chemical_formula_sum   'Hg1 P6 Pb1 O18'
_cell_volume   429.09525564
_cell_formula_units_Z   1
loop_
 _symmetry_equiv_pos_site_id
 _symmetry_equiv_pos_as_xyz
  1  'x, y, z'
loop_
 _atom_site_type_symbol
 _atom_site_label
 _atom_site_symmetry_multiplicity
 _atom_site_fract_x
 _atom_site_fract_y
 _atom_site_fract_z
 _atom_site_occupancy
  Hg  Hg0  1  0.000000  0.000000  0.500000  1
  P  P1  1  0.723080  0.120182  0.763514  1
  P  P2  1  0.879818  0.276920  0.236486  1
  P  P3  1  0.723080  0.602898  0.236486  1
  P  P4  1  0.879818  0.602898  0.763514  1
  P  P5  1  0.397102  0.276920  0.763514  1
  P  P6  1  0.397102  0.120182  0.236486  1
  Pb  Pb7  1  0.000000  0.000000  0.000000  1
  O  O8  1  0.896238  0.514347  0.216703  1
  O  O9  1  0.896238  0.381891  0.783297  1
  O  O10  1  0.485653  0.103762  0.783297  1
  O  O11  1  0.618109  0.103762  0.216703  1
  O  O12  1  0.742821  0.040961  0.632904  1
  O  O13  1  0.740414  0.999048  0.883571  1
  O  O14  1  0.485653  0.381891  0.216703  1
  O  O15  1  0.742821  0.701859  0.367096  1
  O  O16  1  0.740414  0.741366  0.116429  1
  O  O17  1  0.618109  0.514347  0.783297  1
  O  O18  1  0.959039  0.257179  0.367096  1
  O  O19  1  0.000952  0.259586  0.116429  1
  O  O20  1  0.258634  0.259586  0.883571  1
  O  O21  1  0.298141  0.257179  0.632904  1
  O  O22  1  0.000952  0.741366  0.883571  1
  O  O23  1  0.959039  0.701859  0.632904  1
  O  O24  1  0.258634  0.999048  0.116429  1
  O  O25  1  0.298141  0.040961  0.367096  1
