# generated using pymatgen
data_Nd4Th2TiCo17P12
_symmetry_space_group_name_H-M   'P 1'
_cell_length_a   3.77054400
_cell_length_b   10.68402500
_cell_length_c   12.39347300
_cell_angle_alpha   90.00000000
_cell_angle_beta   90.00000000
_cell_angle_gamma   90.00000000
_symmetry_Int_Tables_number   1
_chemical_formula_structural   Nd4Th2TiCo17P12
_chemical_formula_sum   'Nd4 Th2 Ti1 Co17 P12'
_cell_volume   499.26593336
_cell_formula_units_Z   1
loop_
 _symmetry_equiv_pos_site_id
 _symmetry_equiv_pos_as_xyz
  1  'x, y, z'
loop_
 _atom_site_type_symbol
 _atom_site_label
 _atom_site_symmetry_multiplicity
 _atom_site_fract_x
 _atom_site_fract_y
 _atom_site_fract_z
 _atom_site_occupancy
  Nd  Nd0  1  0.500000  0.817912  0.206021  1
  Nd  Nd1  1  0.500000  0.182088  0.206021  1
  Nd  Nd2  1  0.000000  0.684153  0.796821  1
  Nd  Nd3  1  0.000000  0.315847  0.796821  1
  Th  Th4  1  0.000000  0.500000  0.527868  1
  Th  Th5  1  0.500000  0.000000  0.476271  1
  Ti  Ti6  1  0.500000  0.500000  0.148113  1
  Co  Co7  1  0.000000  0.000000  0.842107  1
  Co  Co8  1  0.500000  0.500000  0.699561  1
  Co  Co9  1  0.000000  0.000000  0.300010  1
  Co  Co10  1  0.000000  0.500000  0.986358  1
  Co  Co11  1  0.500000  0.000000  0.013658  1
  Co  Co12  1  0.500000  0.330772  0.993324  1
  Co  Co13  1  0.500000  0.669228  0.993324  1
  Co  Co14  1  0.000000  0.164094  0.003514  1
  Co  Co15  1  0.000000  0.835906  0.003514  1
  Co  Co16  1  0.500000  0.298221  0.431697  1
  Co  Co17  1  0.500000  0.701779  0.431697  1
  Co  Co18  1  0.000000  0.200946  0.568975  1
  Co  Co19  1  0.000000  0.799054  0.568975  1
  Co  Co20  1  0.500000  0.882503  0.710387  1
  Co  Co21  1  0.500000  0.117497  0.710387  1
  Co  Co22  1  0.000000  0.619163  0.291717  1
  Co  Co23  1  0.000000  0.380837  0.291717  1
  P  P24  1  0.500000  0.500000  0.884300  1
  P  P25  1  0.000000  0.000000  0.114721  1
  P  P26  1  0.500000  0.500000  0.346686  1
  P  P27  1  0.000000  0.000000  0.661621  1
  P  P28  1  0.500000  0.303742  0.615944  1
  P  P29  1  0.500000  0.696258  0.615944  1
  P  P30  1  0.000000  0.195147  0.386006  1
  P  P31  1  0.000000  0.804853  0.386006  1
  P  P32  1  0.500000  0.851576  0.893667  1
  P  P33  1  0.500000  0.148424  0.893667  1
  P  P34  1  0.000000  0.657093  0.101290  1
  P  P35  1  0.000000  0.342907  0.101290  1
