# generated using pymatgen
data_Tm8Sc12Ga7Si9
_symmetry_space_group_name_H-M   'P 1'
_cell_length_a   7.11601222
_cell_length_b   7.37393215
_cell_length_c   14.16680915
_cell_angle_alpha   89.99419487
_cell_angle_beta   89.93686816
_cell_angle_gamma   90.02259193
_symmetry_Int_Tables_number   1
_chemical_formula_structural   Tm8Sc12Ga7Si9
_chemical_formula_sum   'Tm8 Sc12 Ga7 Si9'
_cell_volume   743.37434128
_cell_formula_units_Z   1
loop_
 _symmetry_equiv_pos_site_id
 _symmetry_equiv_pos_as_xyz
  1  'x, y, z'
loop_
 _atom_site_type_symbol
 _atom_site_label
 _atom_site_symmetry_multiplicity
 _atom_site_fract_x
 _atom_site_fract_y
 _atom_site_fract_z
 _atom_site_occupancy
  Tm  Tm0  1  0.012404  0.174624  0.098585  1
  Tm  Tm1  1  0.989717  0.823050  0.901743  1
  Tm  Tm2  1  0.488403  0.676901  0.901853  1
  Tm  Tm3  1  0.989511  0.823416  0.599173  1
  Tm  Tm4  1  0.510382  0.322345  0.098691  1
  Tm  Tm5  1  0.010278  0.176147  0.400670  1
  Tm  Tm6  1  0.510620  0.323276  0.400598  1
  Tm  Tm7  1  0.489509  0.676516  0.599126  1
  Sc  Sc8  1  0.163678  0.503611  0.749958  1
  Sc  Sc9  1  0.836990  0.497311  0.249879  1
  Sc  Sc10  1  0.336203  0.003529  0.249013  1
  Sc  Sc11  1  0.663300  0.996773  0.749693  1
  Sc  Sc12  1  0.330189  0.173680  0.625785  1
  Sc  Sc13  1  0.669475  0.826641  0.373987  1
  Sc  Sc14  1  0.169644  0.673990  0.373861  1
  Sc  Sc15  1  0.668250  0.825240  0.126144  1
  Sc  Sc16  1  0.829942  0.326265  0.625986  1
  Sc  Sc17  1  0.329679  0.174214  0.874947  1
  Sc  Sc18  1  0.829216  0.326293  0.874382  1
  Sc  Sc19  1  0.171906  0.675747  0.125094  1
  Ga  Ga20  1  0.161660  0.464200  0.539595  1
  Ga  Ga21  1  0.838357  0.535740  0.460287  1
  Ga  Ga22  1  0.338114  0.963834  0.460420  1
  Ga  Ga23  1  0.838399  0.536945  0.040093  1
  Ga  Ga24  1  0.661776  0.035972  0.539387  1
  Ga  Ga25  1  0.161076  0.463465  0.960645  1
  Ga  Ga26  1  0.660452  0.036611  0.960974  1
  Si  Si27  1  0.031843  0.112071  0.750695  1
  Si  Si28  1  0.967799  0.887084  0.249626  1
  Si  Si29  1  0.467626  0.611973  0.249585  1
  Si  Si30  1  0.531993  0.387499  0.750167  1
  Si  Si31  1  0.284110  0.872772  0.750549  1
  Si  Si32  1  0.716172  0.127566  0.249277  1
  Si  Si33  1  0.215505  0.372071  0.249616  1
  Si  Si34  1  0.784074  0.627690  0.750377  1
  Si  Si35  1  0.341747  0.964939  0.039541  1
