# generated using pymatgen
data_Hf2Ta4Al16Co7
_symmetry_space_group_name_H-M   'P 1'
_cell_length_a   8.35297118
_cell_length_b   8.35297061
_cell_length_c   8.33888400
_cell_angle_alpha   60.05577064
_cell_angle_beta   60.05577288
_cell_angle_gamma   59.87925481
_symmetry_Int_Tables_number   1
_chemical_formula_structural   Hf2Ta4Al16Co7
_chemical_formula_sum   'Hf2 Ta4 Al16 Co7'
_cell_volume   411.37881499
_cell_formula_units_Z   1
loop_
 _symmetry_equiv_pos_site_id
 _symmetry_equiv_pos_as_xyz
  1  'x, y, z'
loop_
 _atom_site_type_symbol
 _atom_site_label
 _atom_site_symmetry_multiplicity
 _atom_site_fract_x
 _atom_site_fract_y
 _atom_site_fract_z
 _atom_site_occupancy
  Hf  Hf0  1  0.688942  0.311058  0.687498  1
  Hf  Hf1  1  0.311058  0.688942  0.687498  1
  Ta  Ta2  1  0.685615  0.685615  0.312480  1
  Ta  Ta3  1  0.319272  0.680728  0.317260  1
  Ta  Ta4  1  0.680728  0.319272  0.317260  1
  Ta  Ta5  1  0.314385  0.314385  0.683711  1
  Al  Al6  1  0.882242  0.882242  0.354572  1
  Al  Al7  1  0.882371  0.355551  0.883213  1
  Al  Al8  1  0.355551  0.882371  0.883213  1
  Al  Al9  1  0.879747  0.879747  0.883768  1
  Al  Al10  1  0.120253  0.120253  0.643263  1
  Al  Al11  1  0.117629  0.644449  0.121136  1
  Al  Al12  1  0.644449  0.117629  0.121136  1
  Al  Al13  1  0.117758  0.117758  0.119057  1
  Al  Al14  1  0.663859  0.663859  0.007723  1
  Al  Al15  1  0.662947  0.007924  0.662475  1
  Al  Al16  1  0.007924  0.662947  0.662475  1
  Al  Al17  1  0.665536  0.665536  0.661395  1
  Al  Al18  1  0.334464  0.334464  0.992466  1
  Al  Al19  1  0.337053  0.992076  0.333347  1
  Al  Al20  1  0.992076  0.337053  0.333347  1
  Al  Al21  1  0.336141  0.336141  0.335440  1
  Co  Co22  1  0.000000  0.000000  0.999729  1
  Co  Co23  1  0.000000  0.000000  0.498296  1
  Co  Co24  1  0.499707  0.002703  0.497679  1
  Co  Co25  1  0.002703  0.499707  0.497679  1
  Co  Co26  1  0.500000  0.500000  0.002705  1
  Co  Co27  1  0.997297  0.500293  0.000088  1
  Co  Co28  1  0.500293  0.997297  0.000088  1
