# generated using pymatgen
data_La4Mg(MoO4)3
_symmetry_space_group_name_H-M   'P 1'
_cell_length_a   5.68701219
_cell_length_b   5.88093283
_cell_length_c   8.17151981
_cell_angle_alpha   90.02539990
_cell_angle_beta   89.98719812
_cell_angle_gamma   90.26644159
_symmetry_Int_Tables_number   1
_chemical_formula_structural   La4Mg(MoO4)3
_chemical_formula_sum   'La4 Mg1 Mo3 O12'
_cell_volume   273.29297442
_cell_formula_units_Z   1
loop_
 _symmetry_equiv_pos_site_id
 _symmetry_equiv_pos_as_xyz
  1  'x, y, z'
loop_
 _atom_site_type_symbol
 _atom_site_label
 _atom_site_symmetry_multiplicity
 _atom_site_fract_x
 _atom_site_fract_y
 _atom_site_fract_z
 _atom_site_occupancy
  La  La0  1  0.984936  0.058743  0.252311  1
  La  La1  1  0.490968  0.450200  0.747797  1
  La  La2  1  0.509032  0.549800  0.252203  1
  La  La3  1  0.015064  0.941257  0.747689  1
  Mg  Mg4  1  0.000000  0.500000  0.500000  1
  Mo  Mo5  1  0.000000  0.500000  0.000000  1
  Mo  Mo6  1  0.500000  0.000000  0.000000  1
  Mo  Mo7  1  0.500000  0.000000  0.500000  1
  O  O8  1  0.303513  0.712781  0.553138  1
  O  O9  1  0.787727  0.801841  0.449009  1
  O  O10  1  0.194862  0.196985  0.940105  1
  O  O11  1  0.693022  0.302623  0.060329  1
  O  O12  1  0.696487  0.287219  0.446862  1
  O  O13  1  0.212273  0.198159  0.550991  1
  O  O14  1  0.805138  0.803015  0.059895  1
  O  O15  1  0.306978  0.697377  0.939671  1
  O  O16  1  0.103441  0.459545  0.254628  1
  O  O17  1  0.610122  0.041625  0.748222  1
  O  O18  1  0.389878  0.958375  0.251778  1
  O  O19  1  0.896559  0.540455  0.745372  1
