# generated using pymatgen
data_TbSm4P12Pd3Ru16
_symmetry_space_group_name_H-M   'P 1'
_cell_length_a   3.99842400
_cell_length_b   12.65749571
_cell_length_c   12.65658704
_cell_angle_alpha   120.00167803
_cell_angle_beta   90.00000000
_cell_angle_gamma   90.00000000
_symmetry_Int_Tables_number   1
_chemical_formula_structural   TbSm4P12Pd3Ru16
_chemical_formula_sum   'Tb1 Sm4 P12 Pd3 Ru16'
_cell_volume   554.72345903
_cell_formula_units_Z   1
loop_
 _symmetry_equiv_pos_site_id
 _symmetry_equiv_pos_as_xyz
  1  'x, y, z'
loop_
 _atom_site_type_symbol
 _atom_site_label
 _atom_site_symmetry_multiplicity
 _atom_site_fract_x
 _atom_site_fract_y
 _atom_site_fract_z
 _atom_site_occupancy
  Tb  Tb0  1  0.000000  0.666680  0.333325  1
  Sm  Sm1  1  0.500000  0.999840  0.181693  1
  Sm  Sm2  1  0.500000  0.181705  0.000002  1
  Sm  Sm3  1  0.500000  0.818258  0.818242  1
  Sm  Sm4  1  0.000000  0.333270  0.666567  1
  P  P5  1  0.000000  0.999741  0.812545  1
  P  P6  1  0.000000  0.812837  0.000370  1
  P  P7  1  0.000000  0.187523  0.187135  1
  P  P8  1  0.500000  0.300149  0.478890  1
  P  P9  1  0.500000  0.178746  0.699831  1
  P  P10  1  0.500000  0.521089  0.821259  1
  P  P11  1  0.500000  0.820117  0.519716  1
  P  P12  1  0.500000  0.480334  0.300452  1
  P  P13  1  0.500000  0.699546  0.179893  1
  P  P14  1  0.000000  0.000056  0.367830  1
  P  P15  1  0.000000  0.367788  0.999885  1
  P  P16  1  0.000000  0.632170  0.632224  1
  Pd  Pd17  1  0.000000  0.000067  0.553565  1
  Pd  Pd18  1  0.000000  0.553560  0.000004  1
  Pd  Pd19  1  0.000000  0.446425  0.446469  1
  Ru  Ru20  1  0.500000  0.999486  0.711192  1
  Ru  Ru21  1  0.500000  0.711698  0.000562  1
  Ru  Ru22  1  0.500000  0.288858  0.288290  1
  Ru  Ru23  1  0.000000  0.193583  0.379079  1
  Ru  Ru24  1  0.000000  0.185540  0.806366  1
  Ru  Ru25  1  0.000000  0.620842  0.814474  1
  Ru  Ru26  1  0.000000  0.813729  0.619766  1
  Ru  Ru27  1  0.000000  0.380289  0.193950  1
  Ru  Ru28  1  0.000000  0.806026  0.186334  1
  Ru  Ru29  1  0.500000  0.122896  0.491934  1
  Ru  Ru30  1  0.500000  0.369076  0.877097  1
  Ru  Ru31  1  0.500000  0.507961  0.630907  1
  Ru  Ru32  1  0.500000  0.630605  0.506459  1
  Ru  Ru33  1  0.500000  0.493617  0.124230  1
  Ru  Ru34  1  0.500000  0.875817  0.369459  1
  Ru  Ru35  1  0.000000  0.999976  0.000004  1
