# generated using pymatgen
data_LiEu9(AlSb3)4
_symmetry_space_group_name_H-M   'P 1'
_cell_length_a   4.56332000
_cell_length_b   12.33145576
_cell_length_c   14.31912321
_cell_angle_alpha   89.78064976
_cell_angle_beta   90.00000000
_cell_angle_gamma   90.00000000
_symmetry_Int_Tables_number   1
_chemical_formula_structural   LiEu9(AlSb3)4
_chemical_formula_sum   'Li1 Eu9 Al4 Sb12'
_cell_volume   805.76521879
_cell_formula_units_Z   1
loop_
 _symmetry_equiv_pos_site_id
 _symmetry_equiv_pos_as_xyz
  1  'x, y, z'
loop_
 _atom_site_type_symbol
 _atom_site_label
 _atom_site_symmetry_multiplicity
 _atom_site_fract_x
 _atom_site_fract_y
 _atom_site_fract_z
 _atom_site_occupancy
  Li  Li0  1  0.500000  0.000000  0.500000  1
  Eu  Eu1  1  0.500000  0.088490  0.740629  1
  Eu  Eu2  1  0.500000  0.408163  0.250047  1
  Eu  Eu3  1  0.500000  0.327013  0.520691  1
  Eu  Eu4  1  0.500000  0.911510  0.259371  1
  Eu  Eu5  1  0.500000  0.500000  0.000000  1
  Eu  Eu6  1  0.500000  0.166193  0.020566  1
  Eu  Eu7  1  0.500000  0.833807  0.979434  1
  Eu  Eu8  1  0.500000  0.672987  0.479309  1
  Eu  Eu9  1  0.500000  0.591837  0.749953  1
  Al  Al10  1  0.000000  0.168758  0.217484  1
  Al  Al11  1  0.000000  0.831242  0.782516  1
  Al  Al12  1  0.000000  0.677640  0.290440  1
  Al  Al13  1  0.000000  0.322360  0.709560  1
  Sb  Sb14  1  0.000000  0.849105  0.411502  1
  Sb  Sb15  1  0.000000  0.150895  0.588498  1
  Sb  Sb16  1  0.000000  0.658334  0.905166  1
  Sb  Sb17  1  0.000000  0.341666  0.094834  1
  Sb  Sb18  1  0.500000  0.335593  0.819738  1
  Sb  Sb19  1  0.500000  0.664407  0.180262  1
  Sb  Sb20  1  0.500000  0.839043  0.672014  1
  Sb  Sb21  1  0.500000  0.160957  0.327986  1
  Sb  Sb22  1  0.000000  0.518506  0.601236  1
  Sb  Sb23  1  0.000000  0.481494  0.398764  1
  Sb  Sb24  1  0.000000  0.021017  0.896571  1
  Sb  Sb25  1  0.000000  0.978983  0.103429  1
