# generated using pymatgen
data_Ta2MnTe10Pd
_symmetry_space_group_name_H-M   'P 1'
_cell_length_a   7.41944667
_cell_length_b   7.41944699
_cell_length_c   15.72141401
_cell_angle_alpha   90.01705186
_cell_angle_beta   89.98294810
_cell_angle_gamma   151.10610273
_symmetry_Int_Tables_number   1
_chemical_formula_structural   Ta2MnTe10Pd
_chemical_formula_sum   'Ta2 Mn1 Te10 Pd1'
_cell_volume   418.16896246
_cell_formula_units_Z   1
loop_
 _symmetry_equiv_pos_site_id
 _symmetry_equiv_pos_as_xyz
  1  'x, y, z'
loop_
 _atom_site_type_symbol
 _atom_site_label
 _atom_site_symmetry_multiplicity
 _atom_site_fract_x
 _atom_site_fract_y
 _atom_site_fract_z
 _atom_site_occupancy
  Ta  Ta0  1  0.509302  0.490698  0.746819  1
  Ta  Ta1  1  0.490698  0.509302  0.253181  1
  Mn  Mn2  1  0.000000  0.000000  0.500000  1
  Te  Te3  1  0.160618  0.839382  0.752722  1
  Te  Te4  1  0.839382  0.160618  0.247278  1
  Te  Te5  1  0.397430  0.602570  0.087769  1
  Te  Te6  1  0.602570  0.397430  0.912231  1
  Te  Te7  1  0.905581  0.094419  0.849835  1
  Te  Te8  1  0.094419  0.905581  0.150165  1
  Te  Te9  1  0.098699  0.901301  0.353419  1
  Te  Te10  1  0.901301  0.098699  0.646581  1
  Te  Te11  1  0.394149  0.605851  0.420624  1
  Te  Te12  1  0.605851  0.394149  0.579376  1
  Pd  Pd13  1  0.000000  0.000000  0.000000  1
