# generated using pymatgen
data_La5CeMnBr10
_symmetry_space_group_name_H-M   'P 1'
_cell_length_a   7.80553782
_cell_length_b   9.40714400
_cell_length_c   9.88037200
_cell_angle_alpha   108.22392549
_cell_angle_beta   97.03787574
_cell_angle_gamma   104.17425826
_symmetry_Int_Tables_number   1
_chemical_formula_structural   La5CeMnBr10
_chemical_formula_sum   'La5 Ce1 Mn1 Br10'
_cell_volume   652.32313606
_cell_formula_units_Z   1
loop_
 _symmetry_equiv_pos_site_id
 _symmetry_equiv_pos_as_xyz
  1  'x, y, z'
loop_
 _atom_site_type_symbol
 _atom_site_label
 _atom_site_symmetry_multiplicity
 _atom_site_fract_x
 _atom_site_fract_y
 _atom_site_fract_z
 _atom_site_occupancy
  La  La0  1  0.957445  0.279055  0.581642  1
  La  La1  1  0.862532  0.940185  0.747751  1
  La  La2  1  0.136432  0.057402  0.252216  1
  La  La3  1  0.364494  0.137963  0.686847  1
  La  La4  1  0.633699  0.852281  0.310437  1
  Ce  Ce5  1  0.037704  0.746903  0.424285  1
  Mn  Mn6  1  0.004155  0.971937  0.492247  1
  Br  Br7  1  0.452833  0.821425  0.577163  1
  Br  Br8  1  0.545836  0.176304  0.421897  1
  Br  Br9  1  0.914298  0.626447  0.663626  1
  Br  Br10  1  0.087673  0.381383  0.337401  1
  Br  Br11  1  0.237633  0.081384  0.949585  1
  Br  Br12  1  0.759304  0.929822  0.054848  1
  Br  Br13  1  0.329386  0.452481  0.768580  1
  Br  Br14  1  0.677370  0.543747  0.230517  1
  Br  Br15  1  0.785306  0.251998  0.838537  1
  Br  Br16  1  0.213899  0.749282  0.162422  1
