# generated using pymatgen
data_PrSc(Tc2P)4
_symmetry_space_group_name_H-M   'P 1'
_cell_length_a   7.41185370
_cell_length_b   7.41185370
_cell_length_c   3.95540800
_cell_angle_alpha   90.00000000
_cell_angle_beta   90.00000000
_cell_angle_gamma   91.00790368
_symmetry_Int_Tables_number   1
_chemical_formula_structural   PrSc(Tc2P)4
_chemical_formula_sum   'Pr1 Sc1 Tc8 P4'
_cell_volume   217.25899396
_cell_formula_units_Z   1
loop_
 _symmetry_equiv_pos_site_id
 _symmetry_equiv_pos_as_xyz
  1  'x, y, z'
loop_
 _atom_site_type_symbol
 _atom_site_label
 _atom_site_symmetry_multiplicity
 _atom_site_fract_x
 _atom_site_fract_y
 _atom_site_fract_z
 _atom_site_occupancy
  Pr  Pr0  1  0.000000  0.000000  0.500000  1
  Sc  Sc1  1  0.500000  0.500000  0.000000  1
  Tc  Tc2  1  0.343533  0.086306  0.000000  1
  Tc  Tc3  1  0.579671  0.164294  0.500000  1
  Tc  Tc4  1  0.420329  0.835706  0.500000  1
  Tc  Tc5  1  0.656467  0.913694  0.000000  1
  Tc  Tc6  1  0.164294  0.579671  0.500000  1
  Tc  Tc7  1  0.835706  0.420329  0.500000  1
  Tc  Tc8  1  0.086306  0.343533  0.000000  1
  Tc  Tc9  1  0.913694  0.656467  0.000000  1
  P  P10  1  0.782676  0.217324  0.000000  1
  P  P11  1  0.704726  0.704726  0.500000  1
  P  P12  1  0.295274  0.295274  0.500000  1
  P  P13  1  0.217324  0.782676  0.000000  1
