# generated using pymatgen
data_Ca(PrPd6)2
_symmetry_space_group_name_H-M   'P 1'
_cell_length_a   5.35822361
_cell_length_b   5.35822308
_cell_length_c   11.49604770
_cell_angle_alpha   94.85407482
_cell_angle_beta   94.85407990
_cell_angle_gamma   120.14799370
_symmetry_Int_Tables_number   1
_chemical_formula_structural   Ca(PrPd6)2
_chemical_formula_sum   'Ca1 Pr2 Pd12'
_cell_volume   281.27578451
_cell_formula_units_Z   1
loop_
 _symmetry_equiv_pos_site_id
 _symmetry_equiv_pos_as_xyz
  1  'x, y, z'
loop_
 _atom_site_type_symbol
 _atom_site_label
 _atom_site_symmetry_multiplicity
 _atom_site_fract_x
 _atom_site_fract_y
 _atom_site_fract_z
 _atom_site_occupancy
  Ca  Ca0  1  0.000000  0.000000  0.000000  1
  Pr  Pr1  1  0.134518  0.134518  0.354031  1
  Pr  Pr2  1  0.865482  0.865482  0.645968  1
  Pd  Pd3  1  0.669920  0.330079  0.000000  1
  Pd  Pd4  1  0.330079  0.669920  0.000000  1
  Pd  Pd5  1  0.575759  0.071786  0.202398  1
  Pd  Pd6  1  0.071786  0.575759  0.202398  1
  Pd  Pd7  1  0.567334  0.567334  0.199789  1
  Pd  Pd8  1  0.811619  0.483892  0.408672  1
  Pd  Pd9  1  0.483892  0.811619  0.408672  1
  Pd  Pd10  1  0.516108  0.188381  0.591328  1
  Pd  Pd11  1  0.188381  0.516108  0.591328  1
  Pd  Pd12  1  0.432666  0.432666  0.800211  1
  Pd  Pd13  1  0.928214  0.424241  0.797602  1
  Pd  Pd14  1  0.424241  0.928214  0.797602  1
