# generated using pymatgen
data_Ho5Co6
_symmetry_space_group_name_H-M   'P 1'
_cell_length_a   5.49643520
_cell_length_b   5.49643543
_cell_length_c   20.28843400
_cell_angle_alpha   90.00000000
_cell_angle_beta   90.00000000
_cell_angle_gamma   137.35119588
_symmetry_Int_Tables_number   1
_chemical_formula_structural   Ho5Co6
_chemical_formula_sum   'Ho10 Co12'
_cell_volume   415.26164159
_cell_formula_units_Z   2
loop_
 _symmetry_equiv_pos_site_id
 _symmetry_equiv_pos_as_xyz
  1  'x, y, z'
loop_
 _atom_site_type_symbol
 _atom_site_label
 _atom_site_symmetry_multiplicity
 _atom_site_fract_x
 _atom_site_fract_y
 _atom_site_fract_z
 _atom_site_occupancy
  Ho  Ho0  1  0.278439  0.721561  0.250000  1
  Ho  Ho1  1  0.281618  0.718382  0.065319  1
  Ho  Ho2  1  0.007165  0.992835  0.845702  1
  Ho  Ho3  1  0.721561  0.278439  0.750000  1
  Ho  Ho4  1  0.718382  0.281618  0.565319  1
  Ho  Ho5  1  0.992835  0.007165  0.345702  1
  Ho  Ho6  1  0.007165  0.992835  0.654298  1
  Ho  Ho7  1  0.718382  0.281618  0.934681  1
  Ho  Ho8  1  0.992835  0.007165  0.154298  1
  Ho  Ho9  1  0.281618  0.718382  0.434681  1
  Co  Co10  1  0.000000  0.000000  0.500000  1
  Co  Co11  1  0.000000  0.000000  0.000000  1
  Co  Co12  1  0.309439  0.690561  0.651961  1
  Co  Co13  1  0.569456  0.430544  0.446098  1
  Co  Co14  1  0.420503  0.579497  0.750000  1
  Co  Co15  1  0.430544  0.569456  0.946098  1
  Co  Co16  1  0.579497  0.420503  0.250000  1
  Co  Co17  1  0.430544  0.569456  0.553902  1
  Co  Co18  1  0.690561  0.309439  0.348039  1
  Co  Co19  1  0.690561  0.309439  0.151961  1
  Co  Co20  1  0.569456  0.430544  0.053902  1
  Co  Co21  1  0.309439  0.690561  0.848039  1
