# generated using pymatgen
data_Dy3YCo10(Ni5P6)2
_symmetry_space_group_name_H-M   'P 1'
_cell_length_a   3.69152000
_cell_length_b   10.29128219
_cell_length_c   11.84932238
_cell_angle_alpha   90.05514970
_cell_angle_beta   90.00000000
_cell_angle_gamma   90.00000000
_symmetry_Int_Tables_number   1
_chemical_formula_structural   Dy3YCo10(Ni5P6)2
_chemical_formula_sum   'Dy3 Y1 Co10 Ni10 P12'
_cell_volume   450.16116540
_cell_formula_units_Z   1
loop_
 _symmetry_equiv_pos_site_id
 _symmetry_equiv_pos_as_xyz
  1  'x, y, z'
loop_
 _atom_site_type_symbol
 _atom_site_label
 _atom_site_symmetry_multiplicity
 _atom_site_fract_x
 _atom_site_fract_y
 _atom_site_fract_z
 _atom_site_occupancy
  Dy  Dy0  1  0.250000  0.581316  0.704052  1
  Dy  Dy1  1  0.250000  0.918380  0.203899  1
  Dy  Dy2  1  0.750000  0.081285  0.796862  1
  Y  Y3  1  0.750000  0.418921  0.296734  1
  Co  Co4  1  0.750000  0.776808  0.824570  1
  Co  Co5  1  0.750000  0.723208  0.324507  1
  Co  Co6  1  0.250000  0.879090  0.697983  1
  Co  Co7  1  0.250000  0.621111  0.197772  1
  Co  Co8  1  0.750000  0.119486  0.301745  1
  Co  Co9  1  0.750000  0.380377  0.801761  1
  Co  Co10  1  0.250000  0.466735  0.932975  1
  Co  Co11  1  0.250000  0.033265  0.433216  1
  Co  Co12  1  0.750000  0.533789  0.066865  1
  Co  Co13  1  0.750000  0.966228  0.567144  1
  Ni  Ni14  1  0.250000  0.711293  0.988290  1
  Ni  Ni15  1  0.250000  0.788794  0.488534  1
  Ni  Ni16  1  0.750000  0.285553  0.009266  1
  Ni  Ni17  1  0.750000  0.214328  0.509602  1
  Ni  Ni18  1  0.250000  0.408430  0.486804  1
  Ni  Ni19  1  0.250000  0.091610  0.986046  1
  Ni  Ni20  1  0.750000  0.592581  0.514507  1
  Ni  Ni21  1  0.750000  0.907605  0.014311  1
  Ni  Ni22  1  0.250000  0.223913  0.175737  1
  Ni  Ni23  1  0.250000  0.275841  0.676056  1
  P  P24  1  0.250000  0.425167  0.112892  1
  P  P25  1  0.250000  0.074791  0.613330  1
  P  P26  1  0.750000  0.578461  0.886441  1
  P  P27  1  0.750000  0.921456  0.386529  1
  P  P28  1  0.250000  0.271976  0.867401  1
  P  P29  1  0.250000  0.227986  0.367616  1
  P  P30  1  0.750000  0.728590  0.135138  1
  P  P31  1  0.750000  0.771336  0.635193  1
  P  P32  1  0.250000  0.607066  0.387784  1
  P  P33  1  0.250000  0.893215  0.887686  1
  P  P34  1  0.750000  0.397563  0.610471  1
  P  P35  1  0.750000  0.102445  0.110281  1
