# generated using pymatgen
data_Sm4Y4Sc12Si15Ni
_symmetry_space_group_name_H-M   'P 1'
_cell_length_a   7.10183877
_cell_length_b   7.47577864
_cell_length_c   14.01470855
_cell_angle_alpha   90.02347947
_cell_angle_beta   89.95133744
_cell_angle_gamma   89.93167524
_symmetry_Int_Tables_number   1
_chemical_formula_structural   Sm4Y4Sc12Si15Ni
_chemical_formula_sum   'Sm4 Y4 Sc12 Si15 Ni1'
_cell_volume   744.06488689
_cell_formula_units_Z   1
loop_
 _symmetry_equiv_pos_site_id
 _symmetry_equiv_pos_as_xyz
  1  'x, y, z'
loop_
 _atom_site_type_symbol
 _atom_site_label
 _atom_site_symmetry_multiplicity
 _atom_site_fract_x
 _atom_site_fract_y
 _atom_site_fract_z
 _atom_site_occupancy
  Sm  Sm0  1  0.511758  0.323872  0.094806  1
  Sm  Sm1  1  0.011097  0.176483  0.404694  1
  Sm  Sm2  1  0.511572  0.324162  0.403806  1
  Sm  Sm3  1  0.488916  0.676288  0.597352  1
  Y  Y4  1  0.011541  0.177550  0.095676  1
  Y  Y5  1  0.989368  0.823413  0.904429  1
  Y  Y6  1  0.488489  0.678250  0.902619  1
  Y  Y7  1  0.989288  0.823811  0.596937  1
  Sc  Sc8  1  0.161750  0.505066  0.750556  1
  Sc  Sc9  1  0.838957  0.499190  0.249620  1
  Sc  Sc10  1  0.338986  0.003385  0.249414  1
  Sc  Sc11  1  0.670773  0.000617  0.750352  1
  Sc  Sc12  1  0.316421  0.172161  0.628512  1
  Sc  Sc13  1  0.672504  0.826657  0.374475  1
  Sc  Sc14  1  0.170381  0.677122  0.374048  1
  Sc  Sc15  1  0.671529  0.826024  0.124467  1
  Sc  Sc16  1  0.835354  0.319882  0.628848  1
  Sc  Sc17  1  0.315806  0.172125  0.872440  1
  Sc  Sc18  1  0.836934  0.318660  0.872085  1
  Sc  Sc19  1  0.170947  0.677126  0.125130  1
  Si  Si20  1  0.968582  0.882109  0.249039  1
  Si  Si21  1  0.468687  0.619957  0.249428  1
  Si  Si22  1  0.532326  0.383216  0.751203  1
  Si  Si23  1  0.279919  0.876246  0.751000  1
  Si  Si24  1  0.714062  0.126097  0.248474  1
  Si  Si25  1  0.211295  0.375042  0.248938  1
  Si  Si26  1  0.783701  0.623528  0.751545  1
  Si  Si27  1  0.155421  0.467290  0.539568  1
  Si  Si28  1  0.844782  0.538485  0.463102  1
  Si  Si29  1  0.345910  0.963349  0.461983  1
  Si  Si30  1  0.845427  0.536481  0.037202  1
  Si  Si31  1  0.656778  0.035061  0.541011  1
  Si  Si32  1  0.157676  0.466745  0.960568  1
  Si  Si33  1  0.656841  0.033132  0.958667  1
  Si  Si34  1  0.343603  0.963016  0.037954  1
  Ni  Ni35  1  0.032621  0.108403  0.750053  1
