# generated using pymatgen
data_CsMn7CoO16
_symmetry_space_group_name_H-M   'P 1'
_cell_length_a   5.86925733
_cell_length_b   7.12428613
_cell_length_c   7.21979300
_cell_angle_alpha   88.41332117
_cell_angle_beta   78.23051447
_cell_angle_gamma   77.89760149
_symmetry_Int_Tables_number   1
_chemical_formula_structural   CsMn7CoO16
_chemical_formula_sum   'Cs1 Mn7 Co1 O16'
_cell_volume   288.93901251
_cell_formula_units_Z   1
loop_
 _symmetry_equiv_pos_site_id
 _symmetry_equiv_pos_as_xyz
  1  'x, y, z'
loop_
 _atom_site_type_symbol
 _atom_site_label
 _atom_site_symmetry_multiplicity
 _atom_site_fract_x
 _atom_site_fract_y
 _atom_site_fract_z
 _atom_site_occupancy
  Cs  Cs0  1  0.001966  0.999429  0.998853  1
  Mn  Mn1  1  0.081561  0.507946  0.184153  1
  Mn  Mn2  1  0.174650  0.814935  0.513171  1
  Mn  Mn3  1  0.669330  0.815739  0.516169  1
  Mn  Mn4  1  0.337904  0.186714  0.479615  1
  Mn  Mn5  1  0.836305  0.185927  0.483112  1
  Mn  Mn6  1  0.428306  0.489267  0.821710  1
  Mn  Mn7  1  0.924630  0.492252  0.821247  1
  Co  Co8  1  0.581558  0.510678  0.181426  1
  O  O9  1  0.829798  0.637194  0.055434  1
  O  O10  1  0.331998  0.636744  0.055181  1
  O  O11  1  0.983626  0.700407  0.381954  1
  O  O12  1  0.484910  0.698741  0.383484  1
  O  O13  1  0.855873  0.954632  0.636388  1
  O  O14  1  0.356363  0.954859  0.636261  1
  O  O15  1  0.342430  0.368385  0.283962  1
  O  O16  1  0.841592  0.367105  0.284065  1
  O  O17  1  0.167214  0.633040  0.716645  1
  O  O18  1  0.665966  0.632957  0.717513  1
  O  O19  1  0.153790  0.045653  0.360027  1
  O  O20  1  0.652387  0.045066  0.360817  1
  O  O21  1  0.024719  0.299218  0.618263  1
  O  O22  1  0.524474  0.299964  0.616679  1
  O  O23  1  0.178516  0.360779  0.946196  1
  O  O24  1  0.677238  0.362367  0.947674  1
