# generated using pymatgen
data_Pr7NdHo8(ScSi4)4
_symmetry_space_group_name_H-M   'P 1'
_cell_length_a   7.39198912
_cell_length_b   7.76213711
_cell_length_c   14.73524703
_cell_angle_alpha   90.00140949
_cell_angle_beta   90.00670422
_cell_angle_gamma   89.98055876
_symmetry_Int_Tables_number   1
_chemical_formula_structural   Pr7NdHo8(ScSi4)4
_chemical_formula_sum   'Pr7 Nd1 Ho8 Sc4 Si16'
_cell_volume   845.47354243
_cell_formula_units_Z   1
loop_
 _symmetry_equiv_pos_site_id
 _symmetry_equiv_pos_as_xyz
  1  'x, y, z'
loop_
 _atom_site_type_symbol
 _atom_site_label
 _atom_site_symmetry_multiplicity
 _atom_site_fract_x
 _atom_site_fract_y
 _atom_site_fract_z
 _atom_site_occupancy
  Pr  Pr0  1  0.517629  0.321145  0.401194  1
  Pr  Pr1  1  0.482407  0.678728  0.901194  1
  Pr  Pr2  1  0.482307  0.678769  0.598712  1
  Pr  Pr3  1  0.982436  0.821220  0.598639  1
  Pr  Pr4  1  0.982427  0.821242  0.901237  1
  Pr  Pr5  1  0.517564  0.321206  0.098907  1
  Pr  Pr6  1  0.017533  0.178723  0.098711  1
  Nd  Nd7  1  0.017994  0.179453  0.400772  1
  Ho  Ho8  1  0.323393  0.177650  0.624731  1
  Ho  Ho9  1  0.676477  0.822601  0.375270  1
  Ho  Ho10  1  0.176346  0.677887  0.375205  1
  Ho  Ho11  1  0.823560  0.322363  0.875150  1
  Ho  Ho12  1  0.823756  0.322144  0.624766  1
  Ho  Ho13  1  0.323605  0.177642  0.875168  1
  Ho  Ho14  1  0.176458  0.677793  0.124966  1
  Ho  Ho15  1  0.676434  0.822495  0.124937  1
  Sc  Sc16  1  0.656012  0.989968  0.750009  1
  Sc  Sc17  1  0.844073  0.489734  0.250168  1
  Sc  Sc18  1  0.343883  0.010124  0.250129  1
  Sc  Sc19  1  0.156030  0.509993  0.749997  1
  Si  Si20  1  0.281165  0.874759  0.749983  1
  Si  Si21  1  0.475295  0.608062  0.250054  1
  Si  Si22  1  0.024809  0.107975  0.749952  1
  Si  Si23  1  0.524764  0.391958  0.749963  1
  Si  Si24  1  0.148135  0.466708  0.539028  1
  Si  Si25  1  0.975481  0.892806  0.250371  1
  Si  Si26  1  0.719522  0.125456  0.250400  1
  Si  Si27  1  0.851643  0.532506  0.039371  1
  Si  Si28  1  0.351686  0.967464  0.039395  1
  Si  Si29  1  0.148340  0.467460  0.960668  1
  Si  Si30  1  0.648383  0.032584  0.539242  1
  Si  Si31  1  0.350751  0.968062  0.460362  1
  Si  Si32  1  0.851940  0.531563  0.460363  1
  Si  Si33  1  0.781265  0.625137  0.749969  1
  Si  Si34  1  0.218140  0.374132  0.250379  1
  Si  Si35  1  0.648356  0.032487  0.960638  1
