# generated using pymatgen
data_Lu12IrOs2Ru
_symmetry_space_group_name_H-M   'P 1'
_cell_length_a   7.26619736
_cell_length_b   8.83859600
_cell_length_c   6.18781170
_cell_angle_alpha   90.00000000
_cell_angle_beta   90.07753197
_cell_angle_gamma   90.00000000
_symmetry_Int_Tables_number   1
_chemical_formula_structural   Lu12IrOs2Ru
_chemical_formula_sum   'Lu12 Ir1 Os2 Ru1'
_cell_volume   397.39936127
_cell_formula_units_Z   1
loop_
 _symmetry_equiv_pos_site_id
 _symmetry_equiv_pos_as_xyz
  1  'x, y, z'
loop_
 _atom_site_type_symbol
 _atom_site_label
 _atom_site_symmetry_multiplicity
 _atom_site_fract_x
 _atom_site_fract_y
 _atom_site_fract_z
 _atom_site_occupancy
  Lu  Lu0  1  0.674215  0.061017  0.334015  1
  Lu  Lu1  1  0.177456  0.438138  0.168195  1
  Lu  Lu2  1  0.325195  0.561512  0.666814  1
  Lu  Lu3  1  0.823770  0.936280  0.831110  1
  Lu  Lu4  1  0.325195  0.938488  0.666814  1
  Lu  Lu5  1  0.823770  0.563720  0.831110  1
  Lu  Lu6  1  0.674215  0.438983  0.334015  1
  Lu  Lu7  1  0.177456  0.061862  0.168195  1
  Lu  Lu8  1  0.537507  0.250000  0.873541  1
  Lu  Lu9  1  0.038800  0.250000  0.626893  1
  Lu  Lu10  1  0.460811  0.750000  0.126391  1
  Lu  Lu11  1  0.961434  0.750000  0.372113  1
  Ir  Ir12  1  0.883981  0.250000  0.038865  1
  Os  Os13  1  0.383242  0.250000  0.461286  1
  Os  Os14  1  0.617122  0.750000  0.537470  1
  Ru  Ru15  1  0.115833  0.750000  0.963175  1
