# generated using pymatgen
data_Np2Tc3P4
_symmetry_space_group_name_H-M   'P 1'
_cell_length_a   7.86267600
_cell_length_b   5.63412556
_cell_length_c   6.72374074
_cell_angle_alpha   75.91973596
_cell_angle_beta   90.00000000
_cell_angle_gamma   90.00000000
_symmetry_Int_Tables_number   1
_chemical_formula_structural   Np2Tc3P4
_chemical_formula_sum   'Np4 Tc6 P8'
_cell_volume   288.90817934
_cell_formula_units_Z   2
loop_
 _symmetry_equiv_pos_site_id
 _symmetry_equiv_pos_as_xyz
  1  'x, y, z'
loop_
 _atom_site_type_symbol
 _atom_site_label
 _atom_site_symmetry_multiplicity
 _atom_site_fract_x
 _atom_site_fract_y
 _atom_site_fract_z
 _atom_site_occupancy
  Np  Np0  1  0.935102  0.575388  0.272142  1
  Np  Np1  1  0.435102  0.924612  0.727858  1
  Np  Np2  1  0.064898  0.424612  0.727858  1
  Np  Np3  1  0.564898  0.075388  0.272142  1
  Tc  Tc4  1  0.296837  0.597036  0.111493  1
  Tc  Tc5  1  0.796837  0.902964  0.888507  1
  Tc  Tc6  1  0.703163  0.402964  0.888507  1
  Tc  Tc7  1  0.203163  0.097036  0.111493  1
  Tc  Tc8  1  0.500000  0.500000  0.500000  1
  Tc  Tc9  1  0.000000  0.000000  0.500000  1
  P  P10  1  0.597607  0.640267  0.121214  1
  P  P11  1  0.097607  0.859733  0.878786  1
  P  P12  1  0.402393  0.359733  0.878786  1
  P  P13  1  0.902393  0.140267  0.121214  1
  P  P14  1  0.749939  0.731401  0.590973  1
  P  P15  1  0.249939  0.768599  0.409027  1
  P  P16  1  0.250061  0.268599  0.409027  1
  P  P17  1  0.750061  0.231401  0.590973  1
