# generated using pymatgen
data_Y2Tm3CoRu
_symmetry_space_group_name_H-M   'P 1'
_cell_length_a   6.25353002
_cell_length_b   7.10941659
_cell_length_c   8.45659894
_cell_angle_alpha   96.80624843
_cell_angle_beta   111.69975034
_cell_angle_gamma   90.00000120
_symmetry_Int_Tables_number   1
_chemical_formula_structural   Y2Tm3CoRu
_chemical_formula_sum   'Y4 Tm6 Co2 Ru2'
_cell_volume   346.47466273
_cell_formula_units_Z   2
loop_
 _symmetry_equiv_pos_site_id
 _symmetry_equiv_pos_as_xyz
  1  'x, y, z'
loop_
 _atom_site_type_symbol
 _atom_site_label
 _atom_site_symmetry_multiplicity
 _atom_site_fract_x
 _atom_site_fract_y
 _atom_site_fract_z
 _atom_site_occupancy
  Y  Y0  1  0.783457  0.086450  0.807760  1
  Y  Y1  1  0.975697  0.413550  0.192240  1
  Y  Y2  1  0.202705  0.918304  0.188555  1
  Y  Y3  1  0.014150  0.581696  0.811445  1
  Tm  Tm4  1  0.211800  0.188635  0.567126  1
  Tm  Tm5  1  0.644674  0.311365  0.432874  1
  Tm  Tm6  1  0.795400  0.818945  0.433907  1
  Tm  Tm7  1  0.361493  0.681055  0.566093  1
  Tm  Tm8  1  0.426902  0.250000  0.000000  1
  Tm  Tm9  1  0.577744  0.750000  0.000000  1
  Co  Co10  1  0.596382  0.424350  0.776967  1
  Co  Co11  1  0.819414  0.075650  0.223033  1
  Ru  Ru12  1  0.406607  0.571785  0.223032  1
  Ru  Ru13  1  0.183576  0.928215  0.776968  1
