# generated using pymatgen
data_Dy5Ta3Co16SiP11
_symmetry_space_group_name_H-M   'P 1'
_cell_length_a   12.22291806
_cell_length_b   12.22291859
_cell_length_c   3.70412100
_cell_angle_alpha   90.00000000
_cell_angle_beta   90.00000000
_cell_angle_gamma   119.91893653
_symmetry_Int_Tables_number   1
_chemical_formula_structural   Dy5Ta3Co16SiP11
_chemical_formula_sum   'Dy5 Ta3 Co16 Si1 P11'
_cell_volume   479.64485479
_cell_formula_units_Z   1
loop_
 _symmetry_equiv_pos_site_id
 _symmetry_equiv_pos_as_xyz
  1  'x, y, z'
loop_
 _atom_site_type_symbol
 _atom_site_label
 _atom_site_symmetry_multiplicity
 _atom_site_fract_x
 _atom_site_fract_y
 _atom_site_fract_z
 _atom_site_occupancy
  Dy  Dy0  1  0.665890  0.333011  0.000000  1
  Dy  Dy1  1  0.333011  0.665890  0.000000  1
  Dy  Dy2  1  0.180362  0.180362  0.500000  1
  Dy  Dy3  1  0.816559  0.000337  0.500000  1
  Dy  Dy4  1  0.000337  0.816559  0.500000  1
  Ta  Ta5  1  0.561553  0.561553  0.000000  1
  Ta  Ta6  1  0.442609  0.998744  0.000000  1
  Ta  Ta7  1  0.998744  0.442609  0.000000  1
  Co  Co8  1  0.822877  0.197620  0.000000  1
  Co  Co9  1  0.803467  0.626286  0.000000  1
  Co  Co10  1  0.374879  0.173543  0.000000  1
  Co  Co11  1  0.197620  0.822877  0.000000  1
  Co  Co12  1  0.626286  0.803467  0.000000  1
  Co  Co13  1  0.173543  0.374879  0.000000  1
  Co  Co14  1  0.644339  0.125429  0.500000  1
  Co  Co15  1  0.874075  0.518560  0.500000  1
  Co  Co16  1  0.483208  0.356788  0.500000  1
  Co  Co17  1  0.125429  0.644339  0.500000  1
  Co  Co18  1  0.518560  0.874075  0.500000  1
  Co  Co19  1  0.356788  0.483208  0.500000  1
  Co  Co20  1  0.720359  0.720359  0.500000  1
  Co  Co21  1  0.279942  0.998289  0.500000  1
  Co  Co22  1  0.998289  0.279942  0.500000  1
  Co  Co23  1  0.999468  0.999468  0.000000  1
  Si  Si24  1  0.354740  0.354740  0.000000  1
  P  P25  1  0.644936  0.000903  0.000000  1
  P  P26  1  0.000903  0.644936  0.000000  1
  P  P27  1  0.831062  0.311000  0.500000  1
  P  P28  1  0.690149  0.521011  0.500000  1
  P  P29  1  0.478922  0.168333  0.500000  1
  P  P30  1  0.311000  0.831062  0.500000  1
  P  P31  1  0.521011  0.690149  0.500000  1
  P  P32  1  0.168333  0.478922  0.500000  1
  P  P33  1  0.822396  0.822396  0.000000  1
  P  P34  1  0.178381  0.999975  0.000000  1
  P  P35  1  0.999975  0.178381  0.000000  1
