# generated using pymatgen
data_Zr2GaB2Ru5
_symmetry_space_group_name_H-M   'P 1'
_cell_length_a   9.41479200
_cell_length_b   9.41479200
_cell_length_c   3.07862500
_cell_angle_alpha   90.00000000
_cell_angle_beta   90.00000000
_cell_angle_gamma   90.00000000
_symmetry_Int_Tables_number   1
_chemical_formula_structural   Zr2GaB2Ru5
_chemical_formula_sum   'Zr4 Ga2 B4 Ru10'
_cell_volume   272.88411221
_cell_formula_units_Z   2
loop_
 _symmetry_equiv_pos_site_id
 _symmetry_equiv_pos_as_xyz
  1  'x, y, z'
loop_
 _atom_site_type_symbol
 _atom_site_label
 _atom_site_symmetry_multiplicity
 _atom_site_fract_x
 _atom_site_fract_y
 _atom_site_fract_z
 _atom_site_occupancy
  Zr  Zr0  1  0.675022  0.175022  0.000000  1
  Zr  Zr1  1  0.324978  0.824978  0.000000  1
  Zr  Zr2  1  0.175022  0.324978  0.000000  1
  Zr  Zr3  1  0.824978  0.675022  0.000000  1
  Ga  Ga4  1  0.000000  0.000000  0.000000  1
  Ga  Ga5  1  0.500000  0.500000  0.000000  1
  B  B6  1  0.124551  0.624551  0.000000  1
  B  B7  1  0.875449  0.375449  0.000000  1
  B  B8  1  0.624551  0.875449  0.000000  1
  B  B9  1  0.375449  0.124551  0.000000  1
  Ru  Ru10  1  0.215316  0.070504  0.500000  1
  Ru  Ru11  1  0.784684  0.929496  0.500000  1
  Ru  Ru12  1  0.070504  0.784684  0.500000  1
  Ru  Ru13  1  0.715316  0.429496  0.500000  1
  Ru  Ru14  1  0.929496  0.215316  0.500000  1
  Ru  Ru15  1  0.284684  0.570504  0.500000  1
  Ru  Ru16  1  0.570504  0.715316  0.500000  1
  Ru  Ru17  1  0.429496  0.284684  0.500000  1
  Ru  Ru18  1  0.500000  0.000000  0.500000  1
  Ru  Ru19  1  0.000000  0.500000  0.500000  1
