# generated using pymatgen
data_Pr3MgCd2Sn2Pt
_symmetry_space_group_name_H-M   'P 1'
_cell_length_a   7.53893300
_cell_length_b   7.59852377
_cell_length_c   4.72749400
_cell_angle_alpha   90.00000000
_cell_angle_beta   90.00000000
_cell_angle_gamma   119.74091669
_symmetry_Int_Tables_number   1
_chemical_formula_structural   Pr3MgCd2Sn2Pt
_chemical_formula_sum   'Pr3 Mg1 Cd2 Sn2 Pt1'
_cell_volume   235.14114512
_cell_formula_units_Z   1
loop_
 _symmetry_equiv_pos_site_id
 _symmetry_equiv_pos_as_xyz
  1  'x, y, z'
loop_
 _atom_site_type_symbol
 _atom_site_label
 _atom_site_symmetry_multiplicity
 _atom_site_fract_x
 _atom_site_fract_y
 _atom_site_fract_z
 _atom_site_occupancy
  Pr  Pr0  1  0.396986  0.398647  0.000000  1
  Pr  Pr1  1  0.608273  0.000000  0.000000  1
  Pr  Pr2  1  0.998338  0.601353  0.000000  1
  Mg  Mg3  1  0.221455  0.000000  0.500000  1
  Cd  Cd4  1  0.001002  0.234258  0.500000  1
  Cd  Cd5  1  0.766744  0.765742  0.500000  1
  Sn  Sn6  1  0.661815  0.328994  0.500000  1
  Sn  Sn7  1  0.332819  0.671006  0.500000  1
  Pt  Pt8  1  0.012569  0.000000  0.000000  1
