# generated using pymatgen
data_La(Yb4Pt3)2
_symmetry_space_group_name_H-M   'P 1'
_cell_length_a   7.56810311
_cell_length_b   7.61650066
_cell_length_c   7.57056732
_cell_angle_alpha   69.82634077
_cell_angle_beta   70.13998928
_cell_angle_gamma   69.89569375
_symmetry_Int_Tables_number   1
_chemical_formula_structural   La(Yb4Pt3)2
_chemical_formula_sum   'La1 Yb8 Pt6'
_cell_volume   372.34938609
_cell_formula_units_Z   1
loop_
 _symmetry_equiv_pos_site_id
 _symmetry_equiv_pos_as_xyz
  1  'x, y, z'
loop_
 _atom_site_type_symbol
 _atom_site_label
 _atom_site_symmetry_multiplicity
 _atom_site_fract_x
 _atom_site_fract_y
 _atom_site_fract_z
 _atom_site_occupancy
  La  La0  1  0.400648  0.148167  0.669001  1
  Yb  Yb1  1  0.994225  0.998422  0.004501  1
  Yb  Yb2  1  0.807593  0.800527  0.805852  1
  Yb  Yb3  1  0.196920  0.197137  0.196136  1
  Yb  Yb4  1  0.329637  0.600673  0.853476  1
  Yb  Yb5  1  0.852259  0.331246  0.597847  1
  Yb  Yb6  1  0.599835  0.845068  0.327452  1
  Yb  Yb7  1  0.672083  0.402572  0.148400  1
  Yb  Yb8  1  0.147677  0.671792  0.399036  1
  Pt  Pt9  1  0.165207  0.954576  0.586909  1
  Pt  Pt10  1  0.591674  0.168977  0.953367  1
  Pt  Pt11  1  0.953329  0.588788  0.165719  1
  Pt  Pt12  1  0.829393  0.046390  0.414134  1
  Pt  Pt13  1  0.408970  0.835744  0.044243  1
  Pt  Pt14  1  0.050549  0.409922  0.833926  1
