# generated using pymatgen
data_Y4Os3Ru4W
_symmetry_space_group_name_H-M   'P 1'
_cell_length_a   5.21079859
_cell_length_b   5.21079759
_cell_length_c   9.09515800
_cell_angle_alpha   90.00000000
_cell_angle_beta   90.00000000
_cell_angle_gamma   116.77183845
_symmetry_Int_Tables_number   1
_chemical_formula_structural   Y4Os3Ru4W
_chemical_formula_sum   'Y4 Os3 Ru4 W1'
_cell_volume   220.48369675
_cell_formula_units_Z   1
loop_
 _symmetry_equiv_pos_site_id
 _symmetry_equiv_pos_as_xyz
  1  'x, y, z'
loop_
 _atom_site_type_symbol
 _atom_site_label
 _atom_site_symmetry_multiplicity
 _atom_site_fract_x
 _atom_site_fract_y
 _atom_site_fract_z
 _atom_site_occupancy
  Y  Y0  1  0.328164  0.671836  0.436234  1
  Y  Y1  1  0.665325  0.334675  0.567759  1
  Y  Y2  1  0.665325  0.334675  0.932241  1
  Y  Y3  1  0.328164  0.671836  0.063766  1
  Os  Os4  1  0.174934  0.825066  0.750000  1
  Os  Os5  1  0.167711  0.334589  0.750000  1
  Os  Os6  1  0.665411  0.832289  0.750000  1
  Ru  Ru7  1  0.991400  0.008600  0.501418  1
  Ru  Ru8  1  0.991400  0.008600  0.998582  1
  Ru  Ru9  1  0.829993  0.649578  0.250000  1
  Ru  Ru10  1  0.350422  0.170007  0.250000  1
  W  W11  1  0.841752  0.158248  0.250000  1
