# generated using pymatgen
data_BaTh(ClO4)6
_symmetry_space_group_name_H-M   'P 1'
_cell_length_a   9.85001200
_cell_length_b   9.85001270
_cell_length_c   6.06469300
_cell_angle_alpha   90.00000000
_cell_angle_beta   90.00000000
_cell_angle_gamma   120.00000258
_symmetry_Int_Tables_number   1
_chemical_formula_structural   BaTh(ClO4)6
_chemical_formula_sum   'Ba1 Th1 Cl6 O24'
_cell_volume   509.58072415
_cell_formula_units_Z   1
loop_
 _symmetry_equiv_pos_site_id
 _symmetry_equiv_pos_as_xyz
  1  'x, y, z'
loop_
 _atom_site_type_symbol
 _atom_site_label
 _atom_site_symmetry_multiplicity
 _atom_site_fract_x
 _atom_site_fract_y
 _atom_site_fract_z
 _atom_site_occupancy
  Ba  Ba0  1  0.333333  0.666667  0.250000  1
  Th  Th1  1  0.666667  0.333333  0.750000  1
  Cl  Cl2  1  0.302595  0.937496  0.750000  1
  Cl  Cl3  1  0.708794  0.109892  0.250000  1
  Cl  Cl4  1  0.634902  0.697405  0.750000  1
  Cl  Cl5  1  0.401098  0.291206  0.250000  1
  Cl  Cl6  1  0.062504  0.365098  0.750000  1
  Cl  Cl7  1  0.890108  0.598902  0.250000  1
  O  O8  1  0.801668  0.782456  0.750000  1
  O  O9  1  0.945224  0.423642  0.750000  1
  O  O10  1  0.478418  0.054776  0.750000  1
  O  O11  1  0.217544  0.019212  0.750000  1
  O  O12  1  0.952346  0.763543  0.250000  1
  O  O13  1  0.471238  0.258632  0.446010  1
  O  O14  1  0.159059  0.430022  0.945218  1
  O  O15  1  0.544623  0.991633  0.250000  1
  O  O16  1  0.569978  0.729037  0.945218  1
  O  O17  1  0.008367  0.552989  0.250000  1
  O  O18  1  0.980788  0.198332  0.750000  1
  O  O19  1  0.270963  0.840941  0.554782  1
  O  O20  1  0.787393  0.528762  0.446010  1
  O  O21  1  0.471238  0.258632  0.053990  1
  O  O22  1  0.569978  0.729037  0.554782  1
  O  O23  1  0.270963  0.840941  0.945218  1
  O  O24  1  0.787393  0.528762  0.053990  1
  O  O25  1  0.576358  0.521582  0.750000  1
  O  O26  1  0.447011  0.455377  0.250000  1
  O  O27  1  0.159059  0.430022  0.554782  1
  O  O28  1  0.741368  0.212607  0.053990  1
  O  O29  1  0.236457  0.188803  0.250000  1
  O  O30  1  0.741368  0.212607  0.446010  1
  O  O31  1  0.811197  0.047654  0.250000  1
