# generated using pymatgen
data_Ac6Ge3S14
_symmetry_space_group_name_H-M   'P 1'
_cell_length_a   10.77442300
_cell_length_b   10.77442372
_cell_length_c   5.95626900
_cell_angle_alpha   90.00000000
_cell_angle_beta   90.00000000
_cell_angle_gamma   120.00000699
_symmetry_Int_Tables_number   1
_chemical_formula_structural   Ac6Ge3S14
_chemical_formula_sum   'Ac6 Ge3 S14'
_cell_volume   598.81542277
_cell_formula_units_Z   1
loop_
 _symmetry_equiv_pos_site_id
 _symmetry_equiv_pos_as_xyz
  1  'x, y, z'
loop_
 _atom_site_type_symbol
 _atom_site_label
 _atom_site_symmetry_multiplicity
 _atom_site_fract_x
 _atom_site_fract_y
 _atom_site_fract_z
 _atom_site_occupancy
  Ac  Ac0  1  0.309020  0.099371  0.755317  1
  Ac  Ac1  1  0.790351  0.690980  0.755317  1
  Ac  Ac2  1  0.900629  0.209649  0.755317  1
  Ac  Ac3  1  0.024767  0.566546  0.247579  1
  Ac  Ac4  1  0.541779  0.975233  0.247579  1
  Ac  Ac5  1  0.433454  0.458221  0.247579  1
  Ge  Ge6  1  0.000000  0.000000  0.171405  1
  Ge  Ge7  1  0.333333  0.666667  0.664418  1
  Ge  Ge8  1  0.666667  0.333333  0.513888  1
  S  S9  1  0.143915  0.219163  0.025651  1
  S  S10  1  0.075248  0.856085  0.025651  1
  S  S11  1  0.780837  0.924752  0.025651  1
  S  S12  1  0.190142  0.447124  0.520221  1
  S  S13  1  0.256982  0.809858  0.520221  1
  S  S14  1  0.552876  0.743018  0.520221  1
  S  S15  1  0.000000  0.000000  0.541656  1
  S  S16  1  0.333333  0.666667  0.035129  1
  S  S17  1  0.417570  0.171361  0.273353  1
  S  S18  1  0.753791  0.582430  0.273353  1
  S  S19  1  0.828639  0.246209  0.273353  1
  S  S20  1  0.917281  0.498663  0.754736  1
  S  S21  1  0.581383  0.082719  0.754736  1
  S  S22  1  0.501337  0.418617  0.754736  1
