# generated using pymatgen
data_ErTm(ThNi2)2
_symmetry_space_group_name_H-M   'P 1'
_cell_length_a   4.37011600
_cell_length_b   5.38440048
_cell_length_c   6.89883189
_cell_angle_alpha   90.06928339
_cell_angle_beta   90.00000000
_cell_angle_gamma   90.00000000
_symmetry_Int_Tables_number   1
_chemical_formula_structural   ErTm(ThNi2)2
_chemical_formula_sum   'Er1 Tm1 Th2 Ni4'
_cell_volume   162.33253252
_cell_formula_units_Z   1
loop_
 _symmetry_equiv_pos_site_id
 _symmetry_equiv_pos_as_xyz
  1  'x, y, z'
loop_
 _atom_site_type_symbol
 _atom_site_label
 _atom_site_symmetry_multiplicity
 _atom_site_fract_x
 _atom_site_fract_y
 _atom_site_fract_z
 _atom_site_occupancy
  Er  Er0  1  0.250000  0.137693  0.182025  1
  Tm  Tm1  1  0.250000  0.361537  0.682306  1
  Th  Th2  1  0.750000  0.862649  0.816725  1
  Th  Th3  1  0.750000  0.635238  0.316669  1
  Ni  Ni4  1  0.250000  0.636693  0.039615  1
  Ni  Ni5  1  0.750000  0.362224  0.958060  1
  Ni  Ni6  1  0.750000  0.140358  0.464743  1
  Ni  Ni7  1  0.250000  0.863608  0.539858  1
