# generated using pymatgen
data_La12OsPt(PbI6)2
_symmetry_space_group_name_H-M   'P 1'
_cell_length_a   11.38090321
_cell_length_b   11.37004383
_cell_length_c   11.07136300
_cell_angle_alpha   109.63907451
_cell_angle_beta   109.67920275
_cell_angle_gamma   110.19034780
_symmetry_Int_Tables_number   1
_chemical_formula_structural   La12OsPt(PbI6)2
_chemical_formula_sum   'La12 Os1 Pt1 Pb2 I12'
_cell_volume   1087.67236187
_cell_formula_units_Z   1
loop_
 _symmetry_equiv_pos_site_id
 _symmetry_equiv_pos_as_xyz
  1  'x, y, z'
loop_
 _atom_site_type_symbol
 _atom_site_label
 _atom_site_symmetry_multiplicity
 _atom_site_fract_x
 _atom_site_fract_y
 _atom_site_fract_z
 _atom_site_occupancy
  La  La0  1  0.457619  0.493281  0.209279  1
  La  La1  1  0.773297  0.247533  0.281936  1
  La  La2  1  0.770219  0.027754  0.503280  1
  La  La3  1  0.233057  0.475511  0.503273  1
  La  La4  1  0.251649  0.716002  0.209279  1
  La  La5  1  0.023631  0.265998  0.997065  1
  La  La6  1  0.008642  0.034394  0.281931  1
  La  La7  1  0.473435  0.731056  0.997066  1
  La  La8  1  0.494091  0.244084  0.488170  1
  La  La9  1  0.027406  0.482766  0.759796  1
  La  La10  1  0.255689  0.005686  0.011370  1
  La  La11  1  0.232378  0.277019  0.759777  1
  Os  Os12  1  0.246572  0.496570  0.993144  1
  Pt  Pt13  1  0.002446  0.252451  0.504896  1
  Pb  Pb14  1  0.248999  0.250539  0.249802  1
  Pb  Pb15  1  0.500813  0.999244  0.249811  1
  I  I16  1  0.247222  0.759854  0.740149  1
  I  I17  1  0.519894  0.507326  0.758947  1
  I  I18  1  0.992114  0.750416  0.997767  1
  I  I19  1  0.739081  0.251623  0.758954  1
  I  I20  1  0.992935  0.980297  0.740148  1
  I  I21  1  0.252968  0.995354  0.502614  1
  I  I22  1  0.749666  0.507284  0.502599  1
  I  I23  1  0.505625  0.247319  0.997748  1
  I  I24  1  0.755136  0.746110  0.250727  1
  I  I25  1  0.746959  0.996992  0.993941  1
  I  I26  1  0.995558  0.504609  0.250686  1
  I  I27  1  0.502902  0.752933  0.505846  1
