# generated using pymatgen
data_Tm3Hf2Zr(SnRh)6
_symmetry_space_group_name_H-M   'P 1'
_cell_length_a   7.47930211
_cell_length_b   7.46053297
_cell_length_c   7.45646000
_cell_angle_alpha   90.00000000
_cell_angle_beta   90.00000000
_cell_angle_gamma   119.91422214
_symmetry_Int_Tables_number   1
_chemical_formula_structural   Tm3Hf2Zr(SnRh)6
_chemical_formula_sum   'Tm3 Hf2 Zr1 Sn6 Rh6'
_cell_volume   360.63592744
_cell_formula_units_Z   1
loop_
 _symmetry_equiv_pos_site_id
 _symmetry_equiv_pos_as_xyz
  1  'x, y, z'
loop_
 _atom_site_type_symbol
 _atom_site_label
 _atom_site_symmetry_multiplicity
 _atom_site_fract_x
 _atom_site_fract_y
 _atom_site_fract_z
 _atom_site_occupancy
  Tm  Tm0  1  0.999776  0.404942  0.750000  1
  Tm  Tm1  1  0.594703  0.594483  0.750000  1
  Tm  Tm2  1  0.405529  0.000245  0.750000  1
  Hf  Hf3  1  0.606678  0.605701  0.250000  1
  Hf  Hf4  1  0.394212  0.000828  0.250000  1
  Zr  Zr5  1  0.999132  0.393115  0.250000  1
  Sn  Sn6  1  0.266287  0.267424  0.494896  1
  Sn  Sn7  1  0.000888  0.732710  0.495477  1
  Sn  Sn8  1  0.000888  0.732710  0.004523  1
  Sn  Sn9  1  0.732833  0.999300  0.494872  1
  Sn  Sn10  1  0.732833  0.999300  0.005128  1
  Sn  Sn11  1  0.266287  0.267424  0.005104  1
  Rh  Rh12  1  0.336286  0.669182  0.465496  1
  Rh  Rh13  1  0.663698  0.332889  0.467084  1
  Rh  Rh14  1  0.336286  0.669182  0.034504  1
  Rh  Rh15  1  0.999978  0.999781  0.750000  1
  Rh  Rh16  1  0.000005  0.997898  0.250000  1
  Rh  Rh17  1  0.663698  0.332889  0.032916  1
