# generated using pymatgen
data_YHo3(SiPd14)2
_symmetry_space_group_name_H-M   'P 1'
_cell_length_a   8.91756900
_cell_length_b   8.91756900
_cell_length_c   7.08558200
_cell_angle_alpha   90.00000000
_cell_angle_beta   90.00000000
_cell_angle_gamma   90.00000000
_symmetry_Int_Tables_number   1
_chemical_formula_structural   YHo3(SiPd14)2
_chemical_formula_sum   'Y1 Ho3 Si2 Pd28'
_cell_volume   563.46699863
_cell_formula_units_Z   1
loop_
 _symmetry_equiv_pos_site_id
 _symmetry_equiv_pos_as_xyz
  1  'x, y, z'
loop_
 _atom_site_type_symbol
 _atom_site_label
 _atom_site_symmetry_multiplicity
 _atom_site_fract_x
 _atom_site_fract_y
 _atom_site_fract_z
 _atom_site_occupancy
  Y  Y0  1  0.500000  0.000000  0.935199  1
  Ho  Ho1  1  0.000000  0.500000  0.064916  1
  Ho  Ho2  1  0.000000  0.000000  0.500043  1
  Ho  Ho3  1  0.500000  0.500000  0.500043  1
  Si  Si4  1  0.500000  0.000000  0.448546  1
  Si  Si5  1  0.000000  0.500000  0.551524  1
  Pd  Pd6  1  0.334526  0.834526  0.616219  1
  Pd  Pd7  1  0.334526  0.165474  0.616219  1
  Pd  Pd8  1  0.665474  0.834526  0.616219  1
  Pd  Pd9  1  0.665474  0.165474  0.616219  1
  Pd  Pd10  1  0.165395  0.665395  0.383677  1
  Pd  Pd11  1  0.165395  0.334605  0.383677  1
  Pd  Pd12  1  0.834605  0.665395  0.383677  1
  Pd  Pd13  1  0.834605  0.334605  0.383677  1
  Pd  Pd14  1  0.500000  0.770062  0.256221  1
  Pd  Pd15  1  0.500000  0.229938  0.256221  1
  Pd  Pd16  1  0.270062  0.000000  0.256221  1
  Pd  Pd17  1  0.729938  0.000000  0.256221  1
  Pd  Pd18  1  0.000000  0.729849  0.743930  1
  Pd  Pd19  1  0.000000  0.270151  0.743930  1
  Pd  Pd20  1  0.229849  0.500000  0.743930  1
  Pd  Pd21  1  0.770151  0.500000  0.743930  1
  Pd  Pd22  1  0.500000  0.349112  0.852625  1
  Pd  Pd23  1  0.500000  0.650888  0.852625  1
  Pd  Pd24  1  0.849112  0.000000  0.852625  1
  Pd  Pd25  1  0.150888  0.000000  0.852625  1
  Pd  Pd26  1  0.000000  0.150941  0.147260  1
  Pd  Pd27  1  0.000000  0.849059  0.147260  1
  Pd  Pd28  1  0.650941  0.500000  0.147260  1
  Pd  Pd29  1  0.349059  0.500000  0.147260  1
  Pd  Pd30  1  0.249970  0.749970  0.000001  1
  Pd  Pd31  1  0.249970  0.250030  0.000001  1
  Pd  Pd32  1  0.750030  0.749970  0.000001  1
  Pd  Pd33  1  0.750030  0.250030  0.000001  1
