# generated using pymatgen
data_Ce8Ti2Al3Ga3Rh8
_symmetry_space_group_name_H-M   'P 1'
_cell_length_a   4.25090500
_cell_length_b   7.03913797
_cell_length_c   16.08722001
_cell_angle_alpha   89.86893680
_cell_angle_beta   90.00000000
_cell_angle_gamma   90.00000000
_symmetry_Int_Tables_number   1
_chemical_formula_structural   Ce8Ti2Al3Ga3Rh8
_chemical_formula_sum   'Ce8 Ti2 Al3 Ga3 Rh8'
_cell_volume   481.37190818
_cell_formula_units_Z   1
loop_
 _symmetry_equiv_pos_site_id
 _symmetry_equiv_pos_as_xyz
  1  'x, y, z'
loop_
 _atom_site_type_symbol
 _atom_site_label
 _atom_site_symmetry_multiplicity
 _atom_site_fract_x
 _atom_site_fract_y
 _atom_site_fract_z
 _atom_site_occupancy
  Ce  Ce0  1  0.250000  0.530227  0.772949  1
  Ce  Ce1  1  0.750000  0.477887  0.221536  1
  Ce  Ce2  1  0.750000  0.972964  0.279903  1
  Ce  Ce3  1  0.250000  0.030679  0.727047  1
  Ce  Ce4  1  0.250000  0.641464  0.556627  1
  Ce  Ce5  1  0.750000  0.346109  0.436378  1
  Ce  Ce6  1  0.750000  0.847282  0.061772  1
  Ce  Ce7  1  0.250000  0.140133  0.942621  1
  Ti  Ti8  1  0.750000  0.494832  0.938668  1
  Ti  Ti9  1  0.750000  0.997357  0.562172  1
  Al  Al10  1  0.250000  0.146635  0.149708  1
  Al  Al11  1  0.250000  0.503395  0.063997  1
  Al  Al12  1  0.250000  0.003718  0.436298  1
  Ga  Ga13  1  0.250000  0.643028  0.351075  1
  Ga  Ga14  1  0.750000  0.357130  0.648546  1
  Ga  Ga15  1  0.750000  0.855831  0.851173  1
  Rh  Rh16  1  0.250000  0.767529  0.182039  1
  Rh  Rh17  1  0.750000  0.252427  0.821709  1
  Rh  Rh18  1  0.750000  0.752985  0.678476  1
  Rh  Rh19  1  0.250000  0.259995  0.314986  1
  Rh  Rh20  1  0.250000  0.703170  0.925031  1
  Rh  Rh21  1  0.750000  0.283014  0.073441  1
  Rh  Rh22  1  0.750000  0.785845  0.429787  1
  Rh  Rh23  1  0.250000  0.206360  0.574060  1
