# generated using pymatgen
data_Tb8ErTmIr6
_symmetry_space_group_name_H-M   'P 1'
_cell_length_a   10.91517500
_cell_length_b   10.91517500
_cell_length_c   6.37270700
_cell_angle_alpha   90.00000000
_cell_angle_beta   90.00000000
_cell_angle_gamma   90.00000000
_symmetry_Int_Tables_number   1
_chemical_formula_structural   Tb8ErTmIr6
_chemical_formula_sum   'Tb16 Er2 Tm2 Ir12'
_cell_volume   759.25097325
_cell_formula_units_Z   2
loop_
 _symmetry_equiv_pos_site_id
 _symmetry_equiv_pos_as_xyz
  1  'x, y, z'
loop_
 _atom_site_type_symbol
 _atom_site_label
 _atom_site_symmetry_multiplicity
 _atom_site_fract_x
 _atom_site_fract_y
 _atom_site_fract_z
 _atom_site_occupancy
  Tb  Tb0  1  0.290285  0.087670  0.377912  1
  Tb  Tb1  1  0.290285  0.912330  0.877912  1
  Tb  Tb2  1  0.709715  0.087670  0.877912  1
  Tb  Tb3  1  0.709715  0.912330  0.377912  1
  Tb  Tb4  1  0.587729  0.790454  0.877912  1
  Tb  Tb5  1  0.587729  0.209546  0.377912  1
  Tb  Tb6  1  0.412271  0.790454  0.377912  1
  Tb  Tb7  1  0.412271  0.209546  0.877912  1
  Tb  Tb8  1  0.209546  0.412271  0.622088  1
  Tb  Tb9  1  0.209546  0.587729  0.122088  1
  Tb  Tb10  1  0.790454  0.412271  0.122088  1
  Tb  Tb11  1  0.790454  0.587729  0.622088  1
  Tb  Tb12  1  0.912330  0.709715  0.122088  1
  Tb  Tb13  1  0.912330  0.290285  0.622088  1
  Tb  Tb14  1  0.087670  0.709715  0.622088  1
  Tb  Tb15  1  0.087670  0.290285  0.122088  1
  Er  Er16  1  0.500000  0.500000  0.000000  1
  Er  Er17  1  0.500000  0.500000  0.500000  1
  Tm  Tm18  1  0.000000  0.000000  0.500000  1
  Tm  Tm19  1  0.000000  0.000000  0.000000  1
  Ir  Ir20  1  0.848032  0.151968  0.250000  1
  Ir  Ir21  1  0.848032  0.848032  0.750000  1
  Ir  Ir22  1  0.151968  0.151968  0.750000  1
  Ir  Ir23  1  0.151968  0.848032  0.250000  1
  Ir  Ir24  1  0.652327  0.347673  0.750000  1
  Ir  Ir25  1  0.652327  0.652327  0.250000  1
  Ir  Ir26  1  0.347673  0.347673  0.250000  1
  Ir  Ir27  1  0.347673  0.652327  0.750000  1
  Ir  Ir28  1  0.500000  0.000000  0.121057  1
  Ir  Ir29  1  0.500000  0.000000  0.621057  1
  Ir  Ir30  1  0.000000  0.500000  0.878943  1
  Ir  Ir31  1  0.000000  0.500000  0.378943  1
