# generated using pymatgen
data_TbErB6MoW
_symmetry_space_group_name_H-M   'P 1'
_cell_length_a   3.16498500
_cell_length_b   5.44774459
_cell_length_c   6.83417308
_cell_angle_alpha   77.93104997
_cell_angle_beta   90.00000000
_cell_angle_gamma   90.00000000
_symmetry_Int_Tables_number   1
_chemical_formula_structural   TbErB6MoW
_chemical_formula_sum   'Tb1 Er1 B6 Mo1 W1'
_cell_volume   115.23047287
_cell_formula_units_Z   1
loop_
 _symmetry_equiv_pos_site_id
 _symmetry_equiv_pos_as_xyz
  1  'x, y, z'
loop_
 _atom_site_type_symbol
 _atom_site_label
 _atom_site_symmetry_multiplicity
 _atom_site_fract_x
 _atom_site_fract_y
 _atom_site_fract_z
 _atom_site_occupancy
  Tb  Tb0  1  0.750000  0.826682  0.706484  1
  Er  Er1  1  0.250000  0.177588  0.288878  1
  B  B2  1  0.250000  0.577756  0.474106  1
  B  B3  1  0.750000  0.414943  0.523654  1
  B  B4  1  0.250000  0.587585  0.996649  1
  B  B5  1  0.750000  0.413019  0.005997  1
  B  B6  1  0.250000  0.917338  0.994736  1
  B  B7  1  0.750000  0.083917  0.008356  1
  Mo  Mo8  1  0.250000  0.312323  0.780911  1
  W  W9  1  0.750000  0.688850  0.220230  1
