# generated using pymatgen
data_Lu2Si14Ir5Ru
_symmetry_space_group_name_H-M   'P 1'
_cell_length_a   7.98888296
_cell_length_b   7.98888280
_cell_length_c   8.01870216
_cell_angle_alpha   56.76396138
_cell_angle_beta   56.76396650
_cell_angle_gamma   56.83547563
_symmetry_Int_Tables_number   1
_chemical_formula_structural   Lu2Si14Ir5Ru
_chemical_formula_sum   'Lu2 Si14 Ir5 Ru1'
_cell_volume   335.04612704
_cell_formula_units_Z   1
loop_
 _symmetry_equiv_pos_site_id
 _symmetry_equiv_pos_as_xyz
  1  'x, y, z'
loop_
 _atom_site_type_symbol
 _atom_site_label
 _atom_site_symmetry_multiplicity
 _atom_site_fract_x
 _atom_site_fract_y
 _atom_site_fract_z
 _atom_site_occupancy
  Lu  Lu0  1  0.000904  0.001767  0.998042  1
  Lu  Lu1  1  0.498233  0.499096  0.501958  1
  Si  Si2  1  0.753767  0.746233  0.750000  1
  Si  Si3  1  0.249485  0.250515  0.250000  1
  Si  Si4  1  0.850384  0.065395  0.672038  1
  Si  Si5  1  0.671587  0.851903  0.064487  1
  Si  Si6  1  0.064475  0.669569  0.850520  1
  Si  Si7  1  0.648097  0.828413  0.435513  1
  Si  Si8  1  0.434605  0.649616  0.827962  1
  Si  Si9  1  0.830431  0.435525  0.649480  1
  Si  Si10  1  0.171373  0.563336  0.355231  1
  Si  Si11  1  0.566009  0.351087  0.171377  1
  Si  Si12  1  0.349187  0.174539  0.566237  1
  Si  Si13  1  0.936664  0.328627  0.144769  1
  Si  Si14  1  0.325461  0.150813  0.933763  1
  Si  Si15  1  0.148913  0.933991  0.328623  1
  Ir  Ir16  1  0.250144  0.927547  0.572273  1
  Ir  Ir17  1  0.572453  0.249856  0.927727  1
  Ir  Ir18  1  0.926105  0.573895  0.250000  1
  Ir  Ir19  1  0.427468  0.750175  0.072408  1
  Ir  Ir20  1  0.749825  0.072532  0.427592  1
  Ru  Ru21  1  0.074431  0.425569  0.750000  1
