# generated using pymatgen
data_NaTa5(SiTc)6
_symmetry_space_group_name_H-M   'P 1'
_cell_length_a   7.66519204
_cell_length_b   7.56867637
_cell_length_c   7.66519200
_cell_angle_alpha   126.01283582
_cell_angle_beta   128.83933919
_cell_angle_gamma   77.85710169
_symmetry_Int_Tables_number   1
_chemical_formula_structural   NaTa5(SiTc)6
_chemical_formula_sum   'Na1 Ta5 Si6 Tc6'
_cell_volume   271.18352406
_cell_formula_units_Z   1
loop_
 _symmetry_equiv_pos_site_id
 _symmetry_equiv_pos_as_xyz
  1  'x, y, z'
loop_
 _atom_site_type_symbol
 _atom_site_label
 _atom_site_symmetry_multiplicity
 _atom_site_fract_x
 _atom_site_fract_y
 _atom_site_fract_z
 _atom_site_occupancy
  Na  Na0  1  0.550086  0.098028  0.047943  1
  Ta  Ta1  1  0.449455  0.491312  0.541857  1
  Ta  Ta2  1  0.949192  0.492020  0.042828  1
  Ta  Ta3  1  0.049478  0.094085  0.544609  1
  Ta  Ta4  1  0.749850  0.900755  0.650905  1
  Ta  Ta5  1  0.245625  0.891882  0.146257  1
  Si  Si6  1  0.747425  0.493695  0.246271  1
  Si  Si7  1  0.253276  0.501425  0.748149  1
  Si  Si8  1  0.336246  0.831397  0.503018  1
  Si  Si9  1  0.664558  0.161680  0.491012  1
  Si  Si10  1  0.828380  0.831397  0.995150  1
  Si  Si11  1  0.170668  0.161680  0.997121  1
  Tc  Tc12  1  0.499048  0.241954  0.735558  1
  Tc  Tc13  1  0.006394  0.241954  0.242904  1
  Tc  Tc14  1  0.118888  0.752335  0.616045  1
  Tc  Tc15  1  0.879971  0.502132  0.636964  1
  Tc  Tc16  1  0.636291  0.752335  0.133448  1
  Tc  Tc17  1  0.365168  0.502132  0.122161  1
