# generated using pymatgen
data_Sr2VFe5(PO4)6
_symmetry_space_group_name_H-M   'P 1'
_cell_length_a   6.62284807
_cell_length_b   9.24211238
_cell_length_c   9.24795566
_cell_angle_alpha   94.98266764
_cell_angle_beta   111.04039208
_cell_angle_gamma   110.93739737
_symmetry_Int_Tables_number   1
_chemical_formula_structural   Sr2VFe5(PO4)6
_chemical_formula_sum   'Sr2 V1 Fe5 P6 O24'
_cell_volume   478.16849842
_cell_formula_units_Z   1
loop_
 _symmetry_equiv_pos_site_id
 _symmetry_equiv_pos_as_xyz
  1  'x, y, z'
loop_
 _atom_site_type_symbol
 _atom_site_label
 _atom_site_symmetry_multiplicity
 _atom_site_fract_x
 _atom_site_fract_y
 _atom_site_fract_z
 _atom_site_occupancy
  Sr  Sr0  1  0.399120  0.750063  0.249871  1
  Sr  Sr1  1  0.600881  0.249938  0.750130  1
  V  V2  1  0.000000  0.500001  0.500001  1
  Fe  Fe3  1  0.000000  0.000000  0.000000  1
  Fe  Fe4  1  0.499324  0.381697  0.117107  1
  Fe  Fe5  1  0.999558  0.117041  0.381772  1
  Fe  Fe6  1  0.000442  0.882957  0.618227  1
  Fe  Fe7  1  0.500674  0.618302  0.882891  1
  P  P8  1  0.999935  0.323477  0.175696  1
  P  P9  1  0.905028  0.750223  0.249774  1
  P  P10  1  0.499240  0.175649  0.323496  1
  P  P11  1  0.500758  0.824350  0.676502  1
  P  P12  1  0.094973  0.249778  0.750227  1
  P  P13  1  0.000065  0.676521  0.824303  1
  O  O14  1  0.777429  0.345698  0.073017  1
  O  O15  1  0.643767  0.633677  0.134017  1
  O  O16  1  0.341883  0.139028  0.138106  1
  O  O17  1  0.935192  0.138089  0.139040  1
  O  O18  1  0.222604  0.426476  0.154195  1
  O  O19  1  0.039339  0.843178  0.156862  1
  O  O20  1  0.043092  0.658782  0.341277  1
  O  O21  1  0.641265  0.072967  0.345671  1
  O  O22  1  0.657152  0.361387  0.359716  1
  O  O23  1  0.064005  0.359704  0.361444  1
  O  O24  1  0.875914  0.865943  0.366269  1
  O  O25  1  0.358087  0.154179  0.426510  1
  O  O26  1  0.641913  0.845822  0.573490  1
  O  O27  1  0.124086  0.134057  0.633731  1
  O  O28  1  0.935996  0.640297  0.638557  1
  O  O29  1  0.342849  0.638614  0.640285  1
  O  O30  1  0.358735  0.927033  0.654329  1
  O  O31  1  0.956909  0.341219  0.658724  1
  O  O32  1  0.960662  0.156823  0.843139  1
  O  O33  1  0.777396  0.573524  0.845806  1
  O  O34  1  0.064808  0.861912  0.860961  1
  O  O35  1  0.658117  0.860973  0.861895  1
  O  O36  1  0.356233  0.366323  0.865983  1
  O  O37  1  0.222571  0.654302  0.926983  1
