# generated using pymatgen
data_Nd16Cd3HgIrRu3
_symmetry_space_group_name_H-M   'P 1'
_cell_length_a   9.95531066
_cell_length_b   9.96653836
_cell_length_c   9.96653923
_cell_angle_alpha   59.66972564
_cell_angle_beta   59.63078026
_cell_angle_gamma   59.63078242
_symmetry_Int_Tables_number   1
_chemical_formula_structural   Nd16Cd3HgIrRu3
_chemical_formula_sum   'Nd16 Cd3 Hg1 Ir1 Ru3'
_cell_volume   693.58329214
_cell_formula_units_Z   1
loop_
 _symmetry_equiv_pos_site_id
 _symmetry_equiv_pos_as_xyz
  1  'x, y, z'
loop_
 _atom_site_type_symbol
 _atom_site_label
 _atom_site_symmetry_multiplicity
 _atom_site_fract_x
 _atom_site_fract_y
 _atom_site_fract_z
 _atom_site_occupancy
  Nd  Nd0  1  0.345077  0.347555  0.347555  1
  Nd  Nd1  1  0.344721  0.347600  0.958690  1
  Nd  Nd2  1  0.344721  0.958690  0.347600  1
  Nd  Nd3  1  0.960067  0.345731  0.345731  1
  Nd  Nd4  1  0.811121  0.190306  0.190306  1
  Nd  Nd5  1  0.190939  0.809624  0.809624  1
  Nd  Nd6  1  0.191021  0.809355  0.189728  1
  Nd  Nd7  1  0.811036  0.190984  0.807613  1
  Nd  Nd8  1  0.191021  0.189728  0.809355  1
  Nd  Nd9  1  0.811036  0.807613  0.190984  1
  Nd  Nd10  1  0.937881  0.561773  0.561773  1
  Nd  Nd11  1  0.560432  0.939178  0.939178  1
  Nd  Nd12  1  0.560542  0.937777  0.562417  1
  Nd  Nd13  1  0.938996  0.561493  0.938943  1
  Nd  Nd14  1  0.560542  0.562417  0.937777  1
  Nd  Nd15  1  0.938996  0.938943  0.561493  1
  Cd  Cd16  1  0.579544  0.579162  0.260744  1
  Cd  Cd17  1  0.579544  0.260744  0.579162  1
  Cd  Cd18  1  0.260981  0.579130  0.579130  1
  Hg  Hg19  1  0.583299  0.582646  0.582646  1
  Ir  Ir20  1  0.578675  0.140283  0.140283  1
  Ru  Ru21  1  0.139581  0.137204  0.137204  1
  Ru  Ru22  1  0.140110  0.138178  0.583883  1
  Ru  Ru23  1  0.140110  0.583883  0.138178  1
