# generated using pymatgen
data_LiZn14B6Rh17
_symmetry_space_group_name_H-M   'P 1'
_cell_length_a   2.88709800
_cell_length_b   11.26309500
_cell_length_c   14.96843500
_cell_angle_alpha   90.00000000
_cell_angle_beta   90.00000000
_cell_angle_gamma   90.00000000
_symmetry_Int_Tables_number   1
_chemical_formula_structural   LiZn14B6Rh17
_chemical_formula_sum   'Li1 Zn14 B6 Rh17'
_cell_volume   486.73846582
_cell_formula_units_Z   1
loop_
 _symmetry_equiv_pos_site_id
 _symmetry_equiv_pos_as_xyz
  1  'x, y, z'
loop_
 _atom_site_type_symbol
 _atom_site_label
 _atom_site_symmetry_multiplicity
 _atom_site_fract_x
 _atom_site_fract_y
 _atom_site_fract_z
 _atom_site_occupancy
  Li  Li0  1  0.000000  0.000000  0.119698  1
  Zn  Zn1  1  0.500000  0.500000  0.348100  1
  Zn  Zn2  1  0.500000  0.000000  0.652763  1
  Zn  Zn3  1  0.500000  0.385330  0.003219  1
  Zn  Zn4  1  0.500000  0.115917  0.994236  1
  Zn  Zn5  1  0.500000  0.614670  0.003219  1
  Zn  Zn6  1  0.500000  0.884083  0.994236  1
  Zn  Zn7  1  0.500000  0.374762  0.769876  1
  Zn  Zn8  1  0.500000  0.129841  0.234456  1
  Zn  Zn9  1  0.500000  0.625238  0.769876  1
  Zn  Zn10  1  0.500000  0.870159  0.234456  1
  Zn  Zn11  1  0.500000  0.298040  0.601827  1
  Zn  Zn12  1  0.500000  0.203179  0.399200  1
  Zn  Zn13  1  0.500000  0.701960  0.601827  1
  Zn  Zn14  1  0.500000  0.796821  0.399200  1
  B  B15  1  0.500000  0.500000  0.529778  1
  B  B16  1  0.500000  0.000000  0.469641  1
  B  B17  1  0.500000  0.143690  0.820646  1
  B  B18  1  0.500000  0.354700  0.177877  1
  B  B19  1  0.500000  0.856310  0.820646  1
  B  B20  1  0.500000  0.645300  0.177877  1
  Rh  Rh21  1  0.000000  0.249491  0.892183  1
  Rh  Rh22  1  0.000000  0.244385  0.106380  1
  Rh  Rh23  1  0.000000  0.750509  0.892183  1
  Rh  Rh24  1  0.000000  0.755615  0.106380  1
  Rh  Rh25  1  0.000000  0.500000  0.641705  1
  Rh  Rh26  1  0.000000  0.000000  0.356355  1
  Rh  Rh27  1  0.000000  0.175339  0.717201  1
  Rh  Rh28  1  0.000000  0.326803  0.282027  1
  Rh  Rh29  1  0.000000  0.824661  0.717201  1
  Rh  Rh30  1  0.000000  0.673197  0.282027  1
  Rh  Rh31  1  0.000000  0.500000  0.138668  1
  Rh  Rh32  1  0.000000  0.000000  0.862528  1
  Rh  Rh33  1  0.000000  0.121611  0.529772  1
  Rh  Rh34  1  0.000000  0.378050  0.470039  1
  Rh  Rh35  1  0.000000  0.878389  0.529772  1
  Rh  Rh36  1  0.000000  0.621950  0.470039  1
  Rh  Rh37  1  0.000000  0.500000  0.882877  1
