# generated using pymatgen
data_Ho2Sn(AsRh2)6
_symmetry_space_group_name_H-M   'P 1'
_cell_length_a   10.05801700
_cell_length_b   10.05801655
_cell_length_c   3.94289700
_cell_angle_alpha   90.00000000
_cell_angle_beta   90.00000000
_cell_angle_gamma   119.99999820
_symmetry_Int_Tables_number   1
_chemical_formula_structural   Ho2Sn(AsRh2)6
_chemical_formula_sum   'Ho2 Sn1 As6 Rh12'
_cell_volume   345.43853478
_cell_formula_units_Z   1
loop_
 _symmetry_equiv_pos_site_id
 _symmetry_equiv_pos_as_xyz
  1  'x, y, z'
loop_
 _atom_site_type_symbol
 _atom_site_label
 _atom_site_symmetry_multiplicity
 _atom_site_fract_x
 _atom_site_fract_y
 _atom_site_fract_z
 _atom_site_occupancy
  Ho  Ho0  1  0.333333  0.666667  0.247569  1
  Ho  Ho1  1  0.666667  0.333333  0.752431  1
  Sn  Sn2  1  0.000000  0.000000  0.500000  1
  As  As3  1  0.406452  0.117744  0.253051  1
  As  As4  1  0.711292  0.593548  0.253051  1
  As  As5  1  0.882256  0.288708  0.253051  1
  As  As6  1  0.593548  0.882256  0.746949  1
  As  As7  1  0.288708  0.406452  0.746949  1
  As  As8  1  0.117744  0.711292  0.746949  1
  Rh  Rh9  1  0.450417  0.383773  0.251087  1
  Rh  Rh10  1  0.933354  0.549583  0.251087  1
  Rh  Rh11  1  0.616227  0.066646  0.251087  1
  Rh  Rh12  1  0.549583  0.616227  0.748913  1
  Rh  Rh13  1  0.066646  0.450417  0.748913  1
  Rh  Rh14  1  0.383773  0.933354  0.748913  1
  Rh  Rh15  1  0.157625  0.876344  0.243107  1
  Rh  Rh16  1  0.718719  0.842375  0.243107  1
  Rh  Rh17  1  0.123656  0.281281  0.243107  1
  Rh  Rh18  1  0.842375  0.123656  0.756893  1
  Rh  Rh19  1  0.281281  0.157625  0.756893  1
  Rh  Rh20  1  0.876344  0.718719  0.756893  1
