# generated using pymatgen
data_Sr2YbReN4
_symmetry_space_group_name_H-M   'P 1'
_cell_length_a   10.54136794
_cell_length_b   10.13948897
_cell_length_c   7.79966629
_cell_angle_alpha   70.60539048
_cell_angle_beta   65.13397128
_cell_angle_gamma   44.26063122
_symmetry_Int_Tables_number   1
_chemical_formula_structural   Sr2YbReN4
_chemical_formula_sum   'Sr8 Yb4 Re4 N16'
_cell_volume   527.26155642
_cell_formula_units_Z   4
loop_
 _symmetry_equiv_pos_site_id
 _symmetry_equiv_pos_as_xyz
  1  'x, y, z'
loop_
 _atom_site_type_symbol
 _atom_site_label
 _atom_site_symmetry_multiplicity
 _atom_site_fract_x
 _atom_site_fract_y
 _atom_site_fract_z
 _atom_site_occupancy
  Sr  Sr0  1  0.568243  0.931757  0.931757  1
  Sr  Sr1  1  0.931757  0.568243  0.568243  1
  Sr  Sr2  1  0.318243  0.681757  0.681757  1
  Sr  Sr3  1  0.112520  0.112520  0.887480  1
  Sr  Sr4  1  0.137480  0.137480  0.362520  1
  Sr  Sr5  1  0.362520  0.362520  0.137480  1
  Sr  Sr6  1  0.681757  0.318243  0.318243  1
  Sr  Sr7  1  0.887480  0.887480  0.112520  1
  Yb  Yb8  1  0.337732  0.337732  0.662268  1
  Yb  Yb9  1  0.912268  0.912268  0.587732  1
  Yb  Yb10  1  0.662268  0.662268  0.337732  1
  Yb  Yb11  1  0.587732  0.587732  0.912268  1
  Re  Re12  1  0.491306  0.008694  0.491306  1
  Re  Re13  1  0.008694  0.491306  0.008694  1
  Re  Re14  1  0.758694  0.241306  0.758694  1
  Re  Re15  1  0.241306  0.758694  0.241306  1
  N  N16  1  0.006964  0.664169  0.824812  1
  N  N17  1  0.703529  0.271379  0.012762  1
  N  N18  1  0.664169  0.006964  0.504055  1
  N  N19  1  0.504055  0.824812  0.664169  1
  N  N20  1  0.243036  0.585831  0.425188  1
  N  N21  1  0.745945  0.425188  0.585831  1
  N  N22  1  0.012762  0.012329  0.703529  1
  N  N23  1  0.546471  0.978621  0.237238  1
  N  N24  1  0.425188  0.745945  0.243036  1
  N  N25  1  0.978621  0.546471  0.237671  1
  N  N26  1  0.271379  0.703529  0.012329  1
  N  N27  1  0.824812  0.504055  0.006964  1
  N  N28  1  0.237671  0.237238  0.978621  1
  N  N29  1  0.585831  0.243036  0.745945  1
  N  N30  1  0.237238  0.237671  0.546471  1
  N  N31  1  0.012329  0.012762  0.271379  1
