# generated using pymatgen
data_Ca4B16IrRu13
_symmetry_space_group_name_H-M   'P 1'
_cell_length_a   6.43849100
_cell_length_b   6.43849100
_cell_length_c   10.10900000
_cell_angle_alpha   90.00000000
_cell_angle_beta   90.00000000
_cell_angle_gamma   90.00000000
_symmetry_Int_Tables_number   1
_chemical_formula_structural   Ca4B16IrRu13
_chemical_formula_sum   'Ca4 B16 Ir1 Ru13'
_cell_volume   419.06016770
_cell_formula_units_Z   1
loop_
 _symmetry_equiv_pos_site_id
 _symmetry_equiv_pos_as_xyz
  1  'x, y, z'
loop_
 _atom_site_type_symbol
 _atom_site_label
 _atom_site_symmetry_multiplicity
 _atom_site_fract_x
 _atom_site_fract_y
 _atom_site_fract_z
 _atom_site_occupancy
  Ca  Ca0  1  0.732621  0.887381  0.999478  1
  Ca  Ca1  1  0.112619  0.732621  0.500522  1
  Ca  Ca2  1  0.887381  0.267379  0.500522  1
  Ca  Ca3  1  0.267379  0.112619  0.999478  1
  B  B4  1  0.500000  0.000000  0.588743  1
  B  B5  1  0.500000  0.000000  0.412195  1
  B  B6  1  0.897213  0.276546  0.166816  1
  B  B7  1  0.101494  0.726656  0.833033  1
  B  B8  1  0.500000  0.500000  0.341145  1
  B  B9  1  0.500000  0.500000  0.840676  1
  B  B10  1  0.273344  0.101494  0.666967  1
  B  B11  1  0.102787  0.723454  0.166816  1
  B  B12  1  0.276546  0.102787  0.333184  1
  B  B13  1  0.898506  0.273344  0.833033  1
  B  B14  1  0.500000  0.500000  0.659324  1
  B  B15  1  0.500000  0.500000  0.158855  1
  B  B16  1  0.000000  0.500000  0.911257  1
  B  B17  1  0.726656  0.898506  0.666967  1
  B  B18  1  0.723454  0.897213  0.333184  1
  B  B19  1  0.000000  0.500000  0.087805  1
  Ir  Ir20  1  0.000000  0.000000  0.250000  1
  Ru  Ru21  1  0.205239  0.393286  0.756090  1
  Ru  Ru22  1  0.405751  0.288191  0.500310  1
  Ru  Ru23  1  0.392646  0.794940  0.255089  1
  Ru  Ru24  1  0.205060  0.392646  0.244911  1
  Ru  Ru25  1  0.594249  0.711809  0.500310  1
  Ru  Ru26  1  0.606714  0.205239  0.743910  1
  Ru  Ru27  1  0.288191  0.594249  0.999690  1
  Ru  Ru28  1  0.711809  0.405751  0.999690  1
  Ru  Ru29  1  0.794940  0.607354  0.244911  1
  Ru  Ru30  1  0.794761  0.606714  0.756090  1
  Ru  Ru31  1  0.393286  0.794761  0.743910  1
  Ru  Ru32  1  0.607354  0.205060  0.255089  1
  Ru  Ru33  1  0.000000  0.000000  0.750000  1
