# generated using pymatgen
data_Rb4H11Ru2
_symmetry_space_group_name_H-M   'P 1'
_cell_length_a   6.20987407
_cell_length_b   9.26351731
_cell_length_c   10.87230125
_cell_angle_alpha   67.75602941
_cell_angle_beta   85.17552543
_cell_angle_gamma   85.40686182
_symmetry_Int_Tables_number   1
_chemical_formula_structural   Rb4H11Ru2
_chemical_formula_sum   'Rb8 H22 Ru4'
_cell_volume   576.04706581
_cell_formula_units_Z   2
loop_
 _symmetry_equiv_pos_site_id
 _symmetry_equiv_pos_as_xyz
  1  'x, y, z'
loop_
 _atom_site_type_symbol
 _atom_site_label
 _atom_site_symmetry_multiplicity
 _atom_site_fract_x
 _atom_site_fract_y
 _atom_site_fract_z
 _atom_site_occupancy
  Rb  Rb0  1  0.743612  0.359136  0.493553  1
  Rb  Rb1  1  0.256470  0.640949  0.506464  1
  Rb  Rb2  1  0.777365  0.421105  0.116382  1
  Rb  Rb3  1  0.222595  0.578987  0.883604  1
  Rb  Rb4  1  0.773755  0.967507  0.392135  1
  Rb  Rb5  1  0.226273  0.032540  0.607857  1
  Rb  Rb6  1  0.654309  0.180152  0.899014  1
  Rb  Rb7  1  0.345827  0.819863  0.100964  1
  H  H8  1  0.561398  0.781341  0.671351  1
  H  H9  1  0.438468  0.218610  0.328611  1
  H  H10  1  0.553511  0.477676  0.712918  1
  H  H11  1  0.446522  0.522243  0.287072  1
  H  H12  1  0.689852  0.024458  0.641566  1
  H  H13  1  0.310152  0.975475  0.358362  1
  H  H14  1  0.653664  0.650868  0.848483  1
  H  H15  1  0.346213  0.349082  0.151606  1
  H  H16  1  0.928767  0.758284  0.690589  1
  H  H17  1  0.071138  0.241660  0.309430  1
  H  H18  1  0.723438  0.650115  0.538312  1
  H  H19  1  0.276711  0.349944  0.461757  1
  H  H20  1  0.874425  0.971656  0.798823  1
  H  H21  1  0.125524  0.028296  0.201094  1
  H  H22  1  0.771228  0.789499  0.934201  1
  H  H23  1  0.228786  0.210480  0.065749  1
  H  H24  1  0.828549  0.460915  0.840886  1
  H  H25  1  0.171560  0.539097  0.159147  1
  H  H26  1  0.912700  0.479977  0.665559  1
  H  H27  1  0.087379  0.520162  0.334479  1
  H  H28  1  0.503081  0.936260  0.832592  1
  H  H29  1  0.496813  0.063733  0.167367  1
  Ru  Ru30  1  0.714238  0.853399  0.774635  1
  Ru  Ru31  1  0.285694  0.146625  0.225382  1
  Ru  Ru32  1  0.739886  0.601888  0.704461  1
  Ru  Ru33  1  0.260102  0.398018  0.295595  1
