# generated using pymatgen
data_DyTm2Si3Ru2
_symmetry_space_group_name_H-M   'P 1'
_cell_length_a   5.69911850
_cell_length_b   5.69911774
_cell_length_c   13.71540500
_cell_angle_alpha   90.00000000
_cell_angle_beta   90.00000000
_cell_angle_gamma   137.20043041
_symmetry_Int_Tables_number   1
_chemical_formula_structural   DyTm2Si3Ru2
_chemical_formula_sum   'Dy2 Tm4 Si6 Ru4'
_cell_volume   302.67208958
_cell_formula_units_Z   2
loop_
 _symmetry_equiv_pos_site_id
 _symmetry_equiv_pos_as_xyz
  1  'x, y, z'
loop_
 _atom_site_type_symbol
 _atom_site_label
 _atom_site_symmetry_multiplicity
 _atom_site_fract_x
 _atom_site_fract_y
 _atom_site_fract_z
 _atom_site_occupancy
  Dy  Dy0  1  0.642475  0.357525  0.250000  1
  Dy  Dy1  1  0.357525  0.642475  0.750000  1
  Tm  Tm2  1  0.924156  0.075844  0.386027  1
  Tm  Tm3  1  0.075844  0.924156  0.613973  1
  Tm  Tm4  1  0.924156  0.075844  0.113973  1
  Tm  Tm5  1  0.075844  0.924156  0.886027  1
  Si  Si6  1  0.616076  0.383924  0.462320  1
  Si  Si7  1  0.383924  0.616076  0.537680  1
  Si  Si8  1  0.616076  0.383924  0.037680  1
  Si  Si9  1  0.383924  0.616076  0.962320  1
  Si  Si10  1  0.332987  0.667013  0.250000  1
  Si  Si11  1  0.667013  0.332987  0.750000  1
  Ru  Ru12  1  0.786937  0.213063  0.918783  1
  Ru  Ru13  1  0.213063  0.786937  0.081217  1
  Ru  Ru14  1  0.786937  0.213063  0.581217  1
  Ru  Ru15  1  0.213063  0.786937  0.418783  1
