# generated using pymatgen
data_CeEr3Ni2(B8Ir)2
_symmetry_space_group_name_H-M   'P 1'
_cell_length_a   6.91416395
_cell_length_b   6.91462905
_cell_length_c   6.91416548
_cell_angle_alpha   111.24947570
_cell_angle_beta   113.35497119
_cell_angle_gamma   103.95166361
_symmetry_Int_Tables_number   1
_chemical_formula_structural   CeEr3Ni2(B8Ir)2
_chemical_formula_sum   'Ce1 Er3 Ni2 B16 Ir2'
_cell_volume   252.62938233
_cell_formula_units_Z   1
loop_
 _symmetry_equiv_pos_site_id
 _symmetry_equiv_pos_as_xyz
  1  'x, y, z'
loop_
 _atom_site_type_symbol
 _atom_site_label
 _atom_site_symmetry_multiplicity
 _atom_site_fract_x
 _atom_site_fract_y
 _atom_site_fract_z
 _atom_site_occupancy
  Ce  Ce0  1  0.245530  0.745603  0.500074  1
  Er  Er1  1  0.789112  0.789142  0.000030  1
  Er  Er2  1  0.208429  0.208421  0.999992  1
  Er  Er3  1  0.751586  0.251498  0.499912  1
  Ni  Ni4  1  0.501748  0.747831  0.246083  1
  Ni  Ni5  1  0.502110  0.255960  0.753850  1
  B  B6  1  0.270436  0.107097  0.379799  1
  B  B7  1  0.727317  0.890643  0.620222  1
  B  B8  1  0.270422  0.890643  0.163326  1
  B  B9  1  0.727298  0.107097  0.836661  1
  B  B10  1  0.112532  0.732753  0.841652  1
  B  B11  1  0.891141  0.270844  0.158341  1
  B  B12  1  0.112503  0.270844  0.379702  1
  B  B13  1  0.891102  0.732753  0.620222  1
  B  B14  1  0.114248  0.110895  0.529635  1
  B  B15  1  0.581250  0.584595  0.470355  1
  B  B16  1  0.114240  0.584595  0.003345  1
  B  B17  1  0.581260  0.110895  0.996647  1
  B  B18  1  0.884267  0.891575  0.470446  1
  B  B19  1  0.421103  0.413832  0.529537  1
  B  B20  1  0.884295  0.413832  0.992728  1
  B  B21  1  0.421128  0.891575  0.007308  1
  Ir  Ir22  1  0.276176  0.498538  0.777772  1
  Ir  Ir23  1  0.720766  0.498538  0.222362  1
