# generated using pymatgen
data_Mg2Cu2SiPt
_symmetry_space_group_name_H-M   'P 1'
_cell_length_a   5.12614754
_cell_length_b   5.20428920
_cell_length_c   7.86365600
_cell_angle_alpha   90.00000000
_cell_angle_beta   90.00000000
_cell_angle_gamma   120.50554196
_symmetry_Int_Tables_number   1
_chemical_formula_structural   Mg2Cu2SiPt
_chemical_formula_sum   'Mg4 Cu4 Si2 Pt2'
_cell_volume   180.74765543
_cell_formula_units_Z   2
loop_
 _symmetry_equiv_pos_site_id
 _symmetry_equiv_pos_as_xyz
  1  'x, y, z'
loop_
 _atom_site_type_symbol
 _atom_site_label
 _atom_site_symmetry_multiplicity
 _atom_site_fract_x
 _atom_site_fract_y
 _atom_site_fract_z
 _atom_site_occupancy
  Mg  Mg0  1  0.331128  0.666855  0.060937  1
  Mg  Mg1  1  0.668872  0.335726  0.560937  1
  Mg  Mg2  1  0.668872  0.335726  0.939063  1
  Mg  Mg3  1  0.331128  0.666855  0.439063  1
  Cu  Cu4  1  0.338386  0.166927  0.250000  1
  Cu  Cu5  1  0.661614  0.828541  0.750000  1
  Cu  Cu6  1  0.167726  0.830264  0.750000  1
  Cu  Cu7  1  0.832274  0.662538  0.250000  1
  Si  Si8  1  0.000000  0.000727  0.000000  1
  Si  Si9  1  0.000000  0.000727  0.500000  1
  Pt  Pt10  1  0.170309  0.337712  0.750000  1
  Pt  Pt11  1  0.829691  0.167403  0.250000  1
