# generated using pymatgen
data_Pa4Al24RuPt8
_symmetry_space_group_name_H-M   'P 1'
_cell_length_a   7.55388571
_cell_length_b   7.55044709
_cell_length_c   13.07795900
_cell_angle_alpha   84.49234813
_cell_angle_beta   101.07687466
_cell_angle_gamma   119.78785667
_symmetry_Int_Tables_number   1
_chemical_formula_structural   Pa4Al24RuPt8
_chemical_formula_sum   'Pa4 Al24 Ru1 Pt8'
_cell_volume   635.28840459
_cell_formula_units_Z   1
loop_
 _symmetry_equiv_pos_site_id
 _symmetry_equiv_pos_as_xyz
  1  'x, y, z'
loop_
 _atom_site_type_symbol
 _atom_site_label
 _atom_site_symmetry_multiplicity
 _atom_site_fract_x
 _atom_site_fract_y
 _atom_site_fract_z
 _atom_site_occupancy
  Pa  Pa0  1  0.733465  0.998387  0.193321  1
  Pa  Pa1  1  0.267337  0.000856  0.807074  1
  Pa  Pa2  1  0.063247  0.668373  0.192999  1
  Pa  Pa3  1  0.937331  0.331053  0.806653  1
  Al  Al4  1  0.806429  0.866416  0.816823  1
  Al  Al5  1  0.194782  0.132538  0.183162  1
  Al  Al6  1  0.985746  0.666104  0.946394  1
  Al  Al7  1  0.021904  0.338950  0.053396  1
  Al  Al8  1  0.398225  0.662784  0.820674  1
  Al  Al9  1  0.599756  0.336068  0.182004  1
  Al  Al10  1  0.879980  0.665258  0.669675  1
  Al  Al11  1  0.120768  0.334822  0.329726  1
  Al  Al12  1  0.604166  0.460411  0.817824  1
  Al  Al13  1  0.396185  0.542617  0.179490  1
  Al  Al14  1  0.233818  0.344364  0.668524  1
  Al  Al15  1  0.766292  0.655735  0.331343  1
  Al  Al16  1  0.851822  0.332919  0.558116  1
  Al  Al17  1  0.186731  0.000353  0.557980  1
  Al  Al18  1  0.814193  0.000047  0.442016  1
  Al  Al19  1  0.351420  0.996004  0.054055  1
  Al  Al20  1  0.643750  0.995942  0.946755  1
  Al  Al21  1  0.555795  0.989823  0.670267  1
  Al  Al22  1  0.444270  0.008976  0.329750  1
  Al  Al23  1  0.521151  0.666571  0.560510  1
  Al  Al24  1  0.479246  0.332920  0.439309  1
  Al  Al25  1  0.677226  0.667818  0.044279  1
  Al  Al26  1  0.317463  0.337573  0.955922  1
  Al  Al27  1  0.147869  0.666174  0.441911  1
  Ru  Ru28  1  0.327263  0.672586  0.000071  1
  Pt  Pt29  1  0.546764  0.324245  0.638687  1
  Pt  Pt30  1  0.453660  0.675040  0.360877  1
  Pt  Pt31  1  0.890072  0.009622  0.639984  1
  Pt  Pt32  1  0.110486  0.989976  0.359939  1
  Pt  Pt33  1  0.671324  0.328658  0.000155  1
  Pt  Pt34  1  0.204447  0.667141  0.639848  1
  Pt  Pt35  1  0.796118  0.332438  0.360425  1
  Pt  Pt36  1  0.999497  0.000432  0.000059  1
