# generated using pymatgen
data_Er3Lu2(In2Rh)2
_symmetry_space_group_name_H-M   'P 1'
_cell_length_a   3.58379400
_cell_length_b   7.98145600
_cell_length_c   18.15228600
_cell_angle_alpha   90.00000000
_cell_angle_beta   90.00000000
_cell_angle_gamma   90.00000000
_symmetry_Int_Tables_number   1
_chemical_formula_structural   Er3Lu2(In2Rh)2
_chemical_formula_sum   'Er6 Lu4 In8 Rh4'
_cell_volume   519.22606685
_cell_formula_units_Z   2
loop_
 _symmetry_equiv_pos_site_id
 _symmetry_equiv_pos_as_xyz
  1  'x, y, z'
loop_
 _atom_site_type_symbol
 _atom_site_label
 _atom_site_symmetry_multiplicity
 _atom_site_fract_x
 _atom_site_fract_y
 _atom_site_fract_z
 _atom_site_occupancy
  Er  Er0  1  0.000000  0.000000  0.000000  1
  Er  Er1  1  0.000000  0.500000  0.500000  1
  Er  Er2  1  0.000000  0.747727  0.780562  1
  Er  Er3  1  0.000000  0.252273  0.219438  1
  Er  Er4  1  0.000000  0.247727  0.719438  1
  Er  Er5  1  0.000000  0.752273  0.280562  1
  Lu  Lu6  1  0.000000  0.877996  0.588161  1
  Lu  Lu7  1  0.000000  0.122004  0.411839  1
  Lu  Lu8  1  0.000000  0.377996  0.911839  1
  Lu  Lu9  1  0.000000  0.622004  0.088161  1
  In  In10  1  0.500000  0.800673  0.435402  1
  In  In11  1  0.500000  0.199327  0.564598  1
  In  In12  1  0.500000  0.300673  0.064598  1
  In  In13  1  0.500000  0.699327  0.935402  1
  In  In14  1  0.500000  0.930795  0.150326  1
  In  In15  1  0.500000  0.069205  0.849674  1
  In  In16  1  0.500000  0.430795  0.349674  1
  In  In17  1  0.500000  0.569205  0.650326  1
  Rh  Rh18  1  0.500000  0.966702  0.694904  1
  Rh  Rh19  1  0.500000  0.033298  0.305096  1
  Rh  Rh20  1  0.500000  0.466702  0.805096  1
  Rh  Rh21  1  0.500000  0.533298  0.194904  1
