# generated using pymatgen
data_Ce7Nd12SmRh16
_symmetry_space_group_name_H-M   'P 1'
_cell_length_a   7.59219552
_cell_length_b   7.61862338
_cell_length_c   14.54005800
_cell_angle_alpha   89.92568250
_cell_angle_beta   89.56330782
_cell_angle_gamma   90.37303578
_symmetry_Int_Tables_number   1
_chemical_formula_structural   Ce7Nd12SmRh16
_chemical_formula_sum   'Ce7 Nd12 Sm1 Rh16'
_cell_volume   840.98415799
_cell_formula_units_Z   1
loop_
 _symmetry_equiv_pos_site_id
 _symmetry_equiv_pos_as_xyz
  1  'x, y, z'
loop_
 _atom_site_type_symbol
 _atom_site_label
 _atom_site_symmetry_multiplicity
 _atom_site_fract_x
 _atom_site_fract_y
 _atom_site_fract_z
 _atom_site_occupancy
  Ce  Ce0  1  0.665291  0.155061  0.621260  1
  Ce  Ce1  1  0.161466  0.344253  0.880448  1
  Ce  Ce2  1  0.339287  0.845396  0.119808  1
  Ce  Ce3  1  0.835359  0.657357  0.377474  1
  Ce  Ce4  1  0.335933  0.843018  0.377598  1
  Ce  Ce5  1  0.839204  0.658853  0.120680  1
  Ce  Ce6  1  0.660379  0.158914  0.880947  1
  Nd  Nd7  1  0.163503  0.336538  0.619877  1
  Nd  Nd8  1  0.508450  0.678307  0.592889  1
  Nd  Nd9  1  0.007238  0.823356  0.907926  1
  Nd  Nd10  1  0.495320  0.322613  0.093187  1
  Nd  Nd11  1  0.991007  0.179543  0.405502  1
  Nd  Nd12  1  0.490598  0.319111  0.407348  1
  Nd  Nd13  1  0.992960  0.179979  0.094105  1
  Nd  Nd14  1  0.506984  0.680745  0.906942  1
  Nd  Nd15  1  0.008806  0.816781  0.590731  1
  Nd  Nd16  1  0.819695  0.514212  0.750033  1
  Nd  Nd17  1  0.314498  0.985111  0.749505  1
  Nd  Nd18  1  0.184907  0.486666  0.248884  1
  Sm  Sm19  1  0.682775  0.014702  0.249793  1
  Rh  Rh20  1  0.688620  0.954213  0.461608  1
  Rh  Rh21  1  0.183955  0.544343  0.038631  1
  Rh  Rh22  1  0.318270  0.043678  0.963425  1
  Rh  Rh23  1  0.807188  0.452750  0.535680  1
  Rh  Rh24  1  0.324396  0.026884  0.534427  1
  Rh  Rh25  1  0.815905  0.462040  0.964806  1
  Rh  Rh26  1  0.683504  0.961395  0.037746  1
  Rh  Rh27  1  0.174613  0.550807  0.454154  1
  Rh  Rh28  1  0.465651  0.361471  0.755024  1
  Rh  Rh29  1  0.954518  0.134061  0.759135  1
  Rh  Rh30  1  0.540037  0.643950  0.249391  1
  Rh  Rh31  1  0.037489  0.863701  0.246371  1
  Rh  Rh32  1  0.693512  0.876294  0.747980  1
  Rh  Rh33  1  0.203395  0.623830  0.755972  1
  Rh  Rh34  1  0.305828  0.120158  0.250343  1
  Rh  Rh35  1  0.799460  0.379907  0.250372  1
