# generated using pymatgen
data_La5OsPd2
_symmetry_space_group_name_H-M   'P 1'
_cell_length_a   11.64514200
_cell_length_b   11.64514200
_cell_length_c   6.67448300
_cell_angle_alpha   90.00000000
_cell_angle_beta   90.00000000
_cell_angle_gamma   90.00000000
_symmetry_Int_Tables_number   1
_chemical_formula_structural   La5OsPd2
_chemical_formula_sum   'La20 Os4 Pd8'
_cell_volume   905.12218241
_cell_formula_units_Z   4
loop_
 _symmetry_equiv_pos_site_id
 _symmetry_equiv_pos_as_xyz
  1  'x, y, z'
loop_
 _atom_site_type_symbol
 _atom_site_label
 _atom_site_symmetry_multiplicity
 _atom_site_fract_x
 _atom_site_fract_y
 _atom_site_fract_z
 _atom_site_occupancy
  La  La0  1  0.299623  0.087060  0.381505  1
  La  La1  1  0.299623  0.912940  0.881505  1
  La  La2  1  0.700377  0.087060  0.881505  1
  La  La3  1  0.700377  0.912940  0.381505  1
  La  La4  1  0.587060  0.799623  0.881505  1
  La  La5  1  0.587060  0.200377  0.381505  1
  La  La6  1  0.412940  0.799623  0.381505  1
  La  La7  1  0.412940  0.200377  0.881505  1
  La  La8  1  0.200377  0.412940  0.618495  1
  La  La9  1  0.200377  0.587060  0.118495  1
  La  La10  1  0.799623  0.412940  0.118495  1
  La  La11  1  0.799623  0.587060  0.618495  1
  La  La12  1  0.912940  0.700377  0.118495  1
  La  La13  1  0.912940  0.299623  0.618495  1
  La  La14  1  0.087060  0.700377  0.618495  1
  La  La15  1  0.087060  0.299623  0.118495  1
  La  La16  1  0.000000  0.000000  0.500000  1
  La  La17  1  0.000000  0.000000  0.000000  1
  La  La18  1  0.500000  0.500000  0.000000  1
  La  La19  1  0.500000  0.500000  0.500000  1
  Os  Os20  1  0.500000  0.000000  0.126631  1
  Os  Os21  1  0.500000  0.000000  0.626631  1
  Os  Os22  1  0.000000  0.500000  0.873369  1
  Os  Os23  1  0.000000  0.500000  0.373369  1
  Pd  Pd24  1  0.847101  0.152899  0.250000  1
  Pd  Pd25  1  0.847101  0.847101  0.750000  1
  Pd  Pd26  1  0.152899  0.152899  0.750000  1
  Pd  Pd27  1  0.152899  0.847101  0.250000  1
  Pd  Pd28  1  0.652899  0.347101  0.750000  1
  Pd  Pd29  1  0.652899  0.652899  0.250000  1
  Pd  Pd30  1  0.347101  0.347101  0.250000  1
  Pd  Pd31  1  0.347101  0.652899  0.750000  1
