# generated using pymatgen
data_Tb2Sc3Si3Ni
_symmetry_space_group_name_H-M   'P 1'
_cell_length_a   6.92901100
_cell_length_b   7.58253200
_cell_length_c   13.89868300
_cell_angle_alpha   90.00000000
_cell_angle_beta   90.00000000
_cell_angle_gamma   90.00000000
_symmetry_Int_Tables_number   1
_chemical_formula_structural   Tb2Sc3Si3Ni
_chemical_formula_sum   'Tb8 Sc12 Si12 Ni4'
_cell_volume   730.22912769
_cell_formula_units_Z   4
loop_
 _symmetry_equiv_pos_site_id
 _symmetry_equiv_pos_as_xyz
  1  'x, y, z'
loop_
 _atom_site_type_symbol
 _atom_site_label
 _atom_site_symmetry_multiplicity
 _atom_site_fract_x
 _atom_site_fract_y
 _atom_site_fract_z
 _atom_site_occupancy
  Tb  Tb0  1  0.005924  0.180161  0.091841  1
  Tb  Tb1  1  0.994076  0.819839  0.908159  1
  Tb  Tb2  1  0.494076  0.680161  0.908159  1
  Tb  Tb3  1  0.994076  0.819839  0.591841  1
  Tb  Tb4  1  0.505924  0.319839  0.091841  1
  Tb  Tb5  1  0.005924  0.180161  0.408159  1
  Tb  Tb6  1  0.505924  0.319839  0.408159  1
  Tb  Tb7  1  0.494076  0.680161  0.591841  1
  Sc  Sc8  1  0.176961  0.506404  0.750000  1
  Sc  Sc9  1  0.823039  0.493596  0.250000  1
  Sc  Sc10  1  0.323039  0.006404  0.250000  1
  Sc  Sc11  1  0.676961  0.993596  0.750000  1
  Sc  Sc12  1  0.321268  0.170794  0.630077  1
  Sc  Sc13  1  0.678732  0.829206  0.369923  1
  Sc  Sc14  1  0.178732  0.670794  0.369923  1
  Sc  Sc15  1  0.678732  0.829206  0.130077  1
  Sc  Sc16  1  0.821268  0.329206  0.630077  1
  Sc  Sc17  1  0.321268  0.170794  0.869923  1
  Sc  Sc18  1  0.821268  0.329206  0.869923  1
  Sc  Sc19  1  0.178732  0.670794  0.130077  1
  Si  Si20  1  0.279525  0.873687  0.750000  1
  Si  Si21  1  0.720475  0.126313  0.250000  1
  Si  Si22  1  0.220475  0.373687  0.250000  1
  Si  Si23  1  0.779525  0.626313  0.750000  1
  Si  Si24  1  0.159135  0.465663  0.539451  1
  Si  Si25  1  0.840865  0.534337  0.460549  1
  Si  Si26  1  0.340865  0.965663  0.460549  1
  Si  Si27  1  0.840865  0.534337  0.039451  1
  Si  Si28  1  0.659135  0.034337  0.539451  1
  Si  Si29  1  0.159135  0.465663  0.960549  1
  Si  Si30  1  0.659135  0.034337  0.960549  1
  Si  Si31  1  0.340865  0.965663  0.039451  1
  Ni  Ni32  1  0.032866  0.105420  0.750000  1
  Ni  Ni33  1  0.967134  0.894580  0.250000  1
  Ni  Ni34  1  0.467134  0.605420  0.250000  1
  Ni  Ni35  1  0.532866  0.394580  0.750000  1
