# generated using pymatgen
data_Yb2Sb2IrPt
_symmetry_space_group_name_H-M   'P 1'
_cell_length_a   4.59503400
_cell_length_b   7.29933600
_cell_length_c   7.87236800
_cell_angle_alpha   90.00000000
_cell_angle_beta   90.00000000
_cell_angle_gamma   90.00000000
_symmetry_Int_Tables_number   1
_chemical_formula_structural   Yb2Sb2IrPt
_chemical_formula_sum   'Yb4 Sb4 Ir2 Pt2'
_cell_volume   264.04471053
_cell_formula_units_Z   2
loop_
 _symmetry_equiv_pos_site_id
 _symmetry_equiv_pos_as_xyz
  1  'x, y, z'
loop_
 _atom_site_type_symbol
 _atom_site_label
 _atom_site_symmetry_multiplicity
 _atom_site_fract_x
 _atom_site_fract_y
 _atom_site_fract_z
 _atom_site_occupancy
  Yb  Yb0  1  0.250000  0.016024  0.306221  1
  Yb  Yb1  1  0.250000  0.516024  0.193779  1
  Yb  Yb2  1  0.750000  0.983862  0.694934  1
  Yb  Yb3  1  0.750000  0.483862  0.805066  1
  Sb  Sb4  1  0.250000  0.681307  0.578827  1
  Sb  Sb5  1  0.250000  0.181307  0.921173  1
  Sb  Sb6  1  0.750000  0.322578  0.410796  1
  Sb  Sb7  1  0.750000  0.822578  0.089204  1
  Ir  Ir8  1  0.750000  0.701438  0.406697  1
  Ir  Ir9  1  0.750000  0.201438  0.093303  1
  Pt  Pt10  1  0.250000  0.294790  0.595154  1
  Pt  Pt11  1  0.250000  0.794790  0.904846  1
