# generated using pymatgen
data_CaLa4(SnSb)2
_symmetry_space_group_name_H-M   'P 1'
_cell_length_a   8.50759200
_cell_length_b   8.57870300
_cell_length_c   16.27695900
_cell_angle_alpha   90.00000000
_cell_angle_beta   90.00000000
_cell_angle_gamma   90.00000000
_symmetry_Int_Tables_number   1
_chemical_formula_structural   CaLa4(SnSb)2
_chemical_formula_sum   'Ca4 La16 Sn8 Sb8'
_cell_volume   1187.95928495
_cell_formula_units_Z   4
loop_
 _symmetry_equiv_pos_site_id
 _symmetry_equiv_pos_as_xyz
  1  'x, y, z'
loop_
 _atom_site_type_symbol
 _atom_site_label
 _atom_site_symmetry_multiplicity
 _atom_site_fract_x
 _atom_site_fract_y
 _atom_site_fract_z
 _atom_site_occupancy
  Ca  Ca0  1  0.226665  0.499422  0.750000  1
  Ca  Ca1  1  0.726665  0.000578  0.750000  1
  Ca  Ca2  1  0.773335  0.500578  0.250000  1
  Ca  Ca3  1  0.273335  0.999422  0.250000  1
  La  La4  1  0.396777  0.836615  0.884330  1
  La  La5  1  0.896777  0.663385  0.615670  1
  La  La6  1  0.603223  0.163385  0.384330  1
  La  La7  1  0.103223  0.336615  0.115670  1
  La  La8  1  0.603223  0.163385  0.115670  1
  La  La9  1  0.103223  0.336615  0.384330  1
  La  La10  1  0.396777  0.836615  0.615670  1
  La  La11  1  0.896777  0.663385  0.884330  1
  La  La12  1  0.554313  0.326781  0.892325  1
  La  La13  1  0.054313  0.173219  0.607675  1
  La  La14  1  0.445687  0.673219  0.392325  1
  La  La15  1  0.945687  0.826781  0.107675  1
  La  La16  1  0.445687  0.673219  0.107675  1
  La  La17  1  0.945687  0.826781  0.392325  1
  La  La18  1  0.554313  0.326781  0.607675  1
  La  La19  1  0.054313  0.173219  0.892325  1
  Sn  Sn20  1  0.597485  0.621841  0.750000  1
  Sn  Sn21  1  0.097485  0.878159  0.750000  1
  Sn  Sn22  1  0.402515  0.378159  0.250000  1
  Sn  Sn23  1  0.902515  0.121841  0.250000  1
  Sn  Sn24  1  0.352697  0.136634  0.750000  1
  Sn  Sn25  1  0.852697  0.363366  0.750000  1
  Sn  Sn26  1  0.647303  0.863366  0.250000  1
  Sn  Sn27  1  0.147303  0.636634  0.250000  1
  Sb  Sb28  1  0.265372  0.015079  0.048072  1
  Sb  Sb29  1  0.765372  0.484921  0.451928  1
  Sb  Sb30  1  0.734628  0.984921  0.548072  1
  Sb  Sb31  1  0.234628  0.515079  0.951928  1
  Sb  Sb32  1  0.734628  0.984921  0.951928  1
  Sb  Sb33  1  0.234628  0.515079  0.548072  1
  Sb  Sb34  1  0.265372  0.015079  0.451928  1
  Sb  Sb35  1  0.765372  0.484921  0.048072  1
