# generated using pymatgen
data_Dy2Mg3PaIr3
_symmetry_space_group_name_H-M   'P 1'
_cell_length_a   7.49760300
_cell_length_b   7.24638424
_cell_length_c   4.01760200
_cell_angle_alpha   90.00000000
_cell_angle_beta   90.00000000
_cell_angle_gamma   121.15360052
_symmetry_Int_Tables_number   1
_chemical_formula_structural   Dy2Mg3PaIr3
_chemical_formula_sum   'Dy2 Mg3 Pa1 Ir3'
_cell_volume   186.79902932
_cell_formula_units_Z   1
loop_
 _symmetry_equiv_pos_site_id
 _symmetry_equiv_pos_as_xyz
  1  'x, y, z'
loop_
 _atom_site_type_symbol
 _atom_site_label
 _atom_site_symmetry_multiplicity
 _atom_site_fract_x
 _atom_site_fract_y
 _atom_site_fract_z
 _atom_site_occupancy
  Dy  Dy0  1  0.997820  0.406384  0.500001  1
  Dy  Dy1  1  0.591436  0.593616  0.500001  1
  Mg  Mg2  1  0.767127  0.000000  0.000000  1
  Mg  Mg3  1  0.245807  0.251497  0.000000  1
  Mg  Mg4  1  0.994311  0.748503  0.000000  1
  Pa  Pa5  1  0.415489  0.000000  0.500001  1
  Ir  Ir6  1  0.640928  0.305344  0.000000  1
  Ir  Ir7  1  0.335585  0.694656  0.000000  1
  Ir  Ir8  1  0.011499  0.000000  0.500001  1
