# generated using pymatgen
data_YHo5Co9(P4Ru3)3
_symmetry_space_group_name_H-M   'P 1'
_cell_length_a   3.83464200
_cell_length_b   10.64558081
_cell_length_c   12.49624952
_cell_angle_alpha   89.70800670
_cell_angle_beta   90.00000000
_cell_angle_gamma   90.00000000
_symmetry_Int_Tables_number   1
_chemical_formula_structural   YHo5Co9(P4Ru3)3
_chemical_formula_sum   'Y1 Ho5 Co9 P12 Ru9'
_cell_volume   510.11516441
_cell_formula_units_Z   1
loop_
 _symmetry_equiv_pos_site_id
 _symmetry_equiv_pos_as_xyz
  1  'x, y, z'
loop_
 _atom_site_type_symbol
 _atom_site_label
 _atom_site_symmetry_multiplicity
 _atom_site_fract_x
 _atom_site_fract_y
 _atom_site_fract_z
 _atom_site_occupancy
  Y  Y0  1  0.500000  0.000607  0.471729  1
  Ho  Ho1  1  0.000000  0.500274  0.525702  1
  Ho  Ho2  1  0.500000  0.820411  0.200743  1
  Ho  Ho3  1  0.500000  0.180840  0.201202  1
  Ho  Ho4  1  0.000000  0.678466  0.799966  1
  Ho  Ho5  1  0.000000  0.321750  0.798849  1
  Co  Co6  1  0.000000  0.498770  0.986119  1
  Co  Co7  1  0.500000  0.000220  0.016553  1
  Co  Co8  1  0.000000  0.374758  0.279887  1
  Co  Co9  1  0.500000  0.331405  0.989703  1
  Co  Co10  1  0.500000  0.666031  0.991415  1
  Co  Co11  1  0.000000  0.168377  0.012666  1
  Co  Co12  1  0.000000  0.832540  0.011376  1
  Co  Co13  1  0.500000  0.500241  0.703466  1
  Co  Co14  1  0.000000  0.001098  0.296207  1
  P  P15  1  0.500000  0.316359  0.616591  1
  P  P16  1  0.500000  0.685557  0.618730  1
  P  P17  1  0.000000  0.189514  0.377380  1
  P  P18  1  0.000000  0.813317  0.379872  1
  P  P19  1  0.500000  0.499481  0.882310  1
  P  P20  1  0.000000  0.000043  0.119116  1
  P  P21  1  0.500000  0.845304  0.901868  1
  P  P22  1  0.500000  0.154459  0.900370  1
  P  P23  1  0.000000  0.653595  0.100265  1
  P  P24  1  0.000000  0.345585  0.103960  1
  P  P25  1  0.500000  0.499646  0.338808  1
  P  P26  1  0.000000  0.000911  0.661947  1
  Ru  Ru27  1  0.500000  0.301279  0.422418  1
  Ru  Ru28  1  0.500000  0.702165  0.427561  1
  Ru  Ru29  1  0.000000  0.205053  0.568848  1
  Ru  Ru30  1  0.000000  0.798102  0.572008  1
  Ru  Ru31  1  0.500000  0.875185  0.719503  1
  Ru  Ru32  1  0.500000  0.126266  0.717504  1
  Ru  Ru33  1  0.000000  0.618913  0.281796  1
  Ru  Ru34  1  0.500000  0.492103  0.149811  1
  Ru  Ru35  1  0.000000  0.001372  0.853749  1
