# generated using pymatgen
data_Tm12Co4SnPt
_symmetry_space_group_name_H-M   'P 1'
_cell_length_a   8.18523709
_cell_length_b   8.18523684
_cell_length_c   8.18523673
_cell_angle_alpha   111.48811346
_cell_angle_beta   110.26932455
_cell_angle_gamma   106.69388364
_symmetry_Int_Tables_number   1
_chemical_formula_structural   Tm12Co4SnPt
_chemical_formula_sum   'Tm12 Co4 Sn1 Pt1'
_cell_volume   421.36532847
_cell_formula_units_Z   1
loop_
 _symmetry_equiv_pos_site_id
 _symmetry_equiv_pos_as_xyz
  1  'x, y, z'
loop_
 _atom_site_type_symbol
 _atom_site_label
 _atom_site_symmetry_multiplicity
 _atom_site_fract_x
 _atom_site_fract_y
 _atom_site_fract_z
 _atom_site_occupancy
  Tm  Tm0  1  0.419805  0.223381  0.196424  1
  Tm  Tm1  1  0.580195  0.776619  0.803576  1
  Tm  Tm2  1  0.026957  0.223381  0.803576  1
  Tm  Tm3  1  0.973043  0.776619  0.196424  1
  Tm  Tm4  1  0.182412  0.283953  0.466365  1
  Tm  Tm5  1  0.817588  0.716047  0.533635  1
  Tm  Tm6  1  0.182412  0.716047  0.898459  1
  Tm  Tm7  1  0.817588  0.283953  0.101541  1
  Tm  Tm8  1  0.322212  0.633296  0.311083  1
  Tm  Tm9  1  0.677788  0.366704  0.688917  1
  Tm  Tm10  1  0.322212  0.011128  0.688917  1
  Tm  Tm11  1  0.677788  0.988872  0.311083  1
  Co  Co12  1  0.354952  0.000000  0.354952  1
  Co  Co13  1  0.645048  0.000000  0.645048  1
  Co  Co14  1  0.113775  0.613775  0.500000  1
  Co  Co15  1  0.886225  0.386225  0.500000  1
  Sn  Sn16  1  0.500000  0.500000  0.000000  1
  Pt  Pt17  1  0.000000  0.000000  0.000000  1
