# generated using pymatgen
data_La11Yb4Pr5Ir12
_symmetry_space_group_name_H-M   'P 1'
_cell_length_a   11.34313343
_cell_length_b   11.36297563
_cell_length_c   6.49694352
_cell_angle_alpha   90.01106168
_cell_angle_beta   89.95553455
_cell_angle_gamma   90.03668178
_symmetry_Int_Tables_number   1
_chemical_formula_structural   La11Yb4Pr5Ir12
_chemical_formula_sum   'La11 Yb4 Pr5 Ir12'
_cell_volume   837.40197304
_cell_formula_units_Z   1
loop_
 _symmetry_equiv_pos_site_id
 _symmetry_equiv_pos_as_xyz
  1  'x, y, z'
loop_
 _atom_site_type_symbol
 _atom_site_label
 _atom_site_symmetry_multiplicity
 _atom_site_fract_x
 _atom_site_fract_y
 _atom_site_fract_z
 _atom_site_occupancy
  La  La0  1  0.286819  0.089081  0.385766  1
  La  La1  1  0.286859  0.910922  0.885853  1
  La  La2  1  0.713186  0.089126  0.885773  1
  La  La3  1  0.713311  0.910616  0.386034  1
  La  La4  1  0.589761  0.787050  0.885916  1
  La  La5  1  0.589564  0.212824  0.386278  1
  La  La6  1  0.410658  0.787176  0.385868  1
  La  La7  1  0.410500  0.212772  0.886016  1
  La  La8  1  0.211425  0.410910  0.614053  1
  La  La9  1  0.211618  0.589095  0.113975  1
  La  La10  1  0.788348  0.411335  0.114072  1
  Yb  Yb11  1  0.999922  0.000043  0.499896  1
  Yb  Yb12  1  0.999984  0.999997  0.999832  1
  Yb  Yb13  1  0.500089  0.500015  0.999731  1
  Yb  Yb14  1  0.500313  0.500139  0.500143  1
  Pr  Pr15  1  0.788548  0.588676  0.615346  1
  Pr  Pr16  1  0.911553  0.712226  0.115561  1
  Pr  Pr17  1  0.911756  0.287956  0.615480  1
  Pr  Pr18  1  0.087564  0.712253  0.615415  1
  Pr  Pr19  1  0.088100  0.287454  0.115762  1
  Ir  Ir20  1  0.844452  0.154511  0.248453  1
  Ir  Ir21  1  0.844551  0.845628  0.748510  1
  Ir  Ir22  1  0.155582  0.154466  0.748180  1
  Ir  Ir23  1  0.155514  0.845499  0.248411  1
  Ir  Ir24  1  0.654879  0.345056  0.750009  1
  Ir  Ir25  1  0.654187  0.655499  0.248612  1
  Ir  Ir26  1  0.345191  0.344850  0.250091  1
  Ir  Ir27  1  0.345159  0.655062  0.750005  1
  Ir  Ir28  1  0.499940  0.000071  0.113283  1
  Ir  Ir29  1  0.500008  0.999897  0.613228  1
  Ir  Ir30  1  0.000489  0.499810  0.887617  1
  Ir  Ir31  1  0.000170  0.499984  0.386831  1
