# generated using pymatgen
data_HoU2Sn3Ir2Ru
_symmetry_space_group_name_H-M   'P 1'
_cell_length_a   7.44072437
_cell_length_b   7.33086487
_cell_length_c   4.00472300
_cell_angle_alpha   90.00000000
_cell_angle_beta   90.00000000
_cell_angle_gamma   119.51277323
_symmetry_Int_Tables_number   1
_chemical_formula_structural   HoU2Sn3Ir2Ru
_chemical_formula_sum   'Ho1 U2 Sn3 Ir2 Ru1'
_cell_volume   190.10121688
_cell_formula_units_Z   1
loop_
 _symmetry_equiv_pos_site_id
 _symmetry_equiv_pos_as_xyz
  1  'x, y, z'
loop_
 _atom_site_type_symbol
 _atom_site_label
 _atom_site_symmetry_multiplicity
 _atom_site_fract_x
 _atom_site_fract_y
 _atom_site_fract_z
 _atom_site_occupancy
  Ho  Ho0  1  0.000000  0.590521  0.500000  1
  U  U1  1  0.413655  0.412298  0.500000  1
  U  U2  1  0.586345  0.998643  0.500000  1
  Sn  Sn3  1  0.756045  0.746548  0.000000  1
  Sn  Sn4  1  0.243955  0.990503  0.000000  1
  Sn  Sn5  1  0.000000  0.263726  0.000000  1
  Ir  Ir6  1  0.646905  0.315693  0.000000  1
  Ir  Ir7  1  0.353095  0.668790  0.000000  1
  Ru  Ru8  1  0.000000  0.013278  0.500000  1
