# generated using pymatgen
data_Ho12IrOsPt2
_symmetry_space_group_name_H-M   'P 1'
_cell_length_a   6.38282020
_cell_length_b   7.14621222
_cell_length_c   9.32539200
_cell_angle_alpha   90.00000000
_cell_angle_beta   90.00000000
_cell_angle_gamma   90.05492791
_symmetry_Int_Tables_number   1
_chemical_formula_structural   Ho12IrOsPt2
_chemical_formula_sum   'Ho12 Ir1 Os1 Pt2'
_cell_volume   425.35879542
_cell_formula_units_Z   1
loop_
 _symmetry_equiv_pos_site_id
 _symmetry_equiv_pos_as_xyz
  1  'x, y, z'
loop_
 _atom_site_type_symbol
 _atom_site_label
 _atom_site_symmetry_multiplicity
 _atom_site_fract_x
 _atom_site_fract_y
 _atom_site_fract_z
 _atom_site_occupancy
  Ho  Ho0  1  0.320463  0.682677  0.062883  1
  Ho  Ho1  1  0.172483  0.178110  0.438438  1
  Ho  Ho2  1  0.677029  0.316828  0.562681  1
  Ho  Ho3  1  0.830427  0.821399  0.942349  1
  Ho  Ho4  1  0.677029  0.316828  0.937319  1
  Ho  Ho5  1  0.830427  0.821399  0.557651  1
  Ho  Ho6  1  0.320463  0.682677  0.437117  1
  Ho  Ho7  1  0.172483  0.178110  0.061562  1
  Ho  Ho8  1  0.874782  0.536480  0.250000  1
  Ho  Ho9  1  0.627374  0.028207  0.250000  1
  Ho  Ho10  1  0.128316  0.463636  0.750000  1
  Ho  Ho11  1  0.369470  0.971648  0.750000  1
  Ir  Ir12  1  0.950069  0.112920  0.750000  1
  Os  Os13  1  0.044860  0.888209  0.250000  1
  Pt  Pt14  1  0.455258  0.387862  0.250000  1
  Pt  Pt15  1  0.549071  0.613010  0.750000  1
