# generated using pymatgen
data_KBaGaO3
_symmetry_space_group_name_H-M   'P 1'
_cell_length_a   6.91409182
_cell_length_b   6.42240271
_cell_length_c   5.91553904
_cell_angle_alpha   64.90419611
_cell_angle_beta   68.88298307
_cell_angle_gamma   75.24505417
_symmetry_Int_Tables_number   1
_chemical_formula_structural   KBaGaO3
_chemical_formula_sum   'K2 Ba2 Ga2 O6'
_cell_volume   220.28863839
_cell_formula_units_Z   2
loop_
 _symmetry_equiv_pos_site_id
 _symmetry_equiv_pos_as_xyz
  1  'x, y, z'
loop_
 _atom_site_type_symbol
 _atom_site_label
 _atom_site_symmetry_multiplicity
 _atom_site_fract_x
 _atom_site_fract_y
 _atom_site_fract_z
 _atom_site_occupancy
  K  K0  1  0.711931  0.443747  0.158012  1
  K  K1  1  0.288060  0.556250  0.842000  1
  Ba  Ba2  1  0.173234  0.194319  0.558770  1
  Ba  Ba3  1  0.826765  0.805680  0.441228  1
  Ga  Ga4  1  0.311606  0.923112  0.140007  1
  Ga  Ga5  1  0.688397  0.076889  0.859990  1
  O  O6  1  0.083106  0.147882  0.148567  1
  O  O7  1  0.514989  0.031366  0.210845  1
  O  O8  1  0.253157  0.623638  0.334394  1
  O  O9  1  0.746845  0.376363  0.665604  1
  O  O10  1  0.485012  0.968636  0.789150  1
  O  O11  1  0.916894  0.852116  0.851433  1
