# generated using pymatgen
data_Ho9Lu(SiSn3)2
_symmetry_space_group_name_H-M   'P 1'
_cell_length_a   9.17032900
_cell_length_b   9.17033022
_cell_length_c   6.41365300
_cell_angle_alpha   90.00000000
_cell_angle_beta   90.00000000
_cell_angle_gamma   119.99999919
_symmetry_Int_Tables_number   1
_chemical_formula_structural   Ho9Lu(SiSn3)2
_chemical_formula_sum   'Ho9 Lu1 Si2 Sn6'
_cell_volume   467.09582615
_cell_formula_units_Z   1
loop_
 _symmetry_equiv_pos_site_id
 _symmetry_equiv_pos_as_xyz
  1  'x, y, z'
loop_
 _atom_site_type_symbol
 _atom_site_label
 _atom_site_symmetry_multiplicity
 _atom_site_fract_x
 _atom_site_fract_y
 _atom_site_fract_z
 _atom_site_occupancy
  Ho  Ho0  1  0.333333  0.666667  0.000000  1
  Ho  Ho1  1  0.333333  0.666667  0.500000  1
  Ho  Ho2  1  0.666667  0.333333  0.500000  1
  Ho  Ho3  1  0.747508  0.747431  0.749927  1
  Ho  Ho4  1  0.252569  0.000077  0.749927  1
  Ho  Ho5  1  0.999923  0.252492  0.749927  1
  Ho  Ho6  1  0.252569  0.252492  0.250073  1
  Ho  Ho7  1  0.747508  0.000077  0.250073  1
  Ho  Ho8  1  0.999923  0.747431  0.250073  1
  Lu  Lu9  1  0.666667  0.333333  0.000000  1
  Si  Si10  1  0.000000  0.000000  0.000000  1
  Si  Si11  1  0.000000  0.000000  0.500000  1
  Sn  Sn12  1  0.391419  0.391248  0.750057  1
  Sn  Sn13  1  0.608752  0.000170  0.750057  1
  Sn  Sn14  1  0.999830  0.608581  0.750057  1
  Sn  Sn15  1  0.608752  0.608581  0.249943  1
  Sn  Sn16  1  0.391419  0.000170  0.249943  1
  Sn  Sn17  1  0.999830  0.391248  0.249943  1
