# generated using pymatgen
data_Tb8In2OsRu
_symmetry_space_group_name_H-M   'P 1'
_cell_length_a   9.68750456
_cell_length_b   9.69864154
_cell_length_c   9.68750333
_cell_angle_alpha   59.96196168
_cell_angle_beta   59.92339063
_cell_angle_gamma   59.96196084
_symmetry_Int_Tables_number   1
_chemical_formula_structural   Tb8In2OsRu
_chemical_formula_sum   'Tb16 In4 Os2 Ru2'
_cell_volume   642.86231547
_cell_formula_units_Z   2
loop_
 _symmetry_equiv_pos_site_id
 _symmetry_equiv_pos_as_xyz
  1  'x, y, z'
loop_
 _atom_site_type_symbol
 _atom_site_label
 _atom_site_symmetry_multiplicity
 _atom_site_fract_x
 _atom_site_fract_y
 _atom_site_fract_z
 _atom_site_occupancy
  Tb  Tb0  1  0.809079  0.806799  0.191608  1
  Tb  Tb1  1  0.807998  0.192002  0.807998  1
  Tb  Tb2  1  0.191608  0.192514  0.809079  1
  Tb  Tb3  1  0.652133  0.042663  0.652133  1
  Tb  Tb4  1  0.057585  0.056783  0.441694  1
  Tb  Tb5  1  0.441694  0.443938  0.057585  1
  Tb  Tb6  1  0.652133  0.653071  0.652133  1
  Tb  Tb7  1  0.809079  0.192514  0.191608  1
  Tb  Tb8  1  0.191608  0.806799  0.809079  1
  Tb  Tb9  1  0.042169  0.652810  0.652210  1
  Tb  Tb10  1  0.441694  0.056783  0.057585  1
  Tb  Tb11  1  0.443063  0.056937  0.443063  1
  Tb  Tb12  1  0.057317  0.442683  0.057317  1
  Tb  Tb13  1  0.652210  0.652810  0.042169  1
  Tb  Tb14  1  0.192679  0.807321  0.192679  1
  Tb  Tb15  1  0.057585  0.443938  0.441694  1
  In  In16  1  0.418174  0.417866  0.418174  1
  In  In17  1  0.417669  0.417454  0.747422  1
  In  In18  1  0.418174  0.745786  0.418174  1
  In  In19  1  0.747422  0.417454  0.417669  1
  Os  Os20  1  0.859716  0.861520  0.417244  1
  Os  Os21  1  0.417244  0.861520  0.859716  1
  Ru  Ru22  1  0.860984  0.414196  0.860984  1
  Ru  Ru23  1  0.860984  0.863837  0.860984  1
