# generated using pymatgen
data_Er2Ga9IrRuRh
_symmetry_space_group_name_H-M   'P 1'
_cell_length_a   7.53682015
_cell_length_b   7.53682110
_cell_length_c   9.55239900
_cell_angle_alpha   90.07918847
_cell_angle_beta   90.07918517
_cell_angle_gamma   119.75190235
_symmetry_Int_Tables_number   1
_chemical_formula_structural   Er2Ga9IrRuRh
_chemical_formula_sum   'Er4 Ga18 Ir2 Ru2 Rh2'
_cell_volume   471.08373854
_cell_formula_units_Z   2
loop_
 _symmetry_equiv_pos_site_id
 _symmetry_equiv_pos_as_xyz
  1  'x, y, z'
loop_
 _atom_site_type_symbol
 _atom_site_label
 _atom_site_symmetry_multiplicity
 _atom_site_fract_x
 _atom_site_fract_y
 _atom_site_fract_z
 _atom_site_occupancy
  Er  Er0  1  0.997274  0.667429  0.250226  1
  Er  Er1  1  0.002726  0.332571  0.749774  1
  Er  Er2  1  0.667429  0.997274  0.250226  1
  Er  Er3  1  0.332571  0.002726  0.749774  1
  Ga  Ga4  1  0.125200  0.125200  0.250823  1
  Ga  Ga5  1  0.874800  0.874800  0.749177  1
  Ga  Ga6  1  0.001190  0.335256  0.079265  1
  Ga  Ga7  1  0.998810  0.664744  0.920735  1
  Ga  Ga8  1  0.999163  0.666424  0.579707  1
  Ga  Ga9  1  0.333576  0.000837  0.420293  1
  Ga  Ga10  1  0.000837  0.333576  0.420293  1
  Ga  Ga11  1  0.666424  0.999163  0.579707  1
  Ga  Ga12  1  0.664744  0.998810  0.920735  1
  Ga  Ga13  1  0.335256  0.001190  0.079265  1
  Ga  Ga14  1  0.331877  0.331877  0.565031  1
  Ga  Ga15  1  0.668123  0.668123  0.434969  1
  Ga  Ga16  1  0.665010  0.665010  0.063629  1
  Ga  Ga17  1  0.334990  0.334990  0.936371  1
  Ga  Ga18  1  0.337706  0.546919  0.249188  1
  Ga  Ga19  1  0.662294  0.453081  0.750812  1
  Ga  Ga20  1  0.546919  0.337706  0.249188  1
  Ga  Ga21  1  0.453081  0.662294  0.750812  1
  Ir  Ir22  1  0.327705  0.672295  0.500000  1
  Ir  Ir23  1  0.672295  0.327705  0.500000  1
  Ru  Ru24  1  0.672311  0.327689  0.000000  1
  Ru  Ru25  1  0.327689  0.672311  0.000000  1
  Rh  Rh26  1  0.000000  0.000000  0.000000  1
  Rh  Rh27  1  0.000000  0.000000  0.500000  1
