# generated using pymatgen
data_Gd3In3Ni2Ir
_symmetry_space_group_name_H-M   'P 1'
_cell_length_a   7.50861400
_cell_length_b   7.50861446
_cell_length_c   3.89779000
_cell_angle_alpha   90.00000000
_cell_angle_beta   90.00000000
_cell_angle_gamma   119.99999798
_symmetry_Int_Tables_number   1
_chemical_formula_structural   Gd3In3Ni2Ir
_chemical_formula_sum   'Gd3 In3 Ni2 Ir1'
_cell_volume   190.31309048
_cell_formula_units_Z   1
loop_
 _symmetry_equiv_pos_site_id
 _symmetry_equiv_pos_as_xyz
  1  'x, y, z'
loop_
 _atom_site_type_symbol
 _atom_site_label
 _atom_site_symmetry_multiplicity
 _atom_site_fract_x
 _atom_site_fract_y
 _atom_site_fract_z
 _atom_site_occupancy
  Gd  Gd0  1  0.413402  0.407960  0.000000  1
  Gd  Gd1  1  0.592040  0.005442  0.000000  1
  Gd  Gd2  1  0.994558  0.586598  0.000000  1
  In  In3  1  0.005845  0.253145  0.500000  1
  In  In4  1  0.746855  0.752700  0.500000  1
  In  In5  1  0.247300  0.994155  0.500000  1
  Ni  Ni6  1  0.000000  0.000000  0.000000  1
  Ni  Ni7  1  0.333333  0.666667  0.500000  1
  Ir  Ir8  1  0.666667  0.333333  0.500000  1
