# generated using pymatgen
data_Sm4Lu4Tc(B8Os)3
_symmetry_space_group_name_H-M   'P 1'
_cell_length_a   3.65900700
_cell_length_b   9.13847877
_cell_length_c   11.56390900
_cell_angle_alpha   89.94946950
_cell_angle_beta   90.00000000
_cell_angle_gamma   90.00000000
_symmetry_Int_Tables_number   1
_chemical_formula_structural   Sm4Lu4Tc(B8Os)3
_chemical_formula_sum   'Sm4 Lu4 Tc1 B24 Os3'
_cell_volume   386.67103820
_cell_formula_units_Z   1
loop_
 _symmetry_equiv_pos_site_id
 _symmetry_equiv_pos_as_xyz
  1  'x, y, z'
loop_
 _atom_site_type_symbol
 _atom_site_label
 _atom_site_symmetry_multiplicity
 _atom_site_fract_x
 _atom_site_fract_y
 _atom_site_fract_z
 _atom_site_occupancy
  Sm  Sm0  1  0.000000  0.323351  0.413239  1
  Sm  Sm1  1  0.000000  0.677846  0.583701  1
  Sm  Sm2  1  0.000000  0.820330  0.087403  1
  Sm  Sm3  1  0.000000  0.177822  0.914996  1
  Lu  Lu4  1  0.000000  0.942938  0.372333  1
  Lu  Lu5  1  0.000000  0.056585  0.627635  1
  Lu  Lu6  1  0.000000  0.444965  0.128526  1
  Lu  Lu7  1  0.000000  0.556191  0.871964  1
  Tc  Tc8  1  0.000000  0.639034  0.319501  1
  B  B9  1  0.500000  0.554535  0.431238  1
  B  B10  1  0.500000  0.444903  0.568849  1
  B  B11  1  0.500000  0.055242  0.068827  1
  B  B12  1  0.500000  0.944578  0.931541  1
  B  B13  1  0.500000  0.750296  0.417463  1
  B  B14  1  0.500000  0.249825  0.582384  1
  B  B15  1  0.500000  0.250398  0.082183  1
  B  B16  1  0.500000  0.749586  0.917738  1
  B  B17  1  0.500000  0.791700  0.266355  1
  B  B18  1  0.500000  0.208545  0.733770  1
  B  B19  1  0.500000  0.291417  0.233226  1
  B  B20  1  0.500000  0.708902  0.766181  1
  B  B21  1  0.500000  0.629899  0.185392  1
  B  B22  1  0.500000  0.369926  0.815177  1
  B  B23  1  0.500000  0.129862  0.314605  1
  B  B24  1  0.500000  0.870386  0.684962  1
  B  B25  1  0.500000  0.983450  0.214161  1
  B  B26  1  0.500000  0.016407  0.786289  1
  B  B27  1  0.500000  0.483042  0.285841  1
  B  B28  1  0.500000  0.516296  0.714138  1
  B  B29  1  0.500000  0.600887  0.027125  1
  B  B30  1  0.500000  0.398941  0.972139  1
  B  B31  1  0.500000  0.101459  0.472447  1
  B  B32  1  0.500000  0.899673  0.528027  1
  Os  Os33  1  0.000000  0.360690  0.681124  1
  Os  Os34  1  0.000000  0.138918  0.180115  1
  Os  Os35  1  0.000000  0.861171  0.819402  1
