# generated using pymatgen
data_Nb3Fe6Si2Mo
_symmetry_space_group_name_H-M   'P 1'
_cell_length_a   4.81403500
_cell_length_b   4.81403336
_cell_length_c   7.86665300
_cell_angle_alpha   90.00000000
_cell_angle_beta   90.00000000
_cell_angle_gamma   120.00000440
_symmetry_Int_Tables_number   1
_chemical_formula_structural   Nb3Fe6Si2Mo
_chemical_formula_sum   'Nb3 Fe6 Si2 Mo1'
_cell_volume   157.88429972
_cell_formula_units_Z   1
loop_
 _symmetry_equiv_pos_site_id
 _symmetry_equiv_pos_as_xyz
  1  'x, y, z'
loop_
 _atom_site_type_symbol
 _atom_site_label
 _atom_site_symmetry_multiplicity
 _atom_site_fract_x
 _atom_site_fract_y
 _atom_site_fract_z
 _atom_site_occupancy
  Nb  Nb0  1  0.666667  0.333333  0.557141  1
  Nb  Nb1  1  0.666667  0.333333  0.930371  1
  Nb  Nb2  1  0.333333  0.666667  0.074570  1
  Fe  Fe3  1  0.829583  0.170417  0.249316  1
  Fe  Fe4  1  0.829583  0.659167  0.249316  1
  Fe  Fe5  1  0.340833  0.170417  0.249316  1
  Fe  Fe6  1  0.171079  0.828921  0.750225  1
  Fe  Fe7  1  0.171079  0.342155  0.750225  1
  Fe  Fe8  1  0.657845  0.828921  0.750225  1
  Si  Si9  1  0.000000  0.000000  0.499648  1
  Si  Si10  1  0.000000  0.000000  0.999069  1
  Mo  Mo11  1  0.333333  0.666667  0.440578  1
