# generated using pymatgen
data_Ho16InCo4Ag3
_symmetry_space_group_name_H-M   'P 1'
_cell_length_a   9.41114273
_cell_length_b   9.42457584
_cell_length_c   9.42457600
_cell_angle_alpha   59.99999945
_cell_angle_beta   59.95277144
_cell_angle_gamma   59.95276782
_symmetry_Int_Tables_number   1
_chemical_formula_structural   Ho16InCo4Ag3
_chemical_formula_sum   'Ho16 In1 Co4 Ag3'
_cell_volume   590.66411807
_cell_formula_units_Z   1
loop_
 _symmetry_equiv_pos_site_id
 _symmetry_equiv_pos_as_xyz
  1  'x, y, z'
loop_
 _atom_site_type_symbol
 _atom_site_label
 _atom_site_symmetry_multiplicity
 _atom_site_fract_x
 _atom_site_fract_y
 _atom_site_fract_z
 _atom_site_occupancy
  Ho  Ho0  1  0.345811  0.347327  0.347327  1
  Ho  Ho1  1  0.345811  0.347327  0.959536  1
  Ho  Ho2  1  0.345811  0.959536  0.347327  1
  Ho  Ho3  1  0.954878  0.348374  0.348374  1
  Ho  Ho4  1  0.811703  0.188357  0.188357  1
  Ho  Ho5  1  0.188524  0.811225  0.811225  1
  Ho  Ho6  1  0.188524  0.811225  0.189027  1
  Ho  Ho7  1  0.811703  0.188357  0.811582  1
  Ho  Ho8  1  0.188524  0.189027  0.811225  1
  Ho  Ho9  1  0.811703  0.811582  0.188357  1
  Ho  Ho10  1  0.935281  0.562778  0.562778  1
  Ho  Ho11  1  0.561450  0.937917  0.937917  1
  Ho  Ho12  1  0.561450  0.937917  0.562718  1
  Ho  Ho13  1  0.935281  0.562778  0.939163  1
  Ho  Ho14  1  0.561450  0.562718  0.937917  1
  Ho  Ho15  1  0.935281  0.939163  0.562778  1
  In  In16  1  0.269023  0.576992  0.576992  1
  Co  Co17  1  0.139146  0.142050  0.142050  1
  Co  Co18  1  0.139146  0.142050  0.576754  1
  Co  Co19  1  0.139146  0.576754  0.142050  1
  Co  Co20  1  0.575777  0.141408  0.141408  1
  Ag  Ag21  1  0.584859  0.582054  0.582054  1
  Ag  Ag22  1  0.584859  0.582054  0.251032  1
  Ag  Ag23  1  0.584859  0.251032  0.582054  1
