# generated using pymatgen
data_RbCr(NiS2)2
_symmetry_space_group_name_H-M   'P 1'
_cell_length_a   9.51537838
_cell_length_b   9.51537802
_cell_length_c   7.19050800
_cell_angle_alpha   90.00000000
_cell_angle_beta   90.00000000
_cell_angle_gamma   148.01279175
_symmetry_Int_Tables_number   1
_chemical_formula_structural   RbCr(NiS2)2
_chemical_formula_sum   'Rb2 Cr2 Ni4 S8'
_cell_volume   344.87854986
_cell_formula_units_Z   2
loop_
 _symmetry_equiv_pos_site_id
 _symmetry_equiv_pos_as_xyz
  1  'x, y, z'
loop_
 _atom_site_type_symbol
 _atom_site_label
 _atom_site_symmetry_multiplicity
 _atom_site_fract_x
 _atom_site_fract_y
 _atom_site_fract_z
 _atom_site_occupancy
  Rb  Rb0  1  0.171282  0.539932  0.750000  1
  Rb  Rb1  1  0.539932  0.171282  0.250000  1
  Cr  Cr2  1  0.708384  0.499148  0.750000  1
  Cr  Cr3  1  0.499148  0.708384  0.250000  1
  Ni  Ni4  1  0.616423  0.616423  0.500000  1
  Ni  Ni5  1  0.001826  0.206030  0.250000  1
  Ni  Ni6  1  0.206030  0.001826  0.750000  1
  Ni  Ni7  1  0.616423  0.616423  0.000000  1
  S  S8  1  0.742159  0.946144  0.007562  1
  S  S9  1  0.373744  0.360611  0.750000  1
  S  S10  1  0.360611  0.373744  0.250000  1
  S  S11  1  0.946144  0.742159  0.507562  1
  S  S12  1  0.559155  0.162238  0.750000  1
  S  S13  1  0.946144  0.742159  0.992438  1
  S  S14  1  0.162238  0.559155  0.250000  1
  S  S15  1  0.742159  0.946144  0.492438  1
