# generated using pymatgen
data_LiHo3Co7P6Rh
_symmetry_space_group_name_H-M   'P 1'
_cell_length_a   3.71319600
_cell_length_b   10.68554300
_cell_length_c   12.26202900
_cell_angle_alpha   90.00000000
_cell_angle_beta   90.00000000
_cell_angle_gamma   90.00000000
_symmetry_Int_Tables_number   1
_chemical_formula_structural   LiHo3Co7P6Rh
_chemical_formula_sum   'Li2 Ho6 Co14 P12 Rh2'
_cell_volume   486.52684602
_cell_formula_units_Z   2
loop_
 _symmetry_equiv_pos_site_id
 _symmetry_equiv_pos_as_xyz
  1  'x, y, z'
loop_
 _atom_site_type_symbol
 _atom_site_label
 _atom_site_symmetry_multiplicity
 _atom_site_fract_x
 _atom_site_fract_y
 _atom_site_fract_z
 _atom_site_occupancy
  Li  Li0  1  0.500000  0.500000  0.152384  1
  Li  Li1  1  0.000000  0.000000  0.847616  1
  Ho  Ho2  1  0.000000  0.500000  0.518880  1
  Ho  Ho3  1  0.500000  0.000000  0.481120  1
  Ho  Ho4  1  0.500000  0.816889  0.204345  1
  Ho  Ho5  1  0.500000  0.183111  0.204345  1
  Ho  Ho6  1  0.000000  0.683111  0.795655  1
  Ho  Ho7  1  0.000000  0.316889  0.795655  1
  Co  Co8  1  0.000000  0.500000  0.989805  1
  Co  Co9  1  0.500000  0.000000  0.010195  1
  Co  Co10  1  0.500000  0.298330  0.431339  1
  Co  Co11  1  0.500000  0.701670  0.431339  1
  Co  Co12  1  0.000000  0.201670  0.568661  1
  Co  Co13  1  0.000000  0.798330  0.568661  1
  Co  Co14  1  0.500000  0.879638  0.707426  1
  Co  Co15  1  0.500000  0.120362  0.707426  1
  Co  Co16  1  0.000000  0.620362  0.292574  1
  Co  Co17  1  0.000000  0.379638  0.292574  1
  Co  Co18  1  0.500000  0.331487  0.997529  1
  Co  Co19  1  0.500000  0.668513  0.997529  1
  Co  Co20  1  0.000000  0.168513  0.002471  1
  Co  Co21  1  0.000000  0.831487  0.002471  1
  P  P22  1  0.500000  0.301920  0.614287  1
  P  P23  1  0.500000  0.698080  0.614287  1
  P  P24  1  0.000000  0.198080  0.385713  1
  P  P25  1  0.000000  0.801920  0.385713  1
  P  P26  1  0.500000  0.500000  0.891968  1
  P  P27  1  0.000000  0.000000  0.108032  1
  P  P28  1  0.500000  0.843065  0.892907  1
  P  P29  1  0.500000  0.156935  0.892907  1
  P  P30  1  0.000000  0.656935  0.107093  1
  P  P31  1  0.000000  0.343065  0.107093  1
  P  P32  1  0.500000  0.500000  0.344578  1
  P  P33  1  0.000000  0.000000  0.655422  1
  Rh  Rh34  1  0.500000  0.500000  0.702527  1
  Rh  Rh35  1  0.000000  0.000000  0.297473  1
