# generated using pymatgen
data_Tb2Y2CdPd4Au
_symmetry_space_group_name_H-M   'P 1'
_cell_length_a   3.75817800
_cell_length_b   7.67176604
_cell_length_c   7.66561704
_cell_angle_alpha   89.94027373
_cell_angle_beta   90.00000000
_cell_angle_gamma   90.00000000
_symmetry_Int_Tables_number   1
_chemical_formula_structural   Tb2Y2CdPd4Au
_chemical_formula_sum   'Tb2 Y2 Cd1 Pd4 Au1'
_cell_volume   221.01389536
_cell_formula_units_Z   1
loop_
 _symmetry_equiv_pos_site_id
 _symmetry_equiv_pos_as_xyz
  1  'x, y, z'
loop_
 _atom_site_type_symbol
 _atom_site_label
 _atom_site_symmetry_multiplicity
 _atom_site_fract_x
 _atom_site_fract_y
 _atom_site_fract_z
 _atom_site_occupancy
  Tb  Tb0  1  0.500000  0.309496  0.153922  1
  Tb  Tb1  1  0.500000  0.690504  0.846078  1
  Y  Y2  1  0.500000  0.153807  0.690099  1
  Y  Y3  1  0.500000  0.846193  0.309901  1
  Cd  Cd4  1  0.000000  0.500000  0.500000  1
  Pd  Pd5  1  0.000000  0.617875  0.140475  1
  Pd  Pd6  1  0.000000  0.382125  0.859525  1
  Pd  Pd7  1  0.000000  0.859063  0.618388  1
  Pd  Pd8  1  0.000000  0.140937  0.381612  1
  Au  Au9  1  0.000000  0.000000  0.000000  1
