# generated using pymatgen
data_TbDy(NiIr)2
_symmetry_space_group_name_H-M   'P 1'
_cell_length_a   5.38902737
_cell_length_b   5.21345026
_cell_length_c   5.21345028
_cell_angle_alpha   58.23874616
_cell_angle_beta   58.87956111
_cell_angle_gamma   58.87956257
_symmetry_Int_Tables_number   1
_chemical_formula_structural   TbDy(NiIr)2
_chemical_formula_sum   'Tb1 Dy1 Ni2 Ir2'
_cell_volume   100.40633923
_cell_formula_units_Z   1
loop_
 _symmetry_equiv_pos_site_id
 _symmetry_equiv_pos_as_xyz
  1  'x, y, z'
loop_
 _atom_site_type_symbol
 _atom_site_label
 _atom_site_symmetry_multiplicity
 _atom_site_fract_x
 _atom_site_fract_y
 _atom_site_fract_z
 _atom_site_occupancy
  Tb  Tb0  1  0.002282  0.997718  0.997718  1
  Dy  Dy1  1  0.747699  0.752301  0.752301  1
  Ni  Ni2  1  0.375050  0.874890  0.375010  1
  Ni  Ni3  1  0.375050  0.375010  0.874890  1
  Ir  Ir4  1  0.375113  0.375040  0.375040  1
  Ir  Ir5  1  0.874806  0.375040  0.375040  1
