# generated using pymatgen
data_Er7Tm(ScIr3)2
_symmetry_space_group_name_H-M   'P 1'
_cell_length_a   10.69411601
_cell_length_b   10.69368200
_cell_length_c   6.23669200
_cell_angle_alpha   90.00000000
_cell_angle_beta   89.99643363
_cell_angle_gamma   90.00000000
_symmetry_Int_Tables_number   1
_chemical_formula_structural   Er7Tm(ScIr3)2
_chemical_formula_sum   'Er14 Tm2 Sc4 Ir12'
_cell_volume   713.22482700
_cell_formula_units_Z   2
loop_
 _symmetry_equiv_pos_site_id
 _symmetry_equiv_pos_as_xyz
  1  'x, y, z'
loop_
 _atom_site_type_symbol
 _atom_site_label
 _atom_site_symmetry_multiplicity
 _atom_site_fract_x
 _atom_site_fract_y
 _atom_site_fract_z
 _atom_site_occupancy
  Er  Er0  1  0.288360  0.086273  0.376534  1
  Er  Er1  1  0.288360  0.913727  0.876534  1
  Er  Er2  1  0.711627  0.086251  0.876579  1
  Er  Er3  1  0.711627  0.913749  0.376579  1
  Er  Er4  1  0.586250  0.788378  0.876568  1
  Er  Er5  1  0.586250  0.211622  0.376568  1
  Er  Er6  1  0.413740  0.788372  0.376586  1
  Er  Er7  1  0.413740  0.211628  0.876586  1
  Er  Er8  1  0.211584  0.413771  0.623423  1
  Er  Er9  1  0.211584  0.586229  0.123423  1
  Er  Er10  1  0.788421  0.413743  0.123432  1
  Er  Er11  1  0.788421  0.586257  0.623432  1
  Er  Er12  1  0.913780  0.711616  0.123425  1
  Er  Er13  1  0.913780  0.288384  0.623425  1
  Tm  Tm14  1  0.086200  0.711552  0.623378  1
  Tm  Tm15  1  0.086200  0.288448  0.123378  1
  Sc  Sc16  1  0.000021  0.999963  0.500017  1
  Sc  Sc17  1  0.000021  0.000037  0.000017  1
  Sc  Sc18  1  0.500000  0.499995  0.000014  1
  Sc  Sc19  1  0.500000  0.500005  0.500014  1
  Ir  Ir20  1  0.851400  0.148677  0.249964  1
  Ir  Ir21  1  0.851400  0.851323  0.749964  1
  Ir  Ir22  1  0.148626  0.148693  0.750121  1
  Ir  Ir23  1  0.148626  0.851307  0.250121  1
  Ir  Ir24  1  0.648650  0.351339  0.749995  1
  Ir  Ir25  1  0.648650  0.648661  0.249995  1
  Ir  Ir26  1  0.351286  0.351331  0.249960  1
  Ir  Ir27  1  0.351286  0.648669  0.749960  1
  Ir  Ir28  1  0.500002  0.999999  0.123052  1
  Ir  Ir29  1  0.500002  0.000001  0.623052  1
  Ir  Ir30  1  0.000054  0.499992  0.876953  1
  Ir  Ir31  1  0.000054  0.500008  0.376953  1
