# generated using pymatgen
data_TmLu2AlCd2Au3
_symmetry_space_group_name_H-M   'P 1'
_cell_length_a   7.65789396
_cell_length_b   7.56807304
_cell_length_c   3.85486500
_cell_angle_alpha   90.00000000
_cell_angle_beta   90.00000000
_cell_angle_gamma   119.63672549
_symmetry_Int_Tables_number   1
_chemical_formula_structural   TmLu2AlCd2Au3
_chemical_formula_sum   'Tm1 Lu2 Al1 Cd2 Au3'
_cell_volume   194.18363810
_cell_formula_units_Z   1
loop_
 _symmetry_equiv_pos_site_id
 _symmetry_equiv_pos_as_xyz
  1  'x, y, z'
loop_
 _atom_site_type_symbol
 _atom_site_label
 _atom_site_symmetry_multiplicity
 _atom_site_fract_x
 _atom_site_fract_y
 _atom_site_fract_z
 _atom_site_occupancy
  Tm  Tm0  1  0.408877  0.403619  0.500000  1
  Lu  Lu1  1  0.591522  0.994766  0.500000  1
  Lu  Lu2  1  0.000030  0.595817  0.500000  1
  Al  Al3  1  0.000005  0.259747  0.000000  1
  Cd  Cd4  1  0.741402  0.740294  0.000000  1
  Cd  Cd5  1  0.258609  0.998905  0.000000  1
  Au  Au6  1  0.680423  0.327341  0.000000  1
  Au  Au7  1  0.320079  0.649201  0.000000  1
  Au  Au8  1  0.999053  0.030306  0.500000  1
