# generated using pymatgen
data_NaCo3As3Rh2
_symmetry_space_group_name_H-M   'P 1'
_cell_length_a   3.79236500
_cell_length_b   10.92596100
_cell_length_c   12.50236100
_cell_angle_alpha   90.00000000
_cell_angle_beta   90.00000000
_cell_angle_gamma   90.00000000
_symmetry_Int_Tables_number   1
_chemical_formula_structural   NaCo3As3Rh2
_chemical_formula_sum   'Na4 Co12 As12 Rh8'
_cell_volume   518.03822968
_cell_formula_units_Z   4
loop_
 _symmetry_equiv_pos_site_id
 _symmetry_equiv_pos_as_xyz
  1  'x, y, z'
loop_
 _atom_site_type_symbol
 _atom_site_label
 _atom_site_symmetry_multiplicity
 _atom_site_fract_x
 _atom_site_fract_y
 _atom_site_fract_z
 _atom_site_occupancy
  Na  Na0  1  0.250000  0.916470  0.208276  1
  Na  Na1  1  0.750000  0.083530  0.791724  1
  Na  Na2  1  0.750000  0.416470  0.291724  1
  Na  Na3  1  0.250000  0.583530  0.708276  1
  Co  Co4  1  0.250000  0.281562  0.677989  1
  Co  Co5  1  0.750000  0.718438  0.322011  1
  Co  Co6  1  0.750000  0.781562  0.822011  1
  Co  Co7  1  0.250000  0.218438  0.177989  1
  Co  Co8  1  0.250000  0.617257  0.194622  1
  Co  Co9  1  0.750000  0.382743  0.805378  1
  Co  Co10  1  0.750000  0.117257  0.305378  1
  Co  Co11  1  0.250000  0.882743  0.694622  1
  Co  Co12  1  0.250000  0.036632  0.434483  1
  Co  Co13  1  0.750000  0.963368  0.565517  1
  Co  Co14  1  0.750000  0.536632  0.065517  1
  Co  Co15  1  0.250000  0.463368  0.934483  1
  As  As16  1  0.250000  0.079599  0.615244  1
  As  As17  1  0.750000  0.920401  0.384756  1
  As  As18  1  0.750000  0.579599  0.884756  1
  As  As19  1  0.250000  0.420401  0.115244  1
  As  As20  1  0.250000  0.229565  0.363658  1
  As  As21  1  0.750000  0.770435  0.636342  1
  As  As22  1  0.750000  0.729565  0.136342  1
  As  As23  1  0.250000  0.270435  0.863658  1
  As  As24  1  0.250000  0.899832  0.878827  1
  As  As25  1  0.750000  0.100168  0.121173  1
  As  As26  1  0.750000  0.399832  0.621173  1
  As  As27  1  0.250000  0.600168  0.378827  1
  Rh  Rh28  1  0.250000  0.789301  0.485297  1
  Rh  Rh29  1  0.750000  0.210699  0.514703  1
  Rh  Rh30  1  0.750000  0.289301  0.014703  1
  Rh  Rh31  1  0.250000  0.710699  0.985297  1
  Rh  Rh32  1  0.250000  0.093288  0.986375  1
  Rh  Rh33  1  0.750000  0.906712  0.013625  1
  Rh  Rh34  1  0.750000  0.593288  0.513625  1
  Rh  Rh35  1  0.250000  0.406712  0.486375  1
