# generated using pymatgen
data_Y3In3Ga2Rh
_symmetry_space_group_name_H-M   'P 1'
_cell_length_a   7.28913900
_cell_length_b   7.28913964
_cell_length_c   4.39726800
_cell_angle_alpha   90.00000000
_cell_angle_beta   90.00000000
_cell_angle_gamma   120.00000162
_symmetry_Int_Tables_number   1
_chemical_formula_structural   Y3In3Ga2Rh
_chemical_formula_sum   'Y3 In3 Ga2 Rh1'
_cell_volume   202.33269324
_cell_formula_units_Z   1
loop_
 _symmetry_equiv_pos_site_id
 _symmetry_equiv_pos_as_xyz
  1  'x, y, z'
loop_
 _atom_site_type_symbol
 _atom_site_label
 _atom_site_symmetry_multiplicity
 _atom_site_fract_x
 _atom_site_fract_y
 _atom_site_fract_z
 _atom_site_occupancy
  Y  Y0  1  0.000000  0.593273  0.500000  1
  Y  Y1  1  0.406727  0.406727  0.500000  1
  Y  Y2  1  0.593273  0.000000  0.500000  1
  In  In3  1  0.000000  0.246351  0.000000  1
  In  In4  1  0.246351  0.000000  0.000000  1
  In  In5  1  0.753649  0.753649  0.000000  1
  Ga  Ga6  1  0.333333  0.666667  0.000000  1
  Ga  Ga7  1  0.666667  0.333333  0.000000  1
  Rh  Rh8  1  0.000000  0.000000  0.500000  1
