# generated using pymatgen
data_Er6Ta5Ga11Os7
_symmetry_space_group_name_H-M   'P 1'
_cell_length_a   9.05822396
_cell_length_b   9.05822353
_cell_length_c   8.99213520
_cell_angle_alpha   59.75657291
_cell_angle_beta   59.75657623
_cell_angle_gamma   59.99999175
_symmetry_Int_Tables_number   1
_chemical_formula_structural   Er6Ta5Ga11Os7
_chemical_formula_sum   'Er6 Ta5 Ga11 Os7'
_cell_volume   519.78784730
_cell_formula_units_Z   1
loop_
 _symmetry_equiv_pos_site_id
 _symmetry_equiv_pos_as_xyz
  1  'x, y, z'
loop_
 _atom_site_type_symbol
 _atom_site_label
 _atom_site_symmetry_multiplicity
 _atom_site_fract_x
 _atom_site_fract_y
 _atom_site_fract_z
 _atom_site_occupancy
  Er  Er0  1  0.707232  0.707232  0.294305  1
  Er  Er1  1  0.291229  0.707232  0.294305  1
  Er  Er2  1  0.707232  0.291229  0.294305  1
  Er  Er3  1  0.296947  0.296947  0.711145  1
  Er  Er4  1  0.694961  0.296947  0.711145  1
  Er  Er5  1  0.296947  0.694961  0.711145  1
  Ta  Ta6  1  0.878290  0.878290  0.365131  1
  Ta  Ta7  1  0.876062  0.368838  0.879037  1
  Ta  Ta8  1  0.368838  0.876062  0.879037  1
  Ta  Ta9  1  0.876062  0.876062  0.879037  1
  Ta  Ta10  1  0.126931  0.126931  0.619206  1
  Ga  Ga11  1  0.115932  0.647389  0.120747  1
  Ga  Ga12  1  0.647389  0.115932  0.120747  1
  Ga  Ga13  1  0.115932  0.115932  0.120747  1
  Ga  Ga14  1  0.661478  0.661478  0.015565  1
  Ga  Ga15  1  0.663269  0.012612  0.660850  1
  Ga  Ga16  1  0.012612  0.663269  0.660850  1
  Ga  Ga17  1  0.663269  0.663269  0.660850  1
  Ga  Ga18  1  0.333300  0.333300  0.000099  1
  Ga  Ga19  1  0.337972  0.991472  0.332586  1
  Ga  Ga20  1  0.991472  0.337972  0.332586  1
  Ga  Ga21  1  0.337972  0.337972  0.332586  1
  Os  Os22  1  0.006566  0.006566  0.980302  1
  Os  Os23  1  0.998101  0.998101  0.508644  1
  Os  Os24  1  0.495153  0.998101  0.508644  1
  Os  Os25  1  0.998101  0.495153  0.508644  1
  Os  Os26  1  0.502784  0.502784  0.999248  1
  Os  Os27  1  0.995182  0.502784  0.999248  1
  Os  Os28  1  0.502784  0.995182  0.999248  1
