# generated using pymatgen
data_Dy9Tm2ScPb10
_symmetry_space_group_name_H-M   'P 1'
_cell_length_a   11.73068440
_cell_length_b   11.75508193
_cell_length_c   11.77274472
_cell_angle_alpha   147.70091410
_cell_angle_beta   132.69377897
_cell_angle_gamma   58.27649895
_symmetry_Int_Tables_number   1
_chemical_formula_structural   Dy9Tm2ScPb10
_chemical_formula_sum   'Dy9 Tm2 Sc1 Pb10'
_cell_volume   632.91527817
_cell_formula_units_Z   1
loop_
 _symmetry_equiv_pos_site_id
 _symmetry_equiv_pos_as_xyz
  1  'x, y, z'
loop_
 _atom_site_type_symbol
 _atom_site_label
 _atom_site_symmetry_multiplicity
 _atom_site_fract_x
 _atom_site_fract_y
 _atom_site_fract_z
 _atom_site_occupancy
  Dy  Dy0  1  0.696101  0.948342  0.248574  1
  Dy  Dy1  1  0.251683  0.641165  0.610079  1
  Dy  Dy2  1  0.672963  0.942836  0.731786  1
  Dy  Dy3  1  0.028870  0.141485  0.888142  1
  Dy  Dy4  1  0.969892  0.858618  0.111330  1
  Dy  Dy5  1  0.787088  0.560239  0.230809  1
  Dy  Dy6  1  0.216520  0.441110  0.773781  1
  Dy  Dy7  1  0.302619  0.052251  0.749669  1
  Dy  Dy8  1  0.326807  0.057191  0.267590  1
  Tm  Tm9  1  0.301086  0.552153  0.248240  1
  Tm  Tm10  1  0.748355  0.358749  0.391294  1
  Sc  Sc11  1  0.696784  0.446982  0.749956  1
  Pb  Pb12  1  0.480621  0.568958  0.891364  1
  Pb  Pb13  1  0.598967  0.783940  0.794228  1
  Pb  Pb14  1  0.675010  0.088451  0.605980  1
  Pb  Pb15  1  0.000438  0.744928  0.745352  1
  Pb  Pb16  1  0.988334  0.302796  0.701375  1
  Pb  Pb17  1  0.525993  0.425014  0.107028  1
  Pb  Pb18  1  0.004135  0.699099  0.293636  1
  Pb  Pb19  1  0.403246  0.211628  0.205209  1
  Pb  Pb20  1  0.324690  0.919496  0.398085  1
  Pb  Pb21  1  0.999799  0.254570  0.256497  1
