# generated using pymatgen
data_TbHo6Er9(InIr)4
_symmetry_space_group_name_H-M   'P 1'
_cell_length_a   9.61612318
_cell_length_b   9.61500736
_cell_length_c   9.61525000
_cell_angle_alpha   59.99916520
_cell_angle_beta   60.00300372
_cell_angle_gamma   59.96237758
_symmetry_Int_Tables_number   1
_chemical_formula_structural   TbHo6Er9(InIr)4
_chemical_formula_sum   'Tb1 Ho6 Er9 In4 Ir4'
_cell_volume   628.46153136
_cell_formula_units_Z   1
loop_
 _symmetry_equiv_pos_site_id
 _symmetry_equiv_pos_as_xyz
  1  'x, y, z'
loop_
 _atom_site_type_symbol
 _atom_site_label
 _atom_site_symmetry_multiplicity
 _atom_site_fract_x
 _atom_site_fract_y
 _atom_site_fract_z
 _atom_site_occupancy
  Tb  Tb0  1  0.438581  0.438840  0.061289  1
  Ho  Ho1  1  0.047650  0.650018  0.651167  1
  Ho  Ho2  1  0.438939  0.059858  0.060511  1
  Ho  Ho3  1  0.059883  0.060292  0.439913  1
  Ho  Ho4  1  0.650097  0.047695  0.651104  1
  Ho  Ho5  1  0.809762  0.809369  0.190434  1
  Ho  Ho6  1  0.438939  0.059858  0.440693  1
  Er  Er7  1  0.651024  0.650968  0.045704  1
  Er  Er8  1  0.190727  0.810511  0.189937  1
  Er  Er9  1  0.059552  0.439242  0.060568  1
  Er  Er10  1  0.190727  0.810511  0.808824  1
  Er  Er11  1  0.059552  0.439242  0.440639  1
  Er  Er12  1  0.810763  0.190783  0.189879  1
  Er  Er13  1  0.651024  0.650968  0.652305  1
  Er  Er14  1  0.810763  0.190783  0.808575  1
  Er  Er15  1  0.190511  0.190607  0.809441  1
  In  In16  1  0.416650  0.416848  0.417065  1
  In  In17  1  0.416650  0.416848  0.749439  1
  In  In18  1  0.417018  0.749836  0.416574  1
  In  In19  1  0.750676  0.416940  0.416193  1
  Ir  Ir20  1  0.423147  0.859264  0.858794  1
  Ir  Ir21  1  0.859012  0.858687  0.858767  1
  Ir  Ir22  1  0.859338  0.423344  0.858659  1
  Ir  Ir23  1  0.859012  0.858687  0.423533  1
