# generated using pymatgen
data_Tb3YAl18(CuRh2)2
_symmetry_space_group_name_H-M   'P 1'
_cell_length_a   7.57821292
_cell_length_b   7.57969494
_cell_length_c   9.42256900
_cell_angle_alpha   89.99992601
_cell_angle_beta   89.99997267
_cell_angle_gamma   119.69183970
_symmetry_Int_Tables_number   1
_chemical_formula_structural   Tb3YAl18(CuRh2)2
_chemical_formula_sum   'Tb3 Y1 Al18 Cu2 Rh4'
_cell_volume   470.17411243
_cell_formula_units_Z   1
loop_
 _symmetry_equiv_pos_site_id
 _symmetry_equiv_pos_as_xyz
  1  'x, y, z'
loop_
 _atom_site_type_symbol
 _atom_site_label
 _atom_site_symmetry_multiplicity
 _atom_site_fract_x
 _atom_site_fract_y
 _atom_site_fract_z
 _atom_site_occupancy
  Tb  Tb0  1  0.993891  0.674512  0.250000  1
  Tb  Tb1  1  0.006040  0.325501  0.750000  1
  Tb  Tb2  1  0.674111  0.993628  0.250000  1
  Y  Y3  1  0.325974  0.006492  0.749999  1
  Al  Al4  1  0.129271  0.129258  0.250001  1
  Al  Al5  1  0.870837  0.870903  0.749999  1
  Al  Al6  1  0.999859  0.338475  0.075384  1
  Al  Al7  1  0.000341  0.661730  0.924432  1
  Al  Al8  1  0.000341  0.661730  0.575568  1
  Al  Al9  1  0.338438  0.999981  0.424709  1
  Al  Al10  1  0.999860  0.338474  0.424616  1
  Al  Al11  1  0.661545  0.000114  0.575394  1
  Al  Al12  1  0.661544  0.000114  0.924606  1
  Al  Al13  1  0.338439  0.999981  0.075291  1
  Al  Al14  1  0.335179  0.335203  0.552115  1
  Al  Al15  1  0.664713  0.664645  0.448147  1
  Al  Al16  1  0.664712  0.664644  0.051853  1
  Al  Al17  1  0.335180  0.335204  0.947885  1
  Al  Al18  1  0.338234  0.549296  0.250000  1
  Al  Al19  1  0.661844  0.450757  0.750000  1
  Al  Al20  1  0.549464  0.338375  0.250000  1
  Al  Al21  1  0.450467  0.661683  0.750000  1
  Cu  Cu22  1  0.999836  0.999555  0.999968  1
  Cu  Cu23  1  0.999835  0.999554  0.500032  1
  Rh  Rh24  1  0.671279  0.328608  0.999870  1
  Rh  Rh25  1  0.328744  0.671486  0.999957  1
  Rh  Rh26  1  0.328744  0.671485  0.500044  1
  Rh  Rh27  1  0.671278  0.328608  0.500131  1
