# generated using pymatgen
data_YAl3CuPd
_symmetry_space_group_name_H-M   'P 1'
_cell_length_a   5.37885900
_cell_length_b   5.37886052
_cell_length_c   4.14802900
_cell_angle_alpha   90.00000000
_cell_angle_beta   90.00000000
_cell_angle_gamma   119.99999682
_symmetry_Int_Tables_number   1
_chemical_formula_structural   YAl3CuPd
_chemical_formula_sum   'Y1 Al3 Cu1 Pd1'
_cell_volume   103.93285849
_cell_formula_units_Z   1
loop_
 _symmetry_equiv_pos_site_id
 _symmetry_equiv_pos_as_xyz
  1  'x, y, z'
loop_
 _atom_site_type_symbol
 _atom_site_label
 _atom_site_symmetry_multiplicity
 _atom_site_fract_x
 _atom_site_fract_y
 _atom_site_fract_z
 _atom_site_occupancy
  Y  Y0  1  0.000000  0.000000  0.000000  1
  Al  Al1  1  0.501992  0.003985  0.500000  1
  Al  Al2  1  0.501992  0.498008  0.500000  1
  Al  Al3  1  0.996015  0.498008  0.500000  1
  Cu  Cu4  1  0.666667  0.333333  0.000000  1
  Pd  Pd5  1  0.333333  0.666667  0.000000  1
