# generated using pymatgen
data_Hf6MnPtN2
_symmetry_space_group_name_H-M   'P 1'
_cell_length_a   5.90916439
_cell_length_b   5.90916577
_cell_length_c   8.68597000
_cell_angle_alpha   90.00000000
_cell_angle_beta   90.00000000
_cell_angle_gamma   147.79577677
_symmetry_Int_Tables_number   1
_chemical_formula_structural   Hf6MnPtN2
_chemical_formula_sum   'Hf6 Mn1 Pt1 N2'
_cell_volume   161.63960670
_cell_formula_units_Z   1
loop_
 _symmetry_equiv_pos_site_id
 _symmetry_equiv_pos_as_xyz
  1  'x, y, z'
loop_
 _atom_site_type_symbol
 _atom_site_label
 _atom_site_symmetry_multiplicity
 _atom_site_fract_x
 _atom_site_fract_y
 _atom_site_fract_z
 _atom_site_occupancy
  Hf  Hf0  1  0.366487  0.633512  0.066815  1
  Hf  Hf1  1  0.060622  0.939377  0.250000  1
  Hf  Hf2  1  0.366487  0.633512  0.433186  1
  Hf  Hf3  1  0.631930  0.368069  0.546187  1
  Hf  Hf4  1  0.949375  0.050624  0.750000  1
  Hf  Hf5  1  0.631930  0.368069  0.953813  1
  Mn  Mn6  1  0.740822  0.259176  0.250000  1
  Pt  Pt7  1  0.253012  0.746986  0.750000  1
  N  N8  1  0.999665  0.000335  0.000197  1
  N  N9  1  0.999665  0.000335  0.499803  1
