# generated using pymatgen
data_Li3Y2Ho3(Co4P3)4
_symmetry_space_group_name_H-M   'P 1'
_cell_length_a   12.03204651
_cell_length_b   12.03381781
_cell_length_c   3.71270800
_cell_angle_alpha   90.00000000
_cell_angle_beta   90.00000000
_cell_angle_gamma   120.00073115
_symmetry_Int_Tables_number   1
_chemical_formula_structural   Li3Y2Ho3(Co4P3)4
_chemical_formula_sum   'Li3 Y2 Ho3 Co16 P12'
_cell_volume   465.54445695
_cell_formula_units_Z   1
loop_
 _symmetry_equiv_pos_site_id
 _symmetry_equiv_pos_as_xyz
  1  'x, y, z'
loop_
 _atom_site_type_symbol
 _atom_site_label
 _atom_site_symmetry_multiplicity
 _atom_site_fract_x
 _atom_site_fract_y
 _atom_site_fract_z
 _atom_site_occupancy
  Li  Li0  1  0.438337  0.438544  0.000000  1
  Li  Li1  1  0.561049  0.999973  0.000000  1
  Li  Li2  1  0.000428  0.561326  0.000000  1
  Y  Y3  1  0.666577  0.333398  0.000000  1
  Y  Y4  1  0.812267  0.812117  0.500000  1
  Ho  Ho5  1  0.333447  0.666639  0.000000  1
  Ho  Ho6  1  0.187876  0.000195  0.500000  1
  Ho  Ho7  1  0.999876  0.187663  0.500000  1
  Co  Co8  1  0.875182  0.357991  0.500000  1
  Co  Co9  1  0.641815  0.516871  0.500000  1
  Co  Co10  1  0.482692  0.124783  0.500000  1
  Co  Co11  1  0.358176  0.874610  0.500000  1
  Co  Co12  1  0.516140  0.641659  0.500000  1
  Co  Co13  1  0.125367  0.483469  0.500000  1
  Co  Co14  1  0.801870  0.178822  0.000000  1
  Co  Co15  1  0.821670  0.622973  0.000000  1
  Co  Co16  1  0.376571  0.198077  0.000000  1
  Co  Co17  1  0.179523  0.801959  0.000000  1
  Co  Co18  1  0.622373  0.821047  0.000000  1
  Co  Co19  1  0.198037  0.377156  0.000000  1
  Co  Co20  1  0.282330  0.282810  0.500000  1
  Co  Co21  1  0.717049  0.999945  0.500000  1
  Co  Co22  1  0.000855  0.717534  0.500000  1
  Co  Co23  1  0.000445  0.000390  0.000000  1
  P  P24  1  0.690393  0.169914  0.500000  1
  P  P25  1  0.830349  0.520726  0.500000  1
  P  P26  1  0.479142  0.309387  0.500000  1
  P  P27  1  0.170704  0.690408  0.500000  1
  P  P28  1  0.519940  0.829593  0.500000  1
  P  P29  1  0.309435  0.479953  0.500000  1
  P  P30  1  0.182001  0.182293  0.000000  1
  P  P31  1  0.817876  0.000327  0.000000  1
  P  P32  1  0.000944  0.818163  0.000000  1
  P  P33  1  0.631394  0.631372  0.000000  1
  P  P34  1  0.367915  0.000028  0.000000  1
  P  P35  1  0.999958  0.367887  0.000000  1
