# generated using pymatgen
data_Ho5FeCoB6
_symmetry_space_group_name_H-M   'P 1'
_cell_length_a   8.29886056
_cell_length_b   8.29886046
_cell_length_c   8.29886126
_cell_angle_alpha   37.90729861
_cell_angle_beta   37.90728436
_cell_angle_gamma   37.90728639
_symmetry_Int_Tables_number   1
_chemical_formula_structural   Ho5FeCoB6
_chemical_formula_sum   'Ho5 Fe1 Co1 B6'
_cell_volume   193.62799713
_cell_formula_units_Z   1
loop_
 _symmetry_equiv_pos_site_id
 _symmetry_equiv_pos_as_xyz
  1  'x, y, z'
loop_
 _atom_site_type_symbol
 _atom_site_label
 _atom_site_symmetry_multiplicity
 _atom_site_fract_x
 _atom_site_fract_y
 _atom_site_fract_z
 _atom_site_occupancy
  Ho  Ho0  1  0.583336  0.583336  0.583336  1
  Ho  Ho1  1  0.416649  0.416649  0.416649  1
  Ho  Ho2  1  0.748817  0.748817  0.748817  1
  Ho  Ho3  1  0.251258  0.251258  0.251258  1
  Ho  Ho4  1  0.000684  0.000684  0.000684  1
  Fe  Fe5  1  0.119043  0.119043  0.119043  1
  Co  Co6  1  0.881168  0.881168  0.881168  1
  B  B7  1  0.499592  0.831467  0.168464  1
  B  B8  1  0.168464  0.499592  0.831467  1
  B  B9  1  0.831467  0.168464  0.499592  1
  B  B10  1  0.499592  0.168464  0.831467  1
  B  B11  1  0.831467  0.499592  0.168464  1
  B  B12  1  0.168464  0.831467  0.499592  1
