# generated using pymatgen
data_Cd3Pt4PbO14
_symmetry_space_group_name_H-M   'P 1'
_cell_length_a   7.25778459
_cell_length_b   7.29235555
_cell_length_c   7.25778500
_cell_angle_alpha   60.15670064
_cell_angle_beta   60.00000269
_cell_angle_gamma   60.15669975
_symmetry_Int_Tables_number   1
_chemical_formula_structural   Cd3Pt4PbO14
_chemical_formula_sum   'Cd3 Pt4 Pb1 O14'
_cell_volume   272.26110630
_cell_formula_units_Z   1
loop_
 _symmetry_equiv_pos_site_id
 _symmetry_equiv_pos_as_xyz
  1  'x, y, z'
loop_
 _atom_site_type_symbol
 _atom_site_label
 _atom_site_symmetry_multiplicity
 _atom_site_fract_x
 _atom_site_fract_y
 _atom_site_fract_z
 _atom_site_occupancy
  Cd  Cd0  1  0.125000  0.125000  0.625000  1
  Cd  Cd1  1  0.625000  0.125000  0.125000  1
  Cd  Cd2  1  0.125000  0.125000  0.125000  1
  Pt  Pt3  1  0.625000  0.125000  0.625000  1
  Pt  Pt4  1  0.625000  0.625000  0.125000  1
  Pt  Pt5  1  0.125000  0.625000  0.625000  1
  Pt  Pt6  1  0.625000  0.625000  0.625000  1
  Pb  Pb7  1  0.125000  0.625000  0.125000  1
  O  O8  1  0.713858  0.704922  0.290610  1
  O  O9  1  0.959390  0.545078  0.536142  1
  O  O10  1  0.543786  0.955560  0.956868  1
  O  O11  1  0.956868  0.955560  0.543786  1
  O  O12  1  0.959390  0.545078  0.959390  1
  O  O13  1  0.543786  0.955560  0.543786  1
  O  O14  1  0.290610  0.704922  0.290610  1
  O  O15  1  0.290610  0.704922  0.713858  1
  O  O16  1  0.706214  0.294440  0.293132  1
  O  O17  1  0.706214  0.294440  0.706214  1
  O  O18  1  0.536142  0.545078  0.959390  1
  O  O19  1  0.293132  0.294440  0.706214  1
  O  O20  1  0.247796  0.256611  0.247796  1
  O  O21  1  0.002204  0.993389  0.002204  1
