# generated using pymatgen
data_Nd4Al4Pd3Ru
_symmetry_space_group_name_H-M   'P 1'
_cell_length_a   4.48263600
_cell_length_b   7.11969139
_cell_length_c   7.97352550
_cell_angle_alpha   89.81316459
_cell_angle_beta   90.00000000
_cell_angle_gamma   90.00000000
_symmetry_Int_Tables_number   1
_chemical_formula_structural   Nd4Al4Pd3Ru
_chemical_formula_sum   'Nd4 Al4 Pd3 Ru1'
_cell_volume   254.47359322
_cell_formula_units_Z   1
loop_
 _symmetry_equiv_pos_site_id
 _symmetry_equiv_pos_as_xyz
  1  'x, y, z'
loop_
 _atom_site_type_symbol
 _atom_site_label
 _atom_site_symmetry_multiplicity
 _atom_site_fract_x
 _atom_site_fract_y
 _atom_site_fract_z
 _atom_site_occupancy
  Nd  Nd0  1  0.750000  0.466340  0.180272  1
  Nd  Nd1  1  0.250000  0.024224  0.681970  1
  Nd  Nd2  1  0.750000  0.962649  0.322936  1
  Nd  Nd3  1  0.250000  0.533955  0.813423  1
  Al  Al4  1  0.750000  0.852615  0.932776  1
  Al  Al5  1  0.250000  0.646259  0.438151  1
  Al  Al6  1  0.750000  0.365099  0.564717  1
  Al  Al7  1  0.250000  0.142964  0.064730  1
  Pd  Pd8  1  0.750000  0.217055  0.885627  1
  Pd  Pd9  1  0.250000  0.279997  0.385762  1
  Pd  Pd10  1  0.250000  0.779571  0.115927  1
  Ru  Ru11  1  0.750000  0.729274  0.613709  1
