# generated using pymatgen
data_Li3Pr3Pd2Ru
_symmetry_space_group_name_H-M   'P 1'
_cell_length_a   7.41761500
_cell_length_b   7.41761436
_cell_length_c   4.11926900
_cell_angle_alpha   90.00000000
_cell_angle_beta   90.00000000
_cell_angle_gamma   120.00000731
_symmetry_Int_Tables_number   1
_chemical_formula_structural   Li3Pr3Pd2Ru
_chemical_formula_sum   'Li3 Pr3 Pd2 Ru1'
_cell_volume   196.28146567
_cell_formula_units_Z   1
loop_
 _symmetry_equiv_pos_site_id
 _symmetry_equiv_pos_as_xyz
  1  'x, y, z'
loop_
 _atom_site_type_symbol
 _atom_site_label
 _atom_site_symmetry_multiplicity
 _atom_site_fract_x
 _atom_site_fract_y
 _atom_site_fract_z
 _atom_site_occupancy
  Li  Li0  1  0.766340  0.766069  0.000000  1
  Li  Li1  1  0.233931  0.000271  0.000000  1
  Li  Li2  1  0.999729  0.233660  0.000000  1
  Pr  Pr3  1  0.422393  0.408788  0.500000  1
  Pr  Pr4  1  0.591212  0.013605  0.500000  1
  Pr  Pr5  1  0.986395  0.577607  0.500000  1
  Pd  Pd6  1  0.333333  0.666667  0.000000  1
  Pd  Pd7  1  0.000000  0.000000  0.500000  1
  Ru  Ru8  1  0.666667  0.333333  0.000000  1
