# generated using pymatgen
data_LaPrS3
_symmetry_space_group_name_H-M   'P 1'
_cell_length_a   4.13695100
_cell_length_b   7.58414100
_cell_length_c   15.80348000
_cell_angle_alpha   90.00000000
_cell_angle_beta   90.00000000
_cell_angle_gamma   90.00000000
_symmetry_Int_Tables_number   1
_chemical_formula_structural   LaPrS3
_chemical_formula_sum   'La4 Pr4 S12'
_cell_volume   495.83765693
_cell_formula_units_Z   4
loop_
 _symmetry_equiv_pos_site_id
 _symmetry_equiv_pos_as_xyz
  1  'x, y, z'
loop_
 _atom_site_type_symbol
 _atom_site_label
 _atom_site_symmetry_multiplicity
 _atom_site_fract_x
 _atom_site_fract_y
 _atom_site_fract_z
 _atom_site_occupancy
  La  La0  1  0.250000  0.143252  0.795991  1
  La  La1  1  0.250000  0.643252  0.704009  1
  La  La2  1  0.750000  0.856748  0.204009  1
  La  La3  1  0.750000  0.356748  0.295991  1
  Pr  Pr4  1  0.250000  0.765977  0.456332  1
  Pr  Pr5  1  0.250000  0.265977  0.043668  1
  Pr  Pr6  1  0.750000  0.234023  0.543668  1
  Pr  Pr7  1  0.750000  0.734023  0.956332  1
  S  S8  1  0.250000  0.148849  0.218804  1
  S  S9  1  0.250000  0.648849  0.281196  1
  S  S10  1  0.750000  0.851151  0.781196  1
  S  S11  1  0.750000  0.351151  0.718804  1
  S  S12  1  0.250000  0.009221  0.608198  1
  S  S13  1  0.250000  0.509221  0.891802  1
  S  S14  1  0.750000  0.990779  0.391802  1
  S  S15  1  0.750000  0.490779  0.108198  1
  S  S16  1  0.250000  0.374454  0.433214  1
  S  S17  1  0.250000  0.874454  0.066786  1
  S  S18  1  0.750000  0.625546  0.566786  1
  S  S19  1  0.750000  0.125546  0.933214  1
