# generated using pymatgen
data_Pr2AsPd14
_symmetry_space_group_name_H-M   'P 1'
_cell_length_a   9.03919100
_cell_length_b   9.03919100
_cell_length_c   7.23256400
_cell_angle_alpha   90.00000000
_cell_angle_beta   90.00000000
_cell_angle_gamma   90.00000000
_symmetry_Int_Tables_number   1
_chemical_formula_structural   Pr2AsPd14
_chemical_formula_sum   'Pr4 As2 Pd28'
_cell_volume   590.95091823
_cell_formula_units_Z   2
loop_
 _symmetry_equiv_pos_site_id
 _symmetry_equiv_pos_as_xyz
  1  'x, y, z'
loop_
 _atom_site_type_symbol
 _atom_site_label
 _atom_site_symmetry_multiplicity
 _atom_site_fract_x
 _atom_site_fract_y
 _atom_site_fract_z
 _atom_site_occupancy
  Pr  Pr0  1  0.500000  0.000000  0.934791  1
  Pr  Pr1  1  0.000000  0.500000  0.065209  1
  Pr  Pr2  1  0.000000  0.000000  0.500000  1
  Pr  Pr3  1  0.500000  0.500000  0.500000  1
  As  As4  1  0.500000  0.000000  0.449222  1
  As  As5  1  0.000000  0.500000  0.550778  1
  Pd  Pd6  1  0.331281  0.831281  0.620751  1
  Pd  Pd7  1  0.331281  0.168719  0.620751  1
  Pd  Pd8  1  0.668719  0.831281  0.620751  1
  Pd  Pd9  1  0.668719  0.168719  0.620751  1
  Pd  Pd10  1  0.168719  0.668719  0.379249  1
  Pd  Pd11  1  0.168719  0.331281  0.379249  1
  Pd  Pd12  1  0.831281  0.668719  0.379249  1
  Pd  Pd13  1  0.831281  0.331281  0.379249  1
  Pd  Pd14  1  0.500000  0.766766  0.252878  1
  Pd  Pd15  1  0.500000  0.233234  0.252878  1
  Pd  Pd16  1  0.266766  0.000000  0.252878  1
  Pd  Pd17  1  0.733234  0.000000  0.252878  1
  Pd  Pd18  1  0.000000  0.733234  0.747122  1
  Pd  Pd19  1  0.000000  0.266766  0.747122  1
  Pd  Pd20  1  0.233234  0.500000  0.747122  1
  Pd  Pd21  1  0.766766  0.500000  0.747122  1
  Pd  Pd22  1  0.500000  0.348726  0.857419  1
  Pd  Pd23  1  0.500000  0.651274  0.857419  1
  Pd  Pd24  1  0.848726  0.000000  0.857419  1
  Pd  Pd25  1  0.151274  0.000000  0.857419  1
  Pd  Pd26  1  0.000000  0.151274  0.142581  1
  Pd  Pd27  1  0.000000  0.848726  0.142581  1
  Pd  Pd28  1  0.651274  0.500000  0.142581  1
  Pd  Pd29  1  0.348726  0.500000  0.142581  1
  Pd  Pd30  1  0.250000  0.750000  0.000000  1
  Pd  Pd31  1  0.250000  0.250000  0.000000  1
  Pd  Pd32  1  0.750000  0.750000  0.000000  1
  Pd  Pd33  1  0.750000  0.250000  0.000000  1
