# generated using pymatgen
data_Zr4Co3CuAu2
_symmetry_space_group_name_H-M   'P 1'
_cell_length_a   7.10645395
_cell_length_b   7.10645395
_cell_length_c   3.28825000
_cell_angle_alpha   90.00000000
_cell_angle_beta   90.00000000
_cell_angle_gamma   90.34359198
_symmetry_Int_Tables_number   1
_chemical_formula_structural   Zr4Co3CuAu2
_chemical_formula_sum   'Zr4 Co3 Cu1 Au2'
_cell_volume   166.05918856
_cell_formula_units_Z   1
loop_
 _symmetry_equiv_pos_site_id
 _symmetry_equiv_pos_as_xyz
  1  'x, y, z'
loop_
 _atom_site_type_symbol
 _atom_site_label
 _atom_site_symmetry_multiplicity
 _atom_site_fract_x
 _atom_site_fract_y
 _atom_site_fract_z
 _atom_site_occupancy
  Zr  Zr0  1  0.690101  0.164548  0.500000  1
  Zr  Zr1  1  0.156166  0.343834  0.500000  1
  Zr  Zr2  1  0.824671  0.675329  0.500000  1
  Zr  Zr3  1  0.335452  0.809899  0.500000  1
  Co  Co4  1  0.123995  0.631933  0.000000  1
  Co  Co5  1  0.621882  0.878118  0.000000  1
  Co  Co6  1  0.868067  0.376005  0.000000  1
  Cu  Cu7  1  0.373943  0.126057  0.000000  1
  Au  Au8  1  0.006658  0.000935  0.000000  1
  Au  Au9  1  0.499065  0.493342  0.000000  1
