# generated using pymatgen
data_Mn2Cl3F
_symmetry_space_group_name_H-M   'P 1'
_cell_length_a   6.01463128
_cell_length_b   3.66004500
_cell_length_c   11.94811308
_cell_angle_alpha   90.00000000
_cell_angle_beta   86.28590618
_cell_angle_gamma   90.00000000
_symmetry_Int_Tables_number   1
_chemical_formula_structural   Mn2Cl3F
_chemical_formula_sum   'Mn4 Cl6 F2'
_cell_volume   262.47119939
_cell_formula_units_Z   2
loop_
 _symmetry_equiv_pos_site_id
 _symmetry_equiv_pos_as_xyz
  1  'x, y, z'
loop_
 _atom_site_type_symbol
 _atom_site_label
 _atom_site_symmetry_multiplicity
 _atom_site_fract_x
 _atom_site_fract_y
 _atom_site_fract_z
 _atom_site_occupancy
  Mn  Mn0  1  0.976120  0.500000  0.140458  1
  Mn  Mn1  1  0.544727  0.000000  0.346620  1
  Mn  Mn2  1  0.509301  0.500000  0.629024  1
  Mn  Mn3  1  0.978568  0.000000  0.886493  1
  Cl  Cl4  1  0.313419  0.500000  0.260207  1
  Cl  Cl5  1  0.759433  0.500000  0.439855  1
  Cl  Cl6  1  0.294339  0.000000  0.536341  1
  Cl  Cl7  1  0.745047  0.000000  0.708591  1
  Cl  Cl8  1  0.235300  0.500000  0.808631  1
  Cl  Cl9  1  0.729681  0.500000  0.975552  1
  F  F10  1  0.107155  0.000000  0.050615  1
  F  F11  1  0.806914  0.000000  0.217614  1
