# generated using pymatgen
data_La2DyEr(ZnGe)4
_symmetry_space_group_name_H-M   'P 1'
_cell_length_a   4.31012800
_cell_length_b   4.31012857
_cell_length_c   16.16369500
_cell_angle_alpha   90.00000000
_cell_angle_beta   90.00000000
_cell_angle_gamma   119.99999562
_symmetry_Int_Tables_number   1
_chemical_formula_structural   La2DyEr(ZnGe)4
_chemical_formula_sum   'La2 Dy1 Er1 Zn4 Ge4'
_cell_volume   260.04690594
_cell_formula_units_Z   1
loop_
 _symmetry_equiv_pos_site_id
 _symmetry_equiv_pos_as_xyz
  1  'x, y, z'
loop_
 _atom_site_type_symbol
 _atom_site_label
 _atom_site_symmetry_multiplicity
 _atom_site_fract_x
 _atom_site_fract_y
 _atom_site_fract_z
 _atom_site_occupancy
  La  La0  1  0.000000  0.000000  0.998810  1
  La  La1  1  0.000000  0.000000  0.501190  1
  Dy  Dy2  1  0.000000  0.000000  0.250000  1
  Er  Er3  1  0.000000  0.000000  0.750000  1
  Zn  Zn4  1  0.333333  0.666667  0.155511  1
  Zn  Zn5  1  0.666667  0.333333  0.842358  1
  Zn  Zn6  1  0.666667  0.333333  0.657642  1
  Zn  Zn7  1  0.333333  0.666667  0.344489  1
  Ge  Ge8  1  0.333333  0.666667  0.619975  1
  Ge  Ge9  1  0.666667  0.333333  0.381255  1
  Ge  Ge10  1  0.666667  0.333333  0.118745  1
  Ge  Ge11  1  0.333333  0.666667  0.880025  1
