# generated using pymatgen
data_HoAg(PSe3)2
_symmetry_space_group_name_H-M   'P 1'
_cell_length_a   6.67339800
_cell_length_b   6.67339696
_cell_length_c   14.68346100
_cell_angle_alpha   90.00000000
_cell_angle_beta   90.00000000
_cell_angle_gamma   120.00000514
_symmetry_Int_Tables_number   1
_chemical_formula_structural   HoAg(PSe3)2
_chemical_formula_sum   'Ho2 Ag2 P4 Se12'
_cell_volume   566.30843382
_cell_formula_units_Z   2
loop_
 _symmetry_equiv_pos_site_id
 _symmetry_equiv_pos_as_xyz
  1  'x, y, z'
loop_
 _atom_site_type_symbol
 _atom_site_label
 _atom_site_symmetry_multiplicity
 _atom_site_fract_x
 _atom_site_fract_y
 _atom_site_fract_z
 _atom_site_occupancy
  Ho  Ho0  1  0.000000  0.000000  0.250000  1
  Ho  Ho1  1  0.000000  0.000000  0.750000  1
  Ag  Ag2  1  0.666667  0.333333  0.250000  1
  Ag  Ag3  1  0.333333  0.666667  0.750000  1
  P  P4  1  0.666667  0.333333  0.672401  1
  P  P5  1  0.666667  0.333333  0.827599  1
  P  P6  1  0.333333  0.666667  0.327599  1
  P  P7  1  0.333333  0.666667  0.172401  1
  Se  Se8  1  0.977344  0.322744  0.873170  1
  Se  Se9  1  0.345400  0.322744  0.626830  1
  Se  Se10  1  0.977344  0.654600  0.626830  1
  Se  Se11  1  0.677256  0.022656  0.626830  1
  Se  Se12  1  0.322744  0.345400  0.126830  1
  Se  Se13  1  0.654600  0.977344  0.126830  1
  Se  Se14  1  0.022656  0.677256  0.126830  1
  Se  Se15  1  0.654600  0.677256  0.373170  1
  Se  Se16  1  0.022656  0.345400  0.373170  1
  Se  Se17  1  0.322744  0.977344  0.373170  1
  Se  Se18  1  0.677256  0.654600  0.873170  1
  Se  Se19  1  0.345400  0.022656  0.873170  1
