# generated using pymatgen
data_LuSc3Mo3Os5
_symmetry_space_group_name_H-M   'P 1'
_cell_length_a   5.24170284
_cell_length_b   5.33682846
_cell_length_c   8.75009678
_cell_angle_alpha   90.00000337
_cell_angle_beta   90.04151861
_cell_angle_gamma   120.60218058
_symmetry_Int_Tables_number   1
_chemical_formula_structural   LuSc3Mo3Os5
_chemical_formula_sum   'Lu1 Sc3 Mo3 Os5'
_cell_volume   210.68401022
_cell_formula_units_Z   1
loop_
 _symmetry_equiv_pos_site_id
 _symmetry_equiv_pos_as_xyz
  1  'x, y, z'
loop_
 _atom_site_type_symbol
 _atom_site_label
 _atom_site_symmetry_multiplicity
 _atom_site_fract_x
 _atom_site_fract_y
 _atom_site_fract_z
 _atom_site_occupancy
  Lu  Lu0  1  0.338853  0.669427  0.435083  1
  Sc  Sc1  1  0.665673  0.332835  0.560811  1
  Sc  Sc2  1  0.665880  0.332939  0.940834  1
  Sc  Sc3  1  0.339139  0.669570  0.064746  1
  Mo  Mo4  1  0.165827  0.338751  0.751709  1
  Mo  Mo5  1  0.165827  0.827076  0.751709  1
  Mo  Mo6  1  0.343112  0.171557  0.247598  1
  Os  Os7  1  0.828358  0.655866  0.247900  1
  Os  Os8  1  0.643303  0.821651  0.751784  1
  Os  Os9  1  0.007084  0.003542  0.998736  1
  Os  Os10  1  0.828358  0.172493  0.247900  1
  Os  Os11  1  0.008585  0.004293  0.501189  1
