# generated using pymatgen
data_Dy2Er2Lu(CoB3)2
_symmetry_space_group_name_H-M   'P 1'
_cell_length_a   5.39006643
_cell_length_b   5.39006638
_cell_length_c   8.24351370
_cell_angle_alpha   70.91759762
_cell_angle_beta   70.91759121
_cell_angle_gamma   60.00001945
_symmetry_Int_Tables_number   1
_chemical_formula_structural   Dy2Er2Lu(CoB3)2
_chemical_formula_sum   'Dy2 Er2 Lu1 Co2 B6'
_cell_volume   192.06405697
_cell_formula_units_Z   1
loop_
 _symmetry_equiv_pos_site_id
 _symmetry_equiv_pos_as_xyz
  1  'x, y, z'
loop_
 _atom_site_type_symbol
 _atom_site_label
 _atom_site_symmetry_multiplicity
 _atom_site_fract_x
 _atom_site_fract_y
 _atom_site_fract_z
 _atom_site_occupancy
  Dy  Dy0  1  0.252813  0.252813  0.241563  1
  Dy  Dy1  1  0.747187  0.747187  0.758437  1
  Er  Er2  1  0.415588  0.415588  0.753236  1
  Er  Er3  1  0.584412  0.584412  0.246764  1
  Lu  Lu4  1  0.000000  0.000000  0.000000  1
  Co  Co5  1  0.118895  0.118895  0.643317  1
  Co  Co6  1  0.881105  0.881105  0.356683  1
  B  B7  1  0.168932  0.831068  0.500000  1
  B  B8  1  0.831068  0.500000  0.500000  1
  B  B9  1  0.500000  0.168932  0.500000  1
  B  B10  1  0.168932  0.500000  0.500000  1
  B  B11  1  0.500000  0.831068  0.500000  1
  B  B12  1  0.831068  0.168932  0.500000  1
