# generated using pymatgen
data_YbHoCo6GeB3
_symmetry_space_group_name_H-M   'P 1'
_cell_length_a   5.13002057
_cell_length_b   5.13328269
_cell_length_c   12.20634600
_cell_angle_alpha   90.00022358
_cell_angle_beta   89.99971608
_cell_angle_gamma   120.02530288
_symmetry_Int_Tables_number   1
_chemical_formula_structural   YbHoCo6GeB3
_chemical_formula_sum   'Yb2 Ho2 Co12 Ge2 B6'
_cell_volume   278.30423012
_cell_formula_units_Z   2
loop_
 _symmetry_equiv_pos_site_id
 _symmetry_equiv_pos_as_xyz
  1  'x, y, z'
loop_
 _atom_site_type_symbol
 _atom_site_label
 _atom_site_symmetry_multiplicity
 _atom_site_fract_x
 _atom_site_fract_y
 _atom_site_fract_z
 _atom_site_occupancy
  Yb  Yb0  1  0.999995  0.000005  0.499984  1
  Yb  Yb1  1  0.999994  0.999993  0.000059  1
  Ho  Ho2  1  0.000008  0.999991  0.260706  1
  Ho  Ho3  1  0.999985  0.000006  0.739267  1
  Co  Co4  1  0.500000  0.000001  0.385960  1
  Co  Co5  1  0.000000  0.500000  0.385955  1
  Co  Co6  1  0.500000  0.500002  0.386005  1
  Co  Co7  1  0.499990  0.000007  0.613999  1
  Co  Co8  1  0.499992  0.500005  0.614024  1
  Co  Co9  1  0.999992  0.500007  0.614006  1
  Co  Co10  1  0.500006  0.999994  0.157940  1
  Co  Co11  1  0.000004  0.499993  0.157948  1
  Co  Co12  1  0.500004  0.499995  0.157860  1
  Co  Co13  1  0.499985  0.000004  0.842080  1
  Co  Co14  1  0.499987  0.500002  0.842052  1
  Co  Co15  1  0.999988  0.500005  0.842068  1
  Ge  Ge16  1  0.333220  0.666675  0.000071  1
  Ge  Ge17  1  0.666770  0.333312  0.000070  1
  B  B18  1  0.333358  0.666571  0.268982  1
  B  B19  1  0.666646  0.333422  0.268982  1
  B  B20  1  0.666739  0.333337  0.731005  1
  B  B21  1  0.333242  0.666672  0.731005  1
  B  B22  1  0.333275  0.666650  0.499986  1
  B  B23  1  0.666717  0.333356  0.499987  1
