# generated using pymatgen
data_Ho10Ga2SiSb3
_symmetry_space_group_name_H-M   'P 1'
_cell_length_a   6.46148200
_cell_length_b   8.77321163
_cell_length_c   8.72888800
_cell_angle_alpha   119.98525214
_cell_angle_beta   90.00001773
_cell_angle_gamma   89.99991930
_symmetry_Int_Tables_number   1
_chemical_formula_structural   Ho10Ga2SiSb3
_chemical_formula_sum   'Ho10 Ga2 Si1 Sb3'
_cell_volume   428.59274803
_cell_formula_units_Z   1
loop_
 _symmetry_equiv_pos_site_id
 _symmetry_equiv_pos_as_xyz
  1  'x, y, z'
loop_
 _atom_site_type_symbol
 _atom_site_label
 _atom_site_symmetry_multiplicity
 _atom_site_fract_x
 _atom_site_fract_y
 _atom_site_fract_z
 _atom_site_occupancy
  Ho  Ho0  1  0.500857  0.343935  0.679661  1
  Ho  Ho1  1  0.500741  0.649301  0.314781  1
  Ho  Ho2  1  0.999255  0.649305  0.314778  1
  Ho  Ho3  1  0.999140  0.343935  0.679668  1
  Ho  Ho4  1  0.749998  0.249363  0.012024  1
  Ho  Ho5  1  0.750006  0.751342  0.763766  1
  Ho  Ho6  1  0.749991  0.001358  0.236639  1
  Ho  Ho7  1  0.249996  0.751775  0.998920  1
  Ho  Ho8  1  0.249991  0.243866  0.229990  1
  Ho  Ho9  1  0.250012  0.013406  0.768864  1
  Ga  Ga10  1  0.750003  0.607085  0.001269  1
  Ga  Ga11  1  0.750015  0.393623  0.397586  1
  Si  Si12  1  0.250000  0.393860  0.997099  1
  Sb  Sb13  1  0.750001  0.996339  0.607054  1
  Sb  Sb14  1  0.250000  0.609172  0.604405  1
  Sb  Sb15  1  0.249996  0.002337  0.393494  1
