# generated using pymatgen
data_CaNd5(MnC3)4
_symmetry_space_group_name_H-M   'P 1'
_cell_length_a   8.21008881
_cell_length_b   8.23366033
_cell_length_c   5.15387700
_cell_angle_alpha   90.00000000
_cell_angle_beta   90.00000000
_cell_angle_gamma   119.98126482
_symmetry_Int_Tables_number   1
_chemical_formula_structural   CaNd5(MnC3)4
_chemical_formula_sum   'Ca1 Nd5 Mn4 C12'
_cell_volume   301.77790671
_cell_formula_units_Z   1
loop_
 _symmetry_equiv_pos_site_id
 _symmetry_equiv_pos_as_xyz
  1  'x, y, z'
loop_
 _atom_site_type_symbol
 _atom_site_label
 _atom_site_symmetry_multiplicity
 _atom_site_fract_x
 _atom_site_fract_y
 _atom_site_fract_z
 _atom_site_occupancy
  Ca  Ca0  1  0.612245  0.687326  0.750000  1
  Nd  Nd1  1  0.925912  0.613826  0.250000  1
  Nd  Nd2  1  0.686196  0.072406  0.250000  1
  Nd  Nd3  1  0.314706  0.926707  0.750000  1
  Nd  Nd4  1  0.074934  0.387715  0.750000  1
  Nd  Nd5  1  0.388970  0.316463  0.250000  1
  Mn  Mn6  1  0.997851  0.998494  0.500545  1
  Mn  Mn7  1  0.997851  0.998494  0.999455  1
  Mn  Mn8  1  0.666308  0.331478  0.750000  1
  Mn  Mn9  1  0.333724  0.666820  0.250000  1
  C  C10  1  0.954047  0.769783  0.750000  1
  C  C11  1  0.186263  0.956735  0.250000  1
  C  C12  1  0.772317  0.818120  0.250000  1
  C  C13  1  0.228595  0.184617  0.750000  1
  C  C14  1  0.817579  0.043857  0.750000  1
  C  C15  1  0.044173  0.229302  0.250000  1
  C  C16  1  0.852386  0.579528  0.750000  1
  C  C17  1  0.279425  0.857645  0.250000  1
  C  C18  1  0.580211  0.720443  0.250000  1
  C  C19  1  0.420625  0.278180  0.750000  1
  C  C20  1  0.142685  0.421233  0.250000  1
  C  C21  1  0.722998  0.140829  0.750000  1
