# generated using pymatgen
data_BeAl(SiNi2)2
_symmetry_space_group_name_H-M   'P 1'
_cell_length_a   4.46628186
_cell_length_b   4.42945189
_cell_length_c   4.45015007
_cell_angle_alpha   88.93215262
_cell_angle_beta   89.08821012
_cell_angle_gamma   89.27523882
_symmetry_Int_Tables_number   1
_chemical_formula_structural   BeAl(SiNi2)2
_chemical_formula_sum   'Be1 Al1 Si2 Ni4'
_cell_volume   88.00496824
_cell_formula_units_Z   1
loop_
 _symmetry_equiv_pos_site_id
 _symmetry_equiv_pos_as_xyz
  1  'x, y, z'
loop_
 _atom_site_type_symbol
 _atom_site_label
 _atom_site_symmetry_multiplicity
 _atom_site_fract_x
 _atom_site_fract_y
 _atom_site_fract_z
 _atom_site_occupancy
  Be  Be0  1  0.653090  0.091778  0.345067  1
  Al  Al1  1  0.150723  0.908654  0.647227  1
  Si  Si2  1  0.349641  0.600210  0.162826  1
  Si  Si3  1  0.839632  0.395081  0.842522  1
  Ni  Ni4  1  0.363617  0.397748  0.647734  1
  Ni  Ni5  1  0.848649  0.596290  0.347725  1
  Ni  Ni6  1  0.645926  0.895964  0.861513  1
  Ni  Ni7  1  0.148722  0.114275  0.145386  1
