# generated using pymatgen
data_SmY6Th(ReB6)4
_symmetry_space_group_name_H-M   'P 1'
_cell_length_a   3.71808300
_cell_length_b   9.22432526
_cell_length_c   11.63308612
_cell_angle_alpha   89.96811699
_cell_angle_beta   90.00000000
_cell_angle_gamma   90.00000000
_symmetry_Int_Tables_number   1
_chemical_formula_structural   SmY6Th(ReB6)4
_chemical_formula_sum   'Sm1 Y6 Th1 Re4 B24'
_cell_volume   398.97764698
_cell_formula_units_Z   1
loop_
 _symmetry_equiv_pos_site_id
 _symmetry_equiv_pos_as_xyz
  1  'x, y, z'
loop_
 _atom_site_type_symbol
 _atom_site_label
 _atom_site_symmetry_multiplicity
 _atom_site_fract_x
 _atom_site_fract_y
 _atom_site_fract_z
 _atom_site_occupancy
  Sm  Sm0  1  0.000000  0.178013  0.912954  1
  Y  Y1  1  0.000000  0.323250  0.415071  1
  Y  Y2  1  0.000000  0.676106  0.585583  1
  Y  Y3  1  0.000000  0.441630  0.130915  1
  Y  Y4  1  0.000000  0.556413  0.868436  1
  Y  Y5  1  0.000000  0.942828  0.372032  1
  Y  Y6  1  0.000000  0.057552  0.629202  1
  Th  Th7  1  0.000000  0.822367  0.085948  1
  Re  Re8  1  0.000000  0.138617  0.180413  1
  Re  Re9  1  0.000000  0.861252  0.819392  1
  Re  Re10  1  0.000000  0.638214  0.321576  1
  Re  Re11  1  0.000000  0.362592  0.678149  1
  B  B12  1  0.500000  0.055199  0.069262  1
  B  B13  1  0.500000  0.945780  0.930117  1
  B  B14  1  0.500000  0.553192  0.433268  1
  B  B15  1  0.500000  0.446983  0.566865  1
  B  B16  1  0.500000  0.249384  0.083763  1
  B  B17  1  0.500000  0.751124  0.914804  1
  B  B18  1  0.500000  0.748058  0.419273  1
  B  B19  1  0.500000  0.251690  0.581438  1
  B  B20  1  0.500000  0.291468  0.235737  1
  B  B21  1  0.500000  0.708574  0.763748  1
  B  B22  1  0.500000  0.789893  0.267713  1
  B  B23  1  0.500000  0.209460  0.733201  1
  B  B24  1  0.500000  0.131469  0.315740  1
  B  B25  1  0.500000  0.869413  0.684669  1
  B  B26  1  0.500000  0.629301  0.187927  1
  B  B27  1  0.500000  0.370055  0.812572  1
  B  B28  1  0.500000  0.482334  0.289346  1
  B  B29  1  0.500000  0.517412  0.710789  1
  B  B30  1  0.500000  0.985014  0.214053  1
  B  B31  1  0.500000  0.016867  0.786034  1
  B  B32  1  0.500000  0.101535  0.472182  1
  B  B33  1  0.500000  0.898961  0.528575  1
  B  B34  1  0.500000  0.597404  0.027233  1
  B  B35  1  0.500000  0.400599  0.972025  1
