# generated using pymatgen
data_KRbTcH9
_symmetry_space_group_name_H-M   'P 1'
_cell_length_a   9.80465600
_cell_length_b   9.80465535
_cell_length_c   5.76955100
_cell_angle_alpha   90.00000000
_cell_angle_beta   90.00000000
_cell_angle_gamma   119.99999544
_symmetry_Int_Tables_number   1
_chemical_formula_structural   KRbTcH9
_chemical_formula_sum   'K3 Rb3 Tc3 H27'
_cell_volume   480.32739993
_cell_formula_units_Z   3
loop_
 _symmetry_equiv_pos_site_id
 _symmetry_equiv_pos_as_xyz
  1  'x, y, z'
loop_
 _atom_site_type_symbol
 _atom_site_label
 _atom_site_symmetry_multiplicity
 _atom_site_fract_x
 _atom_site_fract_y
 _atom_site_fract_z
 _atom_site_occupancy
  K  K0  1  0.262594  0.000000  0.500000  1
  K  K1  1  0.000000  0.262594  0.500000  1
  K  K2  1  0.737406  0.737406  0.500000  1
  Rb  Rb3  1  0.590147  0.000000  0.000000  1
  Rb  Rb4  1  0.000000  0.590147  0.000000  1
  Rb  Rb5  1  0.409853  0.409853  0.000000  1
  Tc  Tc6  1  0.000000  0.000000  0.000000  1
  Tc  Tc7  1  0.333333  0.666667  0.500000  1
  Tc  Tc8  1  0.666667  0.333333  0.500000  1
  H  H9  1  0.877623  0.000000  0.207519  1
  H  H10  1  0.000000  0.877623  0.207519  1
  H  H11  1  0.877623  0.000000  0.792481  1
  H  H12  1  0.000000  0.877623  0.792481  1
  H  H13  1  0.122377  0.122377  0.207519  1
  H  H14  1  0.122377  0.122377  0.792481  1
  H  H15  1  0.169717  0.000000  0.000000  1
  H  H16  1  0.000000  0.169717  0.000000  1
  H  H17  1  0.830283  0.830283  0.000000  1
  H  H18  1  0.227661  0.535541  0.289168  1
  H  H19  1  0.464459  0.692119  0.289168  1
  H  H20  1  0.227661  0.535541  0.710832  1
  H  H21  1  0.535541  0.227661  0.710832  1
  H  H22  1  0.307881  0.772339  0.289168  1
  H  H23  1  0.464459  0.692119  0.710832  1
  H  H24  1  0.692119  0.464459  0.710832  1
  H  H25  1  0.535541  0.227661  0.289168  1
  H  H26  1  0.307881  0.772339  0.710832  1
  H  H27  1  0.692119  0.464459  0.289168  1
  H  H28  1  0.772339  0.307881  0.710832  1
  H  H29  1  0.772339  0.307881  0.289168  1
  H  H30  1  0.367563  0.516810  0.500000  1
  H  H31  1  0.483190  0.850753  0.500000  1
  H  H32  1  0.516810  0.367563  0.500000  1
  H  H33  1  0.149247  0.632437  0.500000  1
  H  H34  1  0.850753  0.483190  0.500000  1
  H  H35  1  0.632437  0.149247  0.500000  1
