# generated using pymatgen
data_Tm5Os2
_symmetry_space_group_name_H-M   'P 1'
_cell_length_a   6.26366271
_cell_length_b   7.30636735
_cell_length_c   8.30057603
_cell_angle_alpha   97.02081262
_cell_angle_beta   112.16672043
_cell_angle_gamma   90.00000483
_symmetry_Int_Tables_number   1
_chemical_formula_structural   Tm5Os2
_chemical_formula_sum   'Tm10 Os4'
_cell_volume   348.71866966
_cell_formula_units_Z   2
loop_
 _symmetry_equiv_pos_site_id
 _symmetry_equiv_pos_as_xyz
  1  'x, y, z'
loop_
 _atom_site_type_symbol
 _atom_site_label
 _atom_site_symmetry_multiplicity
 _atom_site_fract_x
 _atom_site_fract_y
 _atom_site_fract_z
 _atom_site_occupancy
  Tm  Tm0  1  0.792437  0.083977  0.816774  1
  Tm  Tm1  1  0.975663  0.416023  0.183226  1
  Tm  Tm2  1  0.207563  0.916023  0.183226  1
  Tm  Tm3  1  0.024337  0.583977  0.816774  1
  Tm  Tm4  1  0.203803  0.183039  0.564142  1
  Tm  Tm5  1  0.639662  0.316961  0.435858  1
  Tm  Tm6  1  0.796197  0.816961  0.435858  1
  Tm  Tm7  1  0.360338  0.683039  0.564142  1
  Tm  Tm8  1  0.420223  0.250000  0.000000  1
  Tm  Tm9  1  0.579777  0.750000  0.000000  1
  Os  Os10  1  0.602584  0.422200  0.780299  1
  Os  Os11  1  0.822284  0.077800  0.219701  1
  Os  Os12  1  0.397416  0.577800  0.219701  1
  Os  Os13  1  0.177716  0.922200  0.780299  1
