# generated using pymatgen
data_Rb3Ga3P4
_symmetry_space_group_name_H-M   'P 1'
_cell_length_a   6.53149300
_cell_length_b   10.57713400
_cell_length_c   15.51264800
_cell_angle_alpha   90.00000000
_cell_angle_beta   90.00000000
_cell_angle_gamma   90.00000000
_symmetry_Int_Tables_number   1
_chemical_formula_structural   Rb3Ga3P4
_chemical_formula_sum   'Rb12 Ga12 P16'
_cell_volume   1071.68316902
_cell_formula_units_Z   4
loop_
 _symmetry_equiv_pos_site_id
 _symmetry_equiv_pos_as_xyz
  1  'x, y, z'
loop_
 _atom_site_type_symbol
 _atom_site_label
 _atom_site_symmetry_multiplicity
 _atom_site_fract_x
 _atom_site_fract_y
 _atom_site_fract_z
 _atom_site_occupancy
  Rb  Rb0  1  0.062501  0.380521  0.591581  1
  Rb  Rb1  1  0.062501  0.119479  0.908419  1
  Rb  Rb2  1  0.562501  0.880521  0.908419  1
  Rb  Rb3  1  0.750000  0.079490  0.500000  1
  Rb  Rb4  1  0.937499  0.880521  0.091581  1
  Rb  Rb5  1  0.562501  0.619479  0.591581  1
  Rb  Rb6  1  0.937499  0.619479  0.408419  1
  Rb  Rb7  1  0.250000  0.579490  0.000000  1
  Rb  Rb8  1  0.750000  0.420510  0.000000  1
  Rb  Rb9  1  0.437499  0.380521  0.408419  1
  Rb  Rb10  1  0.437499  0.119479  0.091581  1
  Rb  Rb11  1  0.250000  0.920510  0.500000  1
  Ga  Ga12  1  0.401448  0.110265  0.717421  1
  Ga  Ga13  1  0.901448  0.610265  0.782579  1
  Ga  Ga14  1  0.098552  0.389735  0.217421  1
  Ga  Ga15  1  0.401448  0.389735  0.782579  1
  Ga  Ga16  1  0.310801  0.750000  0.750000  1
  Ga  Ga17  1  0.810801  0.250000  0.750000  1
  Ga  Ga18  1  0.598552  0.889735  0.282579  1
  Ga  Ga19  1  0.901448  0.889735  0.717421  1
  Ga  Ga20  1  0.189199  0.750000  0.250000  1
  Ga  Ga21  1  0.689199  0.250000  0.250000  1
  Ga  Ga22  1  0.598552  0.610265  0.217421  1
  Ga  Ga23  1  0.098552  0.110265  0.282579  1
  P  P24  1  0.040395  0.094051  0.683353  1
  P  P25  1  0.041445  0.802159  0.854399  1
  P  P26  1  0.458555  0.802159  0.145601  1
  P  P27  1  0.459605  0.405949  0.183353  1
  P  P28  1  0.540395  0.594051  0.816647  1
  P  P29  1  0.540395  0.905949  0.683353  1
  P  P30  1  0.041445  0.697841  0.645601  1
  P  P31  1  0.040395  0.405949  0.816647  1
  P  P32  1  0.958555  0.197841  0.145601  1
  P  P33  1  0.541445  0.197841  0.854399  1
  P  P34  1  0.959605  0.905949  0.316647  1
  P  P35  1  0.459605  0.094051  0.316647  1
  P  P36  1  0.958555  0.302159  0.354399  1
  P  P37  1  0.541445  0.302159  0.645601  1
  P  P38  1  0.458555  0.697841  0.354399  1
  P  P39  1  0.959605  0.594051  0.183353  1
