# generated using pymatgen
data_Ho8Si12Pt3Au
_symmetry_space_group_name_H-M   'P 1'
_cell_length_a   8.13345900
_cell_length_b   8.13345915
_cell_length_c   8.14698500
_cell_angle_alpha   90.00000000
_cell_angle_beta   90.00000000
_cell_angle_gamma   120.00000345
_symmetry_Int_Tables_number   1
_chemical_formula_structural   Ho8Si12Pt3Au
_chemical_formula_sum   'Ho8 Si12 Pt3 Au1'
_cell_volume   466.74331334
_cell_formula_units_Z   1
loop_
 _symmetry_equiv_pos_site_id
 _symmetry_equiv_pos_as_xyz
  1  'x, y, z'
loop_
 _atom_site_type_symbol
 _atom_site_label
 _atom_site_symmetry_multiplicity
 _atom_site_fract_x
 _atom_site_fract_y
 _atom_site_fract_z
 _atom_site_occupancy
  Ho  Ho0  1  0.000000  0.000000  0.249749  1
  Ho  Ho1  1  0.000000  0.000000  0.751646  1
  Ho  Ho2  1  0.502864  0.497136  0.247467  1
  Ho  Ho3  1  0.502864  0.005727  0.247467  1
  Ho  Ho4  1  0.994273  0.497136  0.247467  1
  Ho  Ho5  1  0.500258  0.499742  0.752293  1
  Ho  Ho6  1  0.500258  0.000518  0.752293  1
  Ho  Ho7  1  0.999482  0.499742  0.752293  1
  Si  Si8  1  0.162098  0.837902  0.501736  1
  Si  Si9  1  0.162098  0.324195  0.501736  1
  Si  Si10  1  0.675805  0.837902  0.501736  1
  Si  Si11  1  0.833464  0.166536  0.499619  1
  Si  Si12  1  0.833464  0.666930  0.499619  1
  Si  Si13  1  0.333070  0.166536  0.499619  1
  Si  Si14  1  0.834842  0.165158  0.997225  1
  Si  Si15  1  0.834842  0.669685  0.997225  1
  Si  Si16  1  0.330315  0.165158  0.997225  1
  Si  Si17  1  0.165740  0.834260  0.002828  1
  Si  Si18  1  0.165740  0.331479  0.002828  1
  Si  Si19  1  0.668521  0.834260  0.002828  1
  Pt  Pt20  1  0.666667  0.333333  0.500442  1
  Pt  Pt21  1  0.666667  0.333333  0.997528  1
  Pt  Pt22  1  0.333333  0.666667  0.002743  1
  Au  Au23  1  0.333333  0.666667  0.494391  1
