# generated using pymatgen
data_HoTmFe12P7
_symmetry_space_group_name_H-M   'P 1'
_cell_length_a   8.93714900
_cell_length_b   8.93714869
_cell_length_c   3.63347600
_cell_angle_alpha   90.00000000
_cell_angle_beta   90.00000000
_cell_angle_gamma   119.99999745
_symmetry_Int_Tables_number   1
_chemical_formula_structural   HoTmFe12P7
_chemical_formula_sum   'Ho1 Tm1 Fe12 P7'
_cell_volume   251.33381341
_cell_formula_units_Z   1
loop_
 _symmetry_equiv_pos_site_id
 _symmetry_equiv_pos_as_xyz
  1  'x, y, z'
loop_
 _atom_site_type_symbol
 _atom_site_label
 _atom_site_symmetry_multiplicity
 _atom_site_fract_x
 _atom_site_fract_y
 _atom_site_fract_z
 _atom_site_occupancy
  Ho  Ho0  1  0.333333  0.666667  0.000000  1
  Tm  Tm1  1  0.000000  0.000000  0.500000  1
  Fe  Fe2  1  0.722703  0.963198  0.000000  1
  Fe  Fe3  1  0.240496  0.277297  0.000000  1
  Fe  Fe4  1  0.036802  0.759504  0.000000  1
  Fe  Fe5  1  0.942121  0.451742  0.000000  1
  Fe  Fe6  1  0.509622  0.057879  0.000000  1
  Fe  Fe7  1  0.548258  0.490378  0.000000  1
  Fe  Fe8  1  0.098517  0.380307  0.500000  1
  Fe  Fe9  1  0.281791  0.901483  0.500000  1
  Fe  Fe10  1  0.619693  0.718209  0.500000  1
  Fe  Fe11  1  0.761301  0.214297  0.500000  1
  Fe  Fe12  1  0.452996  0.238699  0.500000  1
  Fe  Fe13  1  0.785703  0.547004  0.500000  1
  P  P14  1  0.964557  0.218272  0.000000  1
  P  P15  1  0.253715  0.035443  0.000000  1
  P  P16  1  0.781728  0.746285  0.000000  1
  P  P17  1  0.068250  0.622145  0.500000  1
  P  P18  1  0.553895  0.931750  0.500000  1
  P  P19  1  0.377855  0.446105  0.500000  1
  P  P20  1  0.666667  0.333333  0.000000  1
