# generated using pymatgen
data_BaHgAs4F24
_symmetry_space_group_name_H-M   'P 1'
_cell_length_a   10.09434917
_cell_length_b   10.09485566
_cell_length_c   10.09470700
_cell_angle_alpha   133.54793604
_cell_angle_beta   133.54757539
_cell_angle_gamma   67.79833613
_symmetry_Int_Tables_number   1
_chemical_formula_structural   BaHgAs4F24
_chemical_formula_sum   'Ba1 Hg1 As4 F24'
_cell_volume   531.13954926
_cell_formula_units_Z   1
loop_
 _symmetry_equiv_pos_site_id
 _symmetry_equiv_pos_as_xyz
  1  'x, y, z'
loop_
 _atom_site_type_symbol
 _atom_site_label
 _atom_site_symmetry_multiplicity
 _atom_site_fract_x
 _atom_site_fract_y
 _atom_site_fract_z
 _atom_site_occupancy
  Ba  Ba0  1  0.750078  0.249975  0.500036  1
  Hg  Hg1  1  0.999998  0.000013  0.000015  1
  As  As2  1  0.789796  0.789846  0.999979  1
  As  As3  1  0.210229  0.210170  0.000067  1
  As  As4  1  0.978716  0.478651  0.499886  1
  As  As5  1  0.521129  0.021290  0.499920  1
  F  F6  1  0.856221  0.799899  0.218447  1
  F  F7  1  0.581376  0.637779  0.781500  1
  F  F8  1  0.395087  0.801627  0.295606  1
  F  F9  1  0.362230  0.143757  0.943658  1
  F  F10  1  0.200124  0.418525  0.056352  1
  F  F11  1  0.198403  0.494056  0.593515  1
  F  F12  1  0.651165  0.243794  0.695277  1
  F  F13  1  0.756241  0.451457  0.407376  1
  F  F14  1  0.044152  0.348925  0.592690  1
  F  F15  1  0.057965  0.266325  0.062070  1
  F  F16  1  0.204375  0.995874  0.938030  1
  F  F17  1  0.548548  0.955884  0.304764  1
  F  F18  1  0.733626  0.795672  0.791544  1
  F  F19  1  0.004060  0.942078  0.208380  1
  F  F20  1  0.312011  0.105094  0.366039  1
  F  F21  1  0.894919  0.260963  0.206935  1
  F  F22  1  0.054041  0.688062  0.793141  1
  F  F23  1  0.403076  0.316900  0.305203  1
  F  F24  1  0.011696  0.097770  0.694791  1
  F  F25  1  0.739080  0.945958  0.633987  1
  F  F26  1  0.683059  0.988278  0.086096  1
  F  F27  1  0.902146  0.596960  0.913840  1
  F  F28  1  0.505977  0.099501  0.704373  1
  F  F29  1  0.900475  0.604913  0.406485  1
