# generated using pymatgen
data_YSc6Fe6Sn22Hg
_symmetry_space_group_name_H-M   'P 1'
_cell_length_a   9.53008500
_cell_length_b   9.53008600
_cell_length_c   9.83337200
_cell_angle_alpha   90.00000000
_cell_angle_beta   90.00000000
_cell_angle_gamma   120.00000694
_symmetry_Int_Tables_number   1
_chemical_formula_structural   YSc6Fe6Sn22Hg
_chemical_formula_sum   'Y1 Sc6 Fe6 Sn22 Hg1'
_cell_volume   773.44006334
_cell_formula_units_Z   1
loop_
 _symmetry_equiv_pos_site_id
 _symmetry_equiv_pos_as_xyz
  1  'x, y, z'
loop_
 _atom_site_type_symbol
 _atom_site_label
 _atom_site_symmetry_multiplicity
 _atom_site_fract_x
 _atom_site_fract_y
 _atom_site_fract_z
 _atom_site_occupancy
  Y  Y0  1  0.000000  0.000000  0.000000  1
  Sc  Sc1  1  0.026063  0.513031  0.304907  1
  Sc  Sc2  1  0.486969  0.973937  0.304907  1
  Sc  Sc3  1  0.486969  0.513031  0.304907  1
  Sc  Sc4  1  0.973937  0.486969  0.695093  1
  Sc  Sc5  1  0.513031  0.026063  0.695093  1
  Sc  Sc6  1  0.513031  0.486969  0.695093  1
  Fe  Fe7  1  0.169421  0.830579  0.795395  1
  Fe  Fe8  1  0.661158  0.830579  0.795395  1
  Fe  Fe9  1  0.169421  0.338842  0.795395  1
  Fe  Fe10  1  0.830579  0.169421  0.204605  1
  Fe  Fe11  1  0.338842  0.169421  0.204605  1
  Fe  Fe12  1  0.830579  0.661158  0.204605  1
  Sn  Sn13  1  0.123511  0.876489  0.268619  1
  Sn  Sn14  1  0.752975  0.876489  0.268619  1
  Sn  Sn15  1  0.123511  0.247025  0.268619  1
  Sn  Sn16  1  0.876489  0.123511  0.731381  1
  Sn  Sn17  1  0.247025  0.123511  0.731381  1
  Sn  Sn18  1  0.876489  0.752975  0.731381  1
  Sn  Sn19  1  0.346943  0.000000  0.000000  1
  Sn  Sn20  1  0.653057  0.653057  0.000000  1
  Sn  Sn21  1  0.000000  0.346943  0.000000  1
  Sn  Sn22  1  0.346943  0.346943  0.000000  1
  Sn  Sn23  1  0.000000  0.653057  0.000000  1
  Sn  Sn24  1  0.653057  0.000000  0.000000  1
  Sn  Sn25  1  0.779484  0.558966  0.460021  1
  Sn  Sn26  1  0.779484  0.220516  0.460021  1
  Sn  Sn27  1  0.441034  0.220516  0.460021  1
  Sn  Sn28  1  0.220516  0.441034  0.539979  1
  Sn  Sn29  1  0.220516  0.779484  0.539979  1
  Sn  Sn30  1  0.558966  0.779484  0.539979  1
  Sn  Sn31  1  0.666667  0.333333  0.176540  1
  Sn  Sn32  1  0.333333  0.666667  0.823460  1
  Sn  Sn33  1  0.666667  0.333333  0.857863  1
  Sn  Sn34  1  0.333333  0.666667  0.142137  1
  Hg  Hg35  1  0.000000  0.000000  0.500000  1
