# generated using pymatgen
data_YbCe(PaOs4)2
_symmetry_space_group_name_H-M   'P 1'
_cell_length_a   5.32516500
_cell_length_b   5.32516460
_cell_length_c   8.88392300
_cell_angle_alpha   90.00000000
_cell_angle_beta   90.00000000
_cell_angle_gamma   119.99999625
_symmetry_Int_Tables_number   1
_chemical_formula_structural   YbCe(PaOs4)2
_chemical_formula_sum   'Yb1 Ce1 Pa2 Os8'
_cell_volume   218.17326918
_cell_formula_units_Z   1
loop_
 _symmetry_equiv_pos_site_id
 _symmetry_equiv_pos_as_xyz
  1  'x, y, z'
loop_
 _atom_site_type_symbol
 _atom_site_label
 _atom_site_symmetry_multiplicity
 _atom_site_fract_x
 _atom_site_fract_y
 _atom_site_fract_z
 _atom_site_occupancy
  Yb  Yb0  1  0.666667  0.333333  0.938496  1
  Ce  Ce1  1  0.333333  0.666667  0.064487  1
  Pa  Pa2  1  0.333333  0.666667  0.425452  1
  Pa  Pa3  1  0.666667  0.333333  0.577247  1
  Os  Os4  1  0.000000  0.000000  0.499540  1
  Os  Os5  1  0.000000  0.000000  0.997269  1
  Os  Os6  1  0.829259  0.170741  0.250710  1
  Os  Os7  1  0.829259  0.658517  0.250710  1
  Os  Os8  1  0.341483  0.170741  0.250710  1
  Os  Os9  1  0.170366  0.829634  0.748460  1
  Os  Os10  1  0.170366  0.340732  0.748460  1
  Os  Os11  1  0.659268  0.829634  0.748460  1
