# generated using pymatgen
data_Tb4Er2Al23SiOs8
_symmetry_space_group_name_H-M   'P 1'
_cell_length_a   8.77541552
_cell_length_b   8.77541482
_cell_length_c   9.64687201
_cell_angle_alpha   90.00492369
_cell_angle_beta   89.99507322
_cell_angle_gamma   120.03913843
_symmetry_Int_Tables_number   1
_chemical_formula_structural   Tb4Er2Al23SiOs8
_chemical_formula_sum   'Tb4 Er2 Al23 Si1 Os8'
_cell_volume   643.10380139
_cell_formula_units_Z   1
loop_
 _symmetry_equiv_pos_site_id
 _symmetry_equiv_pos_as_xyz
  1  'x, y, z'
loop_
 _atom_site_type_symbol
 _atom_site_label
 _atom_site_symmetry_multiplicity
 _atom_site_fract_x
 _atom_site_fract_y
 _atom_site_fract_z
 _atom_site_occupancy
  Tb  Tb0  1  0.194117  0.388539  0.249778  1
  Tb  Tb1  1  0.806632  0.613064  0.751261  1
  Tb  Tb2  1  0.611461  0.805883  0.249778  1
  Tb  Tb3  1  0.386936  0.193368  0.751261  1
  Er  Er4  1  0.195366  0.804634  0.249503  1
  Er  Er5  1  0.805660  0.194340  0.751250  1
  Al  Al6  1  0.666867  0.333133  0.979974  1
  Al  Al7  1  0.666871  0.333129  0.522831  1
  Al  Al8  1  0.333132  0.666868  0.478195  1
  Al  Al9  1  0.163291  0.327290  0.574906  1
  Al  Al10  1  0.836394  0.672004  0.424494  1
  Al  Al11  1  0.672710  0.836709  0.574906  1
  Al  Al12  1  0.836402  0.672201  0.074873  1
  Al  Al13  1  0.327996  0.163606  0.424494  1
  Al  Al14  1  0.164664  0.329992  0.923013  1
  Al  Al15  1  0.163729  0.836271  0.574290  1
  Al  Al16  1  0.327799  0.163598  0.074873  1
  Al  Al17  1  0.835923  0.164077  0.425004  1
  Al  Al18  1  0.670008  0.835336  0.923013  1
  Al  Al19  1  0.836002  0.163998  0.074382  1
  Al  Al20  1  0.165117  0.834883  0.923513  1
  Al  Al21  1  0.561950  0.124687  0.248614  1
  Al  Al22  1  0.437706  0.874615  0.748183  1
  Al  Al23  1  0.875313  0.438050  0.248614  1
  Al  Al24  1  0.125385  0.562294  0.748183  1
  Al  Al25  1  0.562717  0.437283  0.248606  1
  Al  Al26  1  0.436903  0.563097  0.748204  1
  Al  Al27  1  0.000595  0.999405  0.249017  1
  Al  Al28  1  0.999422  0.000578  0.748853  1
  Si  Si29  1  0.332978  0.667022  0.040163  1
  Os  Os30  1  0.495813  0.991658  0.000709  1
  Os  Os31  1  0.008342  0.504187  0.000709  1
  Os  Os32  1  0.500265  0.000582  0.498710  1
  Os  Os33  1  0.495802  0.504198  0.000664  1
  Os  Os34  1  0.999418  0.499735  0.498710  1
  Os  Os35  1  0.500308  0.499692  0.498748  1
  Os  Os36  1  0.999990  0.000010  0.999021  1
  Os  Os37  1  0.000016  0.999984  0.498704  1
