# generated using pymatgen
data_Tb3(BeSi2)2
_symmetry_space_group_name_H-M   'P 1'
_cell_length_a   3.89825300
_cell_length_b   5.65078481
_cell_length_c   7.88192841
_cell_angle_alpha   98.02214610
_cell_angle_beta   90.00000000
_cell_angle_gamma   110.17754215
_symmetry_Int_Tables_number   1
_chemical_formula_structural   Tb3(BeSi2)2
_chemical_formula_sum   'Tb3 Be2 Si4'
_cell_volume   161.15761260
_cell_formula_units_Z   1
loop_
 _symmetry_equiv_pos_site_id
 _symmetry_equiv_pos_as_xyz
  1  'x, y, z'
loop_
 _atom_site_type_symbol
 _atom_site_label
 _atom_site_symmetry_multiplicity
 _atom_site_fract_x
 _atom_site_fract_y
 _atom_site_fract_z
 _atom_site_occupancy
  Tb  Tb0  1  0.000000  0.000000  0.000000  1
  Tb  Tb1  1  0.335399  0.670799  0.333016  1
  Tb  Tb2  1  0.664600  0.329200  0.666982  1
  Be  Be3  1  0.610829  0.221659  0.282134  1
  Be  Be4  1  0.389170  0.778341  0.717866  1
  Si  Si5  1  0.715007  0.430016  0.063720  1
  Si  Si6  1  0.061363  0.122727  0.384460  1
  Si  Si7  1  0.938636  0.877272  0.615540  1
  Si  Si8  1  0.284994  0.569985  0.936280  1
