# generated using pymatgen
data_Cs2La8Pr2Os2Br17
_symmetry_space_group_name_H-M   'P 1'
_cell_length_a   9.67316576
_cell_length_b   11.44022322
_cell_length_c   11.41098386
_cell_angle_alpha   107.24371887
_cell_angle_beta   93.28378244
_cell_angle_gamma   93.29888219
_symmetry_Int_Tables_number   1
_chemical_formula_structural   Cs2La8Pr2Os2Br17
_chemical_formula_sum   'Cs2 La8 Pr2 Os2 Br17'
_cell_volume   1200.35342673
_cell_formula_units_Z   1
loop_
 _symmetry_equiv_pos_site_id
 _symmetry_equiv_pos_as_xyz
  1  'x, y, z'
loop_
 _atom_site_type_symbol
 _atom_site_label
 _atom_site_symmetry_multiplicity
 _atom_site_fract_x
 _atom_site_fract_y
 _atom_site_fract_z
 _atom_site_occupancy
  Cs  Cs0  1  0.000852  0.821385  0.179337  1
  Cs  Cs1  1  0.001665  0.179630  0.821724  1
  La  La2  1  0.823909  0.294191  0.293442  1
  La  La3  1  0.312601  0.427327  0.427299  1
  La  La4  1  0.425351  0.794849  0.490741  1
  La  La5  1  0.575234  0.194346  0.513723  1
  La  La6  1  0.689406  0.564533  0.564339  1
  La  La7  1  0.168476  0.710094  0.710151  1
  La  La8  1  0.425128  0.491878  0.796477  1
  La  La9  1  0.564012  0.840390  0.842145  1
  Pr  Pr10  1  0.438211  0.164166  0.163608  1
  Pr  Pr11  1  0.574579  0.512162  0.196422  1
  Os  Os12  1  0.571753  0.356134  0.356933  1
  Os  Os13  1  0.427198  0.644645  0.644738  1
  Br  Br14  1  0.578525  0.686495  0.019007  1
  Br  Br15  1  0.711673  0.069741  0.069328  1
  Br  Br16  1  0.854581  0.452210  0.119367  1
  Br  Br17  1  0.135016  0.206996  0.206234  1
  Br  Br18  1  0.288558  0.603834  0.255797  1
  Br  Br19  1  0.421153  0.979712  0.314353  1
  Br  Br20  1  0.713333  0.740212  0.390871  1
  Br  Br21  1  0.857984  0.119115  0.449881  1
  Br  Br22  1  0.000948  0.500181  0.499823  1
  Br  Br23  1  0.143136  0.880290  0.551237  1
  Br  Br24  1  0.286373  0.258288  0.605036  1
  Br  Br25  1  0.578484  0.016810  0.687494  1
  Br  Br26  1  0.714315  0.393764  0.741567  1
  Br  Br27  1  0.867258  0.793780  0.793715  1
  Br  Br28  1  0.142378  0.551749  0.880733  1
  Br  Br29  1  0.285760  0.933732  0.933580  1
  Br  Br30  1  0.422149  0.317362  0.980898  1
