# generated using pymatgen
data_Pa2SiRu5
_symmetry_space_group_name_H-M   'P 1'
_cell_length_a   4.11962700
_cell_length_b   5.73033600
_cell_length_c   11.21199000
_cell_angle_alpha   90.00000000
_cell_angle_beta   90.00000000
_cell_angle_gamma   90.00000000
_symmetry_Int_Tables_number   1
_chemical_formula_structural   Pa2SiRu5
_chemical_formula_sum   'Pa4 Si2 Ru10'
_cell_volume   264.67973143
_cell_formula_units_Z   2
loop_
 _symmetry_equiv_pos_site_id
 _symmetry_equiv_pos_as_xyz
  1  'x, y, z'
loop_
 _atom_site_type_symbol
 _atom_site_label
 _atom_site_symmetry_multiplicity
 _atom_site_fract_x
 _atom_site_fract_y
 _atom_site_fract_z
 _atom_site_occupancy
  Pa  Pa0  1  0.500000  0.825029  0.359270  1
  Pa  Pa1  1  0.500000  0.174971  0.640730  1
  Pa  Pa2  1  0.500000  0.325029  0.140730  1
  Pa  Pa3  1  0.500000  0.674971  0.859270  1
  Si  Si4  1  0.000000  0.500000  0.500000  1
  Si  Si5  1  0.000000  0.000000  0.000000  1
  Ru  Ru6  1  0.000000  0.500000  0.000000  1
  Ru  Ru7  1  0.000000  0.000000  0.500000  1
  Ru  Ru8  1  0.000000  0.574159  0.253146  1
  Ru  Ru9  1  0.000000  0.425841  0.746854  1
  Ru  Ru10  1  0.000000  0.074159  0.246854  1
  Ru  Ru11  1  0.000000  0.925841  0.753146  1
  Ru  Ru12  1  0.500000  0.826057  0.103857  1
  Ru  Ru13  1  0.500000  0.173943  0.896143  1
  Ru  Ru14  1  0.500000  0.326057  0.396143  1
  Ru  Ru15  1  0.500000  0.673943  0.603857  1
