# generated using pymatgen
data_LiTa3Co4As3P
_symmetry_space_group_name_H-M   'P 1'
_cell_length_a   3.66515500
_cell_length_b   6.25079067
_cell_length_c   7.10549862
_cell_angle_alpha   90.82144452
_cell_angle_beta   90.00000000
_cell_angle_gamma   90.00000000
_symmetry_Int_Tables_number   1
_chemical_formula_structural   LiTa3Co4As3P
_chemical_formula_sum   'Li1 Ta3 Co4 As3 P1'
_cell_volume   162.77107240
_cell_formula_units_Z   1
loop_
 _symmetry_equiv_pos_site_id
 _symmetry_equiv_pos_as_xyz
  1  'x, y, z'
loop_
 _atom_site_type_symbol
 _atom_site_label
 _atom_site_symmetry_multiplicity
 _atom_site_fract_x
 _atom_site_fract_y
 _atom_site_fract_z
 _atom_site_occupancy
  Li  Li0  1  0.250000  0.024942  0.818282  1
  Ta  Ta1  1  0.250000  0.527146  0.670914  1
  Ta  Ta2  1  0.750000  0.969451  0.185595  1
  Ta  Ta3  1  0.750000  0.475907  0.324378  1
  Co  Co4  1  0.250000  0.135255  0.435923  1
  Co  Co5  1  0.250000  0.641451  0.077365  1
  Co  Co6  1  0.750000  0.848401  0.550974  1
  Co  Co7  1  0.750000  0.375327  0.939201  1
  As  As8  1  0.250000  0.260068  0.110254  1
  As  As9  1  0.750000  0.750197  0.875634  1
  As  As10  1  0.750000  0.220899  0.631666  1
  P  P11  1  0.250000  0.770958  0.379815  1
