# generated using pymatgen
data_V3Bi4PtF28
_symmetry_space_group_name_H-M   'P 1'
_cell_length_a   5.60680427
_cell_length_b   9.18666876
_cell_length_c   12.11408842
_cell_angle_alpha   62.23504965
_cell_angle_beta   89.92213061
_cell_angle_gamma   89.81302962
_symmetry_Int_Tables_number   1
_chemical_formula_structural   V3Bi4PtF28
_chemical_formula_sum   'V3 Bi4 Pt1 F28'
_cell_volume   552.12757302
_cell_formula_units_Z   1
loop_
 _symmetry_equiv_pos_site_id
 _symmetry_equiv_pos_as_xyz
  1  'x, y, z'
loop_
 _atom_site_type_symbol
 _atom_site_label
 _atom_site_symmetry_multiplicity
 _atom_site_fract_x
 _atom_site_fract_y
 _atom_site_fract_z
 _atom_site_occupancy
  V  V0  1  0.752516  0.272679  0.957399  1
  V  V1  1  0.255532  0.725069  0.545114  1
  V  V2  1  0.246201  0.728299  0.042634  1
  Bi  Bi3  1  0.760177  0.814134  0.764529  1
  Bi  Bi4  1  0.258364  0.184875  0.737747  1
  Bi  Bi5  1  0.237410  0.183352  0.232135  1
  Bi  Bi6  1  0.742467  0.804327  0.270479  1
  Pt  Pt7  1  0.742896  0.270427  0.458434  1
  F  F8  1  0.445446  0.714004  0.921255  1
  F  F9  1  0.926496  0.297201  0.586984  1
  F  F10  1  0.550367  0.288407  0.077714  1
  F  F11  1  0.056401  0.710727  0.422958  1
  F  F12  1  0.440606  0.282946  0.538795  1
  F  F13  1  0.966049  0.720247  0.953755  1
  F  F14  1  0.538008  0.718214  0.456130  1
  F  F15  1  0.035591  0.282184  0.046336  1
  F  F16  1  0.764128  0.496264  0.867494  1
  F  F17  1  0.269520  0.500924  0.633446  1
  F  F18  1  0.235710  0.505977  0.133211  1
  F  F19  1  0.736252  0.511536  0.357174  1
  F  F20  1  0.760927  0.048295  0.048180  1
  F  F21  1  0.259456  0.950858  0.453139  1
  F  F22  1  0.238594  0.957385  0.948592  1
  F  F23  1  0.739189  0.027199  0.551573  1
  F  F24  1  0.983983  0.729397  0.636867  1
  F  F25  1  0.480878  0.264476  0.867283  1
  F  F26  1  0.039608  0.266019  0.372986  1
  F  F27  1  0.517574  0.740777  0.130636  1
  F  F28  1  0.050449  0.752398  0.162675  1
  F  F29  1  0.564013  0.252171  0.325277  1
  F  F30  1  0.952137  0.253250  0.836298  1
  F  F31  1  0.450497  0.742920  0.667436  1
  F  F32  1  0.403956  0.970002  0.226555  1
  F  F33  1  0.907792  0.027142  0.272710  1
  F  F34  1  0.596060  0.032781  0.770883  1
  F  F35  1  0.094750  0.973137  0.725187  1
