# generated using pymatgen
data_Nd5HoLu2(Si3Rh)4
_symmetry_space_group_name_H-M   'P 1'
_cell_length_a   8.23529459
_cell_length_b   8.22398668
_cell_length_c   8.10446600
_cell_angle_alpha   90.00000000
_cell_angle_beta   90.00000000
_cell_angle_gamma   119.95459473
_symmetry_Int_Tables_number   1
_chemical_formula_structural   Nd5HoLu2(Si3Rh)4
_chemical_formula_sum   'Nd5 Ho1 Lu2 Si12 Rh4'
_cell_volume   475.57070673
_cell_formula_units_Z   1
loop_
 _symmetry_equiv_pos_site_id
 _symmetry_equiv_pos_as_xyz
  1  'x, y, z'
loop_
 _atom_site_type_symbol
 _atom_site_label
 _atom_site_symmetry_multiplicity
 _atom_site_fract_x
 _atom_site_fract_y
 _atom_site_fract_z
 _atom_site_occupancy
  Nd  Nd0  1  0.000098  0.000049  0.250000  1
  Nd  Nd1  1  0.999921  0.999960  0.750000  1
  Nd  Nd2  1  0.500044  0.499916  0.250000  1
  Nd  Nd3  1  0.500044  0.000128  0.250000  1
  Nd  Nd4  1  0.000145  0.500072  0.250000  1
  Ho  Ho5  1  0.999588  0.499794  0.750000  1
  Lu  Lu6  1  0.500268  0.499868  0.750000  1
  Lu  Lu7  1  0.500268  0.000399  0.750000  1
  Si  Si8  1  0.168032  0.832684  0.505062  1
  Si  Si9  1  0.168032  0.335347  0.505062  1
  Si  Si10  1  0.664912  0.832456  0.505115  1
  Si  Si11  1  0.832116  0.167131  0.505038  1
  Si  Si12  1  0.832116  0.664986  0.505038  1
  Si  Si13  1  0.334665  0.167333  0.505405  1
  Si  Si14  1  0.832116  0.167131  0.994962  1
  Si  Si15  1  0.832116  0.664986  0.994962  1
  Si  Si16  1  0.334665  0.167333  0.994595  1
  Si  Si17  1  0.168032  0.832684  0.994938  1
  Si  Si18  1  0.168032  0.335347  0.994938  1
  Si  Si19  1  0.664912  0.832456  0.994885  1
  Rh  Rh20  1  0.334871  0.667436  0.538101  1
  Rh  Rh21  1  0.665068  0.332534  0.536394  1
  Rh  Rh22  1  0.665068  0.332534  0.963606  1
  Rh  Rh23  1  0.334871  0.667436  0.961899  1
