# generated using pymatgen
data_Ce2Dy11Lu3(CdRu)4
_symmetry_space_group_name_H-M   'P 1'
_cell_length_a   9.66082193
_cell_length_b   9.56745286
_cell_length_c   9.56771619
_cell_angle_alpha   59.71344644
_cell_angle_beta   59.67962087
_cell_angle_gamma   59.68241550
_symmetry_Int_Tables_number   1
_chemical_formula_structural   Ce2Dy11Lu3(CdRu)4
_chemical_formula_sum   'Ce2 Dy11 Lu3 Cd4 Ru4'
_cell_volume   620.94430660
_cell_formula_units_Z   1
loop_
 _symmetry_equiv_pos_site_id
 _symmetry_equiv_pos_as_xyz
  1  'x, y, z'
loop_
 _atom_site_type_symbol
 _atom_site_label
 _atom_site_symmetry_multiplicity
 _atom_site_fract_x
 _atom_site_fract_y
 _atom_site_fract_z
 _atom_site_occupancy
  Ce  Ce0  1  0.971330  0.340203  0.340067  1
  Ce  Ce1  1  0.348364  0.340051  0.340225  1
  Dy  Dy2  1  0.563395  0.561220  0.938475  1
  Dy  Dy3  1  0.936932  0.561213  0.938460  1
  Dy  Dy4  1  0.559582  0.940436  0.940433  1
  Dy  Dy5  1  0.936927  0.938502  0.561210  1
  Dy  Dy6  1  0.563428  0.938430  0.561220  1
  Dy  Dy7  1  0.939492  0.560500  0.560503  1
  Dy  Dy8  1  0.189310  0.188962  0.812798  1
  Dy  Dy9  1  0.808941  0.188966  0.812779  1
  Dy  Dy10  1  0.189552  0.810452  0.810447  1
  Dy  Dy11  1  0.808947  0.812786  0.188961  1
  Dy  Dy12  1  0.189316  0.812792  0.188966  1
  Lu  Lu13  1  0.811813  0.188235  0.188237  1
  Lu  Lu14  1  0.347277  0.350272  0.955180  1
  Lu  Lu15  1  0.347273  0.955180  0.350260  1
  Cd  Cd16  1  0.582184  0.578847  0.256783  1
  Cd  Cd17  1  0.582193  0.256782  0.578849  1
  Cd  Cd18  1  0.260191  0.579952  0.579979  1
  Cd  Cd19  1  0.579894  0.579978  0.579949  1
  Ru  Ru20  1  0.138395  0.150764  0.572289  1
  Ru  Ru21  1  0.138466  0.572295  0.150737  1
  Ru  Ru22  1  0.571680  0.146538  0.146593  1
  Ru  Ru23  1  0.135115  0.146644  0.146595  1
