# generated using pymatgen
data_Tb14Tm2In4RuRh3
_symmetry_space_group_name_H-M   'P 1'
_cell_length_a   9.68570434
_cell_length_b   9.68457234
_cell_length_c   9.67627356
_cell_angle_alpha   60.07515603
_cell_angle_beta   59.95278241
_cell_angle_gamma   59.97773083
_symmetry_Int_Tables_number   1
_chemical_formula_structural   Tb14Tm2In4RuRh3
_chemical_formula_sum   'Tb14 Tm2 In4 Ru1 Rh3'
_cell_volume   641.83337393
_cell_formula_units_Z   1
loop_
 _symmetry_equiv_pos_site_id
 _symmetry_equiv_pos_as_xyz
  1  'x, y, z'
loop_
 _atom_site_type_symbol
 _atom_site_label
 _atom_site_symmetry_multiplicity
 _atom_site_fract_x
 _atom_site_fract_y
 _atom_site_fract_z
 _atom_site_occupancy
  Tb  Tb0  1  0.187442  0.192654  0.811466  1
  Tb  Tb1  1  0.650083  0.049504  0.649024  1
  Tb  Tb2  1  0.061539  0.061570  0.438839  1
  Tb  Tb3  1  0.441717  0.435914  0.060699  1
  Tb  Tb4  1  0.652660  0.649606  0.651742  1
  Tb  Tb5  1  0.811821  0.191717  0.186970  1
  Tb  Tb6  1  0.189477  0.810779  0.811011  1
  Tb  Tb7  1  0.047399  0.649395  0.650158  1
  Tb  Tb8  1  0.440747  0.060147  0.060999  1
  Tb  Tb9  1  0.438724  0.060744  0.437296  1
  Tb  Tb10  1  0.059382  0.438531  0.060136  1
  Tb  Tb11  1  0.650235  0.648605  0.048899  1
  Tb  Tb12  1  0.189919  0.811229  0.190610  1
  Tb  Tb13  1  0.060227  0.436240  0.441064  1
  Tm  Tm14  1  0.810010  0.810605  0.190299  1
  Tm  Tm15  1  0.809675  0.192373  0.810594  1
  In  In16  1  0.417346  0.417383  0.417299  1
  In  In17  1  0.417833  0.417627  0.747772  1
  In  In18  1  0.418868  0.745644  0.419068  1
  In  In19  1  0.747856  0.417470  0.417785  1
  Ru  Ru20  1  0.857827  0.424650  0.857342  1
  Rh  Rh21  1  0.856455  0.860654  0.859613  1
  Rh  Rh22  1  0.857629  0.858076  0.423232  1
  Rh  Rh23  1  0.425129  0.858881  0.858083  1
