# generated using pymatgen
data_Yb2DyLu5(B6Os)4
_symmetry_space_group_name_H-M   'P 1'
_cell_length_a   3.60469600
_cell_length_b   9.07219334
_cell_length_c   11.46025500
_cell_angle_alpha   89.86944513
_cell_angle_beta   90.00000000
_cell_angle_gamma   90.00000000
_symmetry_Int_Tables_number   1
_chemical_formula_structural   Yb2DyLu5(B6Os)4
_chemical_formula_sum   'Yb2 Dy1 Lu5 B24 Os4'
_cell_volume   374.77800509
_cell_formula_units_Z   1
loop_
 _symmetry_equiv_pos_site_id
 _symmetry_equiv_pos_as_xyz
  1  'x, y, z'
loop_
 _atom_site_type_symbol
 _atom_site_label
 _atom_site_symmetry_multiplicity
 _atom_site_fract_x
 _atom_site_fract_y
 _atom_site_fract_z
 _atom_site_occupancy
  Yb  Yb0  1  0.000000  0.323795  0.414505  1
  Yb  Yb1  1  0.000000  0.676150  0.585594  1
  Dy  Dy2  1  0.000000  0.821401  0.086223  1
  Lu  Lu3  1  0.000000  0.178822  0.913702  1
  Lu  Lu4  1  0.000000  0.942560  0.370656  1
  Lu  Lu5  1  0.000000  0.057640  0.629458  1
  Lu  Lu6  1  0.000000  0.442839  0.129429  1
  Lu  Lu7  1  0.000000  0.556659  0.870368  1
  B  B8  1  0.500000  0.553973  0.432383  1
  B  B9  1  0.500000  0.445833  0.567812  1
  B  B10  1  0.500000  0.054129  0.065975  1
  B  B11  1  0.500000  0.947051  0.933339  1
  B  B12  1  0.500000  0.749334  0.417971  1
  B  B13  1  0.500000  0.250669  0.582302  1
  B  B14  1  0.500000  0.249454  0.080253  1
  B  B15  1  0.500000  0.750580  0.918654  1
  B  B16  1  0.500000  0.791873  0.264573  1
  B  B17  1  0.500000  0.207718  0.736242  1
  B  B18  1  0.500000  0.291006  0.234067  1
  B  B19  1  0.500000  0.709072  0.765689  1
  B  B20  1  0.500000  0.630321  0.184488  1
  B  B21  1  0.500000  0.368860  0.816070  1
  B  B22  1  0.500000  0.130252  0.314395  1
  B  B23  1  0.500000  0.870061  0.685625  1
  B  B24  1  0.500000  0.982535  0.212031  1
  B  B25  1  0.500000  0.018618  0.788277  1
  B  B26  1  0.500000  0.482605  0.287255  1
  B  B27  1  0.500000  0.517063  0.712837  1
  B  B28  1  0.500000  0.601248  0.027778  1
  B  B29  1  0.500000  0.397367  0.971811  1
  B  B30  1  0.500000  0.098353  0.472946  1
  B  B31  1  0.500000  0.901766  0.527156  1
  Os  Os32  1  0.000000  0.639910  0.318354  1
  Os  Os33  1  0.000000  0.359608  0.682177  1
  Os  Os34  1  0.000000  0.137385  0.177807  1
  Os  Os35  1  0.000000  0.863489  0.821799  1
