# generated using pymatgen
data_CePr5PaO12
_symmetry_space_group_name_H-M   'P 1'
_cell_length_a   6.80807765
_cell_length_b   6.85354743
_cell_length_c   6.87803700
_cell_angle_alpha   98.79392026
_cell_angle_beta   99.38509061
_cell_angle_gamma   98.59739823
_symmetry_Int_Tables_number   1
_chemical_formula_structural   CePr5PaO12
_chemical_formula_sum   'Ce1 Pr5 Pa1 O12'
_cell_volume   307.86034742
_cell_formula_units_Z   1
loop_
 _symmetry_equiv_pos_site_id
 _symmetry_equiv_pos_as_xyz
  1  'x, y, z'
loop_
 _atom_site_type_symbol
 _atom_site_label
 _atom_site_symmetry_multiplicity
 _atom_site_fract_x
 _atom_site_fract_y
 _atom_site_fract_z
 _atom_site_occupancy
  Ce  Ce0  1  0.143199  0.312988  0.604801  1
  Pr  Pr1  1  0.307622  0.607685  0.142219  1
  Pr  Pr2  1  0.609894  0.141149  0.305870  1
  Pr  Pr3  1  0.390567  0.857799  0.692632  1
  Pr  Pr4  1  0.692528  0.392215  0.861679  1
  Pr  Pr5  1  0.857516  0.692883  0.390947  1
  Pa  Pa6  1  0.002384  0.001772  0.999358  1
  O  O7  1  0.420437  0.187562  0.584483  1
  O  O8  1  0.929890  0.694419  0.054073  1
  O  O9  1  0.178170  0.571296  0.437904  1
  O  O10  1  0.837664  0.405571  0.569622  1
  O  O11  1  0.562169  0.825156  0.416742  1
  O  O12  1  0.590861  0.438430  0.179939  1
  O  O13  1  0.398291  0.555594  0.816348  1
  O  O14  1  0.956270  0.077652  0.313269  1
  O  O15  1  0.052521  0.930293  0.691378  1
  O  O16  1  0.690425  0.054007  0.931909  1
  O  O17  1  0.069631  0.306772  0.938981  1
  O  O18  1  0.309960  0.946755  0.067848  1
