# generated using pymatgen
data_Y9Th3(FeRu)2
_symmetry_space_group_name_H-M   'P 1'
_cell_length_a   6.34983107
_cell_length_b   7.14022391
_cell_length_c   9.59791500
_cell_angle_alpha   90.00000000
_cell_angle_beta   90.00000000
_cell_angle_gamma   89.31215934
_symmetry_Int_Tables_number   1
_chemical_formula_structural   Y9Th3(FeRu)2
_chemical_formula_sum   'Y9 Th3 Fe2 Ru2'
_cell_volume   435.13058021
_cell_formula_units_Z   1
loop_
 _symmetry_equiv_pos_site_id
 _symmetry_equiv_pos_as_xyz
  1  'x, y, z'
loop_
 _atom_site_type_symbol
 _atom_site_label
 _atom_site_symmetry_multiplicity
 _atom_site_fract_x
 _atom_site_fract_y
 _atom_site_fract_z
 _atom_site_occupancy
  Y  Y0  1  0.860087  0.539886  0.250000  1
  Y  Y1  1  0.171132  0.173460  0.064834  1
  Y  Y2  1  0.826718  0.829184  0.930182  1
  Y  Y3  1  0.672461  0.330718  0.929930  1
  Y  Y4  1  0.826718  0.829184  0.569818  1
  Y  Y5  1  0.328428  0.671683  0.066159  1
  Y  Y6  1  0.171132  0.173460  0.435166  1
  Y  Y7  1  0.328428  0.671683  0.433841  1
  Y  Y8  1  0.672461  0.330718  0.570070  1
  Th  Th9  1  0.653608  0.048518  0.250000  1
  Th  Th10  1  0.342628  0.938398  0.750000  1
  Th  Th11  1  0.152352  0.440593  0.750000  1
  Fe  Fe12  1  0.508877  0.632780  0.750000  1
  Fe  Fe13  1  0.990901  0.135348  0.750000  1
  Ru  Ru14  1  0.464366  0.367745  0.250000  1
  Ru  Ru15  1  0.029705  0.886642  0.250000  1
