# generated using pymatgen
data_Tb3Ce2Er3(ReB6)4
_symmetry_space_group_name_H-M   'P 1'
_cell_length_a   3.70335900
_cell_length_b   9.18715964
_cell_length_c   11.57814807
_cell_angle_alpha   90.13904591
_cell_angle_beta   90.00000000
_cell_angle_gamma   90.00000000
_symmetry_Int_Tables_number   1
_chemical_formula_structural   Tb3Ce2Er3(ReB6)4
_chemical_formula_sum   'Tb3 Ce2 Er3 Re4 B24'
_cell_volume   393.92622820
_cell_formula_units_Z   1
loop_
 _symmetry_equiv_pos_site_id
 _symmetry_equiv_pos_as_xyz
  1  'x, y, z'
loop_
 _atom_site_type_symbol
 _atom_site_label
 _atom_site_symmetry_multiplicity
 _atom_site_fract_x
 _atom_site_fract_y
 _atom_site_fract_z
 _atom_site_occupancy
  Tb  Tb0  1  0.000000  0.823814  0.085290  1
  Tb  Tb1  1  0.000000  0.176220  0.914364  1
  Tb  Tb2  1  0.000000  0.943677  0.370747  1
  Ce  Ce3  1  0.000000  0.322381  0.413776  1
  Ce  Ce4  1  0.000000  0.677538  0.586439  1
  Er  Er5  1  0.000000  0.056624  0.630174  1
  Er  Er6  1  0.000000  0.443054  0.128455  1
  Er  Er7  1  0.000000  0.556991  0.871280  1
  Re  Re8  1  0.000000  0.636808  0.321376  1
  Re  Re9  1  0.000000  0.362243  0.678665  1
  Re  Re10  1  0.000000  0.140223  0.179665  1
  Re  Re11  1  0.000000  0.860358  0.819912  1
  B  B12  1  0.500000  0.553748  0.431362  1
  B  B13  1  0.500000  0.445520  0.568805  1
  B  B14  1  0.500000  0.054037  0.066760  1
  B  B15  1  0.500000  0.946211  0.932802  1
  B  B16  1  0.500000  0.748365  0.417244  1
  B  B17  1  0.500000  0.250469  0.582903  1
  B  B18  1  0.500000  0.249476  0.080975  1
  B  B19  1  0.500000  0.750797  0.918812  1
  B  B20  1  0.500000  0.791006  0.264796  1
  B  B21  1  0.500000  0.208070  0.735011  1
  B  B22  1  0.500000  0.291933  0.233352  1
  B  B23  1  0.500000  0.708545  0.766520  1
  B  B24  1  0.500000  0.630260  0.184743  1
  B  B25  1  0.500000  0.369382  0.815066  1
  B  B26  1  0.500000  0.131729  0.313123  1
  B  B27  1  0.500000  0.869219  0.686556  1
  B  B28  1  0.500000  0.983400  0.211161  1
  B  B29  1  0.500000  0.017171  0.788185  1
  B  B30  1  0.500000  0.483080  0.286374  1
  B  B31  1  0.500000  0.516595  0.713534  1
  B  B32  1  0.500000  0.600228  0.027882  1
  B  B33  1  0.500000  0.399777  0.971897  1
  B  B34  1  0.500000  0.103413  0.472411  1
  B  B35  1  0.500000  0.897638  0.529580  1
