# generated using pymatgen
data_Ce2BIr5Rh
_symmetry_space_group_name_H-M   'P 1'
_cell_length_a   5.89641971
_cell_length_b   5.89641963
_cell_length_c   5.87521500
_cell_angle_alpha   60.11888416
_cell_angle_beta   60.11888461
_cell_angle_gamma   59.76221243
_symmetry_Int_Tables_number   1
_chemical_formula_structural   Ce2BIr5Rh
_chemical_formula_sum   'Ce2 B1 Ir5 Rh1'
_cell_volume   144.43561111
_cell_formula_units_Z   1
loop_
 _symmetry_equiv_pos_site_id
 _symmetry_equiv_pos_as_xyz
  1  'x, y, z'
loop_
 _atom_site_type_symbol
 _atom_site_label
 _atom_site_symmetry_multiplicity
 _atom_site_fract_x
 _atom_site_fract_y
 _atom_site_fract_z
 _atom_site_occupancy
  Ce  Ce0  1  0.750036  0.750036  0.749964  1
  Ce  Ce1  1  0.250036  0.250036  0.249964  1
  B  B2  1  0.000011  0.000011  0.999989  1
  Ir  Ir3  1  0.257358  0.742310  0.257690  1
  Ir  Ir4  1  0.742310  0.257358  0.257690  1
  Ir  Ir5  1  0.258386  0.258386  0.741614  1
  Ir  Ir6  1  0.742310  0.257358  0.742642  1
  Ir  Ir7  1  0.257358  0.742310  0.742642  1
  Rh  Rh8  1  0.742193  0.742193  0.257807  1
