# generated using pymatgen
data_Y3InF10
_symmetry_space_group_name_H-M   'P 1'
_cell_length_a   8.30498886
_cell_length_b   8.30498920
_cell_length_c   8.30498800
_cell_angle_alpha   59.99999682
_cell_angle_beta   59.99999545
_cell_angle_gamma   59.99999604
_symmetry_Int_Tables_number   1
_chemical_formula_structural   Y3InF10
_chemical_formula_sum   'Y6 In2 F20'
_cell_volume   405.04390311
_cell_formula_units_Z   2
loop_
 _symmetry_equiv_pos_site_id
 _symmetry_equiv_pos_as_xyz
  1  'x, y, z'
loop_
 _atom_site_type_symbol
 _atom_site_label
 _atom_site_symmetry_multiplicity
 _atom_site_fract_x
 _atom_site_fract_y
 _atom_site_fract_z
 _atom_site_occupancy
  Y  Y0  1  0.759055  0.759055  0.240945  1
  Y  Y1  1  0.240945  0.759055  0.240945  1
  Y  Y2  1  0.759055  0.240945  0.240945  1
  Y  Y3  1  0.240945  0.240945  0.759055  1
  Y  Y4  1  0.759055  0.240945  0.759055  1
  Y  Y5  1  0.240945  0.759055  0.759055  1
  In  In6  1  0.750000  0.750000  0.750000  1
  In  In7  1  0.250000  0.250000  0.250000  1
  F  F8  1  0.889076  0.889076  0.332773  1
  F  F9  1  0.889076  0.332773  0.889076  1
  F  F10  1  0.332773  0.889076  0.889076  1
  F  F11  1  0.889076  0.889076  0.889076  1
  F  F12  1  0.110924  0.110924  0.667227  1
  F  F13  1  0.110924  0.667227  0.110924  1
  F  F14  1  0.667227  0.110924  0.110924  1
  F  F15  1  0.110924  0.110924  0.110924  1
  F  F16  1  0.500000  0.500000  0.829370  1
  F  F17  1  0.170630  0.500000  0.829370  1
  F  F18  1  0.500000  0.170630  0.829370  1
  F  F19  1  0.170630  0.829370  0.500000  1
  F  F20  1  0.500000  0.829370  0.500000  1
  F  F21  1  0.500000  0.829370  0.170630  1
  F  F22  1  0.829370  0.170630  0.500000  1
  F  F23  1  0.829370  0.500000  0.170630  1
  F  F24  1  0.829370  0.500000  0.500000  1
  F  F25  1  0.500000  0.500000  0.170630  1
  F  F26  1  0.500000  0.170630  0.500000  1
  F  F27  1  0.170630  0.500000  0.500000  1
