# generated using pymatgen
data_Cs14Ti2Tl5InAs10
_symmetry_space_group_name_H-M   'P 1'
_cell_length_a   9.03902243
_cell_length_b   9.86913656
_cell_length_c   15.28274160
_cell_angle_alpha   85.14736166
_cell_angle_beta   83.19602579
_cell_angle_gamma   86.67172619
_symmetry_Int_Tables_number   1
_chemical_formula_structural   Cs14Ti2Tl5InAs10
_chemical_formula_sum   'Cs14 Ti2 Tl5 In1 As10'
_cell_volume   1347.28828945
_cell_formula_units_Z   1
loop_
 _symmetry_equiv_pos_site_id
 _symmetry_equiv_pos_as_xyz
  1  'x, y, z'
loop_
 _atom_site_type_symbol
 _atom_site_label
 _atom_site_symmetry_multiplicity
 _atom_site_fract_x
 _atom_site_fract_y
 _atom_site_fract_z
 _atom_site_occupancy
  Cs  Cs0  1  0.845553  0.362998  0.653055  1
  Cs  Cs1  1  0.816645  0.809571  0.129843  1
  Cs  Cs2  1  0.245014  0.008063  0.468572  1
  Cs  Cs3  1  0.273144  0.262038  0.249940  1
  Cs  Cs4  1  0.735814  0.496790  0.978797  1
  Cs  Cs5  1  0.261037  0.501944  0.022168  1
  Cs  Cs6  1  0.672671  0.086730  0.887427  1
  Cs  Cs7  1  0.751662  0.989240  0.531487  1
  Cs  Cs8  1  0.727685  0.733444  0.751055  1
  Cs  Cs9  1  0.340254  0.348349  0.605324  1
  Cs  Cs10  1  0.151306  0.637439  0.345822  1
  Cs  Cs11  1  0.181598  0.190445  0.870163  1
  Cs  Cs12  1  0.329062  0.911747  0.112986  1
  Cs  Cs13  1  0.658175  0.655004  0.392554  1
  Ti  Ti14  1  0.353338  0.611441  0.772609  1
  Ti  Ti15  1  0.647680  0.388444  0.227218  1
  Tl  Tl16  1  0.051555  0.811585  0.870308  1
  Tl  Tl17  1  0.952013  0.189627  0.128804  1
  Tl  Tl18  1  0.349678  0.948144  0.704808  1
  Tl  Tl19  1  0.097675  0.715619  0.622120  1
  Tl  Tl20  1  0.904089  0.285994  0.378899  1
  In  In21  1  0.662611  0.065442  0.292465  1
  As  As22  1  0.913202  0.454173  0.210246  1
  As  As23  1  0.629132  0.190091  0.127002  1
  As  As24  1  0.088158  0.546017  0.789899  1
  As  As25  1  0.579658  0.285811  0.388641  1
  As  As26  1  0.420572  0.709543  0.610740  1
  As  As27  1  0.029853  0.009121  0.698299  1
  As  As28  1  0.510542  0.411590  0.807430  1
  As  As29  1  0.488527  0.586180  0.192607  1
  As  As30  1  0.371807  0.806796  0.874894  1
  As  As31  1  0.960292  0.990582  0.303822  1
