# generated using pymatgen
data_ZrGaNi3Au
_symmetry_space_group_name_H-M   'P 1'
_cell_length_a   4.96824522
_cell_length_b   4.96824449
_cell_length_c   4.86210420
_cell_angle_alpha   59.27519681
_cell_angle_beta   59.27519451
_cell_angle_gamma   59.99998944
_symmetry_Int_Tables_number   1
_chemical_formula_structural   ZrGaNi3Au
_chemical_formula_sum   'Zr1 Ga1 Ni3 Au1'
_cell_volume   83.92076396
_cell_formula_units_Z   1
loop_
 _symmetry_equiv_pos_site_id
 _symmetry_equiv_pos_as_xyz
  1  'x, y, z'
loop_
 _atom_site_type_symbol
 _atom_site_label
 _atom_site_symmetry_multiplicity
 _atom_site_fract_x
 _atom_site_fract_y
 _atom_site_fract_z
 _atom_site_occupancy
  Zr  Zr0  1  0.004155  0.004155  0.987534  1
  Ga  Ga1  1  0.622853  0.622853  0.131439  1
  Ni  Ni2  1  0.623365  0.124926  0.628342  1
  Ni  Ni3  1  0.124926  0.623365  0.628342  1
  Ni  Ni4  1  0.623365  0.623365  0.628342  1
  Au  Au5  1  0.251334  0.251334  0.245999  1
