# generated using pymatgen
data_HoMg2Al(Ni3B)2
_symmetry_space_group_name_H-M   'P 1'
_cell_length_a   5.05587902
_cell_length_b   5.05587951
_cell_length_c   13.60242800
_cell_angle_alpha   90.00000000
_cell_angle_beta   90.00000000
_cell_angle_gamma   120.00526033
_symmetry_Int_Tables_number   1
_chemical_formula_structural   HoMg2Al(Ni3B)2
_chemical_formula_sum   'Ho2 Mg4 Al2 Ni12 B4'
_cell_volume   301.10462989
_cell_formula_units_Z   2
loop_
 _symmetry_equiv_pos_site_id
 _symmetry_equiv_pos_as_xyz
  1  'x, y, z'
loop_
 _atom_site_type_symbol
 _atom_site_label
 _atom_site_symmetry_multiplicity
 _atom_site_fract_x
 _atom_site_fract_y
 _atom_site_fract_z
 _atom_site_occupancy
  Ho  Ho0  1  0.666573  0.333427  0.250000  1
  Ho  Ho1  1  0.333427  0.666573  0.750000  1
  Mg  Mg2  1  0.666468  0.333532  0.027552  1
  Mg  Mg3  1  0.333532  0.666468  0.972448  1
  Mg  Mg4  1  0.333532  0.666468  0.527552  1
  Mg  Mg5  1  0.666468  0.333532  0.472448  1
  Al  Al6  1  0.000000  0.000000  0.500000  1
  Al  Al7  1  0.000000  0.000000  0.000000  1
  Ni  Ni8  1  0.832929  0.665717  0.646199  1
  Ni  Ni9  1  0.833053  0.166947  0.646312  1
  Ni  Ni10  1  0.334283  0.167071  0.646199  1
  Ni  Ni11  1  0.167071  0.334283  0.353801  1
  Ni  Ni12  1  0.166947  0.833053  0.353688  1
  Ni  Ni13  1  0.665717  0.832929  0.353801  1
  Ni  Ni14  1  0.167071  0.334283  0.146199  1
  Ni  Ni15  1  0.166947  0.833053  0.146312  1
  Ni  Ni16  1  0.665717  0.832929  0.146199  1
  Ni  Ni17  1  0.832929  0.665717  0.853801  1
  Ni  Ni18  1  0.833053  0.166947  0.853688  1
  Ni  Ni19  1  0.334283  0.167071  0.853801  1
  B  B20  1  0.666721  0.333279  0.750000  1
  B  B21  1  0.333279  0.666721  0.250000  1
  B  B22  1  0.000003  0.999997  0.750000  1
  B  B23  1  0.999997  0.000003  0.250000  1
