# generated using pymatgen
data_Tm16Cd4CoNi2Os
_symmetry_space_group_name_H-M   'P 1'
_cell_length_a   9.45075745
_cell_length_b   9.45075819
_cell_length_c   9.45342588
_cell_angle_alpha   59.58999582
_cell_angle_beta   59.58998984
_cell_angle_gamma   59.68391841
_symmetry_Int_Tables_number   1
_chemical_formula_structural   Tm16Cd4CoNi2Os
_chemical_formula_sum   'Tm16 Cd4 Co1 Ni2 Os1'
_cell_volume   591.90618714
_cell_formula_units_Z   1
loop_
 _symmetry_equiv_pos_site_id
 _symmetry_equiv_pos_as_xyz
  1  'x, y, z'
loop_
 _atom_site_type_symbol
 _atom_site_label
 _atom_site_symmetry_multiplicity
 _atom_site_fract_x
 _atom_site_fract_y
 _atom_site_fract_z
 _atom_site_occupancy
  Tm  Tm0  1  0.345378  0.345378  0.349803  1
  Tm  Tm1  1  0.351133  0.351133  0.953631  1
  Tm  Tm2  1  0.349847  0.956538  0.352076  1
  Tm  Tm3  1  0.956538  0.349847  0.352076  1
  Tm  Tm4  1  0.810861  0.187572  0.188630  1
  Tm  Tm5  1  0.186740  0.815166  0.808335  1
  Tm  Tm6  1  0.187572  0.810861  0.188630  1
  Tm  Tm7  1  0.815166  0.186740  0.808335  1
  Tm  Tm8  1  0.187579  0.187579  0.808548  1
  Tm  Tm9  1  0.810641  0.810641  0.187975  1
  Tm  Tm10  1  0.936055  0.562701  0.565480  1
  Tm  Tm11  1  0.555530  0.939389  0.940073  1
  Tm  Tm12  1  0.562701  0.936055  0.565480  1
  Tm  Tm13  1  0.939389  0.555530  0.940073  1
  Tm  Tm14  1  0.563985  0.563985  0.936625  1
  Tm  Tm15  1  0.940796  0.940796  0.555934  1
  Cd  Cd16  1  0.580838  0.580838  0.580722  1
  Cd  Cd17  1  0.580052  0.580052  0.257002  1
  Cd  Cd18  1  0.580478  0.256078  0.580231  1
  Cd  Cd19  1  0.256078  0.580478  0.580231  1
  Co  Co20  1  0.141573  0.141573  0.575589  1
  Ni  Ni21  1  0.142018  0.575965  0.141114  1
  Ni  Ni22  1  0.575965  0.142018  0.141114  1
  Os  Os23  1  0.143090  0.143090  0.142297  1
