# generated using pymatgen
data_PuNp2Al9
_symmetry_space_group_name_H-M   'P 1'
_cell_length_a   7.92566963
_cell_length_b   7.92566922
_cell_length_c   7.92566936
_cell_angle_alpha   44.88618492
_cell_angle_beta   44.88618691
_cell_angle_gamma   44.88618432
_symmetry_Int_Tables_number   1
_chemical_formula_structural   PuNp2Al9
_chemical_formula_sum   'Pu1 Np2 Al9'
_cell_volume   225.61690005
_cell_formula_units_Z   1
loop_
 _symmetry_equiv_pos_site_id
 _symmetry_equiv_pos_as_xyz
  1  'x, y, z'
loop_
 _atom_site_type_symbol
 _atom_site_label
 _atom_site_symmetry_multiplicity
 _atom_site_fract_x
 _atom_site_fract_y
 _atom_site_fract_z
 _atom_site_occupancy
  Pu  Pu0  1  0.781523  0.781523  0.781523  1
  Np  Np1  1  0.999229  0.999229  0.999229  1
  Np  Np2  1  0.219125  0.219125  0.219125  1
  Al  Al3  1  0.500680  0.500680  0.999418  1
  Al  Al4  1  0.500680  0.999418  0.500680  1
  Al  Al5  1  0.999418  0.500680  0.500680  1
  Al  Al6  1  0.756674  0.287923  0.287923  1
  Al  Al7  1  0.287923  0.287923  0.756674  1
  Al  Al8  1  0.287923  0.756674  0.287923  1
  Al  Al9  1  0.711328  0.244167  0.711328  1
  Al  Al10  1  0.244167  0.711328  0.711328  1
  Al  Al11  1  0.711328  0.711328  0.244167  1
