# generated using pymatgen
data_CsLi3TbDyS5
_symmetry_space_group_name_H-M   'P 1'
_cell_length_a   4.04053400
_cell_length_b   7.64825629
_cell_length_c   16.95386800
_cell_angle_alpha   90.00000000
_cell_angle_beta   90.00000000
_cell_angle_gamma   74.68370278
_symmetry_Int_Tables_number   1
_chemical_formula_structural   CsLi3TbDyS5
_chemical_formula_sum   'Cs2 Li6 Tb2 Dy2 S10'
_cell_volume   505.31741794
_cell_formula_units_Z   2
loop_
 _symmetry_equiv_pos_site_id
 _symmetry_equiv_pos_as_xyz
  1  'x, y, z'
loop_
 _atom_site_type_symbol
 _atom_site_label
 _atom_site_symmetry_multiplicity
 _atom_site_fract_x
 _atom_site_fract_y
 _atom_site_fract_z
 _atom_site_occupancy
  Cs  Cs0  1  0.931339  0.137320  0.250000  1
  Cs  Cs1  1  0.068660  0.862681  0.750000  1
  Li  Li2  1  0.420135  0.159730  0.042042  1
  Li  Li3  1  0.644286  0.711429  0.250000  1
  Li  Li4  1  0.420135  0.159730  0.457958  1
  Li  Li5  1  0.579842  0.840314  0.542138  1
  Li  Li6  1  0.355656  0.288688  0.750000  1
  Li  Li7  1  0.579842  0.840314  0.957862  1
  Tb  Tb8  1  0.194834  0.610331  0.094155  1
  Tb  Tb9  1  0.194834  0.610331  0.405845  1
  Dy  Dy10  1  0.805238  0.389523  0.594336  1
  Dy  Dy11  1  0.805238  0.389523  0.905664  1
  S  S12  1  0.824542  0.350918  0.067274  1
  S  S13  1  0.570140  0.859718  0.109149  1
  S  S14  1  0.231018  0.537961  0.250000  1
  S  S15  1  0.570140  0.859718  0.390851  1
  S  S16  1  0.824542  0.350918  0.432726  1
  S  S17  1  0.175902  0.648196  0.567864  1
  S  S18  1  0.429261  0.141479  0.609051  1
  S  S19  1  0.769252  0.461496  0.750000  1
  S  S20  1  0.429261  0.141479  0.890949  1
  S  S21  1  0.175902  0.648196  0.932136  1
