# generated using pymatgen
data_SrNdAu4(SO4)8
_symmetry_space_group_name_H-M   'P 1'
_cell_length_a   9.40418638
_cell_length_b   9.40418723
_cell_length_c   10.47371100
_cell_angle_alpha   76.41505266
_cell_angle_beta   76.41505143
_cell_angle_gamma   116.41418170
_symmetry_Int_Tables_number   1
_chemical_formula_structural   SrNdAu4(SO4)8
_chemical_formula_sum   'Sr1 Nd1 Au4 S8 O32'
_cell_volume   742.57045002
_cell_formula_units_Z   1
loop_
 _symmetry_equiv_pos_site_id
 _symmetry_equiv_pos_as_xyz
  1  'x, y, z'
loop_
 _atom_site_type_symbol
 _atom_site_label
 _atom_site_symmetry_multiplicity
 _atom_site_fract_x
 _atom_site_fract_y
 _atom_site_fract_z
 _atom_site_occupancy
  Sr  Sr0  1  0.871964  0.128036  0.750000  1
  Nd  Nd1  1  0.126856  0.873144  0.250000  1
  Au  Au2  1  0.499061  0.500362  0.008761  1
  Au  Au3  1  0.499638  0.500939  0.491239  1
  Au  Au4  1  0.991369  0.489142  0.010011  1
  Au  Au5  1  0.510858  0.008631  0.489989  1
  S  S6  1  0.856592  0.739530  0.009182  1
  S  S7  1  0.260470  0.143408  0.490818  1
  S  S8  1  0.144711  0.256831  0.001801  1
  S  S9  1  0.743169  0.855289  0.498199  1
  S  S10  1  0.619062  0.228075  0.036298  1
  S  S11  1  0.771925  0.380938  0.463702  1
  S  S12  1  0.364837  0.760803  0.975872  1
  S  S13  1  0.239197  0.635163  0.524128  1
  O  O14  1  0.672817  0.593758  0.107957  1
  O  O15  1  0.406242  0.327183  0.392043  1
  O  O16  1  0.327710  0.407544  0.908821  1
  O  O17  1  0.592456  0.672290  0.591179  1
  O  O18  1  0.943211  0.669963  0.918380  1
  O  O19  1  0.330037  0.056789  0.581620  1
  O  O20  1  0.048006  0.312960  0.099211  1
  O  O21  1  0.687040  0.951994  0.400789  1
  O  O22  1  0.855620  0.869958  0.903928  1
  O  O23  1  0.130042  0.144380  0.596072  1
  O  O24  1  0.151351  0.125495  0.104280  1
  O  O25  1  0.874505  0.848649  0.395720  1
  O  O26  1  0.946230  0.796901  0.100284  1
  O  O27  1  0.203099  0.053770  0.399716  1
  O  O28  1  0.061941  0.202444  0.907549  1
  O  O29  1  0.797556  0.938059  0.592451  1
  O  O30  1  0.733239  0.306739  0.114815  1
  O  O31  1  0.693261  0.266761  0.385185  1
  O  O32  1  0.246860  0.672965  0.903101  1
  O  O33  1  0.327035  0.753140  0.596899  1
  O  O34  1  0.607794  0.366693  0.937746  1
  O  O35  1  0.633307  0.392206  0.562254  1
  O  O36  1  0.383494  0.630979  0.076917  1
  O  O37  1  0.369021  0.616506  0.423083  1
  O  O38  1  0.451464  0.096145  0.151902  1
  O  O39  1  0.903855  0.548536  0.348098  1
  O  O40  1  0.525851  0.894672  0.858094  1
  O  O41  1  0.105328  0.474149  0.641906  1
  O  O42  1  0.697301  0.166178  0.945043  1
  O  O43  1  0.833822  0.302699  0.554957  1
  O  O44  1  0.280490  0.819694  0.068904  1
  O  O45  1  0.180306  0.719510  0.431096  1
