# generated using pymatgen
data_LiCa3Sb2H
_symmetry_space_group_name_H-M   'P 1'
_cell_length_a   4.54392600
_cell_length_b   12.09373500
_cell_length_c   12.37145100
_cell_angle_alpha   90.00000000
_cell_angle_beta   90.00000000
_cell_angle_gamma   90.00000000
_symmetry_Int_Tables_number   1
_chemical_formula_structural   LiCa3Sb2H
_chemical_formula_sum   'Li4 Ca12 Sb8 H4'
_cell_volume   679.84880335
_cell_formula_units_Z   4
loop_
 _symmetry_equiv_pos_site_id
 _symmetry_equiv_pos_as_xyz
  1  'x, y, z'
loop_
 _atom_site_type_symbol
 _atom_site_label
 _atom_site_symmetry_multiplicity
 _atom_site_fract_x
 _atom_site_fract_y
 _atom_site_fract_z
 _atom_site_occupancy
  Li  Li0  1  0.250000  0.134532  0.860454  1
  Li  Li1  1  0.250000  0.634532  0.639546  1
  Li  Li2  1  0.750000  0.865468  0.139546  1
  Li  Li3  1  0.750000  0.365468  0.360454  1
  Ca  Ca4  1  0.250000  0.061616  0.624511  1
  Ca  Ca5  1  0.250000  0.561616  0.875489  1
  Ca  Ca6  1  0.750000  0.938384  0.375489  1
  Ca  Ca7  1  0.750000  0.438384  0.124511  1
  Ca  Ca8  1  0.250000  0.362301  0.563472  1
  Ca  Ca9  1  0.250000  0.862301  0.936528  1
  Ca  Ca10  1  0.750000  0.637699  0.436528  1
  Ca  Ca11  1  0.750000  0.137699  0.063472  1
  Ca  Ca12  1  0.250000  0.215173  0.291773  1
  Ca  Ca13  1  0.250000  0.715173  0.208227  1
  Ca  Ca14  1  0.750000  0.784827  0.708227  1
  Ca  Ca15  1  0.750000  0.284827  0.791773  1
  Sb  Sb16  1  0.250000  0.482855  0.322991  1
  Sb  Sb17  1  0.250000  0.982855  0.177009  1
  Sb  Sb18  1  0.750000  0.517145  0.677009  1
  Sb  Sb19  1  0.750000  0.017145  0.822991  1
  Sb  Sb20  1  0.250000  0.316550  0.988340  1
  Sb  Sb21  1  0.250000  0.816550  0.511660  1
  Sb  Sb22  1  0.750000  0.683450  0.011660  1
  Sb  Sb23  1  0.750000  0.183450  0.488340  1
  H  H24  1  0.250000  0.235083  0.720512  1
  H  H25  1  0.250000  0.735083  0.779488  1
  H  H26  1  0.750000  0.764917  0.279488  1
  H  H27  1  0.750000  0.264917  0.220512  1
