# generated using pymatgen
data_Li4La3NdSi8
_symmetry_space_group_name_H-M   'P 1'
_cell_length_a   3.90922300
_cell_length_b   7.80837438
_cell_length_c   10.68546000
_cell_angle_alpha   90.03329697
_cell_angle_beta   90.00000000
_cell_angle_gamma   90.00000000
_symmetry_Int_Tables_number   1
_chemical_formula_structural   Li4La3NdSi8
_chemical_formula_sum   'Li4 La3 Nd1 Si8'
_cell_volume   326.17015706
_cell_formula_units_Z   1
loop_
 _symmetry_equiv_pos_site_id
 _symmetry_equiv_pos_as_xyz
  1  'x, y, z'
loop_
 _atom_site_type_symbol
 _atom_site_label
 _atom_site_symmetry_multiplicity
 _atom_site_fract_x
 _atom_site_fract_y
 _atom_site_fract_z
 _atom_site_occupancy
  Li  Li0  1  0.250000  0.996781  0.390579  1
  Li  Li1  1  0.750000  0.004243  0.608392  1
  Li  Li2  1  0.250000  0.496235  0.111368  1
  Li  Li3  1  0.750000  0.503365  0.890381  1
  La  La4  1  0.250000  0.136688  0.865016  1
  La  La5  1  0.750000  0.862267  0.135531  1
  La  La6  1  0.250000  0.636533  0.634876  1
  Nd  Nd7  1  0.750000  0.366116  0.364887  1
  Si  Si8  1  0.750000  0.276507  0.074252  1
  Si  Si9  1  0.250000  0.725058  0.927654  1
  Si  Si10  1  0.750000  0.771091  0.428118  1
  Si  Si11  1  0.250000  0.226648  0.569821  1
  Si  Si12  1  0.750000  0.831621  0.822174  1
  Si  Si13  1  0.250000  0.168011  0.179226  1
  Si  Si14  1  0.750000  0.332948  0.675776  1
  Si  Si15  1  0.250000  0.665887  0.321949  1
