# generated using pymatgen
data_Dy6Al24FeRuRh6
_symmetry_space_group_name_H-M   'P 1'
_cell_length_a   8.82051700
_cell_length_b   8.82051606
_cell_length_c   9.45542800
_cell_angle_alpha   90.00000000
_cell_angle_beta   90.00000000
_cell_angle_gamma   119.99999977
_symmetry_Int_Tables_number   1
_chemical_formula_structural   Dy6Al24FeRuRh6
_chemical_formula_sum   'Dy6 Al24 Fe1 Ru1 Rh6'
_cell_volume   637.08863977
_cell_formula_units_Z   1
loop_
 _symmetry_equiv_pos_site_id
 _symmetry_equiv_pos_as_xyz
  1  'x, y, z'
loop_
 _atom_site_type_symbol
 _atom_site_label
 _atom_site_symmetry_multiplicity
 _atom_site_fract_x
 _atom_site_fract_y
 _atom_site_fract_z
 _atom_site_occupancy
  Dy  Dy0  1  0.192085  0.807915  0.249511  1
  Dy  Dy1  1  0.192085  0.384170  0.249511  1
  Dy  Dy2  1  0.615830  0.807915  0.249511  1
  Dy  Dy3  1  0.807915  0.192085  0.750489  1
  Dy  Dy4  1  0.807915  0.615830  0.750489  1
  Dy  Dy5  1  0.384170  0.192085  0.750489  1
  Al  Al6  1  0.562225  0.437775  0.249669  1
  Al  Al7  1  0.562225  0.124450  0.249669  1
  Al  Al8  1  0.875550  0.437775  0.249669  1
  Al  Al9  1  0.437775  0.562225  0.750331  1
  Al  Al10  1  0.437775  0.875550  0.750331  1
  Al  Al11  1  0.124450  0.562225  0.750331  1
  Al  Al12  1  0.320444  0.160222  0.425071  1
  Al  Al13  1  0.839778  0.160222  0.425071  1
  Al  Al14  1  0.839778  0.679556  0.425071  1
  Al  Al15  1  0.679556  0.839778  0.574929  1
  Al  Al16  1  0.160222  0.839778  0.574929  1
  Al  Al17  1  0.160222  0.320444  0.574929  1
  Al  Al18  1  0.674743  0.837371  0.924616  1
  Al  Al19  1  0.162629  0.837371  0.924616  1
  Al  Al20  1  0.162629  0.325257  0.924616  1
  Al  Al21  1  0.325257  0.162629  0.075384  1
  Al  Al22  1  0.837371  0.162629  0.075384  1
  Al  Al23  1  0.837371  0.674743  0.075384  1
  Al  Al24  1  0.666667  0.333333  0.527479  1
  Al  Al25  1  0.333333  0.666667  0.472521  1
  Al  Al26  1  0.333333  0.666667  0.028824  1
  Al  Al27  1  0.666667  0.333333  0.971176  1
  Al  Al28  1  0.000000  0.000000  0.255933  1
  Al  Al29  1  0.000000  0.000000  0.744067  1
  Fe  Fe30  1  0.000000  0.000000  0.500000  1
  Ru  Ru31  1  0.000000  0.000000  0.000000  1
  Rh  Rh32  1  0.500000  0.500000  0.500000  1
  Rh  Rh33  1  0.500000  0.000000  0.500000  1
  Rh  Rh34  1  0.000000  0.500000  0.500000  1
  Rh  Rh35  1  0.500000  0.500000  0.000000  1
  Rh  Rh36  1  0.500000  0.000000  0.000000  1
  Rh  Rh37  1  0.000000  0.500000  0.000000  1
