# generated using pymatgen
data_HoTm7Re(B8Ir)3
_symmetry_space_group_name_H-M   'P 1'
_cell_length_a   3.62815600
_cell_length_b   9.11532967
_cell_length_c   11.44943703
_cell_angle_alpha   90.14793000
_cell_angle_beta   90.00000000
_cell_angle_gamma   90.00000000
_symmetry_Int_Tables_number   1
_chemical_formula_structural   HoTm7Re(B8Ir)3
_chemical_formula_sum   'Ho1 Tm7 Re1 B24 Ir3'
_cell_volume   378.65266491
_cell_formula_units_Z   1
loop_
 _symmetry_equiv_pos_site_id
 _symmetry_equiv_pos_as_xyz
  1  'x, y, z'
loop_
 _atom_site_type_symbol
 _atom_site_label
 _atom_site_symmetry_multiplicity
 _atom_site_fract_x
 _atom_site_fract_y
 _atom_site_fract_z
 _atom_site_occupancy
  Ho  Ho0  1  0.000000  0.320497  0.413761  1
  Tm  Tm1  1  0.000000  0.683942  0.590656  1
  Tm  Tm2  1  0.000000  0.820202  0.082402  1
  Tm  Tm3  1  0.000000  0.176142  0.912312  1
  Tm  Tm4  1  0.000000  0.943563  0.373299  1
  Tm  Tm5  1  0.000000  0.053595  0.626411  1
  Tm  Tm6  1  0.000000  0.443575  0.125903  1
  Tm  Tm7  1  0.000000  0.557415  0.874987  1
  Re  Re8  1  0.000000  0.862548  0.821370  1
  B  B9  1  0.500000  0.553966  0.434652  1
  B  B10  1  0.500000  0.447879  0.566530  1
  B  B11  1  0.500000  0.053341  0.065926  1
  B  B12  1  0.500000  0.946933  0.933660  1
  B  B13  1  0.500000  0.750493  0.420919  1
  B  B14  1  0.500000  0.250023  0.579286  1
  B  B15  1  0.500000  0.249308  0.078628  1
  B  B16  1  0.500000  0.751433  0.920157  1
  B  B17  1  0.500000  0.792615  0.264427  1
  B  B18  1  0.500000  0.207329  0.733994  1
  B  B19  1  0.500000  0.293251  0.235009  1
  B  B20  1  0.500000  0.707506  0.765856  1
  B  B21  1  0.500000  0.631179  0.183879  1
  B  B22  1  0.500000  0.368242  0.816170  1
  B  B23  1  0.500000  0.131582  0.315763  1
  B  B24  1  0.500000  0.868952  0.685108  1
  B  B25  1  0.500000  0.980973  0.212863  1
  B  B26  1  0.500000  0.017996  0.786633  1
  B  B27  1  0.500000  0.481121  0.287141  1
  B  B28  1  0.500000  0.518690  0.713966  1
  B  B29  1  0.500000  0.607344  0.030711  1
  B  B30  1  0.500000  0.390275  0.970410  1
  B  B31  1  0.500000  0.108046  0.469822  1
  B  B32  1  0.500000  0.892271  0.528519  1
  Ir  Ir33  1  0.000000  0.637713  0.322111  1
  Ir  Ir34  1  0.000000  0.362694  0.678470  1
  Ir  Ir35  1  0.000000  0.137369  0.178286  1
