# generated using pymatgen
data_BaNiMoP2
_symmetry_space_group_name_H-M   'P 1'
_cell_length_a   7.02130259
_cell_length_b   7.02130300
_cell_length_c   7.02130254
_cell_angle_alpha   147.16172355
_cell_angle_beta   147.16172832
_cell_angle_gamma   47.12438357
_symmetry_Int_Tables_number   1
_chemical_formula_structural   BaNiMoP2
_chemical_formula_sum   'Ba1 Ni1 Mo1 P2'
_cell_volume   101.40047849
_cell_formula_units_Z   1
loop_
 _symmetry_equiv_pos_site_id
 _symmetry_equiv_pos_as_xyz
  1  'x, y, z'
loop_
 _atom_site_type_symbol
 _atom_site_label
 _atom_site_symmetry_multiplicity
 _atom_site_fract_x
 _atom_site_fract_y
 _atom_site_fract_z
 _atom_site_occupancy
  Ba  Ba0  1  0.000000  0.000000  0.000000  1
  Ni  Ni1  1  0.250000  0.750000  0.500000  1
  Mo  Mo2  1  0.750000  0.250000  0.500000  1
  P  P3  1  0.651767  0.651767  0.000000  1
  P  P4  1  0.348233  0.348233  0.000000  1
