# generated using pymatgen
data_SmMgTl(Si3Pd10)2
_symmetry_space_group_name_H-M   'P 1'
_cell_length_a   8.68269710
_cell_length_b   8.68269699
_cell_length_c   8.68269700
_cell_angle_alpha   59.99999616
_cell_angle_beta   59.99999656
_cell_angle_gamma   59.99999510
_symmetry_Int_Tables_number   1
_chemical_formula_structural   SmMgTl(Si3Pd10)2
_chemical_formula_sum   'Sm1 Mg1 Tl1 Si6 Pd20'
_cell_volume   462.85920369
_cell_formula_units_Z   1
loop_
 _symmetry_equiv_pos_site_id
 _symmetry_equiv_pos_as_xyz
  1  'x, y, z'
loop_
 _atom_site_type_symbol
 _atom_site_label
 _atom_site_symmetry_multiplicity
 _atom_site_fract_x
 _atom_site_fract_y
 _atom_site_fract_z
 _atom_site_occupancy
  Sm  Sm0  1  0.750000  0.750000  0.750000  1
  Mg  Mg1  1  0.000000  0.000000  0.000000  1
  Tl  Tl2  1  0.250000  0.250000  0.250000  1
  Si  Si3  1  0.731478  0.268522  0.268522  1
  Si  Si4  1  0.268522  0.731478  0.731478  1
  Si  Si5  1  0.268522  0.731478  0.268522  1
  Si  Si6  1  0.731478  0.268522  0.731478  1
  Si  Si7  1  0.268522  0.268522  0.731478  1
  Si  Si8  1  0.731478  0.731478  0.268522  1
  Pd  Pd9  1  0.380601  0.380601  0.380601  1
  Pd  Pd10  1  0.614555  0.614555  0.614555  1
  Pd  Pd11  1  0.380601  0.380601  0.858196  1
  Pd  Pd12  1  0.380601  0.858196  0.380601  1
  Pd  Pd13  1  0.614555  0.614555  0.156337  1
  Pd  Pd14  1  0.614555  0.156337  0.614555  1
  Pd  Pd15  1  0.858196  0.380601  0.380601  1
  Pd  Pd16  1  0.156337  0.614555  0.614555  1
  Pd  Pd17  1  0.344623  0.997379  0.997379  1
  Pd  Pd18  1  0.660618  0.997379  0.997379  1
  Pd  Pd19  1  0.997379  0.344623  0.660618  1
  Pd  Pd20  1  0.997379  0.660618  0.344623  1
  Pd  Pd21  1  0.997379  0.344623  0.997379  1
  Pd  Pd22  1  0.660618  0.997379  0.344623  1
  Pd  Pd23  1  0.997379  0.660618  0.997379  1
  Pd  Pd24  1  0.344623  0.997379  0.660618  1
  Pd  Pd25  1  0.997379  0.997379  0.344623  1
  Pd  Pd26  1  0.997379  0.997379  0.660618  1
  Pd  Pd27  1  0.660618  0.344623  0.997379  1
  Pd  Pd28  1  0.344623  0.660618  0.997379  1
