# generated using pymatgen
data_Li2TbNd(SiO4)2
_symmetry_space_group_name_H-M   'P 1'
_cell_length_a   6.32714410
_cell_length_b   5.51873732
_cell_length_c   11.10110646
_cell_angle_alpha   66.58554935
_cell_angle_beta   90.48590931
_cell_angle_gamma   90.40903142
_symmetry_Int_Tables_number   1
_chemical_formula_structural   Li2TbNd(SiO4)2
_chemical_formula_sum   'Li4 Tb2 Nd2 Si4 O16'
_cell_volume   355.69159327
_cell_formula_units_Z   2
loop_
 _symmetry_equiv_pos_site_id
 _symmetry_equiv_pos_as_xyz
  1  'x, y, z'
loop_
 _atom_site_type_symbol
 _atom_site_label
 _atom_site_symmetry_multiplicity
 _atom_site_fract_x
 _atom_site_fract_y
 _atom_site_fract_z
 _atom_site_occupancy
  Li  Li0  1  0.134336  0.919947  0.429596  1
  Li  Li1  1  0.633186  0.077263  0.071558  1
  Li  Li2  1  0.865664  0.080053  0.570404  1
  Li  Li3  1  0.366814  0.922737  0.928442  1
  Tb  Tb4  1  0.615487  0.556583  0.649782  1
  Tb  Tb5  1  0.384513  0.443417  0.350218  1
  Nd  Nd6  1  0.117778  0.444095  0.846463  1
  Nd  Nd7  1  0.882222  0.555905  0.153537  1
  Si  Si8  1  0.647406  0.903852  0.361519  1
  Si  Si9  1  0.352594  0.096148  0.638481  1
  Si  Si10  1  0.157109  0.090831  0.144366  1
  Si  Si11  1  0.842891  0.909169  0.855634  1
  O  O12  1  0.850503  0.231108  0.772747  1
  O  O13  1  0.635103  0.225837  0.281228  1
  O  O14  1  0.165894  0.182346  0.525036  1
  O  O15  1  0.830463  0.763633  0.750928  1
  O  O16  1  0.149497  0.768892  0.227253  1
  O  O17  1  0.570482  0.229305  0.553231  1
  O  O18  1  0.655838  0.762116  0.255196  1
  O  O19  1  0.429518  0.770695  0.446769  1
  O  O20  1  0.066522  0.788753  0.938850  1
  O  O21  1  0.660695  0.822935  0.970089  1
  O  O22  1  0.169537  0.236367  0.249072  1
  O  O23  1  0.933478  0.211247  0.061150  1
  O  O24  1  0.339305  0.177065  0.029911  1
  O  O25  1  0.344162  0.237884  0.744804  1
  O  O26  1  0.364897  0.774163  0.718772  1
  O  O27  1  0.834106  0.817654  0.474964  1
