# generated using pymatgen
data_Ho13LuTh2(InRh)4
_symmetry_space_group_name_H-M   'P 1'
_cell_length_a   9.67226070
_cell_length_b   9.67225989
_cell_length_c   9.68220200
_cell_angle_alpha   59.96599152
_cell_angle_beta   59.96599430
_cell_angle_gamma   60.11227904
_symmetry_Int_Tables_number   1
_chemical_formula_structural   Ho13LuTh2(InRh)4
_chemical_formula_sum   'Ho13 Lu1 Th2 In4 Rh4'
_cell_volume   640.70549852
_cell_formula_units_Z   1
loop_
 _symmetry_equiv_pos_site_id
 _symmetry_equiv_pos_as_xyz
  1  'x, y, z'
loop_
 _atom_site_type_symbol
 _atom_site_label
 _atom_site_symmetry_multiplicity
 _atom_site_fract_x
 _atom_site_fract_y
 _atom_site_fract_z
 _atom_site_occupancy
  Ho  Ho0  1  0.602254  0.194502  0.601622  1
  Ho  Ho1  1  0.194502  0.602254  0.601622  1
  Ho  Ho2  1  0.062180  0.439659  0.438852  1
  Ho  Ho3  1  0.439659  0.062180  0.059309  1
  Ho  Ho4  1  0.439659  0.062180  0.438852  1
  Ho  Ho5  1  0.062180  0.439659  0.059309  1
  Ho  Ho6  1  0.437431  0.437431  0.062569  1
  Ho  Ho7  1  0.060019  0.060019  0.439981  1
  Ho  Ho8  1  0.186346  0.816254  0.812076  1
  Ho  Ho9  1  0.816254  0.186346  0.185324  1
  Ho  Ho10  1  0.816254  0.186346  0.812076  1
  Ho  Ho11  1  0.186346  0.816254  0.185324  1
  Ho  Ho12  1  0.813984  0.813984  0.186016  1
  Lu  Lu13  1  0.191692  0.191692  0.808308  1
  Th  Th14  1  0.595422  0.595422  0.599294  1
  Th  Th15  1  0.595422  0.595422  0.209863  1
  In  In16  1  0.834592  0.834592  0.832701  1
  In  In17  1  0.834592  0.834592  0.498115  1
  In  In18  1  0.834126  0.499027  0.833423  1
  In  In19  1  0.499027  0.834126  0.833423  1
  Rh  Rh20  1  0.390892  0.390892  0.396844  1
  Rh  Rh21  1  0.390892  0.390892  0.821371  1
  Rh  Rh22  1  0.394309  0.821963  0.391863  1
  Rh  Rh23  1  0.821963  0.394309  0.391863  1
