# generated using pymatgen
data_RbMnRhF6
_symmetry_space_group_name_H-M   'P 1'
_cell_length_a   5.56920077
_cell_length_b   5.56907267
_cell_length_c   6.09889641
_cell_angle_alpha   90.38083892
_cell_angle_beta   90.35156262
_cell_angle_gamma   119.65775496
_symmetry_Int_Tables_number   1
_chemical_formula_structural   RbMnRhF6
_chemical_formula_sum   'Rb1 Mn1 Rh1 F6'
_cell_volume   164.36522861
_cell_formula_units_Z   1
loop_
 _symmetry_equiv_pos_site_id
 _symmetry_equiv_pos_as_xyz
  1  'x, y, z'
loop_
 _atom_site_type_symbol
 _atom_site_label
 _atom_site_symmetry_multiplicity
 _atom_site_fract_x
 _atom_site_fract_y
 _atom_site_fract_z
 _atom_site_occupancy
  Rb  Rb0  1  0.483297  0.516877  0.500110  1
  Mn  Mn1  1  0.149623  0.850403  0.000170  1
  Rh  Rh2  1  0.815004  0.185012  0.999961  1
  F  F3  1  0.505008  0.899780  0.184003  1
  F  F4  1  0.109145  0.163834  0.180671  1
  F  F5  1  0.844487  0.503662  0.182190  1
  F  F6  1  0.496164  0.155075  0.817744  1
  F  F7  1  0.836538  0.891115  0.819218  1
  F  F8  1  0.100055  0.494913  0.815934  1
