# generated using pymatgen
data_Ho10GaBi5
_symmetry_space_group_name_H-M   'P 1'
_cell_length_a   8.15228200
_cell_length_b   9.41545900
_cell_length_c   11.96033700
_cell_angle_alpha   90.00000000
_cell_angle_beta   90.00000000
_cell_angle_gamma   90.00000000
_symmetry_Int_Tables_number   1
_chemical_formula_structural   Ho10GaBi5
_chemical_formula_sum   'Ho20 Ga2 Bi10'
_cell_volume   918.04529132
_cell_formula_units_Z   2
loop_
 _symmetry_equiv_pos_site_id
 _symmetry_equiv_pos_as_xyz
  1  'x, y, z'
loop_
 _atom_site_type_symbol
 _atom_site_label
 _atom_site_symmetry_multiplicity
 _atom_site_fract_x
 _atom_site_fract_y
 _atom_site_fract_z
 _atom_site_occupancy
  Ho  Ho0  1  0.354363  0.750000  0.206545  1
  Ho  Ho1  1  0.854363  0.750000  0.293455  1
  Ho  Ho2  1  0.651724  0.250000  0.784294  1
  Ho  Ho3  1  0.151724  0.250000  0.715706  1
  Ho  Ho4  1  0.685309  0.569751  0.055851  1
  Ho  Ho5  1  0.185309  0.930249  0.444149  1
  Ho  Ho6  1  0.307922  0.050253  0.940954  1
  Ho  Ho7  1  0.807922  0.449747  0.559046  1
  Ho  Ho8  1  0.307922  0.449747  0.940954  1
  Ho  Ho9  1  0.807922  0.050253  0.559046  1
  Ho  Ho10  1  0.685309  0.930249  0.055851  1
  Ho  Ho11  1  0.185309  0.569751  0.444149  1
  Ho  Ho12  1  0.478060  0.250000  0.489861  1
  Ho  Ho13  1  0.978060  0.250000  0.010139  1
  Ho  Ho14  1  0.535371  0.750000  0.509852  1
  Ho  Ho15  1  0.035371  0.750000  0.990148  1
  Ho  Ho16  1  0.312313  0.250000  0.219189  1
  Ho  Ho17  1  0.812313  0.250000  0.280811  1
  Ho  Ho18  1  0.679611  0.750000  0.784127  1
  Ho  Ho19  1  0.179611  0.750000  0.715873  1
  Ga  Ga20  1  0.410263  0.750000  0.958873  1
  Ga  Ga21  1  0.910263  0.750000  0.541127  1
  Bi  Bi22  1  0.592388  0.250000  0.042305  1
  Bi  Bi23  1  0.092388  0.250000  0.457695  1
  Bi  Bi24  1  0.562264  0.996763  0.324362  1
  Bi  Bi25  1  0.062264  0.503237  0.175638  1
  Bi  Bi26  1  0.437457  0.497943  0.676683  1
  Bi  Bi27  1  0.937457  0.002057  0.823317  1
  Bi  Bi28  1  0.437457  0.002057  0.676683  1
  Bi  Bi29  1  0.937457  0.497943  0.823317  1
  Bi  Bi30  1  0.562264  0.503237  0.324362  1
  Bi  Bi31  1  0.062264  0.996763  0.175638  1
