# generated using pymatgen
data_Sm7PaGaPd24
_symmetry_space_group_name_H-M   'P 1'
_cell_length_a   8.43486953
_cell_length_b   8.43486953
_cell_length_c   8.43486953
_cell_angle_alpha   89.80843482
_cell_angle_beta   89.80843482
_cell_angle_gamma   89.80843482
_symmetry_Int_Tables_number   1
_chemical_formula_structural   Sm7PaGaPd24
_chemical_formula_sum   'Sm7 Pa1 Ga1 Pd24'
_cell_volume   600.10582518
_cell_formula_units_Z   1
loop_
 _symmetry_equiv_pos_site_id
 _symmetry_equiv_pos_as_xyz
  1  'x, y, z'
loop_
 _atom_site_type_symbol
 _atom_site_label
 _atom_site_symmetry_multiplicity
 _atom_site_fract_x
 _atom_site_fract_y
 _atom_site_fract_z
 _atom_site_occupancy
  Sm  Sm0  1  0.747378  0.747378  0.747378  1
  Sm  Sm1  1  0.747574  0.747574  0.252016  1
  Sm  Sm2  1  0.747574  0.252016  0.747574  1
  Sm  Sm3  1  0.252131  0.252131  0.749560  1
  Sm  Sm4  1  0.252131  0.749560  0.252131  1
  Sm  Sm5  1  0.252016  0.747574  0.747574  1
  Sm  Sm6  1  0.749560  0.252131  0.252131  1
  Pa  Pa7  1  0.254606  0.254606  0.254606  1
  Ga  Ga8  1  0.997853  0.997853  0.997853  1
  Pd  Pd9  1  0.260031  0.496619  0.005575  1
  Pd  Pd10  1  0.740141  0.499045  0.000097  1
  Pd  Pd11  1  0.005575  0.260031  0.496619  1
  Pd  Pd12  1  0.496619  0.260031  0.005575  1
  Pd  Pd13  1  0.000097  0.740141  0.499045  1
  Pd  Pd14  1  0.499045  0.740141  0.000097  1
  Pd  Pd15  1  0.496619  0.005575  0.260031  1
  Pd  Pd16  1  0.260031  0.005575  0.496619  1
  Pd  Pd17  1  0.499045  0.000097  0.740141  1
  Pd  Pd18  1  0.740141  0.000097  0.499045  1
  Pd  Pd19  1  0.005575  0.496619  0.260031  1
  Pd  Pd20  1  0.000097  0.499045  0.740141  1
  Pd  Pd21  1  0.253297  0.496379  0.496379  1
  Pd  Pd22  1  0.747369  0.499403  0.499403  1
  Pd  Pd23  1  0.496379  0.253297  0.496379  1
  Pd  Pd24  1  0.499403  0.747369  0.499403  1
  Pd  Pd25  1  0.496379  0.496379  0.253297  1
  Pd  Pd26  1  0.499403  0.499403  0.747369  1
  Pd  Pd27  1  0.290087  0.003381  0.003381  1
  Pd  Pd28  1  0.707258  0.999911  0.999911  1
  Pd  Pd29  1  0.003381  0.290087  0.003381  1
  Pd  Pd30  1  0.999911  0.707258  0.999911  1
  Pd  Pd31  1  0.003381  0.003381  0.290087  1
  Pd  Pd32  1  0.999911  0.999911  0.707258  1
