# generated using pymatgen
data_Ba8Ca16Re7WN32
_symmetry_space_group_name_H-M   'P 1'
_cell_length_a   9.38046872
_cell_length_b   10.26069964
_cell_length_c   11.78600922
_cell_angle_alpha   89.99285072
_cell_angle_beta   90.02087839
_cell_angle_gamma   90.03970364
_symmetry_Int_Tables_number   1
_chemical_formula_structural   Ba8Ca16Re7WN32
_chemical_formula_sum   'Ba8 Ca16 Re7 W1 N32'
_cell_volume   1134.40505761
_cell_formula_units_Z   1
loop_
 _symmetry_equiv_pos_site_id
 _symmetry_equiv_pos_as_xyz
  1  'x, y, z'
loop_
 _atom_site_type_symbol
 _atom_site_label
 _atom_site_symmetry_multiplicity
 _atom_site_fract_x
 _atom_site_fract_y
 _atom_site_fract_z
 _atom_site_occupancy
  Ba  Ba0  1  0.182352  0.737750  0.877158  1
  Ba  Ba1  1  0.820045  0.262617  0.123529  1
  Ba  Ba2  1  0.318352  0.238986  0.124579  1
  Ba  Ba3  1  0.819756  0.761700  0.376741  1
  Ba  Ba4  1  0.681559  0.762503  0.875914  1
  Ba  Ba5  1  0.181587  0.237408  0.623785  1
  Ba  Ba6  1  0.681496  0.262438  0.623853  1
  Ba  Ba7  1  0.318870  0.737346  0.376263  1
  Ca  Ca8  1  0.032238  0.620473  0.604086  1
  Ca  Ca9  1  0.967808  0.379585  0.396407  1
  Ca  Ca10  1  0.467978  0.120190  0.396966  1
  Ca  Ca11  1  0.965825  0.878276  0.103572  1
  Ca  Ca12  1  0.532211  0.879483  0.603173  1
  Ca  Ca13  1  0.032495  0.120558  0.895735  1
  Ca  Ca14  1  0.531442  0.380107  0.896405  1
  Ca  Ca15  1  0.468391  0.620749  0.103073  1
  Ca  Ca16  1  0.380267  0.541155  0.631865  1
  Ca  Ca17  1  0.620441  0.459629  0.368654  1
  Ca  Ca18  1  0.121418  0.040550  0.367412  1
  Ca  Ca19  1  0.620869  0.959064  0.132323  1
  Ca  Ca20  1  0.879970  0.959435  0.631488  1
  Ca  Ca21  1  0.378703  0.039522  0.868985  1
  Ca  Ca22  1  0.879629  0.459811  0.868385  1
  Ca  Ca23  1  0.120620  0.541661  0.131536  1
  Re  Re24  1  0.199235  0.903049  0.612052  1
  Re  Re25  1  0.800852  0.097044  0.387777  1
  Re  Re26  1  0.300796  0.403482  0.388177  1
  Re  Re27  1  0.800845  0.596612  0.111952  1
  Re  Re28  1  0.699490  0.596963  0.612229  1
  Re  Re29  1  0.199138  0.402473  0.887783  1
  Re  Re30  1  0.698684  0.097500  0.887618  1
  W  W31  1  0.299688  0.902761  0.112660  1
  N  N32  1  0.300062  0.761417  0.666962  1
  N  N33  1  0.699749  0.238067  0.332909  1
  N  N34  1  0.199382  0.262018  0.333533  1
  N  N35  1  0.702703  0.739219  0.167039  1
  N  N36  1  0.800222  0.738588  0.666585  1
  N  N37  1  0.299524  0.260844  0.833490  1
  N  N38  1  0.801339  0.237191  0.832860  1
  N  N39  1  0.193814  0.761235  0.168771  1
  N  N40  1  0.319157  0.509039  0.974021  1
  N  N41  1  0.680768  0.490326  0.025655  1
  N  N42  1  0.178238  0.010252  0.025628  1
  N  N43  1  0.681217  0.990176  0.474260  1
  N  N44  1  0.818917  0.990894  0.973504  1
  N  N45  1  0.319404  0.009939  0.526039  1
  N  N46  1  0.819180  0.490120  0.525370  1
  N  N47  1  0.180126  0.509552  0.473768  1
  N  N48  1  0.114367  0.495835  0.768370  1
  N  N49  1  0.885566  0.503823  0.231478  1
  N  N50  1  0.388293  0.997912  0.231897  1
  N  N51  1  0.885292  0.003542  0.269061  1
  N  N52  1  0.612897  0.003980  0.768485  1
  N  N53  1  0.114385  0.996032  0.731314  1
  N  N54  1  0.614896  0.503772  0.731926  1
  N  N55  1  0.386576  0.495154  0.268474  1
  N  N56  1  0.059223  0.844819  0.513040  1
  N  N57  1  0.940686  0.155538  0.486729  1
  N  N58  1  0.441023  0.345501  0.486697  1
  N  N59  1  0.939883  0.654215  0.011908  1
  N  N60  1  0.560014  0.655536  0.512700  1
  N  N61  1  0.058365  0.344906  0.986245  1
  N  N62  1  0.558991  0.156114  0.985979  1
  N  N63  1  0.442690  0.843566  0.013166  1
