# generated using pymatgen
data_Ce4HoEr5(Sn3Au)2
_symmetry_space_group_name_H-M   'P 1'
_cell_length_a   9.35525900
_cell_length_b   9.35547357
_cell_length_c   6.41889700
_cell_angle_alpha   90.00000000
_cell_angle_beta   90.00000000
_cell_angle_gamma   119.99923779
_symmetry_Int_Tables_number   1
_chemical_formula_structural   Ce4HoEr5(Sn3Au)2
_chemical_formula_sum   'Ce4 Ho1 Er5 Sn6 Au2'
_cell_volume   486.53710378
_cell_formula_units_Z   1
loop_
 _symmetry_equiv_pos_site_id
 _symmetry_equiv_pos_as_xyz
  1  'x, y, z'
loop_
 _atom_site_type_symbol
 _atom_site_label
 _atom_site_symmetry_multiplicity
 _atom_site_fract_x
 _atom_site_fract_y
 _atom_site_fract_z
 _atom_site_occupancy
  Ce  Ce0  1  0.333353  0.666619  0.499966  1
  Ce  Ce1  1  0.666735  0.333381  0.499966  1
  Ce  Ce2  1  0.666735  0.333381  0.000034  1
  Ce  Ce3  1  0.333353  0.666619  0.000034  1
  Ho  Ho4  1  0.270936  0.000000  0.750000  1
  Er  Er5  1  0.729183  0.000000  0.250000  1
  Er  Er6  1  0.000061  0.270804  0.750000  1
  Er  Er7  1  0.999998  0.729174  0.250000  1
  Er  Er8  1  0.729258  0.729196  0.750000  1
  Er  Er9  1  0.270824  0.270826  0.250000  1
  Sn  Sn10  1  0.621263  0.000000  0.750000  1
  Sn  Sn11  1  0.378910  0.000000  0.250000  1
  Sn  Sn12  1  0.999908  0.620939  0.750000  1
  Sn  Sn13  1  0.000018  0.378906  0.250000  1
  Sn  Sn14  1  0.378969  0.379061  0.750000  1
  Sn  Sn15  1  0.621112  0.621094  0.250000  1
  Au  Au16  1  0.999693  0.000000  0.499753  1
  Au  Au17  1  0.999693  0.000000  0.000247  1
