# generated using pymatgen
data_Y3Ho5In3Ir
_symmetry_space_group_name_H-M   'P 1'
_cell_length_a   10.39220200
_cell_length_b   10.39220156
_cell_length_c   7.09955200
_cell_angle_alpha   90.00000000
_cell_angle_beta   90.00000000
_cell_angle_gamma   119.99999504
_symmetry_Int_Tables_number   1
_chemical_formula_structural   Y3Ho5In3Ir
_chemical_formula_sum   'Y6 Ho10 In6 Ir2'
_cell_volume   664.01324002
_cell_formula_units_Z   2
loop_
 _symmetry_equiv_pos_site_id
 _symmetry_equiv_pos_as_xyz
  1  'x, y, z'
loop_
 _atom_site_type_symbol
 _atom_site_label
 _atom_site_symmetry_multiplicity
 _atom_site_fract_x
 _atom_site_fract_y
 _atom_site_fract_z
 _atom_site_occupancy
  Y  Y0  1  0.533526  0.067052  0.506757  1
  Y  Y1  1  0.932948  0.466474  0.506757  1
  Y  Y2  1  0.533526  0.466474  0.506757  1
  Y  Y3  1  0.466474  0.932948  0.006757  1
  Y  Y4  1  0.067052  0.533526  0.006757  1
  Y  Y5  1  0.466474  0.533526  0.006757  1
  Ho  Ho6  1  0.176448  0.352896  0.711967  1
  Ho  Ho7  1  0.647104  0.823552  0.711967  1
  Ho  Ho8  1  0.176448  0.823552  0.711967  1
  Ho  Ho9  1  0.823552  0.647104  0.211967  1
  Ho  Ho10  1  0.352896  0.176448  0.211967  1
  Ho  Ho11  1  0.823552  0.176448  0.211967  1
  Ho  Ho12  1  0.666667  0.333333  0.888826  1
  Ho  Ho13  1  0.333333  0.666667  0.388826  1
  Ho  Ho14  1  0.000000  0.000000  0.492827  1
  Ho  Ho15  1  0.000000  0.000000  0.992827  1
  In  In16  1  0.837189  0.674379  0.753981  1
  In  In17  1  0.325621  0.162811  0.753981  1
  In  In18  1  0.837189  0.162811  0.753981  1
  In  In19  1  0.162811  0.325621  0.253981  1
  In  In20  1  0.674379  0.837189  0.253981  1
  In  In21  1  0.162811  0.837189  0.253981  1
  Ir  Ir22  1  0.666667  0.333333  0.279254  1
  Ir  Ir23  1  0.333333  0.666667  0.779254  1
