# generated using pymatgen
data_Ce4GeB4Rh9
_symmetry_space_group_name_H-M   'P 1'
_cell_length_a   5.56765800
_cell_length_b   5.56765841
_cell_length_c   20.54965000
_cell_angle_alpha   90.00000000
_cell_angle_beta   90.00000000
_cell_angle_gamma   120.00402594
_symmetry_Int_Tables_number   1
_chemical_formula_structural   Ce4GeB4Rh9
_chemical_formula_sum   'Ce8 Ge2 B8 Rh18'
_cell_volume   551.64866776
_cell_formula_units_Z   2
loop_
 _symmetry_equiv_pos_site_id
 _symmetry_equiv_pos_as_xyz
  1  'x, y, z'
loop_
 _atom_site_type_symbol
 _atom_site_label
 _atom_site_symmetry_multiplicity
 _atom_site_fract_x
 _atom_site_fract_y
 _atom_site_fract_z
 _atom_site_occupancy
  Ce  Ce0  1  0.666663  0.333337  0.527595  1
  Ce  Ce1  1  0.333337  0.666663  0.472405  1
  Ce  Ce2  1  0.333337  0.666663  0.027595  1
  Ce  Ce3  1  0.666663  0.333337  0.972405  1
  Ce  Ce4  1  0.666658  0.333342  0.674167  1
  Ce  Ce5  1  0.333342  0.666658  0.325833  1
  Ce  Ce6  1  0.333342  0.666658  0.174167  1
  Ce  Ce7  1  0.666658  0.333342  0.825833  1
  Ge  Ge8  1  0.000000  0.000000  0.500000  1
  Ge  Ge9  1  0.000000  0.000000  0.000000  1
  B  B10  1  0.999987  0.000013  0.674752  1
  B  B11  1  0.000013  0.999987  0.325248  1
  B  B12  1  0.000013  0.999987  0.174752  1
  B  B13  1  0.999987  0.000013  0.825248  1
  B  B14  1  0.666657  0.333343  0.326782  1
  B  B15  1  0.333343  0.666657  0.673218  1
  B  B16  1  0.333343  0.666657  0.826782  1
  B  B17  1  0.666657  0.333343  0.173218  1
  Rh  Rh18  1  0.167087  0.334390  0.750000  1
  Rh  Rh19  1  0.167062  0.832938  0.750000  1
  Rh  Rh20  1  0.665610  0.832913  0.750000  1
  Rh  Rh21  1  0.832913  0.665610  0.250000  1
  Rh  Rh22  1  0.832938  0.167062  0.250000  1
  Rh  Rh23  1  0.334390  0.167087  0.250000  1
  Rh  Rh24  1  0.166178  0.332190  0.603927  1
  Rh  Rh25  1  0.166164  0.833836  0.603918  1
  Rh  Rh26  1  0.667810  0.833822  0.603927  1
  Rh  Rh27  1  0.833822  0.667810  0.396073  1
  Rh  Rh28  1  0.833836  0.166164  0.396082  1
  Rh  Rh29  1  0.332190  0.166178  0.396073  1
  Rh  Rh30  1  0.833822  0.667810  0.103927  1
  Rh  Rh31  1  0.833836  0.166164  0.103918  1
  Rh  Rh32  1  0.332190  0.166178  0.103927  1
  Rh  Rh33  1  0.166178  0.332190  0.896073  1
  Rh  Rh34  1  0.166164  0.833836  0.896082  1
  Rh  Rh35  1  0.667810  0.833822  0.896073  1
