# generated using pymatgen
data_B2Ir2PdPt
_symmetry_space_group_name_H-M   'P 1'
_cell_length_a   6.77250029
_cell_length_b   6.13652452
_cell_length_c   5.56099297
_cell_angle_alpha   70.56018451
_cell_angle_beta   58.69788528
_cell_angle_gamma   50.55824973
_symmetry_Int_Tables_number   1
_chemical_formula_structural   B2Ir2PdPt
_chemical_formula_sum   'B4 Ir4 Pd2 Pt2'
_cell_volume   152.50044903
_cell_formula_units_Z   2
loop_
 _symmetry_equiv_pos_site_id
 _symmetry_equiv_pos_as_xyz
  1  'x, y, z'
loop_
 _atom_site_type_symbol
 _atom_site_label
 _atom_site_symmetry_multiplicity
 _atom_site_fract_x
 _atom_site_fract_y
 _atom_site_fract_z
 _atom_site_occupancy
  B  B0  1  0.054772  0.976994  0.562921  1
  B  B1  1  0.685636  0.852080  0.199036  1
  B  B2  1  0.397920  0.564364  0.986752  1
  B  B3  1  0.273006  0.195228  0.844686  1
  Ir  Ir4  1  0.104603  0.630607  0.868267  1
  Ir  Ir5  1  0.382393  0.854502  0.147324  1
  Ir  Ir6  1  0.619393  0.145397  0.853478  1
  Ir  Ir7  1  0.395498  0.867607  0.634219  1
  Pd  Pd8  1  0.861494  0.369709  0.306884  1
  Pd  Pd9  1  0.880291  0.388506  0.788085  1
  Pt  Pt10  1  0.941824  0.791628  0.384847  1
  Pt  Pt11  1  0.458372  0.308176  0.368299  1
