# generated using pymatgen
data_ScTi2Co5B2
_symmetry_space_group_name_H-M   'P 1'
_cell_length_a   8.56231000
_cell_length_b   8.60005200
_cell_length_c   3.02347200
_cell_angle_alpha   90.00000000
_cell_angle_beta   90.00000000
_cell_angle_gamma   90.00000000
_symmetry_Int_Tables_number   1
_chemical_formula_structural   ScTi2Co5B2
_chemical_formula_sum   'Sc2 Ti4 Co10 B4'
_cell_volume   222.63732522
_cell_formula_units_Z   2
loop_
 _symmetry_equiv_pos_site_id
 _symmetry_equiv_pos_as_xyz
  1  'x, y, z'
loop_
 _atom_site_type_symbol
 _atom_site_label
 _atom_site_symmetry_multiplicity
 _atom_site_fract_x
 _atom_site_fract_y
 _atom_site_fract_z
 _atom_site_occupancy
  Sc  Sc0  1  0.824139  0.325984  0.000000  1
  Sc  Sc1  1  0.324139  0.174016  0.000000  1
  Ti  Ti2  1  0.000841  0.000683  0.000000  1
  Ti  Ti3  1  0.500841  0.499317  0.000000  1
  Ti  Ti4  1  0.674251  0.824538  0.000000  1
  Ti  Ti5  1  0.174251  0.675462  0.000000  1
  Co  Co6  1  0.502656  0.990428  0.500000  1
  Co  Co7  1  0.002656  0.509572  0.500000  1
  Co  Co8  1  0.069371  0.226412  0.500000  1
  Co  Co9  1  0.220469  0.919833  0.500000  1
  Co  Co10  1  0.777172  0.061189  0.500000  1
  Co  Co11  1  0.929818  0.782911  0.500000  1
  Co  Co12  1  0.429818  0.717089  0.500000  1
  Co  Co13  1  0.569371  0.273588  0.500000  1
  Co  Co14  1  0.720469  0.580167  0.500000  1
  Co  Co15  1  0.277172  0.438811  0.500000  1
  B  B16  1  0.621184  0.114411  0.000000  1
  B  B17  1  0.121184  0.385589  0.000000  1
  B  B18  1  0.880099  0.626891  0.000000  1
  B  B19  1  0.380099  0.873109  0.000000  1
