# generated using pymatgen
data_Tm5ScFe3Si6Rh
_symmetry_space_group_name_H-M   'P 1'
_cell_length_a   5.55599608
_cell_length_b   5.55599635
_cell_length_c   13.32275922
_cell_angle_alpha   89.99281157
_cell_angle_beta   90.00718858
_cell_angle_gamma   136.97715466
_symmetry_Int_Tables_number   1
_chemical_formula_structural   Tm5ScFe3Si6Rh
_chemical_formula_sum   'Tm5 Sc1 Fe3 Si6 Rh1'
_cell_volume   280.59957594
_cell_formula_units_Z   1
loop_
 _symmetry_equiv_pos_site_id
 _symmetry_equiv_pos_as_xyz
  1  'x, y, z'
loop_
 _atom_site_type_symbol
 _atom_site_label
 _atom_site_symmetry_multiplicity
 _atom_site_fract_x
 _atom_site_fract_y
 _atom_site_fract_z
 _atom_site_occupancy
  Tm  Tm0  1  0.362659  0.637341  0.750093  1
  Tm  Tm1  1  0.920736  0.079264  0.115077  1
  Tm  Tm2  1  0.077585  0.922415  0.891759  1
  Tm  Tm3  1  0.081423  0.918577  0.612356  1
  Tm  Tm4  1  0.923181  0.076819  0.380143  1
  Sc  Sc5  1  0.644211  0.355789  0.248525  1
  Fe  Fe6  1  0.214729  0.785271  0.416119  1
  Fe  Fe7  1  0.211335  0.788665  0.084284  1
  Fe  Fe8  1  0.784033  0.215967  0.922247  1
  Si  Si9  1  0.319698  0.680302  0.248832  1
  Si  Si10  1  0.668775  0.331225  0.756272  1
  Si  Si11  1  0.621375  0.378625  0.044488  1
  Si  Si12  1  0.374558  0.625442  0.963210  1
  Si  Si13  1  0.388895  0.611105  0.532055  1
  Si  Si14  1  0.618390  0.381610  0.452469  1
  Rh  Rh15  1  0.788418  0.211582  0.582068  1
