# generated using pymatgen
data_PrPaCdPt2
_symmetry_space_group_name_H-M   'P 1'
_cell_length_a   7.97776900
_cell_length_b   7.95305000
_cell_length_c   3.71672200
_cell_angle_alpha   90.00000000
_cell_angle_beta   90.00000000
_cell_angle_gamma   90.00000000
_symmetry_Int_Tables_number   1
_chemical_formula_structural   PrPaCdPt2
_chemical_formula_sum   'Pr2 Pa2 Cd2 Pt4'
_cell_volume   235.81707495
_cell_formula_units_Z   2
loop_
 _symmetry_equiv_pos_site_id
 _symmetry_equiv_pos_as_xyz
  1  'x, y, z'
loop_
 _atom_site_type_symbol
 _atom_site_label
 _atom_site_symmetry_multiplicity
 _atom_site_fract_x
 _atom_site_fract_y
 _atom_site_fract_z
 _atom_site_occupancy
  Pr  Pr0  1  0.828375  0.673426  0.500000  1
  Pr  Pr1  1  0.671625  0.173426  0.500000  1
  Pa  Pa2  1  0.168910  0.330747  0.500000  1
  Pa  Pa3  1  0.331090  0.830747  0.500000  1
  Cd  Cd4  1  0.500894  0.495739  0.000000  1
  Cd  Cd5  1  0.999106  0.995739  0.000000  1
  Pt  Pt6  1  0.600509  0.868304  0.000000  1
  Pt  Pt7  1  0.155198  0.631785  0.000000  1
  Pt  Pt8  1  0.899491  0.368304  0.000000  1
  Pt  Pt9  1  0.344802  0.131785  0.000000  1
