# generated using pymatgen
data_Ce8Mn(Si4Os)3
_symmetry_space_group_name_H-M   'P 1'
_cell_length_a   8.25134564
_cell_length_b   8.24333182
_cell_length_c   8.10200365
_cell_angle_alpha   90.02678809
_cell_angle_beta   89.95473872
_cell_angle_gamma   120.02102188
_symmetry_Int_Tables_number   1
_chemical_formula_structural   Ce8Mn(Si4Os)3
_chemical_formula_sum   'Ce8 Mn1 Si12 Os3'
_cell_volume   477.15387519
_cell_formula_units_Z   1
loop_
 _symmetry_equiv_pos_site_id
 _symmetry_equiv_pos_as_xyz
  1  'x, y, z'
loop_
 _atom_site_type_symbol
 _atom_site_label
 _atom_site_symmetry_multiplicity
 _atom_site_fract_x
 _atom_site_fract_y
 _atom_site_fract_z
 _atom_site_occupancy
  Ce  Ce0  1  0.000028  0.999977  0.248880  1
  Ce  Ce1  1  0.000047  0.999972  0.750632  1
  Ce  Ce2  1  0.503408  0.496601  0.250807  1
  Ce  Ce3  1  0.503473  0.006831  0.250935  1
  Ce  Ce4  1  0.993174  0.496527  0.250939  1
  Ce  Ce5  1  0.501285  0.498727  0.749294  1
  Ce  Ce6  1  0.501346  0.002560  0.749194  1
  Ce  Ce7  1  0.997431  0.498647  0.749199  1
  Mn  Mn8  1  0.333178  0.666962  0.012472  1
  Si  Si9  1  0.165686  0.834207  0.499813  1
  Si  Si10  1  0.165736  0.331431  0.499775  1
  Si  Si11  1  0.668513  0.834186  0.499751  1
  Si  Si12  1  0.835275  0.164838  0.500402  1
  Si  Si13  1  0.835211  0.670445  0.500335  1
  Si  Si14  1  0.329615  0.164876  0.500326  1
  Si  Si15  1  0.835075  0.165022  0.000700  1
  Si  Si16  1  0.835025  0.670081  0.000766  1
  Si  Si17  1  0.329972  0.165054  0.000771  1
  Si  Si18  1  0.168266  0.831641  0.998474  1
  Si  Si19  1  0.168341  0.336690  0.998534  1
  Si  Si20  1  0.663265  0.831591  0.998550  1
  Os  Os21  1  0.333420  0.666856  0.494420  1
  Os  Os22  1  0.666615  0.333159  0.501285  1
  Os  Os23  1  0.666615  0.333118  0.993743  1
