# generated using pymatgen
data_Na4TmGe2P10Ir19
_symmetry_space_group_name_H-M   'P 1'
_cell_length_a   12.70547000
_cell_length_b   12.78666575
_cell_length_c   3.96691600
_cell_angle_alpha   90.00000000
_cell_angle_beta   90.00000000
_cell_angle_gamma   120.20179946
_symmetry_Int_Tables_number   1
_chemical_formula_structural   Na4TmGe2P10Ir19
_chemical_formula_sum   'Na4 Tm1 Ge2 P10 Ir19'
_cell_volume   556.98687907
_cell_formula_units_Z   1
loop_
 _symmetry_equiv_pos_site_id
 _symmetry_equiv_pos_as_xyz
  1  'x, y, z'
loop_
 _atom_site_type_symbol
 _atom_site_label
 _atom_site_symmetry_multiplicity
 _atom_site_fract_x
 _atom_site_fract_y
 _atom_site_fract_z
 _atom_site_occupancy
  Na  Na0  1  0.664515  0.330746  0.000000  1
  Na  Na1  1  0.825271  0.824043  0.500000  1
  Na  Na2  1  0.173699  0.996852  0.500000  1
  Na  Na3  1  0.000600  0.177199  0.500000  1
  Tm  Tm4  1  0.335640  0.666983  0.000000  1
  Ge  Ge5  1  0.646909  0.645584  0.000000  1
  Ge  Ge6  1  0.355038  0.002742  0.000000  1
  P  P7  1  0.688093  0.174480  0.500000  1
  P  P8  1  0.820476  0.509090  0.500000  1
  P  P9  1  0.483336  0.310770  0.500000  1
  P  P10  1  0.177075  0.691839  0.500000  1
  P  P11  1  0.521096  0.830260  0.500000  1
  P  P12  1  0.310372  0.481814  0.500000  1
  P  P13  1  0.997311  0.355927  0.000000  1
  P  P14  1  0.175694  0.177262  0.000000  1
  P  P15  1  0.826182  0.004883  0.000000  1
  P  P16  1  0.997767  0.814493  0.000000  1
  Ir  Ir17  1  0.805493  0.182972  0.000000  1
  Ir  Ir18  1  0.822550  0.612244  0.000000  1
  Ir  Ir19  1  0.380323  0.208466  0.000000  1
  Ir  Ir20  1  0.178203  0.792930  0.000000  1
  Ir  Ir21  1  0.620965  0.826359  0.000000  1
  Ir  Ir22  1  0.191517  0.377108  0.000000  1
  Ir  Ir23  1  0.446714  0.458875  0.000000  1
  Ir  Ir24  1  0.550818  0.006982  0.000000  1
  Ir  Ir25  1  0.002515  0.537733  0.000000  1
  Ir  Ir26  1  0.285358  0.290163  0.500000  1
  Ir  Ir27  1  0.713881  0.005331  0.500000  1
  Ir  Ir28  1  0.999351  0.703285  0.500000  1
  Ir  Ir29  1  0.871687  0.360486  0.500000  1
  Ir  Ir30  1  0.634588  0.507282  0.500000  1
  Ir  Ir31  1  0.490424  0.132305  0.500000  1
  Ir  Ir32  1  0.366412  0.868345  0.500000  1
  Ir  Ir33  1  0.504199  0.641113  0.500000  1
  Ir  Ir34  1  0.135983  0.497690  0.500000  1
  Ir  Ir35  1  0.999947  0.995361  0.000000  1
