# generated using pymatgen
data_CeNd6HoAlPd24
_symmetry_space_group_name_H-M   'P 1'
_cell_length_a   8.45584648
_cell_length_b   8.46157615
_cell_length_c   8.46157598
_cell_angle_alpha   89.63158668
_cell_angle_beta   90.01797234
_cell_angle_gamma   90.01797804
_symmetry_Int_Tables_number   1
_chemical_formula_structural   CeNd6HoAlPd24
_chemical_formula_sum   'Ce1 Nd6 Ho1 Al1 Pd24'
_cell_volume   605.41140049
_cell_formula_units_Z   1
loop_
 _symmetry_equiv_pos_site_id
 _symmetry_equiv_pos_as_xyz
  1  'x, y, z'
loop_
 _atom_site_type_symbol
 _atom_site_label
 _atom_site_symmetry_multiplicity
 _atom_site_fract_x
 _atom_site_fract_y
 _atom_site_fract_z
 _atom_site_occupancy
  Ce  Ce0  1  0.745625  0.254906  0.254906  1
  Nd  Nd1  1  0.748167  0.747689  0.747689  1
  Nd  Nd2  1  0.747849  0.749778  0.252128  1
  Nd  Nd3  1  0.747849  0.252128  0.749778  1
  Nd  Nd4  1  0.252390  0.251997  0.748150  1
  Nd  Nd5  1  0.252390  0.748150  0.251997  1
  Nd  Nd6  1  0.252547  0.747297  0.747297  1
  Ho  Ho7  1  0.250772  0.252600  0.252600  1
  Al  Al8  1  0.001362  0.996810  0.996810  1
  Pd  Pd9  1  0.259866  0.496564  0.003466  1
  Pd  Pd10  1  0.740346  0.496804  0.005584  1
  Pd  Pd11  1  0.998014  0.259823  0.495714  1
  Pd  Pd12  1  0.500411  0.259944  0.008384  1
  Pd  Pd13  1  0.000205  0.740346  0.498249  1
  Pd  Pd14  1  0.500575  0.740218  0.000097  1
  Pd  Pd15  1  0.500411  0.008384  0.259944  1
  Pd  Pd16  1  0.259866  0.003466  0.496564  1
  Pd  Pd17  1  0.500575  0.000097  0.740218  1
  Pd  Pd18  1  0.740346  0.005584  0.496804  1
  Pd  Pd19  1  0.998014  0.495714  0.259823  1
  Pd  Pd20  1  0.000205  0.498249  0.740346  1
  Pd  Pd21  1  0.252532  0.496449  0.496449  1
  Pd  Pd22  1  0.746775  0.496626  0.496626  1
  Pd  Pd23  1  0.500330  0.253282  0.494662  1
  Pd  Pd24  1  0.500371  0.747518  0.499062  1
  Pd  Pd25  1  0.500330  0.494662  0.253282  1
  Pd  Pd26  1  0.500371  0.499062  0.747518  1
  Pd  Pd27  1  0.290198  0.002730  0.002730  1
  Pd  Pd28  1  0.711291  0.003076  0.003076  1
  Pd  Pd29  1  0.999797  0.286507  0.005889  1
  Pd  Pd30  1  0.000211  0.707707  0.999941  1
  Pd  Pd31  1  0.999797  0.005889  0.286507  1
  Pd  Pd32  1  0.000211  0.999941  0.707707  1
