# generated using pymatgen
data_Mg3Sn11Rh6
_symmetry_space_group_name_H-M   'P 1'
_cell_length_a   8.16703748
_cell_length_b   8.17103388
_cell_length_c   8.17187402
_cell_angle_alpha   109.47776335
_cell_angle_beta   109.45795155
_cell_angle_gamma   109.46386742
_symmetry_Int_Tables_number   1
_chemical_formula_structural   Mg3Sn11Rh6
_chemical_formula_sum   'Mg3 Sn11 Rh6'
_cell_volume   419.87185319
_cell_formula_units_Z   1
loop_
 _symmetry_equiv_pos_site_id
 _symmetry_equiv_pos_as_xyz
  1  'x, y, z'
loop_
 _atom_site_type_symbol
 _atom_site_label
 _atom_site_symmetry_multiplicity
 _atom_site_fract_x
 _atom_site_fract_y
 _atom_site_fract_z
 _atom_site_occupancy
  Mg  Mg0  1  0.316900  0.000441  0.000000  1
  Mg  Mg1  1  0.692511  0.004920  0.000000  1
  Mg  Mg2  1  0.996586  0.323124  0.000000  1
  Sn  Sn3  1  0.005461  0.676389  0.000000  1
  Sn  Sn4  1  0.747181  0.482951  0.238288  1
  Sn  Sn5  1  0.493762  0.751263  0.239430  1
  Sn  Sn6  1  0.993711  0.999635  0.326018  1
  Sn  Sn7  1  0.318104  0.320781  0.312407  1
  Sn  Sn8  1  0.745557  0.245145  0.493096  1
  Sn  Sn9  1  0.252461  0.752049  0.506904  1
  Sn  Sn10  1  0.005697  0.008374  0.687593  1
  Sn  Sn11  1  0.667692  0.673617  0.673982  1
  Sn  Sn12  1  0.508893  0.244662  0.761712  1
  Sn  Sn13  1  0.254332  0.511833  0.760570  1
  Rh  Rh14  1  0.348416  0.349921  0.000000  1
  Rh  Rh15  1  0.658626  0.653248  0.000000  1
  Rh  Rh16  1  0.342141  0.004676  0.350552  1
  Rh  Rh17  1  0.008682  0.349917  0.356986  1
  Rh  Rh18  1  0.651696  0.992931  0.643013  1
  Rh  Rh19  1  0.991589  0.654123  0.649447  1
