# generated using pymatgen
data_AsF18
_symmetry_space_group_name_H-M   'P 1'
_cell_length_a   7.25736221
_cell_length_b   9.92624220
_cell_length_c   9.77574500
_cell_angle_alpha   94.29389899
_cell_angle_beta   96.13708132
_cell_angle_gamma   68.66767148
_symmetry_Int_Tables_number   1
_chemical_formula_structural   AsF18
_chemical_formula_sum   'As2 F36'
_cell_volume   651.72710952
_cell_formula_units_Z   2
loop_
 _symmetry_equiv_pos_site_id
 _symmetry_equiv_pos_as_xyz
  1  'x, y, z'
loop_
 _atom_site_type_symbol
 _atom_site_label
 _atom_site_symmetry_multiplicity
 _atom_site_fract_x
 _atom_site_fract_y
 _atom_site_fract_z
 _atom_site_occupancy
  As  As0  1  0.723134  0.812048  0.849942  1
  As  As1  1  0.276866  0.187952  0.150058  1
  F  F2  1  0.293998  0.450742  0.885215  1
  F  F3  1  0.706002  0.549258  0.114785  1
  F  F4  1  0.340723  0.278961  0.582308  1
  F  F5  1  0.659277  0.721039  0.417692  1
  F  F6  1  0.930060  0.225228  0.802607  1
  F  F7  1  0.069940  0.774772  0.197393  1
  F  F8  1  0.602437  0.843649  0.997333  1
  F  F9  1  0.397563  0.156351  0.002667  1
  F  F10  1  0.918543  0.668417  0.924500  1
  F  F11  1  0.081457  0.331583  0.075500  1
  F  F12  1  0.492057  0.421292  0.852116  1
  F  F13  1  0.507943  0.578708  0.147884  1
  F  F14  1  0.684937  0.692383  0.722792  1
  F  F15  1  0.315063  0.307617  0.277208  1
  F  F16  1  0.734085  0.036338  0.480720  1
  F  F17  1  0.265915  0.963662  0.519280  1
  F  F18  1  0.254900  0.216136  0.672386  1
  F  F19  1  0.745100  0.783864  0.327614  1
  F  F20  1  0.796661  0.114638  0.593295  1
  F  F21  1  0.203339  0.885362  0.406705  1
  F  F22  1  0.878544  0.906497  0.843022  1
  F  F23  1  0.121456  0.093503  0.156978  1
  F  F24  1  0.857038  0.378268  0.790519  1
  F  F25  1  0.142962  0.621732  0.209481  1
  F  F26  1  0.278142  0.751167  0.928614  1
  F  F27  1  0.721858  0.248833  0.071386  1
  F  F28  1  0.532461  0.952484  0.767934  1
  F  F29  1  0.467539  0.047516  0.232066  1
  F  F30  1  0.043384  0.728586  0.567514  1
  F  F31  1  0.956616  0.271414  0.432486  1
  F  F32  1  0.097181  0.589522  0.623592  1
  F  F33  1  0.902819  0.410478  0.376408  1
  F  F34  1  0.264018  0.823377  0.804951  1
  F  F35  1  0.735982  0.176623  0.195049  1
  F  F36  1  0.556043  0.431897  0.529151  1
  F  F37  1  0.443957  0.568103  0.470849  1
