# generated using pymatgen
data_LiLu9(Co2Au)2
_symmetry_space_group_name_H-M   'P 1'
_cell_length_a   8.39063796
_cell_length_b   8.39063719
_cell_length_c   8.39063800
_cell_angle_alpha   129.39161920
_cell_angle_beta   129.39161489
_cell_angle_gamma   74.38125735
_symmetry_Int_Tables_number   1
_chemical_formula_structural   LiLu9(Co2Au)2
_chemical_formula_sum   'Li1 Lu9 Co4 Au2'
_cell_volume   343.88933810
_cell_formula_units_Z   1
loop_
 _symmetry_equiv_pos_site_id
 _symmetry_equiv_pos_as_xyz
  1  'x, y, z'
loop_
 _atom_site_type_symbol
 _atom_site_label
 _atom_site_symmetry_multiplicity
 _atom_site_fract_x
 _atom_site_fract_y
 _atom_site_fract_z
 _atom_site_occupancy
  Li  Li0  1  0.000000  0.000000  0.000000  1
  Lu  Lu1  1  0.500000  0.500000  0.000000  1
  Lu  Lu2  1  0.816600  0.293467  0.846615  1
  Lu  Lu3  1  0.183400  0.706533  0.153385  1
  Lu  Lu4  1  0.446854  0.969986  0.153385  1
  Lu  Lu5  1  0.293467  0.446854  0.476866  1
  Lu  Lu6  1  0.030014  0.183400  0.476866  1
  Lu  Lu7  1  0.553146  0.030014  0.846615  1
  Lu  Lu8  1  0.706533  0.553146  0.523134  1
  Lu  Lu9  1  0.969986  0.816600  0.523134  1
  Co  Co10  1  0.124712  0.613779  0.738492  1
  Co  Co11  1  0.875288  0.386221  0.261508  1
  Co  Co12  1  0.613779  0.875288  0.489067  1
  Co  Co13  1  0.386221  0.124712  0.510933  1
  Au  Au14  1  0.260855  0.260855  0.000000  1
  Au  Au15  1  0.739145  0.739145  0.000000  1
