# generated using pymatgen
data_BaHf2VS6
_symmetry_space_group_name_H-M   'P 1'
_cell_length_a   6.27763336
_cell_length_b   6.27763402
_cell_length_c   7.82399253
_cell_angle_alpha   97.66311225
_cell_angle_beta   97.66311547
_cell_angle_gamma   120.41972715
_symmetry_Int_Tables_number   1
_chemical_formula_structural   BaHf2VS6
_chemical_formula_sum   'Ba1 Hf2 V1 S6'
_cell_volume   256.13176315
_cell_formula_units_Z   1
loop_
 _symmetry_equiv_pos_site_id
 _symmetry_equiv_pos_as_xyz
  1  'x, y, z'
loop_
 _atom_site_type_symbol
 _atom_site_label
 _atom_site_symmetry_multiplicity
 _atom_site_fract_x
 _atom_site_fract_y
 _atom_site_fract_z
 _atom_site_occupancy
  Ba  Ba0  1  0.000000  0.000000  0.500000  1
  Hf  Hf1  1  0.834448  0.165553  0.000000  1
  Hf  Hf2  1  0.165553  0.834448  0.000000  1
  V  V3  1  0.500001  0.500001  0.000000  1
  S  S4  1  0.237712  0.237712  0.192750  1
  S  S5  1  0.893821  0.560400  0.191861  1
  S  S6  1  0.560400  0.893821  0.191861  1
  S  S7  1  0.439599  0.106179  0.808138  1
  S  S8  1  0.106179  0.439599  0.808138  1
  S  S9  1  0.762289  0.762289  0.807249  1
