# generated using pymatgen
data_Ho2Th2Ge6Rh7
_symmetry_space_group_name_H-M   'P 1'
_cell_length_a   7.35955669
_cell_length_b   7.37371580
_cell_length_c   7.37371637
_cell_angle_alpha   109.54107708
_cell_angle_beta   109.47521164
_cell_angle_gamma   109.47520874
_symmetry_Int_Tables_number   1
_chemical_formula_structural   Ho2Th2Ge6Rh7
_chemical_formula_sum   'Ho2 Th2 Ge6 Rh7'
_cell_volume   307.74043274
_cell_formula_units_Z   1
loop_
 _symmetry_equiv_pos_site_id
 _symmetry_equiv_pos_as_xyz
  1  'x, y, z'
loop_
 _atom_site_type_symbol
 _atom_site_label
 _atom_site_symmetry_multiplicity
 _atom_site_fract_x
 _atom_site_fract_y
 _atom_site_fract_z
 _atom_site_occupancy
  Ho  Ho0  1  0.500000  0.000000  0.000000  1
  Ho  Ho1  1  0.500000  0.500000  0.500000  1
  Th  Th2  1  0.000000  0.000000  0.500000  1
  Th  Th3  1  0.000000  0.500000  0.000000  1
  Ge  Ge4  1  0.671730  0.678072  0.993658  1
  Ge  Ge5  1  0.328270  0.006342  0.321928  1
  Ge  Ge6  1  0.000000  0.322170  0.322170  1
  Ge  Ge7  1  0.328270  0.321928  0.006342  1
  Ge  Ge8  1  0.671730  0.993658  0.678072  1
  Ge  Ge9  1  0.000000  0.677830  0.677830  1
  Rh  Rh10  1  0.748547  0.250289  0.498258  1
  Rh  Rh11  1  0.748547  0.498258  0.250289  1
  Rh  Rh12  1  0.500000  0.250000  0.750000  1
  Rh  Rh13  1  0.251453  0.501742  0.749711  1
  Rh  Rh14  1  0.251453  0.749711  0.501742  1
  Rh  Rh15  1  0.500000  0.750000  0.250000  1
  Rh  Rh16  1  0.000000  0.000000  0.000000  1
