# generated using pymatgen
data_Ho7Er3(Bi2Pt)2
_symmetry_space_group_name_H-M   'P 1'
_cell_length_a   8.03314017
_cell_length_b   9.01657319
_cell_length_c   12.34915000
_cell_angle_alpha   90.00000000
_cell_angle_beta   90.00000000
_cell_angle_gamma   90.02347284
_symmetry_Int_Tables_number   1
_chemical_formula_structural   Ho7Er3(Bi2Pt)2
_chemical_formula_sum   'Ho14 Er6 Bi8 Pt4'
_cell_volume   894.46610217
_cell_formula_units_Z   2
loop_
 _symmetry_equiv_pos_site_id
 _symmetry_equiv_pos_as_xyz
  1  'x, y, z'
loop_
 _atom_site_type_symbol
 _atom_site_label
 _atom_site_symmetry_multiplicity
 _atom_site_fract_x
 _atom_site_fract_y
 _atom_site_fract_z
 _atom_site_occupancy
  Ho  Ho0  1  0.164917  0.749876  0.210265  1
  Ho  Ho1  1  0.335083  0.750124  0.710265  1
  Ho  Ho2  1  0.835206  0.250013  0.789786  1
  Ho  Ho3  1  0.664794  0.249987  0.289786  1
  Ho  Ho4  1  0.450594  0.749841  0.000075  1
  Ho  Ho5  1  0.049406  0.750159  0.500075  1
  Ho  Ho6  1  0.548826  0.250230  0.999834  1
  Ho  Ho7  1  0.951174  0.249770  0.499834  1
  Ho  Ho8  1  0.627048  0.750168  0.303376  1
  Ho  Ho9  1  0.872952  0.749832  0.803376  1
  Ho  Ho10  1  0.372724  0.249870  0.696710  1
  Ho  Ho11  1  0.127276  0.250130  0.196710  1
  Ho  Ho12  1  0.821988  0.952556  0.066625  1
  Ho  Ho13  1  0.678012  0.547444  0.566625  1
  Er  Er14  1  0.822837  0.547674  0.066455  1
  Er  Er15  1  0.677163  0.952326  0.566455  1
  Er  Er16  1  0.177270  0.047572  0.933460  1
  Er  Er17  1  0.322730  0.452428  0.433460  1
  Er  Er18  1  0.177109  0.452345  0.933472  1
  Er  Er19  1  0.322891  0.047655  0.433472  1
  Bi  Bi20  1  0.932455  0.509921  0.327189  1
  Bi  Bi21  1  0.567545  0.990079  0.827189  1
  Bi  Bi22  1  0.067355  0.009930  0.672924  1
  Bi  Bi23  1  0.432645  0.490070  0.172924  1
  Bi  Bi24  1  0.067843  0.489978  0.672866  1
  Bi  Bi25  1  0.432157  0.010022  0.172866  1
  Bi  Bi26  1  0.932683  0.990105  0.327179  1
  Bi  Bi27  1  0.567317  0.509895  0.827179  1
  Pt  Pt28  1  0.419049  0.750242  0.487354  1
  Pt  Pt29  1  0.080951  0.749758  0.987354  1
  Pt  Pt30  1  0.580374  0.249471  0.512428  1
  Pt  Pt31  1  0.919626  0.250529  0.012428  1
