# generated using pymatgen
data_Tm12Co4TcSb
_symmetry_space_group_name_H-M   'P 1'
_cell_length_a   8.17637170
_cell_length_b   8.17637205
_cell_length_c   8.17637237
_cell_angle_alpha   111.76269414
_cell_angle_beta   110.52499016
_cell_angle_gamma   106.17790961
_symmetry_Int_Tables_number   1
_chemical_formula_structural   Tm12Co4TcSb
_chemical_formula_sum   'Tm12 Co4 Tc1 Sb1'
_cell_volume   419.69771884
_cell_formula_units_Z   1
loop_
 _symmetry_equiv_pos_site_id
 _symmetry_equiv_pos_as_xyz
  1  'x, y, z'
loop_
 _atom_site_type_symbol
 _atom_site_label
 _atom_site_symmetry_multiplicity
 _atom_site_fract_x
 _atom_site_fract_y
 _atom_site_fract_z
 _atom_site_occupancy
  Tm  Tm0  1  0.417837  0.220267  0.197571  1
  Tm  Tm1  1  0.582163  0.779733  0.802429  1
  Tm  Tm2  1  0.022696  0.220267  0.802429  1
  Tm  Tm3  1  0.977304  0.779733  0.197571  1
  Tm  Tm4  1  0.182728  0.278836  0.461563  1
  Tm  Tm5  1  0.817272  0.721164  0.538437  1
  Tm  Tm6  1  0.182728  0.721164  0.903891  1
  Tm  Tm7  1  0.817272  0.278836  0.096109  1
  Tm  Tm8  1  0.311212  0.618246  0.307033  1
  Tm  Tm9  1  0.688788  0.381754  0.692967  1
  Tm  Tm10  1  0.311212  0.004179  0.692967  1
  Tm  Tm11  1  0.688788  0.995821  0.307033  1
  Co  Co12  1  0.375410  0.000000  0.375410  1
  Co  Co13  1  0.624590  0.000000  0.624590  1
  Co  Co14  1  0.111865  0.611865  0.500000  1
  Co  Co15  1  0.888135  0.388135  0.500000  1
  Tc  Tc16  1  0.000000  0.000000  0.000000  1
  Sb  Sb17  1  0.500000  0.500000  0.000000  1
