# generated using pymatgen
data_Zr8Ti12Si7P9
_symmetry_space_group_name_H-M   'P 1'
_cell_length_a   6.73241874
_cell_length_b   6.74104768
_cell_length_c   12.42100539
_cell_angle_alpha   89.77615322
_cell_angle_beta   89.93997998
_cell_angle_gamma   89.94342582
_symmetry_Int_Tables_number   1
_chemical_formula_structural   Zr8Ti12Si7P9
_chemical_formula_sum   'Zr8 Ti12 Si7 P9'
_cell_volume   563.70450669
_cell_formula_units_Z   1
loop_
 _symmetry_equiv_pos_site_id
 _symmetry_equiv_pos_as_xyz
  1  'x, y, z'
loop_
 _atom_site_type_symbol
 _atom_site_label
 _atom_site_symmetry_multiplicity
 _atom_site_fract_x
 _atom_site_fract_y
 _atom_site_fract_z
 _atom_site_occupancy
  Zr  Zr0  1  0.004002  0.656719  0.028523  1
  Zr  Zr1  1  0.996819  0.342315  0.528495  1
  Zr  Zr2  1  0.656065  0.004445  0.970614  1
  Zr  Zr3  1  0.151019  0.499267  0.779046  1
  Zr  Zr4  1  0.845314  0.504008  0.279099  1
  Zr  Zr5  1  0.496023  0.155105  0.220295  1
  Zr  Zr6  1  0.508440  0.843529  0.722391  1
  Zr  Zr7  1  0.344452  0.995669  0.471146  1
  Ti  Ti8  1  0.341177  0.509374  0.375215  1
  Ti  Ti9  1  0.841919  0.990459  0.374735  1
  Ti  Ti10  1  0.009028  0.158575  0.125110  1
  Ti  Ti11  1  0.988879  0.838696  0.628785  1
  Ti  Ti12  1  0.663242  0.497273  0.873626  1
  Ti  Ti13  1  0.506573  0.339058  0.623832  1
  Ti  Ti14  1  0.491430  0.658542  0.124621  1
  Ti  Ti15  1  0.156064  0.008005  0.875217  1
  Ti  Ti16  1  0.670905  0.671908  0.499592  1
  Ti  Ti17  1  0.828618  0.170298  0.750627  1
  Ti  Ti18  1  0.171370  0.828778  0.250101  1
  Ti  Ti19  1  0.329021  0.329443  0.999578  1
  Si  Si20  1  0.131287  0.203029  0.324844  1
  Si  Si21  1  0.797212  0.868946  0.174893  1
  Si  Si22  1  0.296991  0.631758  0.575852  1
  Si  Si23  1  0.703097  0.370095  0.074381  1
  Si  Si24  1  0.630102  0.296133  0.424297  1
  Si  Si25  1  0.369333  0.702606  0.925122  1
  Si  Si26  1  0.202768  0.129581  0.675626  1
  P  P27  1  0.044913  0.707513  0.436987  1
  P  P28  1  0.955488  0.293449  0.936856  1
  P  P29  1  0.708196  0.044353  0.563279  1
  P  P30  1  0.208140  0.454922  0.186127  1
  P  P31  1  0.789624  0.535142  0.681183  1
  P  P32  1  0.454653  0.209715  0.813828  1
  P  P33  1  0.544638  0.792359  0.313761  1
  P  P34  1  0.292248  0.955342  0.063913  1
  P  P35  1  0.870949  0.803589  0.828401  1
