# generated using pymatgen
data_Cs4Cr2CuNiSe8
_symmetry_space_group_name_H-M   'P 1'
_cell_length_a   14.91095983
_cell_length_b   13.23954377
_cell_length_c   7.92267409
_cell_angle_alpha   85.70324231
_cell_angle_beta   62.30218467
_cell_angle_gamma   31.99456985
_symmetry_Int_Tables_number   1
_chemical_formula_structural   Cs4Cr2CuNiSe8
_chemical_formula_sum   'Cs4 Cr2 Cu1 Ni1 Se8'
_cell_volume   537.58344268
_cell_formula_units_Z   1
loop_
 _symmetry_equiv_pos_site_id
 _symmetry_equiv_pos_as_xyz
  1  'x, y, z'
loop_
 _atom_site_type_symbol
 _atom_site_label
 _atom_site_symmetry_multiplicity
 _atom_site_fract_x
 _atom_site_fract_y
 _atom_site_fract_z
 _atom_site_occupancy
  Cs  Cs0  1  0.571892  0.571892  0.928108  1
  Cs  Cs1  1  0.928108  0.928108  0.571892  1
  Cs  Cs2  1  0.322003  0.322003  0.677997  1
  Cs  Cs3  1  0.677997  0.677997  0.322003  1
  Cr  Cr4  1  0.750000  0.750000  0.750000  1
  Cr  Cr5  1  0.500000  0.500000  0.500000  1
  Cu  Cu6  1  0.250000  0.250000  0.250000  1
  Ni  Ni7  1  0.000000  0.000000  0.000000  1
  Se  Se8  1  0.223311  0.877714  0.599995  1
  Se  Se9  1  0.298981  0.599995  0.877714  1
  Se  Se10  1  0.599995  0.298981  0.223311  1
  Se  Se11  1  0.877714  0.223311  0.298981  1
  Se  Se12  1  0.374514  0.022520  0.944676  1
  Se  Se13  1  0.944676  0.658289  0.374514  1
  Se  Se14  1  0.658289  0.944676  0.022520  1
  Se  Se15  1  0.022520  0.374514  0.658289  1
