# generated using pymatgen
data_DyHo5ScCo17P12
_symmetry_space_group_name_H-M   'P 1'
_cell_length_a   3.70806900
_cell_length_b   10.58091200
_cell_length_c   12.26841100
_cell_angle_alpha   90.00000000
_cell_angle_beta   90.00000000
_cell_angle_gamma   90.00000000
_symmetry_Int_Tables_number   1
_chemical_formula_structural   DyHo5ScCo17P12
_chemical_formula_sum   'Dy1 Ho5 Sc1 Co17 P12'
_cell_volume   481.34806031
_cell_formula_units_Z   1
loop_
 _symmetry_equiv_pos_site_id
 _symmetry_equiv_pos_as_xyz
  1  'x, y, z'
loop_
 _atom_site_type_symbol
 _atom_site_label
 _atom_site_symmetry_multiplicity
 _atom_site_fract_x
 _atom_site_fract_y
 _atom_site_fract_z
 _atom_site_occupancy
  Dy  Dy0  1  0.500000  0.000000  0.477554  1
  Ho  Ho1  1  0.000000  0.500000  0.527827  1
  Ho  Ho2  1  0.500000  0.821703  0.207436  1
  Ho  Ho3  1  0.500000  0.178297  0.207436  1
  Ho  Ho4  1  0.000000  0.682341  0.795583  1
  Ho  Ho5  1  0.000000  0.317659  0.795583  1
  Sc  Sc6  1  0.500000  0.500000  0.152952  1
  Co  Co7  1  0.000000  0.500000  0.984459  1
  Co  Co8  1  0.500000  0.000000  0.013134  1
  Co  Co9  1  0.500000  0.294944  0.434221  1
  Co  Co10  1  0.500000  0.705056  0.434221  1
  Co  Co11  1  0.000000  0.202162  0.570618  1
  Co  Co12  1  0.000000  0.797838  0.570618  1
  Co  Co13  1  0.500000  0.880117  0.707928  1
  Co  Co14  1  0.500000  0.119883  0.707928  1
  Co  Co15  1  0.000000  0.622713  0.296399  1
  Co  Co16  1  0.000000  0.377287  0.296399  1
  Co  Co17  1  0.500000  0.326711  0.989769  1
  Co  Co18  1  0.500000  0.673289  0.989769  1
  Co  Co19  1  0.000000  0.162247  0.001543  1
  Co  Co20  1  0.000000  0.837753  0.001543  1
  Co  Co21  1  0.000000  0.000000  0.837057  1
  Co  Co22  1  0.500000  0.500000  0.703486  1
  Co  Co23  1  0.000000  0.000000  0.295491  1
  P  P24  1  0.500000  0.309488  0.617995  1
  P  P25  1  0.500000  0.690512  0.617995  1
  P  P26  1  0.000000  0.188831  0.385954  1
  P  P27  1  0.000000  0.811169  0.385954  1
  P  P28  1  0.500000  0.500000  0.882888  1
  P  P29  1  0.000000  0.000000  0.116161  1
  P  P30  1  0.500000  0.851507  0.888729  1
  P  P31  1  0.500000  0.148493  0.888729  1
  P  P32  1  0.000000  0.663641  0.101641  1
  P  P33  1  0.000000  0.336359  0.101641  1
  P  P34  1  0.500000  0.500000  0.358533  1
  P  P35  1  0.000000  0.000000  0.654823  1
