# generated using pymatgen
data_Tm3Co6SiB2
_symmetry_space_group_name_H-M   'P 1'
_cell_length_a   5.10105600
_cell_length_b   5.10105643
_cell_length_c   13.58707300
_cell_angle_alpha   90.00000000
_cell_angle_beta   90.00000000
_cell_angle_gamma   120.00001019
_symmetry_Int_Tables_number   1
_chemical_formula_structural   Tm3Co6SiB2
_chemical_formula_sum   'Tm6 Co12 Si2 B4'
_cell_volume   306.17992686
_cell_formula_units_Z   2
loop_
 _symmetry_equiv_pos_site_id
 _symmetry_equiv_pos_as_xyz
  1  'x, y, z'
loop_
 _atom_site_type_symbol
 _atom_site_label
 _atom_site_symmetry_multiplicity
 _atom_site_fract_x
 _atom_site_fract_y
 _atom_site_fract_z
 _atom_site_occupancy
  Tm  Tm0  1  0.666667  0.333333  0.533156  1
  Tm  Tm1  1  0.333333  0.666667  0.466844  1
  Tm  Tm2  1  0.333333  0.666667  0.033156  1
  Tm  Tm3  1  0.666667  0.333333  0.750000  1
  Tm  Tm4  1  0.666667  0.333333  0.966844  1
  Tm  Tm5  1  0.333333  0.666667  0.250000  1
  Co  Co6  1  0.165688  0.331376  0.646425  1
  Co  Co7  1  0.331376  0.165688  0.353575  1
  Co  Co8  1  0.331376  0.165688  0.146425  1
  Co  Co9  1  0.165688  0.834312  0.853575  1
  Co  Co10  1  0.834312  0.668624  0.353575  1
  Co  Co11  1  0.834312  0.165688  0.146425  1
  Co  Co12  1  0.668624  0.834312  0.646425  1
  Co  Co13  1  0.668624  0.834312  0.853575  1
  Co  Co14  1  0.165688  0.834312  0.646425  1
  Co  Co15  1  0.834312  0.668624  0.146425  1
  Co  Co16  1  0.165688  0.331376  0.853575  1
  Co  Co17  1  0.834312  0.165688  0.353575  1
  Si  Si18  1  0.000000  0.000000  0.000000  1
  Si  Si19  1  0.000000  0.000000  0.500000  1
  B  B20  1  0.666667  0.333333  0.250000  1
  B  B21  1  0.000000  0.000000  0.750000  1
  B  B22  1  0.333333  0.666667  0.750000  1
  B  B23  1  0.000000  0.000000  0.250000  1
