# generated using pymatgen
data_CeY3(ZnSi)4
_symmetry_space_group_name_H-M   'P 1'
_cell_length_a   4.17581500
_cell_length_b   4.17581400
_cell_length_c   16.06802400
_cell_angle_alpha   90.00000000
_cell_angle_beta   90.00000000
_cell_angle_gamma   120.00000004
_symmetry_Int_Tables_number   1
_chemical_formula_structural   CeY3(ZnSi)4
_chemical_formula_sum   'Ce1 Y3 Zn4 Si4'
_cell_volume   242.64731988
_cell_formula_units_Z   1
loop_
 _symmetry_equiv_pos_site_id
 _symmetry_equiv_pos_as_xyz
  1  'x, y, z'
loop_
 _atom_site_type_symbol
 _atom_site_label
 _atom_site_symmetry_multiplicity
 _atom_site_fract_x
 _atom_site_fract_y
 _atom_site_fract_z
 _atom_site_occupancy
  Ce  Ce0  1  0.000000  0.000000  0.000000  1
  Y  Y1  1  0.000000  0.000000  0.746567  1
  Y  Y2  1  0.000000  0.000000  0.253433  1
  Y  Y3  1  0.000000  0.000000  0.500000  1
  Zn  Zn4  1  0.666667  0.333333  0.859552  1
  Zn  Zn5  1  0.666667  0.333333  0.636248  1
  Zn  Zn6  1  0.333333  0.666667  0.140448  1
  Zn  Zn7  1  0.333333  0.666667  0.363752  1
  Si  Si8  1  0.666667  0.333333  0.120744  1
  Si  Si9  1  0.666667  0.333333  0.381831  1
  Si  Si10  1  0.333333  0.666667  0.879256  1
  Si  Si11  1  0.333333  0.666667  0.618169  1
