# generated using pymatgen
data_Dy3TaPt12
_symmetry_space_group_name_H-M   'P 1'
_cell_length_a   5.78778366
_cell_length_b   5.78778277
_cell_length_c   8.15989800
_cell_angle_alpha   90.00000000
_cell_angle_beta   90.00000000
_cell_angle_gamma   89.99938622
_symmetry_Int_Tables_number   1
_chemical_formula_structural   Dy3TaPt12
_chemical_formula_sum   'Dy3 Ta1 Pt12'
_cell_volume   273.34380904
_cell_formula_units_Z   1
loop_
 _symmetry_equiv_pos_site_id
 _symmetry_equiv_pos_as_xyz
  1  'x, y, z'
loop_
 _atom_site_type_symbol
 _atom_site_label
 _atom_site_symmetry_multiplicity
 _atom_site_fract_x
 _atom_site_fract_y
 _atom_site_fract_z
 _atom_site_occupancy
  Dy  Dy0  1  0.500000  0.000000  0.249897  1
  Dy  Dy1  1  0.000000  0.500000  0.250056  1
  Dy  Dy2  1  0.500000  0.000000  0.750064  1
  Ta  Ta3  1  0.000000  0.500000  0.749965  1
  Pt  Pt4  1  0.243192  0.256808  0.991479  1
  Pt  Pt5  1  0.756977  0.256977  0.508617  1
  Pt  Pt6  1  0.754473  0.254473  0.992543  1
  Pt  Pt7  1  0.756808  0.743192  0.991479  1
  Pt  Pt8  1  0.500000  0.500000  0.749985  1
  Pt  Pt9  1  0.245841  0.254159  0.507357  1
  Pt  Pt10  1  0.754159  0.745841  0.507357  1
  Pt  Pt11  1  0.243023  0.743023  0.508617  1
  Pt  Pt12  1  0.500000  0.500000  0.250028  1
  Pt  Pt13  1  0.000000  0.000000  0.749985  1
  Pt  Pt14  1  0.000000  0.000000  0.250028  1
  Pt  Pt15  1  0.245527  0.745527  0.992543  1
