# generated using pymatgen
data_Pr8MgInIr2
_symmetry_space_group_name_H-M   'P 1'
_cell_length_a   10.08217794
_cell_length_b   10.08217869
_cell_length_c   10.12965600
_cell_angle_alpha   59.84410382
_cell_angle_beta   59.84410132
_cell_angle_gamma   59.92364668
_symmetry_Int_Tables_number   1
_chemical_formula_structural   Pr8MgInIr2
_chemical_formula_sum   'Pr16 Mg2 In2 Ir4'
_cell_volume   725.95718230
_cell_formula_units_Z   2
loop_
 _symmetry_equiv_pos_site_id
 _symmetry_equiv_pos_as_xyz
  1  'x, y, z'
loop_
 _atom_site_type_symbol
 _atom_site_label
 _atom_site_symmetry_multiplicity
 _atom_site_fract_x
 _atom_site_fract_y
 _atom_site_fract_z
 _atom_site_occupancy
  Pr  Pr0  1  0.347592  0.347592  0.345475  1
  Pr  Pr1  1  0.347592  0.347592  0.959342  1
  Pr  Pr2  1  0.350200  0.956023  0.346889  1
  Pr  Pr3  1  0.956023  0.350200  0.346889  1
  Pr  Pr4  1  0.809481  0.189111  0.191627  1
  Pr  Pr5  1  0.189111  0.809481  0.809781  1
  Pr  Pr6  1  0.189111  0.809481  0.191627  1
  Pr  Pr7  1  0.809481  0.189111  0.809781  1
  Pr  Pr8  1  0.186250  0.186250  0.813750  1
  Pr  Pr9  1  0.805081  0.805081  0.194919  1
  Pr  Pr10  1  0.940634  0.560192  0.561970  1
  Pr  Pr11  1  0.560192  0.940634  0.937204  1
  Pr  Pr12  1  0.560192  0.940634  0.561970  1
  Pr  Pr13  1  0.940634  0.560192  0.937204  1
  Pr  Pr14  1  0.560481  0.560481  0.939519  1
  Pr  Pr15  1  0.939129  0.939129  0.560871  1
  Mg  Mg16  1  0.577206  0.270315  0.576239  1
  Mg  Mg17  1  0.270315  0.577206  0.576239  1
  In  In18  1  0.580531  0.580531  0.583086  1
  In  In19  1  0.580531  0.580531  0.255852  1
  Ir  Ir20  1  0.141351  0.141351  0.141829  1
  Ir  Ir21  1  0.141351  0.141351  0.575469  1
  Ir  Ir22  1  0.141593  0.575939  0.141234  1
  Ir  Ir23  1  0.575939  0.141593  0.141234  1
