# generated using pymatgen
data_Er10Cd5In3Ni4
_symmetry_space_group_name_H-M   'P 1'
_cell_length_a   3.54948000
_cell_length_b   7.81666528
_cell_length_c   18.11377488
_cell_angle_alpha   89.83610389
_cell_angle_beta   90.00000000
_cell_angle_gamma   90.00000000
_symmetry_Int_Tables_number   1
_chemical_formula_structural   Er10Cd5In3Ni4
_chemical_formula_sum   'Er10 Cd5 In3 Ni4'
_cell_volume   502.56638629
_cell_formula_units_Z   1
loop_
 _symmetry_equiv_pos_site_id
 _symmetry_equiv_pos_as_xyz
  1  'x, y, z'
loop_
 _atom_site_type_symbol
 _atom_site_label
 _atom_site_symmetry_multiplicity
 _atom_site_fract_x
 _atom_site_fract_y
 _atom_site_fract_z
 _atom_site_occupancy
  Er  Er0  1  0.000000  0.498450  0.498733  1
  Er  Er1  1  0.000000  0.001852  0.000824  1
  Er  Er2  1  0.000000  0.757158  0.278427  1
  Er  Er3  1  0.000000  0.244177  0.720871  1
  Er  Er4  1  0.000000  0.742265  0.778064  1
  Er  Er5  1  0.000000  0.257356  0.221977  1
  Er  Er6  1  0.000000  0.618771  0.089663  1
  Er  Er7  1  0.000000  0.382634  0.910928  1
  Er  Er8  1  0.000000  0.880550  0.588817  1
  Er  Er9  1  0.000000  0.116822  0.411160  1
  Cd  Cd10  1  0.500000  0.708191  0.930598  1
  Cd  Cd11  1  0.500000  0.294776  0.069893  1
  Cd  Cd12  1  0.500000  0.791875  0.429927  1
  Cd  Cd13  1  0.500000  0.207288  0.569159  1
  Cd  Cd14  1  0.500000  0.562774  0.649991  1
  In  In15  1  0.500000  0.435730  0.349872  1
  In  In16  1  0.500000  0.937088  0.150443  1
  In  In17  1  0.500000  0.063693  0.849212  1
  Ni  Ni18  1  0.500000  0.536097  0.197267  1
  Ni  Ni19  1  0.500000  0.464551  0.803957  1
  Ni  Ni20  1  0.500000  0.962709  0.696662  1
  Ni  Ni21  1  0.500000  0.035193  0.303556  1
