# generated using pymatgen
data_TbY2Mg3AgSn2
_symmetry_space_group_name_H-M   'P 1'
_cell_length_a   7.53719257
_cell_length_b   7.53719329
_cell_length_c   4.52562900
_cell_angle_alpha   90.00000000
_cell_angle_beta   90.00000000
_cell_angle_gamma   120.07407896
_symmetry_Int_Tables_number   1
_chemical_formula_structural   TbY2Mg3AgSn2
_chemical_formula_sum   'Tb1 Y2 Mg3 Ag1 Sn2'
_cell_volume   222.48676095
_cell_formula_units_Z   1
loop_
 _symmetry_equiv_pos_site_id
 _symmetry_equiv_pos_as_xyz
  1  'x, y, z'
loop_
 _atom_site_type_symbol
 _atom_site_label
 _atom_site_symmetry_multiplicity
 _atom_site_fract_x
 _atom_site_fract_y
 _atom_site_fract_z
 _atom_site_occupancy
  Tb  Tb0  1  0.415512  0.415512  0.500000  1
  Y  Y1  1  0.000076  0.584355  0.500000  1
  Y  Y2  1  0.584355  0.000076  0.500000  1
  Mg  Mg3  1  0.762865  0.762865  0.000000  1
  Mg  Mg4  1  0.237190  0.000006  0.000000  1
  Mg  Mg5  1  0.000006  0.237190  0.000000  1
  Ag  Ag6  1  0.000006  0.000006  0.500000  1
  Sn  Sn7  1  0.666773  0.333217  0.000000  1
  Sn  Sn8  1  0.333217  0.666773  0.000000  1
