# generated using pymatgen
data_YHo3Co16(TcP3)4
_symmetry_space_group_name_H-M   'P 1'
_cell_length_a   3.71057900
_cell_length_b   10.35536603
_cell_length_c   11.81236504
_cell_angle_alpha   90.00937199
_cell_angle_beta   90.00000000
_cell_angle_gamma   90.00000000
_symmetry_Int_Tables_number   1
_chemical_formula_structural   YHo3Co16(TcP3)4
_chemical_formula_sum   'Y1 Ho3 Co16 Tc4 P12'
_cell_volume   453.88307739
_cell_formula_units_Z   1
loop_
 _symmetry_equiv_pos_site_id
 _symmetry_equiv_pos_as_xyz
  1  'x, y, z'
loop_
 _atom_site_type_symbol
 _atom_site_label
 _atom_site_symmetry_multiplicity
 _atom_site_fract_x
 _atom_site_fract_y
 _atom_site_fract_z
 _atom_site_occupancy
  Y  Y0  1  0.250000  0.584201  0.704680  1
  Ho  Ho1  1  0.250000  0.916068  0.204617  1
  Ho  Ho2  1  0.750000  0.083964  0.795283  1
  Ho  Ho3  1  0.750000  0.415911  0.295458  1
  Co  Co4  1  0.250000  0.093121  0.988722  1
  Co  Co5  1  0.750000  0.906929  0.011304  1
  Co  Co6  1  0.750000  0.593062  0.510553  1
  Co  Co7  1  0.250000  0.406604  0.488542  1
  Co  Co8  1  0.250000  0.277712  0.676329  1
  Co  Co9  1  0.750000  0.722249  0.323471  1
  Co  Co10  1  0.750000  0.778249  0.823736  1
  Co  Co11  1  0.250000  0.222089  0.176473  1
  Co  Co12  1  0.250000  0.614209  0.202770  1
  Co  Co13  1  0.750000  0.385172  0.797596  1
  Co  Co14  1  0.750000  0.114172  0.297273  1
  Co  Co15  1  0.250000  0.886146  0.702643  1
  Co  Co16  1  0.250000  0.036058  0.431295  1
  Co  Co17  1  0.750000  0.964252  0.568468  1
  Co  Co18  1  0.750000  0.535993  0.068970  1
  Co  Co19  1  0.250000  0.463750  0.931796  1
  Tc  Tc20  1  0.250000  0.789208  0.489469  1
  Tc  Tc21  1  0.750000  0.210757  0.510124  1
  Tc  Tc22  1  0.750000  0.288994  0.010370  1
  Tc  Tc23  1  0.250000  0.710959  0.989846  1
  P  P24  1  0.250000  0.079179  0.612999  1
  P  P25  1  0.750000  0.920922  0.386856  1
  P  P26  1  0.750000  0.579149  0.887556  1
  P  P27  1  0.250000  0.420795  0.113276  1
  P  P28  1  0.250000  0.230427  0.365245  1
  P  P29  1  0.750000  0.770218  0.634490  1
  P  P30  1  0.750000  0.730601  0.134750  1
  P  P31  1  0.250000  0.269472  0.865252  1
  P  P32  1  0.250000  0.903567  0.891164  1
  P  P33  1  0.750000  0.096362  0.108840  1
  P  P34  1  0.750000  0.403132  0.608639  1
  P  P35  1  0.250000  0.596348  0.391145  1
