# generated using pymatgen
data_BaB2SeS3
_symmetry_space_group_name_H-M   'P 1'
_cell_length_a   8.86270021
_cell_length_b   8.86270002
_cell_length_c   6.11742691
_cell_angle_alpha   82.47730018
_cell_angle_beta   97.52270853
_cell_angle_gamma   45.81893663
_symmetry_Int_Tables_number   1
_chemical_formula_structural   BaB2SeS3
_chemical_formula_sum   'Ba2 B4 Se2 S6'
_cell_volume   324.51966419
_cell_formula_units_Z   2
loop_
 _symmetry_equiv_pos_site_id
 _symmetry_equiv_pos_as_xyz
  1  'x, y, z'
loop_
 _atom_site_type_symbol
 _atom_site_label
 _atom_site_symmetry_multiplicity
 _atom_site_fract_x
 _atom_site_fract_y
 _atom_site_fract_z
 _atom_site_occupancy
  Ba  Ba0  1  0.895929  0.808616  0.455170  1
  Ba  Ba1  1  0.191384  0.104071  0.955170  1
  B  B2  1  0.854869  0.403185  0.371596  1
  B  B3  1  0.596815  0.145132  0.871594  1
  B  B4  1  0.459240  0.503971  0.060712  1
  B  B5  1  0.496030  0.540759  0.560714  1
  Se  Se6  1  0.143959  0.290659  0.419886  1
  Se  Se7  1  0.709340  0.856042  0.919886  1
  S  S8  1  0.442775  0.296428  0.062019  1
  S  S9  1  0.703573  0.557224  0.562020  1
  S  S10  1  0.293592  0.684160  0.249385  1
  S  S11  1  0.315840  0.706407  0.749385  1
  S  S12  1  0.673671  0.226216  0.663314  1
  S  S13  1  0.773785  0.326327  0.163314  1
