# generated using pymatgen
data_TmPaCdNi2
_symmetry_space_group_name_H-M   'P 1'
_cell_length_a   7.40661990
_cell_length_b   7.40661918
_cell_length_c   3.53618000
_cell_angle_alpha   90.00000000
_cell_angle_beta   90.00000000
_cell_angle_gamma   94.17208540
_symmetry_Int_Tables_number   1
_chemical_formula_structural   TmPaCdNi2
_chemical_formula_sum   'Tm2 Pa2 Cd2 Ni4'
_cell_volume   193.47374867
_cell_formula_units_Z   2
loop_
 _symmetry_equiv_pos_site_id
 _symmetry_equiv_pos_as_xyz
  1  'x, y, z'
loop_
 _atom_site_type_symbol
 _atom_site_label
 _atom_site_symmetry_multiplicity
 _atom_site_fract_x
 _atom_site_fract_y
 _atom_site_fract_z
 _atom_site_occupancy
  Tm  Tm0  1  0.169770  0.330230  0.500000  1
  Tm  Tm1  1  0.830230  0.669770  0.500000  1
  Pa  Pa2  1  0.671937  0.171937  0.500000  1
  Pa  Pa3  1  0.328063  0.828063  0.500000  1
  Cd  Cd4  1  0.000000  0.000000  0.000000  1
  Cd  Cd5  1  0.500000  0.500000  0.000000  1
  Ni  Ni6  1  0.134023  0.634023  0.000000  1
  Ni  Ni7  1  0.865977  0.365977  0.000000  1
  Ni  Ni8  1  0.617345  0.882655  0.000000  1
  Ni  Ni9  1  0.382655  0.117345  0.000000  1
