# generated using pymatgen
data_Rb8Ho6BBr20
_symmetry_space_group_name_H-M   'P 1'
_cell_length_a   12.27591950
_cell_length_b   12.27592028
_cell_length_c   12.27591900
_cell_angle_alpha   60.00000075
_cell_angle_beta   59.99999866
_cell_angle_gamma   59.99999964
_symmetry_Int_Tables_number   1
_chemical_formula_structural   Rb8Ho6BBr20
_chemical_formula_sum   'Rb8 Ho6 B1 Br20'
_cell_volume   1308.11855098
_cell_formula_units_Z   1
loop_
 _symmetry_equiv_pos_site_id
 _symmetry_equiv_pos_as_xyz
  1  'x, y, z'
loop_
 _atom_site_type_symbol
 _atom_site_label
 _atom_site_symmetry_multiplicity
 _atom_site_fract_x
 _atom_site_fract_y
 _atom_site_fract_z
 _atom_site_occupancy
  Rb  Rb0  1  0.359546  0.359546  0.359546  1
  Rb  Rb1  1  0.640454  0.640454  0.640454  1
  Rb  Rb2  1  0.359546  0.359546  0.921362  1
  Rb  Rb3  1  0.359546  0.921362  0.359546  1
  Rb  Rb4  1  0.640454  0.640454  0.078638  1
  Rb  Rb5  1  0.640454  0.078638  0.640454  1
  Rb  Rb6  1  0.921362  0.359546  0.359546  1
  Rb  Rb7  1  0.078638  0.640454  0.640454  1
  Ho  Ho8  1  0.849744  0.150256  0.150256  1
  Ho  Ho9  1  0.150256  0.849744  0.849744  1
  Ho  Ho10  1  0.150256  0.849744  0.150256  1
  Ho  Ho11  1  0.849744  0.150256  0.849744  1
  Ho  Ho12  1  0.150256  0.150256  0.849744  1
  Ho  Ho13  1  0.849744  0.849744  0.150256  1
  B  B14  1  0.000000  0.000000  0.000000  1
  Br  Br15  1  0.328264  0.000000  0.000000  1
  Br  Br16  1  0.671736  0.000000  0.000000  1
  Br  Br17  1  0.000000  0.328264  0.671736  1
  Br  Br18  1  0.000000  0.671736  0.328264  1
  Br  Br19  1  0.000000  0.328264  0.000000  1
  Br  Br20  1  0.671736  0.000000  0.328264  1
  Br  Br21  1  0.000000  0.671736  0.000000  1
  Br  Br22  1  0.328264  0.000000  0.671736  1
  Br  Br23  1  0.000000  0.000000  0.328264  1
  Br  Br24  1  0.000000  0.000000  0.671736  1
  Br  Br25  1  0.671736  0.328264  0.000000  1
  Br  Br26  1  0.328264  0.671736  0.000000  1
  Br  Br27  1  0.682910  0.317090  0.317090  1
  Br  Br28  1  0.317090  0.682910  0.682910  1
  Br  Br29  1  0.317090  0.682910  0.317090  1
  Br  Br30  1  0.682910  0.317090  0.682910  1
  Br  Br31  1  0.317090  0.317090  0.682910  1
  Br  Br32  1  0.682910  0.682910  0.317090  1
  Br  Br33  1  0.250000  0.250000  0.250000  1
  Br  Br34  1  0.750000  0.750000  0.750000  1
