# generated using pymatgen
data_Zr16ZnFe4Rh3
_symmetry_space_group_name_H-M   'P 1'
_cell_length_a   8.70762797
_cell_length_b   8.72359649
_cell_length_c   8.72359700
_cell_angle_alpha   60.00000187
_cell_angle_beta   59.93931991
_cell_angle_gamma   59.93932286
_symmetry_Int_Tables_number   1
_chemical_formula_structural   Zr16ZnFe4Rh3
_chemical_formula_sum   'Zr16 Zn1 Fe4 Rh3'
_cell_volume   468.14146760
_cell_formula_units_Z   1
loop_
 _symmetry_equiv_pos_site_id
 _symmetry_equiv_pos_as_xyz
  1  'x, y, z'
loop_
 _atom_site_type_symbol
 _atom_site_label
 _atom_site_symmetry_multiplicity
 _atom_site_fract_x
 _atom_site_fract_y
 _atom_site_fract_z
 _atom_site_occupancy
  Zr  Zr0  1  0.059218  0.646927  0.646927  1
  Zr  Zr1  1  0.645799  0.059088  0.647557  1
  Zr  Zr2  1  0.645799  0.647557  0.059088  1
  Zr  Zr3  1  0.645799  0.647557  0.647557  1
  Zr  Zr4  1  0.809054  0.806656  0.192145  1
  Zr  Zr5  1  0.193226  0.193276  0.806749  1
  Zr  Zr6  1  0.809054  0.192145  0.806656  1
  Zr  Zr7  1  0.193226  0.806749  0.193276  1
  Zr  Zr8  1  0.193226  0.806749  0.806749  1
  Zr  Zr9  1  0.809054  0.192145  0.192145  1
  Zr  Zr10  1  0.441895  0.437355  0.060375  1
  Zr  Zr11  1  0.067141  0.058072  0.437394  1
  Zr  Zr12  1  0.441895  0.060375  0.437355  1
  Zr  Zr13  1  0.067141  0.437394  0.058072  1
  Zr  Zr14  1  0.067141  0.437394  0.437394  1
  Zr  Zr15  1  0.441895  0.060375  0.060375  1
  Zn  Zn16  1  0.728942  0.423686  0.423686  1
  Fe  Fe17  1  0.427071  0.857643  0.857643  1
  Fe  Fe18  1  0.857395  0.424167  0.859218  1
  Fe  Fe19  1  0.857395  0.859218  0.424167  1
  Fe  Fe20  1  0.857395  0.859218  0.859218  1
  Rh  Rh21  1  0.413746  0.757530  0.414362  1
  Rh  Rh22  1  0.413746  0.414362  0.757530  1
  Rh  Rh23  1  0.413746  0.414362  0.414362  1
