# generated using pymatgen
data_TbZnGa5Cu6
_symmetry_space_group_name_H-M   'P 1'
_cell_length_a   6.61151710
_cell_length_b   6.61151639
_cell_length_c   6.61151617
_cell_angle_alpha   134.14095838
_cell_angle_beta   99.70296334
_cell_angle_gamma   97.76057489
_symmetry_Int_Tables_number   1
_chemical_formula_structural   TbZnGa5Cu6
_chemical_formula_sum   'Tb1 Zn1 Ga5 Cu6'
_cell_volume   190.97245119
_cell_formula_units_Z   1
loop_
 _symmetry_equiv_pos_site_id
 _symmetry_equiv_pos_as_xyz
  1  'x, y, z'
loop_
 _atom_site_type_symbol
 _atom_site_label
 _atom_site_symmetry_multiplicity
 _atom_site_fract_x
 _atom_site_fract_y
 _atom_site_fract_z
 _atom_site_occupancy
  Tb  Tb0  1  0.000484  0.000484  0.000000  1
  Zn  Zn1  1  0.197729  0.697729  0.500000  1
  Ga  Ga2  1  0.347219  0.347219  0.000000  1
  Ga  Ga3  1  0.649985  0.649985  0.000000  1
  Ga  Ga4  1  0.650101  0.998504  0.651598  1
  Ga  Ga5  1  0.346906  0.998504  0.348402  1
  Ga  Ga6  1  0.808344  0.308344  0.500000  1
  Cu  Cu7  1  0.500477  0.999538  0.000874  1
  Cu  Cu8  1  0.500477  0.499604  0.500939  1
  Cu  Cu9  1  0.998664  0.999538  0.499061  1
  Cu  Cu10  1  0.998664  0.499604  0.999126  1
  Cu  Cu11  1  0.231334  0.500474  0.730860  1
  Cu  Cu12  1  0.769614  0.500474  0.269140  1
