# generated using pymatgen
data_Hf18MnCr2Re6Se
_symmetry_space_group_name_H-M   'P 1'
_cell_length_a   8.55839100
_cell_length_b   8.55838987
_cell_length_c   8.51910400
_cell_angle_alpha   90.00000000
_cell_angle_beta   90.00000000
_cell_angle_gamma   120.00000052
_symmetry_Int_Tables_number   1
_chemical_formula_structural   Hf18MnCr2Re6Se
_chemical_formula_sum   'Hf18 Mn1 Cr2 Re6 Se1'
_cell_volume   540.39178666
_cell_formula_units_Z   1
loop_
 _symmetry_equiv_pos_site_id
 _symmetry_equiv_pos_as_xyz
  1  'x, y, z'
loop_
 _atom_site_type_symbol
 _atom_site_label
 _atom_site_symmetry_multiplicity
 _atom_site_fract_x
 _atom_site_fract_y
 _atom_site_fract_z
 _atom_site_occupancy
  Hf  Hf0  1  0.200120  0.799880  0.442722  1
  Hf  Hf1  1  0.200120  0.400239  0.442722  1
  Hf  Hf2  1  0.599761  0.799880  0.442722  1
  Hf  Hf3  1  0.810335  0.189665  0.547272  1
  Hf  Hf4  1  0.810335  0.620670  0.547272  1
  Hf  Hf5  1  0.379330  0.189665  0.547272  1
  Hf  Hf6  1  0.810335  0.189665  0.952728  1
  Hf  Hf7  1  0.810335  0.620670  0.952728  1
  Hf  Hf8  1  0.379330  0.189665  0.952728  1
  Hf  Hf9  1  0.200120  0.799880  0.057278  1
  Hf  Hf10  1  0.200120  0.400239  0.057278  1
  Hf  Hf11  1  0.599761  0.799880  0.057278  1
  Hf  Hf12  1  0.539840  0.460160  0.250000  1
  Hf  Hf13  1  0.539840  0.079680  0.250000  1
  Hf  Hf14  1  0.920320  0.460160  0.250000  1
  Hf  Hf15  1  0.456082  0.543918  0.750000  1
  Hf  Hf16  1  0.456082  0.912163  0.750000  1
  Hf  Hf17  1  0.087837  0.543918  0.750000  1
  Mn  Mn18  1  0.333333  0.666667  0.250000  1
  Cr  Cr19  1  0.000000  0.000000  0.498166  1
  Cr  Cr20  1  0.000000  0.000000  0.001834  1
  Re  Re21  1  0.891885  0.108115  0.250000  1
  Re  Re22  1  0.891885  0.783772  0.250000  1
  Re  Re23  1  0.216228  0.108115  0.250000  1
  Re  Re24  1  0.108083  0.891917  0.750000  1
  Re  Re25  1  0.108083  0.216166  0.750000  1
  Re  Re26  1  0.783834  0.891917  0.750000  1
  Se  Se27  1  0.666667  0.333333  0.750000  1
