# generated using pymatgen
data_Gd2As4O9
_symmetry_space_group_name_H-M   'P 1'
_cell_length_a   6.84984559
_cell_length_b   7.63812219
_cell_length_c   9.87533803
_cell_angle_alpha   95.17893354
_cell_angle_beta   104.16939350
_cell_angle_gamma   104.68041690
_symmetry_Int_Tables_number   1
_chemical_formula_structural   Gd2As4O9
_chemical_formula_sum   'Gd4 As8 O18'
_cell_volume   478.17220026
_cell_formula_units_Z   2
loop_
 _symmetry_equiv_pos_site_id
 _symmetry_equiv_pos_as_xyz
  1  'x, y, z'
loop_
 _atom_site_type_symbol
 _atom_site_label
 _atom_site_symmetry_multiplicity
 _atom_site_fract_x
 _atom_site_fract_y
 _atom_site_fract_z
 _atom_site_occupancy
  Gd  Gd0  1  0.246321  0.939495  0.615907  1
  Gd  Gd1  1  0.753679  0.060505  0.384093  1
  Gd  Gd2  1  0.719636  0.531261  0.407498  1
  Gd  Gd3  1  0.280364  0.468739  0.592502  1
  As  As4  1  0.679367  0.776412  0.074759  1
  As  As5  1  0.320633  0.223588  0.925241  1
  As  As6  1  0.174634  0.754309  0.913710  1
  As  As7  1  0.825366  0.245691  0.086290  1
  As  As8  1  0.746652  0.916730  0.709395  1
  As  As9  1  0.253348  0.083270  0.290605  1
  As  As10  1  0.809149  0.350012  0.701614  1
  As  As11  1  0.190851  0.649988  0.298386  1
  O  O12  1  0.723036  0.751460  0.254521  1
  O  O13  1  0.276964  0.248540  0.745479  1
  O  O14  1  0.316521  0.979133  0.873702  1
  O  O15  1  0.683479  0.020867  0.126298  1
  O  O16  1  0.606558  0.320716  0.985527  1
  O  O17  1  0.393442  0.679284  0.014473  1
  O  O18  1  0.132454  0.650261  0.739284  1
  O  O19  1  0.867546  0.349739  0.260716  1
  O  O20  1  0.845594  0.873130  0.559466  1
  O  O21  1  0.154406  0.126870  0.440534  1
  O  O22  1  0.489532  0.771074  0.667512  1
  O  O23  1  0.510468  0.228926  0.332488  1
  O  O24  1  0.372515  0.537440  0.377868  1
  O  O25  1  0.627485  0.462560  0.622132  1
  O  O26  1  0.090062  0.668752  0.452043  1
  O  O27  1  0.909938  0.331248  0.547957  1
  O  O28  1  0.370304  0.898445  0.358546  1
  O  O29  1  0.629696  0.101555  0.641454  1
