# generated using pymatgen
data_ScBe8Ru3
_symmetry_space_group_name_H-M   'P 1'
_cell_length_a   4.39913300
_cell_length_b   4.39913281
_cell_length_c   7.28536600
_cell_angle_alpha   90.00000000
_cell_angle_beta   90.00000000
_cell_angle_gamma   119.99999392
_symmetry_Int_Tables_number   1
_chemical_formula_structural   ScBe8Ru3
_chemical_formula_sum   'Sc1 Be8 Ru3'
_cell_volume   122.10015031
_cell_formula_units_Z   1
loop_
 _symmetry_equiv_pos_site_id
 _symmetry_equiv_pos_as_xyz
  1  'x, y, z'
loop_
 _atom_site_type_symbol
 _atom_site_label
 _atom_site_symmetry_multiplicity
 _atom_site_fract_x
 _atom_site_fract_y
 _atom_site_fract_z
 _atom_site_occupancy
  Sc  Sc0  1  0.333333  0.666667  0.433770  1
  Be  Be1  1  0.000000  0.000000  0.505449  1
  Be  Be2  1  0.000000  0.000000  0.001375  1
  Be  Be3  1  0.829884  0.170116  0.235518  1
  Be  Be4  1  0.829884  0.659768  0.235518  1
  Be  Be5  1  0.340232  0.170116  0.235518  1
  Be  Be6  1  0.167101  0.832899  0.762417  1
  Be  Be7  1  0.167101  0.334201  0.762417  1
  Be  Be8  1  0.665799  0.832899  0.762417  1
  Ru  Ru9  1  0.666667  0.333333  0.568914  1
  Ru  Ru10  1  0.666667  0.333333  0.932046  1
  Ru  Ru11  1  0.333333  0.666667  0.064643  1
