# generated using pymatgen
data_TbPrZn5Sn
_symmetry_space_group_name_H-M   'P 1'
_cell_length_a   8.51122517
_cell_length_b   8.51122646
_cell_length_c   9.05662200
_cell_angle_alpha   90.00000000
_cell_angle_beta   90.00000000
_cell_angle_gamma   149.69297703
_symmetry_Int_Tables_number   1
_chemical_formula_structural   TbPrZn5Sn
_chemical_formula_sum   'Tb2 Pr2 Zn10 Sn2'
_cell_volume   331.07508758
_cell_formula_units_Z   2
loop_
 _symmetry_equiv_pos_site_id
 _symmetry_equiv_pos_as_xyz
  1  'x, y, z'
loop_
 _atom_site_type_symbol
 _atom_site_label
 _atom_site_symmetry_multiplicity
 _atom_site_fract_x
 _atom_site_fract_y
 _atom_site_fract_z
 _atom_site_occupancy
  Tb  Tb0  1  0.205607  0.794393  0.250000  1
  Tb  Tb1  1  0.794393  0.205607  0.750000  1
  Pr  Pr2  1  0.000000  0.000000  0.500000  1
  Pr  Pr3  1  0.000000  0.000000  0.000000  1
  Zn  Zn4  1  0.812759  0.187241  0.390692  1
  Zn  Zn5  1  0.187241  0.812759  0.609308  1
  Zn  Zn6  1  0.812759  0.187241  0.109308  1
  Zn  Zn7  1  0.187241  0.812759  0.890692  1
  Zn  Zn8  1  0.657774  0.342226  0.482601  1
  Zn  Zn9  1  0.342226  0.657774  0.517399  1
  Zn  Zn10  1  0.657774  0.342226  0.017399  1
  Zn  Zn11  1  0.342226  0.657774  0.982601  1
  Zn  Zn12  1  0.394493  0.605507  0.250000  1
  Zn  Zn13  1  0.605507  0.394493  0.750000  1
  Sn  Sn14  1  0.557067  0.442933  0.250000  1
  Sn  Sn15  1  0.442933  0.557067  0.750000  1
