# generated using pymatgen
data_PrDy5FeCl10
_symmetry_space_group_name_H-M   'P 1'
_cell_length_a   7.15017072
_cell_length_b   8.73263214
_cell_length_c   9.02842953
_cell_angle_alpha   109.08965840
_cell_angle_beta   96.56871991
_cell_angle_gamma   105.11688877
_symmetry_Int_Tables_number   1
_chemical_formula_structural   PrDy5FeCl10
_chemical_formula_sum   'Pr1 Dy5 Fe1 Cl10'
_cell_volume   501.82705439
_cell_formula_units_Z   1
loop_
 _symmetry_equiv_pos_site_id
 _symmetry_equiv_pos_as_xyz
  1  'x, y, z'
loop_
 _atom_site_type_symbol
 _atom_site_label
 _atom_site_symmetry_multiplicity
 _atom_site_fract_x
 _atom_site_fract_y
 _atom_site_fract_z
 _atom_site_occupancy
  Pr  Pr0  1  0.968674  0.289154  0.091698  1
  Dy  Dy1  1  0.133315  0.054534  0.750618  1
  Dy  Dy2  1  0.632728  0.857217  0.809929  1
  Dy  Dy3  1  0.862751  0.946087  0.248767  1
  Dy  Dy4  1  0.033191  0.720202  0.911682  1
  Dy  Dy5  1  0.366904  0.138846  0.189610  1
  Fe  Fe6  1  0.997716  0.007275  0.002265  1
  Cl  Cl7  1  0.210791  0.751828  0.659891  1
  Cl  Cl8  1  0.663165  0.551165  0.729296  1
  Cl  Cl9  1  0.235224  0.076962  0.448563  1
  Cl  Cl10  1  0.775437  0.240583  0.350206  1
  Cl  Cl11  1  0.541586  0.167565  0.917328  1
  Cl  Cl12  1  0.760579  0.915077  0.549118  1
  Cl  Cl13  1  0.910768  0.636780  0.161680  1
  Cl  Cl14  1  0.365368  0.452243  0.278944  1
  Cl  Cl15  1  0.098094  0.371361  0.826129  1
  Cl  Cl16  1  0.443709  0.823123  0.074276  1
