# generated using pymatgen
data_TePd5
_symmetry_space_group_name_H-M   'P 1'
_cell_length_a   4.92440478
_cell_length_b   4.92440405
_cell_length_c   8.73694811
_cell_angle_alpha   93.57004724
_cell_angle_beta   93.57004809
_cell_angle_gamma   108.24576345
_symmetry_Int_Tables_number   1
_chemical_formula_structural   TePd5
_chemical_formula_sum   'Te2 Pd10'
_cell_volume   200.07756313
_cell_formula_units_Z   2
loop_
 _symmetry_equiv_pos_site_id
 _symmetry_equiv_pos_as_xyz
  1  'x, y, z'
loop_
 _atom_site_type_symbol
 _atom_site_label
 _atom_site_symmetry_multiplicity
 _atom_site_fract_x
 _atom_site_fract_y
 _atom_site_fract_z
 _atom_site_occupancy
  Te  Te0  1  0.235878  0.235878  0.205040  1
  Te  Te1  1  0.764123  0.764123  0.794960  1
  Pd  Pd2  1  0.797723  0.202276  0.000000  1
  Pd  Pd3  1  0.202276  0.797723  0.000000  1
  Pd  Pd4  1  0.675260  0.675260  0.150147  1
  Pd  Pd5  1  0.739785  0.219918  0.332868  1
  Pd  Pd6  1  0.219918  0.739785  0.332868  1
  Pd  Pd7  1  0.742412  0.742412  0.488009  1
  Pd  Pd8  1  0.257588  0.257588  0.511991  1
  Pd  Pd9  1  0.780082  0.260215  0.667132  1
  Pd  Pd10  1  0.260215  0.780082  0.667132  1
  Pd  Pd11  1  0.324740  0.324740  0.849854  1
