# generated using pymatgen
data_Lu12InNi4Pb
_symmetry_space_group_name_H-M   'P 1'
_cell_length_a   8.23462260
_cell_length_b   8.23462200
_cell_length_c   8.23462210
_cell_angle_alpha   111.72080532
_cell_angle_beta   109.78016913
_cell_angle_gamma   106.94800194
_symmetry_Int_Tables_number   1
_chemical_formula_structural   Lu12InNi4Pb
_chemical_formula_sum   'Lu12 In1 Ni4 Pb1'
_cell_volume   429.09142784
_cell_formula_units_Z   1
loop_
 _symmetry_equiv_pos_site_id
 _symmetry_equiv_pos_as_xyz
  1  'x, y, z'
loop_
 _atom_site_type_symbol
 _atom_site_label
 _atom_site_symmetry_multiplicity
 _atom_site_fract_x
 _atom_site_fract_y
 _atom_site_fract_z
 _atom_site_occupancy
  Lu  Lu0  1  0.443435  0.230596  0.212839  1
  Lu  Lu1  1  0.556565  0.769404  0.787161  1
  Lu  Lu2  1  0.017757  0.230596  0.787161  1
  Lu  Lu3  1  0.982243  0.769404  0.212839  1
  Lu  Lu4  1  0.183066  0.288754  0.471821  1
  Lu  Lu5  1  0.816934  0.711246  0.528179  1
  Lu  Lu6  1  0.183066  0.711246  0.894313  1
  Lu  Lu7  1  0.816934  0.288754  0.105687  1
  Lu  Lu8  1  0.321089  0.623515  0.302426  1
  Lu  Lu9  1  0.678911  0.376485  0.697574  1
  Lu  Lu10  1  0.321089  0.018663  0.697574  1
  Lu  Lu11  1  0.678911  0.981337  0.302426  1
  In  In12  1  0.000000  0.000000  0.000000  1
  Ni  Ni13  1  0.362067  0.000000  0.362067  1
  Ni  Ni14  1  0.637933  0.000000  0.637933  1
  Ni  Ni15  1  0.123369  0.623369  0.500000  1
  Ni  Ni16  1  0.876631  0.376631  0.500000  1
  Pb  Pb17  1  0.500000  0.500000  0.000000  1
