# generated using pymatgen
data_La7Tb2CeRu4
_symmetry_space_group_name_H-M   'P 1'
_cell_length_a   9.08322668
_cell_length_b   9.08951483
_cell_length_c   7.22228900
_cell_angle_alpha   84.74085503
_cell_angle_beta   85.77771183
_cell_angle_gamma   42.60658036
_symmetry_Int_Tables_number   1
_chemical_formula_structural   La7Tb2CeRu4
_chemical_formula_sum   'La7 Tb2 Ce1 Ru4'
_cell_volume   401.94700768
_cell_formula_units_Z   1
loop_
 _symmetry_equiv_pos_site_id
 _symmetry_equiv_pos_as_xyz
  1  'x, y, z'
loop_
 _atom_site_type_symbol
 _atom_site_label
 _atom_site_symmetry_multiplicity
 _atom_site_fract_x
 _atom_site_fract_y
 _atom_site_fract_z
 _atom_site_occupancy
  La  La0  1  0.019115  0.798595  0.910603  1
  La  La1  1  0.215614  0.357266  0.314594  1
  La  La2  1  0.638235  0.789943  0.187989  1
  La  La3  1  0.793139  0.634352  0.682758  1
  La  La4  1  0.364073  0.211228  0.813913  1
  La  La5  1  0.975342  0.203768  0.093231  1
  La  La6  1  0.800837  0.021048  0.411123  1
  Tb  Tb7  1  0.566699  0.432139  0.748922  1
  Tb  Tb8  1  0.426756  0.574689  0.254545  1
  Ce  Ce9  1  0.192358  0.992013  0.602517  1
  Ru  Ru10  1  0.179206  0.600593  0.575694  1
  Ru  Ru11  1  0.376054  0.837730  0.891896  1
  Ru  Ru12  1  0.850673  0.366260  0.432461  1
  Ru  Ru13  1  0.601899  0.180377  0.079756  1
