# generated using pymatgen
data_TmPa3Ge4Ir3Pt
_symmetry_space_group_name_H-M   'P 1'
_cell_length_a   4.33673600
_cell_length_b   6.95688543
_cell_length_c   7.67974610
_cell_angle_alpha   89.63202342
_cell_angle_beta   90.00000000
_cell_angle_gamma   90.00000000
_symmetry_Int_Tables_number   1
_chemical_formula_structural   TmPa3Ge4Ir3Pt
_chemical_formula_sum   'Tm1 Pa3 Ge4 Ir3 Pt1'
_cell_volume   231.69450899
_cell_formula_units_Z   1
loop_
 _symmetry_equiv_pos_site_id
 _symmetry_equiv_pos_as_xyz
  1  'x, y, z'
loop_
 _atom_site_type_symbol
 _atom_site_label
 _atom_site_symmetry_multiplicity
 _atom_site_fract_x
 _atom_site_fract_y
 _atom_site_fract_z
 _atom_site_occupancy
  Tm  Tm0  1  0.750000  0.006097  0.199417  1
  Pa  Pa1  1  0.250000  0.497252  0.706921  1
  Pa  Pa2  1  0.250000  0.994318  0.801196  1
  Pa  Pa3  1  0.750000  0.514345  0.295474  1
  Ge  Ge4  1  0.250000  0.816303  0.409851  1
  Ge  Ge5  1  0.250000  0.318316  0.086063  1
  Ge  Ge6  1  0.750000  0.180619  0.583544  1
  Ge  Ge7  1  0.750000  0.684185  0.918694  1
  Ir  Ir8  1  0.250000  0.719564  0.086602  1
  Ir  Ir9  1  0.750000  0.773074  0.590002  1
  Ir  Ir10  1  0.750000  0.276278  0.907435  1
  Pt  Pt11  1  0.250000  0.219647  0.414802  1
