# generated using pymatgen
data_Tb8Nb11Si16Au
_symmetry_space_group_name_H-M   'P 1'
_cell_length_a   7.09178821
_cell_length_b   7.09178827
_cell_length_c   13.05871957
_cell_angle_alpha   90.26962188
_cell_angle_beta   89.73037962
_cell_angle_gamma   89.71418514
_symmetry_Int_Tables_number   1
_chemical_formula_structural   Tb8Nb11Si16Au
_chemical_formula_sum   'Tb8 Nb11 Si16 Au1'
_cell_volume   656.74540799
_cell_formula_units_Z   1
loop_
 _symmetry_equiv_pos_site_id
 _symmetry_equiv_pos_as_xyz
  1  'x, y, z'
loop_
 _atom_site_type_symbol
 _atom_site_label
 _atom_site_symmetry_multiplicity
 _atom_site_fract_x
 _atom_site_fract_y
 _atom_site_fract_z
 _atom_site_occupancy
  Tb  Tb0  1  0.342015  0.002262  0.466973  1
  Tb  Tb1  1  0.496500  0.840755  0.717245  1
  Tb  Tb2  1  0.502417  0.157942  0.215471  1
  Tb  Tb3  1  0.840755  0.496500  0.282755  1
  Tb  Tb4  1  0.157942  0.502417  0.784529  1
  Tb  Tb5  1  0.654795  0.001127  0.967665  1
  Tb  Tb6  1  0.002262  0.342015  0.533027  1
  Tb  Tb7  1  0.001127  0.654795  0.032335  1
  Nb  Nb8  1  0.171584  0.826505  0.249671  1
  Nb  Nb9  1  0.826505  0.171584  0.750329  1
  Nb  Nb10  1  0.671464  0.671464  0.500000  1
  Nb  Nb11  1  0.151343  0.008078  0.876672  1
  Nb  Nb12  1  0.496993  0.652636  0.122753  1
  Nb  Nb13  1  0.505180  0.349563  0.624132  1
  Nb  Nb14  1  0.652636  0.496993  0.877247  1
  Nb  Nb15  1  0.349563  0.505180  0.375868  1
  Nb  Nb16  1  0.847375  0.991555  0.373323  1
  Nb  Nb17  1  0.008078  0.151343  0.123328  1
  Nb  Nb18  1  0.991555  0.847375  0.626677  1
  Si  Si19  1  0.201739  0.135128  0.684161  1
  Si  Si20  1  0.372110  0.718376  0.929494  1
  Si  Si21  1  0.634122  0.294431  0.432645  1
  Si  Si22  1  0.718376  0.372110  0.070506  1
  Si  Si23  1  0.294431  0.634122  0.567355  1
  Si  Si24  1  0.797186  0.866264  0.182105  1
  Si  Si25  1  0.135128  0.201739  0.315839  1
  Si  Si26  1  0.866264  0.797186  0.817895  1
  Si  Si27  1  0.287402  0.939814  0.064714  1
  Si  Si28  1  0.544964  0.792981  0.312380  1
  Si  Si29  1  0.454790  0.206835  0.810243  1
  Si  Si30  1  0.792981  0.544964  0.687620  1
  Si  Si31  1  0.206835  0.454790  0.189757  1
  Si  Si32  1  0.706786  0.046581  0.563510  1
  Si  Si33  1  0.939814  0.287402  0.935286  1
  Si  Si34  1  0.046581  0.706786  0.436490  1
  Au  Au35  1  0.330401  0.330401  0.000000  1
