# generated using pymatgen
data_Np3Pa5S12
_symmetry_space_group_name_H-M   'P 1'
_cell_length_a   3.88607700
_cell_length_b   10.34909000
_cell_length_c   10.53139401
_cell_angle_alpha   90.07095584
_cell_angle_beta   90.00000000
_cell_angle_gamma   90.00000000
_symmetry_Int_Tables_number   1
_chemical_formula_structural   Np3Pa5S12
_chemical_formula_sum   'Np3 Pa5 S12'
_cell_volume   423.54454565
_cell_formula_units_Z   1
loop_
 _symmetry_equiv_pos_site_id
 _symmetry_equiv_pos_as_xyz
  1  'x, y, z'
loop_
 _atom_site_type_symbol
 _atom_site_label
 _atom_site_symmetry_multiplicity
 _atom_site_fract_x
 _atom_site_fract_y
 _atom_site_fract_z
 _atom_site_occupancy
  Np  Np0  1  0.750000  0.494038  0.687332  1
  Np  Np1  1  0.750000  0.006483  0.186131  1
  Np  Np2  1  0.250000  0.993458  0.814772  1
  Pa  Pa3  1  0.250000  0.315878  0.991204  1
  Pa  Pa4  1  0.750000  0.684765  0.008811  1
  Pa  Pa5  1  0.750000  0.815979  0.511032  1
  Pa  Pa6  1  0.250000  0.186486  0.490861  1
  Pa  Pa7  1  0.250000  0.504029  0.309463  1
  S  S8  1  0.250000  0.867988  0.052575  1
  S  S9  1  0.750000  0.132046  0.948508  1
  S  S10  1  0.750000  0.369663  0.446470  1
  S  S11  1  0.250000  0.629672  0.549434  1
  S  S12  1  0.250000  0.556475  0.874981  1
  S  S13  1  0.750000  0.443639  0.125469  1
  S  S14  1  0.750000  0.056884  0.624713  1
  S  S15  1  0.250000  0.943809  0.375519  1
  S  S16  1  0.250000  0.207845  0.229725  1
  S  S17  1  0.750000  0.793318  0.771283  1
  S  S18  1  0.750000  0.703383  0.273080  1
  S  S19  1  0.250000  0.294164  0.728639  1
