# generated using pymatgen
data_PaBeNi4P3
_symmetry_space_group_name_H-M   'P 1'
_cell_length_a   6.07577898
_cell_length_b   6.07577859
_cell_length_c   11.00095300
_cell_angle_alpha   90.00000000
_cell_angle_beta   90.00000000
_cell_angle_gamma   145.34227986
_symmetry_Int_Tables_number   1
_chemical_formula_structural   PaBeNi4P3
_chemical_formula_sum   'Pa2 Be2 Ni8 P6'
_cell_volume   230.93863098
_cell_formula_units_Z   2
loop_
 _symmetry_equiv_pos_site_id
 _symmetry_equiv_pos_as_xyz
  1  'x, y, z'
loop_
 _atom_site_type_symbol
 _atom_site_label
 _atom_site_symmetry_multiplicity
 _atom_site_fract_x
 _atom_site_fract_y
 _atom_site_fract_z
 _atom_site_occupancy
  Pa  Pa0  1  0.331492  0.668508  0.250000  1
  Pa  Pa1  1  0.668508  0.331492  0.750000  1
  Be  Be2  1  0.500000  0.500000  0.500000  1
  Be  Be3  1  0.500000  0.500000  0.000000  1
  Ni  Ni4  1  0.047711  0.952289  0.139580  1
  Ni  Ni5  1  0.047711  0.952289  0.360420  1
  Ni  Ni6  1  0.684884  0.315116  0.441483  1
  Ni  Ni7  1  0.315116  0.684884  0.558517  1
  Ni  Ni8  1  0.315116  0.684884  0.941483  1
  Ni  Ni9  1  0.684884  0.315116  0.058517  1
  Ni  Ni10  1  0.952289  0.047711  0.639580  1
  Ni  Ni11  1  0.952289  0.047711  0.860420  1
  P  P12  1  0.609470  0.390530  0.250000  1
  P  P13  1  0.390530  0.609470  0.750000  1
  P  P14  1  0.124499  0.875501  0.551749  1
  P  P15  1  0.875501  0.124499  0.448251  1
  P  P16  1  0.875501  0.124499  0.051749  1
  P  P17  1  0.124499  0.875501  0.948251  1
