# generated using pymatgen
data_Tm5Ni16(P4W)3
_symmetry_space_group_name_H-M   'P 1'
_cell_length_a   12.16928100
_cell_length_b   12.16928132
_cell_length_c   3.71040200
_cell_angle_alpha   90.00000000
_cell_angle_beta   90.00000000
_cell_angle_gamma   120.00000727
_symmetry_Int_Tables_number   1
_chemical_formula_structural   Tm5Ni16(P4W)3
_chemical_formula_sum   'Tm5 Ni16 P12 W3'
_cell_volume   475.86242757
_cell_formula_units_Z   1
loop_
 _symmetry_equiv_pos_site_id
 _symmetry_equiv_pos_as_xyz
  1  'x, y, z'
loop_
 _atom_site_type_symbol
 _atom_site_label
 _atom_site_symmetry_multiplicity
 _atom_site_fract_x
 _atom_site_fract_y
 _atom_site_fract_z
 _atom_site_occupancy
  Tm  Tm0  1  0.184093  0.184093  0.500000  1
  Tm  Tm1  1  0.815907  0.000000  0.500000  1
  Tm  Tm2  1  0.000000  0.815907  0.500000  1
  Tm  Tm3  1  0.333333  0.666667  0.000000  1
  Tm  Tm4  1  0.666667  0.333333  0.000000  1
  Ni  Ni5  1  0.720136  0.720136  0.500000  1
  Ni  Ni6  1  0.279864  0.000000  0.500000  1
  Ni  Ni7  1  0.000000  0.279864  0.500000  1
  Ni  Ni8  1  0.183075  0.375479  0.000000  1
  Ni  Ni9  1  0.624521  0.807596  0.000000  1
  Ni  Ni10  1  0.192404  0.816925  0.000000  1
  Ni  Ni11  1  0.807596  0.624521  0.000000  1
  Ni  Ni12  1  0.816925  0.192404  0.000000  1
  Ni  Ni13  1  0.375479  0.183075  0.000000  1
  Ni  Ni14  1  0.358520  0.484550  0.500000  1
  Ni  Ni15  1  0.515450  0.873972  0.500000  1
  Ni  Ni16  1  0.126028  0.641480  0.500000  1
  Ni  Ni17  1  0.873972  0.515450  0.500000  1
  Ni  Ni18  1  0.641480  0.126028  0.500000  1
  Ni  Ni19  1  0.484550  0.358520  0.500000  1
  Ni  Ni20  1  0.000000  0.000000  0.000000  1
  P  P21  1  0.822894  0.822894  0.000000  1
  P  P22  1  0.177106  0.000000  0.000000  1
  P  P23  1  0.000000  0.177106  0.000000  1
  P  P24  1  0.166238  0.480186  0.500000  1
  P  P25  1  0.519814  0.686052  0.500000  1
  P  P26  1  0.313948  0.833762  0.500000  1
  P  P27  1  0.686052  0.519814  0.500000  1
  P  P28  1  0.833762  0.313948  0.500000  1
  P  P29  1  0.480186  0.166238  0.500000  1
  P  P30  1  0.362728  0.362728  0.000000  1
  P  P31  1  0.637272  0.000000  0.000000  1
  P  P32  1  0.000000  0.637272  0.000000  1
  W  W33  1  0.558303  0.558303  0.000000  1
  W  W34  1  0.441697  0.000000  0.000000  1
  W  W35  1  0.000000  0.441697  0.000000  1
