# generated using pymatgen
data_Ti3Mn3Si2As
_symmetry_space_group_name_H-M   'P 1'
_cell_length_a   6.50979300
_cell_length_b   6.50979265
_cell_length_c   3.25222800
_cell_angle_alpha   90.00000000
_cell_angle_beta   90.00000000
_cell_angle_gamma   119.99999668
_symmetry_Int_Tables_number   1
_chemical_formula_structural   Ti3Mn3Si2As
_chemical_formula_sum   'Ti3 Mn3 Si2 As1'
_cell_volume   119.35646991
_cell_formula_units_Z   1
loop_
 _symmetry_equiv_pos_site_id
 _symmetry_equiv_pos_as_xyz
  1  'x, y, z'
loop_
 _atom_site_type_symbol
 _atom_site_label
 _atom_site_symmetry_multiplicity
 _atom_site_fract_x
 _atom_site_fract_y
 _atom_site_fract_z
 _atom_site_occupancy
  Ti  Ti0  1  0.594634  0.993809  0.000000  1
  Ti  Ti1  1  0.006191  0.600825  0.000000  1
  Ti  Ti2  1  0.399175  0.405366  0.000000  1
  Mn  Mn3  1  0.250801  0.995197  0.500000  1
  Mn  Mn4  1  0.004803  0.255604  0.500000  1
  Mn  Mn5  1  0.744396  0.749199  0.500000  1
  Si  Si6  1  0.333333  0.666667  0.500000  1
  Si  Si7  1  0.000000  0.000000  0.000000  1
  As  As8  1  0.666667  0.333333  0.500000  1
