# generated using pymatgen
data_Ho6Al24GaFe4Ru3
_symmetry_space_group_name_H-M   'P 1'
_cell_length_a   8.72235767
_cell_length_b   8.72235827
_cell_length_c   9.39199027
_cell_angle_alpha   90.17189972
_cell_angle_beta   89.82810663
_cell_angle_gamma   119.76287914
_symmetry_Int_Tables_number   1
_chemical_formula_structural   Ho6Al24GaFe4Ru3
_chemical_formula_sum   'Ho6 Al24 Ga1 Fe4 Ru3'
_cell_volume   620.27776380
_cell_formula_units_Z   1
loop_
 _symmetry_equiv_pos_site_id
 _symmetry_equiv_pos_as_xyz
  1  'x, y, z'
loop_
 _atom_site_type_symbol
 _atom_site_label
 _atom_site_symmetry_multiplicity
 _atom_site_fract_x
 _atom_site_fract_y
 _atom_site_fract_z
 _atom_site_occupancy
  Ho  Ho0  1  0.193319  0.386176  0.243505  1
  Ho  Ho1  1  0.806681  0.613824  0.756495  1
  Ho  Ho2  1  0.613824  0.806681  0.243505  1
  Ho  Ho3  1  0.386176  0.193319  0.756495  1
  Ho  Ho4  1  0.195021  0.804979  0.253344  1
  Ho  Ho5  1  0.804979  0.195021  0.746656  1
  Al  Al6  1  0.323994  0.676006  0.018317  1
  Al  Al7  1  0.676006  0.323994  0.981683  1
  Al  Al8  1  0.666522  0.333478  0.518658  1
  Al  Al9  1  0.333478  0.666522  0.481342  1
  Al  Al10  1  0.158836  0.318558  0.573839  1
  Al  Al11  1  0.841164  0.681442  0.426161  1
  Al  Al12  1  0.681442  0.841164  0.573839  1
  Al  Al13  1  0.856718  0.682337  0.079222  1
  Al  Al14  1  0.318558  0.158836  0.426161  1
  Al  Al15  1  0.143282  0.317663  0.920778  1
  Al  Al16  1  0.159914  0.840086  0.578549  1
  Al  Al17  1  0.317663  0.143282  0.079222  1
  Al  Al18  1  0.840086  0.159914  0.421451  1
  Al  Al19  1  0.682337  0.856718  0.920778  1
  Al  Al20  1  0.839122  0.160878  0.077168  1
  Al  Al21  1  0.160878  0.839122  0.922832  1
  Al  Al22  1  0.560723  0.118322  0.243856  1
  Al  Al23  1  0.439277  0.881678  0.756144  1
  Al  Al24  1  0.881678  0.439277  0.243856  1
  Al  Al25  1  0.118322  0.560723  0.756144  1
  Al  Al26  1  0.566084  0.433916  0.256703  1
  Al  Al27  1  0.433916  0.566084  0.743297  1
  Al  Al28  1  0.998926  0.001074  0.250691  1
  Al  Al29  1  0.001074  0.998926  0.749309  1
  Ga  Ga30  1  0.500000  0.500000  0.000000  1
  Fe  Fe31  1  0.500000  0.000000  0.000000  1
  Fe  Fe32  1  0.000000  0.500000  0.000000  1
  Fe  Fe33  1  0.000000  0.000000  0.000000  1
  Fe  Fe34  1  0.000000  0.000000  0.500000  1
  Ru  Ru35  1  0.500000  0.000000  0.500000  1
  Ru  Ru36  1  0.000000  0.500000  0.500000  1
  Ru  Ru37  1  0.500000  0.500000  0.500000  1
