# generated using pymatgen
data_CaZr3(Al8Pt3)3
_symmetry_space_group_name_H-M   'P 1'
_cell_length_a   7.48187563
_cell_length_b   7.48320320
_cell_length_c   12.99786600
_cell_angle_alpha   84.44281680
_cell_angle_beta   101.01870671
_cell_angle_gamma   119.92637138
_symmetry_Int_Tables_number   1
_chemical_formula_structural   CaZr3(Al8Pt3)3
_chemical_formula_sum   'Ca1 Zr3 Al24 Pt9'
_cell_volume   619.07144884
_cell_formula_units_Z   1
loop_
 _symmetry_equiv_pos_site_id
 _symmetry_equiv_pos_as_xyz
  1  'x, y, z'
loop_
 _atom_site_type_symbol
 _atom_site_label
 _atom_site_symmetry_multiplicity
 _atom_site_fract_x
 _atom_site_fract_y
 _atom_site_fract_z
 _atom_site_occupancy
  Ca  Ca0  1  0.938537  0.331845  0.809314  1
  Zr  Zr1  1  0.732259  0.999219  0.189618  1
  Zr  Zr2  1  0.268376  0.000863  0.810854  1
  Zr  Zr3  1  0.061101  0.668149  0.189666  1
  Al  Al4  1  0.812873  0.867914  0.815567  1
  Al  Al5  1  0.187369  0.125013  0.184865  1
  Al  Al6  1  0.984438  0.668845  0.944031  1
  Al  Al7  1  0.016974  0.333685  0.060382  1
  Al  Al8  1  0.399229  0.670865  0.816503  1
  Al  Al9  1  0.607374  0.335737  0.183377  1
  Al  Al10  1  0.885802  0.666556  0.673292  1
  Al  Al11  1  0.113266  0.334772  0.323006  1
  Al  Al12  1  0.596077  0.452253  0.816099  1
  Al  Al13  1  0.397723  0.548125  0.184414  1
  Al  Al14  1  0.229248  0.337125  0.671612  1
  Al  Al15  1  0.770173  0.661984  0.324737  1
  Al  Al16  1  0.852864  0.333307  0.560083  1
  Al  Al17  1  0.187055  0.999824  0.561001  1
  Al  Al18  1  0.812985  0.000616  0.438949  1
  Al  Al19  1  0.353165  0.995738  0.059568  1
  Al  Al20  1  0.645540  0.000934  0.944017  1
  Al  Al21  1  0.555305  0.994894  0.673311  1
  Al  Al22  1  0.442054  0.004565  0.322822  1
  Al  Al23  1  0.521402  0.667341  0.563303  1
  Al  Al24  1  0.478259  0.332540  0.436456  1
  Al  Al25  1  0.687561  0.670468  0.051904  1
  Al  Al26  1  0.316951  0.330559  0.952440  1
  Al  Al27  1  0.146701  0.666641  0.438795  1
  Pt  Pt28  1  0.328863  0.671596  0.001518  1
  Pt  Pt29  1  0.544260  0.324589  0.636459  1
  Pt  Pt30  1  0.454481  0.676667  0.362333  1
  Pt  Pt31  1  0.887509  0.007489  0.637903  1
  Pt  Pt32  1  0.110592  0.990365  0.360899  1
  Pt  Pt33  1  0.672700  0.328531  0.001177  1
  Pt  Pt34  1  0.204268  0.667243  0.637858  1
  Pt  Pt35  1  0.796975  0.333356  0.360378  1
  Pt  Pt36  1  0.999692  0.999787  0.001490  1
