# generated using pymatgen
data_Ni8HgBi8B
_symmetry_space_group_name_H-M   'P 1'
_cell_length_a   9.89650600
_cell_length_b   9.89650600
_cell_length_c   4.16510400
_cell_angle_alpha   90.00000000
_cell_angle_beta   90.00000000
_cell_angle_gamma   90.00000000
_symmetry_Int_Tables_number   1
_chemical_formula_structural   Ni8HgBi8B
_chemical_formula_sum   'Ni8 Hg1 Bi8 B1'
_cell_volume   407.93374699
_cell_formula_units_Z   1
loop_
 _symmetry_equiv_pos_site_id
 _symmetry_equiv_pos_as_xyz
  1  'x, y, z'
loop_
 _atom_site_type_symbol
 _atom_site_label
 _atom_site_symmetry_multiplicity
 _atom_site_fract_x
 _atom_site_fract_y
 _atom_site_fract_z
 _atom_site_occupancy
  Ni  Ni0  1  0.081466  0.832708  0.500343  1
  Ni  Ni1  1  0.918534  0.167292  0.500343  1
  Ni  Ni2  1  0.832708  0.918534  0.500343  1
  Ni  Ni3  1  0.167292  0.081466  0.500343  1
  Ni  Ni4  1  0.175905  0.941555  0.002788  1
  Ni  Ni5  1  0.824095  0.058445  0.002788  1
  Ni  Ni6  1  0.941555  0.824095  0.002788  1
  Ni  Ni7  1  0.058445  0.175905  0.002788  1
  Hg  Hg8  1  0.500000  0.500000  0.512919  1
  Bi  Bi9  1  0.350878  0.878233  0.500780  1
  Bi  Bi10  1  0.649122  0.121767  0.500780  1
  Bi  Bi11  1  0.878233  0.649122  0.500780  1
  Bi  Bi12  1  0.121767  0.350878  0.500780  1
  Bi  Bi13  1  0.167197  0.668476  0.002193  1
  Bi  Bi14  1  0.832803  0.331524  0.002193  1
  Bi  Bi15  1  0.668476  0.832803  0.002193  1
  Bi  Bi16  1  0.331524  0.167197  0.002193  1
  B  B17  1  0.000000  0.000000  0.252066  1
