# generated using pymatgen
data_DyTm5Al24Ir5Ru3
_symmetry_space_group_name_H-M   'P 1'
_cell_length_a   8.77608646
_cell_length_b   8.79487265
_cell_length_c   9.50486119
_cell_angle_alpha   90.02066139
_cell_angle_beta   89.87655644
_cell_angle_gamma   120.01054159
_symmetry_Int_Tables_number   1
_chemical_formula_structural   DyTm5Al24Ir5Ru3
_chemical_formula_sum   'Dy1 Tm5 Al24 Ir5 Ru3'
_cell_volume   635.27177416
_cell_formula_units_Z   1
loop_
 _symmetry_equiv_pos_site_id
 _symmetry_equiv_pos_as_xyz
  1  'x, y, z'
loop_
 _atom_site_type_symbol
 _atom_site_label
 _atom_site_symmetry_multiplicity
 _atom_site_fract_x
 _atom_site_fract_y
 _atom_site_fract_z
 _atom_site_occupancy
  Dy  Dy0  1  0.806585  0.192740  0.749702  1
  Tm  Tm1  1  0.194444  0.805789  0.250187  1
  Tm  Tm2  1  0.388884  0.194697  0.750274  1
  Tm  Tm3  1  0.610791  0.805308  0.249742  1
  Tm  Tm4  1  0.806412  0.612505  0.749793  1
  Tm  Tm5  1  0.193622  0.387828  0.250233  1
  Al  Al6  1  0.666339  0.333679  0.972106  1
  Al  Al7  1  0.333378  0.666490  0.028592  1
  Al  Al8  1  0.330653  0.665228  0.472037  1
  Al  Al9  1  0.669157  0.335128  0.527251  1
  Al  Al10  1  0.839138  0.165445  0.421412  1
  Al  Al11  1  0.160814  0.834627  0.577785  1
  Al  Al12  1  0.325805  0.163360  0.422679  1
  Al  Al13  1  0.161957  0.836381  0.922654  1
  Al  Al14  1  0.673837  0.836125  0.576801  1
  Al  Al15  1  0.837944  0.163635  0.078129  1
  Al  Al16  1  0.838834  0.673686  0.422008  1
  Al  Al17  1  0.674175  0.836215  0.922775  1
  Al  Al18  1  0.161800  0.326729  0.577445  1
  Al  Al19  1  0.325460  0.163294  0.077745  1
  Al  Al20  1  0.162960  0.326020  0.923077  1
  Al  Al21  1  0.837472  0.674306  0.077410  1
  Al  Al22  1  0.437659  0.562286  0.750201  1
  Al  Al23  1  0.562344  0.437720  0.249785  1
  Al  Al24  1  0.124016  0.562540  0.748585  1
  Al  Al25  1  0.876459  0.438225  0.251398  1
  Al  Al26  1  0.436805  0.874793  0.750221  1
  Al  Al27  1  0.562402  0.124737  0.249858  1
  Al  Al28  1  0.001226  0.999479  0.750063  1
  Al  Al29  1  0.999550  0.999773  0.249982  1
  Ir  Ir30  1  0.499898  0.500200  0.999987  1
  Ir  Ir31  1  0.000131  0.500489  0.000335  1
  Ir  Ir32  1  0.499928  0.500210  0.500030  1
  Ir  Ir33  1  0.499457  0.999837  0.000398  1
  Ir  Ir34  1  0.499537  0.999896  0.499658  1
  Ru  Ru35  1  0.000286  0.500474  0.499616  1
  Ru  Ru36  1  0.999919  0.000048  0.999913  1
  Ru  Ru37  1  0.999921  0.000081  0.500136  1
