# generated using pymatgen
data_LaPr(NbSe2)6
_symmetry_space_group_name_H-M   'P 1'
_cell_length_a   6.08502200
_cell_length_b   6.08502145
_cell_length_c   15.15880000
_cell_angle_alpha   90.00000000
_cell_angle_beta   90.00000000
_cell_angle_gamma   120.00000299
_symmetry_Int_Tables_number   1
_chemical_formula_structural   LaPr(NbSe2)6
_chemical_formula_sum   'La1 Pr1 Nb6 Se12'
_cell_volume   486.09338154
_cell_formula_units_Z   1
loop_
 _symmetry_equiv_pos_site_id
 _symmetry_equiv_pos_as_xyz
  1  'x, y, z'
loop_
 _atom_site_type_symbol
 _atom_site_label
 _atom_site_symmetry_multiplicity
 _atom_site_fract_x
 _atom_site_fract_y
 _atom_site_fract_z
 _atom_site_occupancy
  La  La0  1  0.333333  0.666667  0.250000  1
  Pr  Pr1  1  0.666667  0.333333  0.750000  1
  Nb  Nb2  1  0.333333  0.666667  0.001224  1
  Nb  Nb3  1  0.000000  0.000000  0.998994  1
  Nb  Nb4  1  0.666667  0.333333  0.997467  1
  Nb  Nb5  1  0.333333  0.666667  0.498776  1
  Nb  Nb6  1  0.000000  0.000000  0.501006  1
  Nb  Nb7  1  0.666667  0.333333  0.502533  1
  Se  Se8  1  0.674214  0.665913  0.390408  1
  Se  Se9  1  0.665127  0.673333  0.611156  1
  Se  Se10  1  0.008204  0.673333  0.888844  1
  Se  Se11  1  0.665127  0.991796  0.888844  1
  Se  Se12  1  0.674214  0.008301  0.109592  1
  Se  Se13  1  0.334087  0.008301  0.390408  1
  Se  Se14  1  0.008204  0.334873  0.611156  1
  Se  Se15  1  0.326667  0.991796  0.611156  1
  Se  Se16  1  0.991699  0.665913  0.109592  1
  Se  Se17  1  0.326667  0.334873  0.888844  1
  Se  Se18  1  0.991699  0.325786  0.390408  1
  Se  Se19  1  0.334087  0.325786  0.109592  1
