# generated using pymatgen
data_Hf4Al6RuAu
_symmetry_space_group_name_H-M   'P 1'
_cell_length_a   5.30707800
_cell_length_b   5.30707768
_cell_length_c   8.47066600
_cell_angle_alpha   90.00000000
_cell_angle_beta   90.00000000
_cell_angle_gamma   120.00000199
_symmetry_Int_Tables_number   1
_chemical_formula_structural   Hf4Al6RuAu
_chemical_formula_sum   'Hf4 Al6 Ru1 Au1'
_cell_volume   206.61369095
_cell_formula_units_Z   1
loop_
 _symmetry_equiv_pos_site_id
 _symmetry_equiv_pos_as_xyz
  1  'x, y, z'
loop_
 _atom_site_type_symbol
 _atom_site_label
 _atom_site_symmetry_multiplicity
 _atom_site_fract_x
 _atom_site_fract_y
 _atom_site_fract_z
 _atom_site_occupancy
  Hf  Hf0  1  0.333333  0.666667  0.935769  1
  Hf  Hf1  1  0.666667  0.333333  0.064231  1
  Hf  Hf2  1  0.666667  0.333333  0.431934  1
  Hf  Hf3  1  0.333333  0.666667  0.568066  1
  Al  Al4  1  0.830322  0.169678  0.744408  1
  Al  Al5  1  0.830322  0.660646  0.744408  1
  Al  Al6  1  0.339354  0.169678  0.744408  1
  Al  Al7  1  0.169678  0.830322  0.255592  1
  Al  Al8  1  0.169678  0.339354  0.255592  1
  Al  Al9  1  0.660646  0.830322  0.255592  1
  Ru  Ru10  1  0.000000  0.000000  0.500000  1
  Au  Au11  1  0.000000  0.000000  0.000000  1
