# generated using pymatgen
data_Dy4CrOsC4
_symmetry_space_group_name_H-M   'P 1'
_cell_length_a   5.07583600
_cell_length_b   6.47968539
_cell_length_c   9.79536910
_cell_angle_alpha   90.18589897
_cell_angle_beta   90.00000000
_cell_angle_gamma   90.00000000
_symmetry_Int_Tables_number   1
_chemical_formula_structural   Dy4CrOsC4
_chemical_formula_sum   'Dy8 Cr2 Os2 C8'
_cell_volume   322.16623435
_cell_formula_units_Z   2
loop_
 _symmetry_equiv_pos_site_id
 _symmetry_equiv_pos_as_xyz
  1  'x, y, z'
loop_
 _atom_site_type_symbol
 _atom_site_label
 _atom_site_symmetry_multiplicity
 _atom_site_fract_x
 _atom_site_fract_y
 _atom_site_fract_z
 _atom_site_occupancy
  Dy  Dy0  1  0.250000  0.682975  0.557949  1
  Dy  Dy1  1  0.750000  0.317025  0.442051  1
  Dy  Dy2  1  0.750000  0.821108  0.053813  1
  Dy  Dy3  1  0.250000  0.178892  0.946187  1
  Dy  Dy4  1  0.250000  0.530797  0.215522  1
  Dy  Dy5  1  0.750000  0.469203  0.784478  1
  Dy  Dy6  1  0.750000  0.972605  0.715763  1
  Dy  Dy7  1  0.250000  0.027395  0.284237  1
  Cr  Cr8  1  0.250000  0.725188  0.861451  1
  Cr  Cr9  1  0.750000  0.274812  0.138549  1
  Os  Os10  1  0.750000  0.775541  0.361852  1
  Os  Os11  1  0.250000  0.224459  0.638148  1
  C  C12  1  0.250000  0.464060  0.763366  1
  C  C13  1  0.750000  0.535940  0.236634  1
  C  C14  1  0.750000  0.045956  0.255544  1
  C  C15  1  0.250000  0.954044  0.744456  1
  C  C16  1  0.250000  0.812692  0.038765  1
  C  C17  1  0.750000  0.187308  0.961235  1
  C  C18  1  0.750000  0.679398  0.547145  1
  C  C19  1  0.250000  0.320602  0.452855  1
