# generated using pymatgen
data_TbV6Sn5Sb
_symmetry_space_group_name_H-M   'P 1'
_cell_length_a   5.50718100
_cell_length_b   5.50718105
_cell_length_c   9.25550600
_cell_angle_alpha   90.00000000
_cell_angle_beta   90.00000000
_cell_angle_gamma   119.99999367
_symmetry_Int_Tables_number   1
_chemical_formula_structural   TbV6Sn5Sb
_chemical_formula_sum   'Tb1 V6 Sn5 Sb1'
_cell_volume   243.10255929
_cell_formula_units_Z   1
loop_
 _symmetry_equiv_pos_site_id
 _symmetry_equiv_pos_as_xyz
  1  'x, y, z'
loop_
 _atom_site_type_symbol
 _atom_site_label
 _atom_site_symmetry_multiplicity
 _atom_site_fract_x
 _atom_site_fract_y
 _atom_site_fract_z
 _atom_site_occupancy
  Tb  Tb0  1  0.000000  0.000000  0.996221  1
  V  V1  1  0.000000  0.500000  0.752328  1
  V  V2  1  0.500000  0.500000  0.752328  1
  V  V3  1  0.500000  0.000000  0.752328  1
  V  V4  1  0.000000  0.500000  0.249671  1
  V  V5  1  0.500000  0.500000  0.249671  1
  V  V6  1  0.500000  0.000000  0.249671  1
  Sn  Sn7  1  0.666667  0.333333  0.500321  1
  Sn  Sn8  1  0.333333  0.666667  0.500321  1
  Sn  Sn9  1  0.666667  0.333333  0.001018  1
  Sn  Sn10  1  0.333333  0.666667  0.001018  1
  Sn  Sn11  1  0.000000  0.000000  0.332822  1
  Sb  Sb12  1  0.000000  0.000000  0.662281  1
