# generated using pymatgen
data_YbErHf2(Al8Pt3)3
_symmetry_space_group_name_H-M   'P 1'
_cell_length_a   7.48966662
_cell_length_b   7.49740753
_cell_length_c   13.04914230
_cell_angle_alpha   84.44957618
_cell_angle_beta   100.98969249
_cell_angle_gamma   119.90465065
_symmetry_Int_Tables_number   1
_chemical_formula_structural   YbErHf2(Al8Pt3)3
_chemical_formula_sum   'Yb1 Er1 Hf2 Al24 Pt9'
_cell_volume   623.53894364
_cell_formula_units_Z   1
loop_
 _symmetry_equiv_pos_site_id
 _symmetry_equiv_pos_as_xyz
  1  'x, y, z'
loop_
 _atom_site_type_symbol
 _atom_site_label
 _atom_site_symmetry_multiplicity
 _atom_site_fract_x
 _atom_site_fract_y
 _atom_site_fract_z
 _atom_site_occupancy
  Yb  Yb0  1  0.061616  0.667993  0.191736  1
  Er  Er1  1  0.938830  0.332626  0.808719  1
  Hf  Hf2  1  0.732647  0.999455  0.192290  1
  Hf  Hf3  1  0.267111  0.000110  0.808132  1
  Al  Al4  1  0.812459  0.869443  0.815634  1
  Al  Al5  1  0.186490  0.131332  0.184175  1
  Al  Al6  1  0.983887  0.668732  0.942754  1
  Al  Al7  1  0.015983  0.331366  0.058399  1
  Al  Al8  1  0.399164  0.669314  0.816833  1
  Al  Al9  1  0.600333  0.329130  0.182949  1
  Al  Al10  1  0.885292  0.666941  0.674315  1
  Al  Al11  1  0.114537  0.333876  0.325601  1
  Al  Al12  1  0.597400  0.452260  0.816045  1
  Al  Al13  1  0.404127  0.548477  0.183758  1
  Al  Al14  1  0.230906  0.338063  0.672933  1
  Al  Al15  1  0.770250  0.662444  0.326925  1
  Al  Al16  1  0.853083  0.332999  0.558969  1
  Al  Al17  1  0.186183  0.999329  0.559930  1
  Al  Al18  1  0.813547  0.000259  0.439908  1
  Al  Al19  1  0.354743  0.997892  0.056976  1
  Al  Al20  1  0.645141  0.001873  0.943054  1
  Al  Al21  1  0.555421  0.993334  0.674357  1
  Al  Al22  1  0.443800  0.005438  0.325528  1
  Al  Al23  1  0.521345  0.667739  0.562508  1
  Al  Al24  1  0.478361  0.332344  0.437467  1
  Al  Al25  1  0.684868  0.670892  0.049790  1
  Al  Al26  1  0.315350  0.329034  0.950430  1
  Al  Al27  1  0.146884  0.667180  0.440269  1
  Pt  Pt28  1  0.327473  0.671063  0.999163  1
  Pt  Pt29  1  0.545327  0.323056  0.637898  1
  Pt  Pt30  1  0.455947  0.676435  0.362877  1
  Pt  Pt31  1  0.889797  0.009559  0.639835  1
  Pt  Pt32  1  0.111163  0.991716  0.360961  1
  Pt  Pt33  1  0.671645  0.328378  0.999103  1
  Pt  Pt34  1  0.203145  0.667023  0.639960  1
  Pt  Pt35  1  0.795713  0.332286  0.360752  1
  Pt  Pt36  1  0.000033  0.000609  0.999064  1
