# generated using pymatgen
data_Zr2ScInRu4
_symmetry_space_group_name_H-M   'P 1'
_cell_length_a   6.46794615
_cell_length_b   6.48049900
_cell_length_c   6.52150815
_cell_angle_alpha   90.00000000
_cell_angle_beta   90.02439204
_cell_angle_gamma   90.00000000
_symmetry_Int_Tables_number   1
_chemical_formula_structural   Zr2ScInRu4
_chemical_formula_sum   'Zr4 Sc2 In2 Ru8'
_cell_volume   273.35237087
_cell_formula_units_Z   2
loop_
 _symmetry_equiv_pos_site_id
 _symmetry_equiv_pos_as_xyz
  1  'x, y, z'
loop_
 _atom_site_type_symbol
 _atom_site_label
 _atom_site_symmetry_multiplicity
 _atom_site_fract_x
 _atom_site_fract_y
 _atom_site_fract_z
 _atom_site_occupancy
  Zr  Zr0  1  0.750006  0.249999  0.000229  1
  Zr  Zr1  1  0.249898  0.750000  0.499721  1
  Zr  Zr2  1  0.750259  0.249999  0.500170  1
  Zr  Zr3  1  0.250104  0.750000  0.999823  1
  Sc  Sc4  1  0.749719  0.750000  0.500431  1
  Sc  Sc5  1  0.250103  0.249999  0.999653  1
  In  In6  1  0.749965  0.750000  0.000278  1
  In  In7  1  0.249961  0.249999  0.499631  1
  Ru  Ru8  1  0.999968  0.999937  0.249967  1
  Ru  Ru9  1  0.999968  0.500064  0.249967  1
  Ru  Ru10  1  0.500004  0.499944  0.250049  1
  Ru  Ru11  1  0.500004  0.000056  0.250049  1
  Ru  Ru12  1  0.499954  0.000078  0.749953  1
  Ru  Ru13  1  0.499954  0.499923  0.749953  1
  Ru  Ru14  1  0.000066  0.500024  0.750064  1
  Ru  Ru15  1  0.000066  0.999976  0.750064  1
