# generated using pymatgen
data_Ho2ThSi6(Pd4Pt)4
_symmetry_space_group_name_H-M   'P 1'
_cell_length_a   8.74037378
_cell_length_b   8.74417158
_cell_length_c   8.74417162
_cell_angle_alpha   59.96300404
_cell_angle_beta   59.95223523
_cell_angle_gamma   59.95222982
_symmetry_Int_Tables_number   1
_chemical_formula_structural   Ho2ThSi6(Pd4Pt)4
_chemical_formula_sum   'Ho2 Th1 Si6 Pd16 Pt4'
_cell_volume   472.08153322
_cell_formula_units_Z   1
loop_
 _symmetry_equiv_pos_site_id
 _symmetry_equiv_pos_as_xyz
  1  'x, y, z'
loop_
 _atom_site_type_symbol
 _atom_site_label
 _atom_site_symmetry_multiplicity
 _atom_site_fract_x
 _atom_site_fract_y
 _atom_site_fract_z
 _atom_site_occupancy
  Ho  Ho0  1  0.749437  0.749826  0.749826  1
  Ho  Ho1  1  0.000020  0.999972  0.999972  1
  Th  Th2  1  0.249688  0.250300  0.250300  1
  Si  Si3  1  0.732307  0.266877  0.266877  1
  Si  Si4  1  0.268488  0.732242  0.732242  1
  Si  Si5  1  0.267644  0.732366  0.267179  1
  Si  Si6  1  0.732134  0.267882  0.733192  1
  Si  Si7  1  0.267644  0.267179  0.732366  1
  Si  Si8  1  0.732134  0.733192  0.267882  1
  Pd  Pd9  1  0.618788  0.616590  0.148507  1
  Pd  Pd10  1  0.618788  0.148507  0.616590  1
  Pd  Pd11  1  0.847442  0.383521  0.383521  1
  Pd  Pd12  1  0.147228  0.617738  0.617738  1
  Pd  Pd13  1  0.345076  0.000247  0.000247  1
  Pd  Pd14  1  0.654185  0.000584  0.000584  1
  Pd  Pd15  1  0.999937  0.345305  0.654857  1
  Pd  Pd16  1  0.999937  0.654857  0.345305  1
  Pd  Pd17  1  0.999680  0.345432  0.000569  1
  Pd  Pd18  1  0.654454  0.000607  0.345008  1
  Pd  Pd19  1  0.999797  0.654480  0.000679  1
  Pd  Pd20  1  0.344952  0.000376  0.654987  1
  Pd  Pd21  1  0.999680  0.000569  0.345432  1
  Pd  Pd22  1  0.999797  0.000679  0.654480  1
  Pd  Pd23  1  0.654454  0.345008  0.000607  1
  Pd  Pd24  1  0.344952  0.654987  0.000376  1
  Pt  Pt25  1  0.385112  0.385513  0.385513  1
  Pt  Pt26  1  0.618312  0.615731  0.615731  1
  Pt  Pt27  1  0.383966  0.384274  0.845161  1
  Pt  Pt28  1  0.383966  0.845161  0.384274  1
