# generated using pymatgen
data_Sm5Ho(P2Rh3)6
_symmetry_space_group_name_H-M   'P 1'
_cell_length_a   3.95253700
_cell_length_b   11.24349166
_cell_length_c   12.86827327
_cell_angle_alpha   89.72006949
_cell_angle_beta   90.00000000
_cell_angle_gamma   90.00000000
_symmetry_Int_Tables_number   1
_chemical_formula_structural   Sm5Ho(P2Rh3)6
_chemical_formula_sum   'Sm5 Ho1 P12 Rh18'
_cell_volume   571.86331533
_cell_formula_units_Z   1
loop_
 _symmetry_equiv_pos_site_id
 _symmetry_equiv_pos_as_xyz
  1  'x, y, z'
loop_
 _atom_site_type_symbol
 _atom_site_label
 _atom_site_symmetry_multiplicity
 _atom_site_fract_x
 _atom_site_fract_y
 _atom_site_fract_z
 _atom_site_occupancy
  Sm  Sm0  1  0.000000  0.499846  0.521132  1
  Sm  Sm1  1  0.500000  0.999899  0.479567  1
  Sm  Sm2  1  0.500000  0.814722  0.204215  1
  Sm  Sm3  1  0.500000  0.185578  0.204895  1
  Sm  Sm4  1  0.000000  0.685587  0.795097  1
  Ho  Ho5  1  0.000000  0.314471  0.795148  1
  P  P6  1  0.500000  0.313642  0.619910  1
  P  P7  1  0.500000  0.685408  0.617824  1
  P  P8  1  0.000000  0.186414  0.383091  1
  P  P9  1  0.000000  0.813957  0.381911  1
  P  P10  1  0.500000  0.498915  0.878459  1
  P  P11  1  0.000000  0.000594  0.120049  1
  P  P12  1  0.500000  0.847371  0.893401  1
  P  P13  1  0.500000  0.154963  0.892962  1
  P  P14  1  0.000000  0.652086  0.105894  1
  P  P15  1  0.000000  0.348345  0.106693  1
  P  P16  1  0.500000  0.499893  0.349408  1
  P  P17  1  0.000000  0.999592  0.650813  1
  Rh  Rh18  1  0.000000  0.499088  0.978301  1
  Rh  Rh19  1  0.500000  0.000881  0.019104  1
  Rh  Rh20  1  0.500000  0.293381  0.431883  1
  Rh  Rh21  1  0.500000  0.705743  0.430681  1
  Rh  Rh22  1  0.000000  0.206061  0.571075  1
  Rh  Rh23  1  0.000000  0.793428  0.569132  1
  Rh  Rh24  1  0.500000  0.874974  0.710339  1
  Rh  Rh25  1  0.500000  0.127918  0.712933  1
  Rh  Rh26  1  0.000000  0.625628  0.288825  1
  Rh  Rh27  1  0.000000  0.374328  0.289922  1
  Rh  Rh28  1  0.500000  0.334910  0.992917  1
  Rh  Rh29  1  0.500000  0.664961  0.994698  1
  Rh  Rh30  1  0.000000  0.166285  0.004351  1
  Rh  Rh31  1  0.000000  0.834255  0.005302  1
  Rh  Rh32  1  0.500000  0.498324  0.169192  1
  Rh  Rh33  1  0.000000  0.999587  0.830359  1
  Rh  Rh34  1  0.500000  0.498402  0.702015  1
  Rh  Rh35  1  0.000000  0.000561  0.298502  1
