# generated using pymatgen
data_Ce5SmCo16(ReP6)2
_symmetry_space_group_name_H-M   'P 1'
_cell_length_a   3.78284300
_cell_length_b   10.62955100
_cell_length_c   12.35955800
_cell_angle_alpha   90.00000000
_cell_angle_beta   90.00000000
_cell_angle_gamma   90.00000000
_symmetry_Int_Tables_number   1
_chemical_formula_structural   Ce5SmCo16(ReP6)2
_chemical_formula_sum   'Ce5 Sm1 Co16 Re2 P12'
_cell_volume   496.97687047
_cell_formula_units_Z   1
loop_
 _symmetry_equiv_pos_site_id
 _symmetry_equiv_pos_as_xyz
  1  'x, y, z'
loop_
 _atom_site_type_symbol
 _atom_site_label
 _atom_site_symmetry_multiplicity
 _atom_site_fract_x
 _atom_site_fract_y
 _atom_site_fract_z
 _atom_site_occupancy
  Ce  Ce0  1  0.000000  0.500000  0.524598  1
  Ce  Ce1  1  0.500000  0.820929  0.208278  1
  Ce  Ce2  1  0.500000  0.179071  0.208278  1
  Ce  Ce3  1  0.000000  0.680331  0.792333  1
  Ce  Ce4  1  0.000000  0.319669  0.792333  1
  Sm  Sm5  1  0.500000  0.000000  0.479027  1
  Co  Co6  1  0.500000  0.500000  0.703010  1
  Co  Co7  1  0.000000  0.000000  0.292259  1
  Co  Co8  1  0.000000  0.500000  0.987893  1
  Co  Co9  1  0.500000  0.000000  0.011772  1
  Co  Co10  1  0.500000  0.332676  0.992015  1
  Co  Co11  1  0.500000  0.667324  0.992015  1
  Co  Co12  1  0.000000  0.168016  0.007763  1
  Co  Co13  1  0.000000  0.831984  0.007763  1
  Co  Co14  1  0.500000  0.300265  0.428017  1
  Co  Co15  1  0.500000  0.699735  0.428017  1
  Co  Co16  1  0.000000  0.200943  0.572092  1
  Co  Co17  1  0.000000  0.799057  0.572092  1
  Co  Co18  1  0.500000  0.880360  0.713550  1
  Co  Co19  1  0.500000  0.119640  0.713550  1
  Co  Co20  1  0.000000  0.619411  0.287348  1
  Co  Co21  1  0.000000  0.380589  0.287348  1
  Re  Re22  1  0.500000  0.500000  0.154290  1
  Re  Re23  1  0.000000  0.000000  0.845507  1
  P  P24  1  0.500000  0.500000  0.885508  1
  P  P25  1  0.000000  0.000000  0.113036  1
  P  P26  1  0.500000  0.500000  0.344895  1
  P  P27  1  0.000000  0.000000  0.654926  1
  P  P28  1  0.500000  0.305877  0.612666  1
  P  P29  1  0.500000  0.694123  0.612666  1
  P  P30  1  0.000000  0.191437  0.387176  1
  P  P31  1  0.000000  0.808563  0.387176  1
  P  P32  1  0.500000  0.846157  0.894955  1
  P  P33  1  0.500000  0.153843  0.894955  1
  P  P34  1  0.000000  0.654059  0.105446  1
  P  P35  1  0.000000  0.345941  0.105446  1
