# generated using pymatgen
data_LiLa8Pr8Mg(HgRh2)2
_symmetry_space_group_name_H-M   'P 1'
_cell_length_a   10.02425309
_cell_length_b   10.08958987
_cell_length_c   10.13267500
_cell_angle_alpha   59.71519081
_cell_angle_beta   59.61592639
_cell_angle_gamma   60.09480151
_symmetry_Int_Tables_number   1
_chemical_formula_structural   LiLa8Pr8Mg(HgRh2)2
_chemical_formula_sum   'Li1 La8 Pr8 Mg1 Hg2 Rh4'
_cell_volume   721.48450116
_cell_formula_units_Z   1
loop_
 _symmetry_equiv_pos_site_id
 _symmetry_equiv_pos_as_xyz
  1  'x, y, z'
loop_
 _atom_site_type_symbol
 _atom_site_label
 _atom_site_symmetry_multiplicity
 _atom_site_fract_x
 _atom_site_fract_y
 _atom_site_fract_z
 _atom_site_occupancy
  Li  Li0  1  0.578855  0.571098  0.569627  1
  La  La1  1  0.346840  0.346886  0.348824  1
  La  La2  1  0.346395  0.345970  0.959350  1
  La  La3  1  0.348727  0.960151  0.345355  1
  La  La4  1  0.951416  0.351577  0.348016  1
  La  La5  1  0.807114  0.193542  0.194198  1
  La  La6  1  0.182824  0.814096  0.815103  1
  La  La7  1  0.187306  0.812611  0.189957  1
  La  La8  1  0.810829  0.188691  0.812584  1
  Pr  Pr9  1  0.191804  0.191814  0.810050  1
  Pr  Pr10  1  0.805655  0.808786  0.191970  1
  Pr  Pr11  1  0.934089  0.565846  0.566753  1
  Pr  Pr12  1  0.563407  0.936635  0.936694  1
  Pr  Pr13  1  0.563318  0.934388  0.567227  1
  Pr  Pr14  1  0.938343  0.563859  0.932998  1
  Pr  Pr15  1  0.561810  0.564313  0.938867  1
  Pr  Pr16  1  0.938372  0.937202  0.562393  1
  Mg  Mg17  1  0.280143  0.569875  0.571302  1
  Hg  Hg18  1  0.583007  0.591051  0.246432  1
  Hg  Hg19  1  0.581723  0.245784  0.590729  1
  Rh  Rh20  1  0.137324  0.140899  0.147873  1
  Rh  Rh21  1  0.137961  0.139029  0.576073  1
  Rh  Rh22  1  0.147934  0.576523  0.138746  1
  Rh  Rh23  1  0.574805  0.149376  0.138875  1
