# generated using pymatgen
data_K4Sm3Th(SbSe3)8
_symmetry_space_group_name_H-M   'P 1'
_cell_length_a   4.20170709
_cell_length_b   15.59943038
_cell_length_c   16.90212681
_cell_angle_alpha   89.97079598
_cell_angle_beta   91.05611914
_cell_angle_gamma   89.81304041
_symmetry_Int_Tables_number   1
_chemical_formula_structural   K4Sm3Th(SbSe3)8
_chemical_formula_sum   'K4 Sm3 Th1 Sb8 Se24'
_cell_volume   1107.64273366
_cell_formula_units_Z   1
loop_
 _symmetry_equiv_pos_site_id
 _symmetry_equiv_pos_as_xyz
  1  'x, y, z'
loop_
 _atom_site_type_symbol
 _atom_site_label
 _atom_site_symmetry_multiplicity
 _atom_site_fract_x
 _atom_site_fract_y
 _atom_site_fract_z
 _atom_site_occupancy
  K  K0  1  0.266330  0.713730  0.671423  1
  K  K1  1  0.269184  0.787251  0.168006  1
  K  K2  1  0.730962  0.285663  0.332350  1
  K  K3  1  0.733103  0.213391  0.832417  1
  Sm  Sm4  1  0.724899  0.138066  0.092978  1
  Sm  Sm5  1  0.273983  0.862356  0.907813  1
  Sm  Sm6  1  0.722482  0.363158  0.592893  1
  Th  Th7  1  0.282856  0.634343  0.409227  1
  Sb  Sb8  1  0.252123  0.125852  0.528095  1
  Sb  Sb9  1  0.255654  0.376718  0.025712  1
  Sb  Sb10  1  0.745499  0.626068  0.971861  1
  Sb  Sb11  1  0.242185  0.027124  0.290543  1
  Sb  Sb12  1  0.754746  0.523619  0.203143  1
  Sb  Sb13  1  0.751508  0.972629  0.709061  1
  Sb  Sb14  1  0.740142  0.878288  0.472885  1
  Sb  Sb15  1  0.245067  0.471607  0.791577  1
  Se  Se16  1  0.311666  0.471106  0.308479  1
  Se  Se17  1  0.702870  0.970406  0.186273  1
  Se  Se18  1  0.297784  0.029480  0.812194  1
  Se  Se19  1  0.260948  0.833550  0.371683  1
  Se  Se20  1  0.741059  0.163212  0.629317  1
  Se  Se21  1  0.715421  0.066758  0.404660  1
  Se  Se22  1  0.285652  0.929084  0.593798  1
  Se  Se23  1  0.229606  0.211831  0.985951  1
  Se  Se24  1  0.263402  0.663948  0.870320  1
  Se  Se25  1  0.228196  0.290022  0.484729  1
  Se  Se26  1  0.734368  0.340507  0.129551  1
  Se  Se27  1  0.293862  0.572090  0.093416  1
  Se  Se28  1  0.201472  0.989191  0.054572  1
  Se  Se29  1  0.767836  0.824093  0.785213  1
  Se  Se30  1  0.685236  0.529465  0.688239  1
  Se  Se31  1  0.775874  0.673728  0.286988  1
  Se  Se32  1  0.704327  0.428777  0.904874  1
  Se  Se33  1  0.229858  0.176153  0.216110  1
  Se  Se34  1  0.229098  0.323354  0.714334  1
  Se  Se35  1  0.769934  0.789509  0.016012  1
  Se  Se36  1  0.795457  0.011913  0.946573  1
  Se  Se37  1  0.200503  0.512726  0.555641  1
  Se  Se38  1  0.809486  0.489378  0.444607  1
  Se  Se39  1  0.775361  0.709855  0.516483  1
