# generated using pymatgen
data_PuU3(B6Mo)2
_symmetry_space_group_name_H-M   'P 1'
_cell_length_a   3.69619800
_cell_length_b   9.29401483
_cell_length_c   11.37542501
_cell_angle_alpha   89.95173121
_cell_angle_beta   90.00000000
_cell_angle_gamma   90.00000000
_symmetry_Int_Tables_number   1
_chemical_formula_structural   PuU3(B6Mo)2
_chemical_formula_sum   'Pu2 U6 B24 Mo4'
_cell_volume   390.77436516
_cell_formula_units_Z   2
loop_
 _symmetry_equiv_pos_site_id
 _symmetry_equiv_pos_as_xyz
  1  'x, y, z'
loop_
 _atom_site_type_symbol
 _atom_site_label
 _atom_site_symmetry_multiplicity
 _atom_site_fract_x
 _atom_site_fract_y
 _atom_site_fract_z
 _atom_site_occupancy
  Pu  Pu0  1  0.000000  0.335796  0.407514  1
  Pu  Pu1  1  0.000000  0.664204  0.592486  1
  U  U2  1  0.000000  0.834947  0.092170  1
  U  U3  1  0.000000  0.165053  0.907830  1
  U  U4  1  0.000000  0.956069  0.394754  1
  U  U5  1  0.000000  0.043931  0.605246  1
  U  U6  1  0.000000  0.456213  0.105678  1
  U  U7  1  0.000000  0.543787  0.894322  1
  B  B8  1  0.500000  0.551523  0.432192  1
  B  B9  1  0.500000  0.448477  0.567808  1
  B  B10  1  0.500000  0.049852  0.066706  1
  B  B11  1  0.500000  0.950148  0.933294  1
  B  B12  1  0.500000  0.744340  0.423835  1
  B  B13  1  0.500000  0.255660  0.576165  1
  B  B14  1  0.500000  0.243380  0.075864  1
  B  B15  1  0.500000  0.756620  0.924136  1
  B  B16  1  0.500000  0.804154  0.272432  1
  B  B17  1  0.500000  0.195846  0.727568  1
  B  B18  1  0.500000  0.303276  0.226021  1
  B  B19  1  0.500000  0.696724  0.773979  1
  B  B20  1  0.500000  0.644834  0.186982  1
  B  B21  1  0.500000  0.355166  0.813018  1
  B  B22  1  0.500000  0.143468  0.311964  1
  B  B23  1  0.500000  0.856532  0.688036  1
  B  B24  1  0.500000  0.985941  0.218236  1
  B  B25  1  0.500000  0.014059  0.781764  1
  B  B26  1  0.500000  0.486897  0.280541  1
  B  B27  1  0.500000  0.513103  0.719459  1
  B  B28  1  0.500000  0.642168  0.039095  1
  B  B29  1  0.500000  0.357832  0.960905  1
  B  B30  1  0.500000  0.139743  0.460811  1
  B  B31  1  0.500000  0.860257  0.539189  1
  Mo  Mo32  1  0.000000  0.647288  0.317629  1
  Mo  Mo33  1  0.000000  0.352712  0.682371  1
  Mo  Mo34  1  0.000000  0.143284  0.177760  1
  Mo  Mo35  1  0.000000  0.856716  0.822240  1
