# generated using pymatgen
data_Tb5Si2Ir
_symmetry_space_group_name_H-M   'P 1'
_cell_length_a   7.56608600
_cell_length_b   8.76166100
_cell_length_c   11.96413600
_cell_angle_alpha   90.00000000
_cell_angle_beta   90.00000000
_cell_angle_gamma   90.00000000
_symmetry_Int_Tables_number   1
_chemical_formula_structural   Tb5Si2Ir
_chemical_formula_sum   'Tb20 Si8 Ir4'
_cell_volume   793.12028988
_cell_formula_units_Z   4
loop_
 _symmetry_equiv_pos_site_id
 _symmetry_equiv_pos_as_xyz
  1  'x, y, z'
loop_
 _atom_site_type_symbol
 _atom_site_label
 _atom_site_symmetry_multiplicity
 _atom_site_fract_x
 _atom_site_fract_y
 _atom_site_fract_z
 _atom_site_occupancy
  Tb  Tb0  1  0.671918  0.750000  0.720099  1
  Tb  Tb1  1  0.328082  0.250000  0.279901  1
  Tb  Tb2  1  0.171918  0.250000  0.779901  1
  Tb  Tb3  1  0.828082  0.750000  0.220099  1
  Tb  Tb4  1  0.147813  0.750000  0.796000  1
  Tb  Tb5  1  0.852187  0.250000  0.204000  1
  Tb  Tb6  1  0.647813  0.250000  0.704000  1
  Tb  Tb7  1  0.352187  0.750000  0.296000  1
  Tb  Tb8  1  0.535436  0.750000  0.997739  1
  Tb  Tb9  1  0.464564  0.250000  0.002261  1
  Tb  Tb10  1  0.035436  0.250000  0.502261  1
  Tb  Tb11  1  0.964564  0.750000  0.497739  1
  Tb  Tb12  1  0.817895  0.466176  0.922721  1
  Tb  Tb13  1  0.182105  0.533824  0.077279  1
  Tb  Tb14  1  0.317895  0.533824  0.577279  1
  Tb  Tb15  1  0.182105  0.966176  0.077279  1
  Tb  Tb16  1  0.682105  0.466176  0.422721  1
  Tb  Tb17  1  0.817895  0.033824  0.922721  1
  Tb  Tb18  1  0.682105  0.033824  0.422721  1
  Tb  Tb19  1  0.317895  0.966176  0.577279  1
  Si  Si20  1  0.940205  0.004210  0.669592  1
  Si  Si21  1  0.059795  0.995790  0.330408  1
  Si  Si22  1  0.440205  0.995790  0.830408  1
  Si  Si23  1  0.059795  0.504210  0.330408  1
  Si  Si24  1  0.559795  0.004210  0.169592  1
  Si  Si25  1  0.940205  0.495790  0.669592  1
  Si  Si26  1  0.559795  0.495790  0.169592  1
  Si  Si27  1  0.440205  0.504210  0.830408  1
  Ir  Ir28  1  0.929434  0.750000  0.989395  1
  Ir  Ir29  1  0.070566  0.250000  0.010605  1
  Ir  Ir30  1  0.429434  0.250000  0.510605  1
  Ir  Ir31  1  0.570566  0.750000  0.489395  1
