# generated using pymatgen
data_Sc8TaNb8Si16W3
_symmetry_space_group_name_H-M   'P 1'
_cell_length_a   6.64674300
_cell_length_b   6.87528614
_cell_length_c   13.10963500
_cell_angle_alpha   90.00000000
_cell_angle_beta   90.00000000
_cell_angle_gamma   90.05298339
_symmetry_Int_Tables_number   1
_chemical_formula_structural   Sc8TaNb8Si16W3
_chemical_formula_sum   'Sc8 Ta1 Nb8 Si16 W3'
_cell_volume   599.08725345
_cell_formula_units_Z   1
loop_
 _symmetry_equiv_pos_site_id
 _symmetry_equiv_pos_as_xyz
  1  'x, y, z'
loop_
 _atom_site_type_symbol
 _atom_site_label
 _atom_site_symmetry_multiplicity
 _atom_site_fract_x
 _atom_site_fract_y
 _atom_site_fract_z
 _atom_site_occupancy
  Sc  Sc0  1  0.500043  0.673865  0.593683  1
  Sc  Sc1  1  0.998673  0.825789  0.906475  1
  Sc  Sc2  1  0.501319  0.325542  0.093457  1
  Sc  Sc3  1  0.001727  0.174492  0.407031  1
  Sc  Sc4  1  0.501319  0.325542  0.406543  1
  Sc  Sc5  1  0.001727  0.174492  0.092969  1
  Sc  Sc6  1  0.500043  0.673865  0.906317  1
  Sc  Sc7  1  0.998673  0.825789  0.593525  1
  Ta  Ta8  1  0.839386  0.493636  0.750000  1
  Nb  Nb9  1  0.663446  0.169815  0.625214  1
  Nb  Nb10  1  0.165164  0.328839  0.875323  1
  Nb  Nb11  1  0.335968  0.830883  0.126088  1
  Nb  Nb12  1  0.834682  0.669792  0.373780  1
  Nb  Nb13  1  0.335968  0.830883  0.373912  1
  Nb  Nb14  1  0.834682  0.669792  0.126220  1
  Nb  Nb15  1  0.663446  0.169815  0.874786  1
  Nb  Nb16  1  0.165164  0.328839  0.624677  1
  Si  Si17  1  0.670133  0.965769  0.458816  1
  Si  Si18  1  0.169943  0.534624  0.041393  1
  Si  Si19  1  0.329988  0.033666  0.958985  1
  Si  Si20  1  0.829916  0.465932  0.539877  1
  Si  Si21  1  0.329988  0.033666  0.541015  1
  Si  Si22  1  0.829916  0.465932  0.960123  1
  Si  Si23  1  0.670133  0.965769  0.041184  1
  Si  Si24  1  0.169943  0.534624  0.458607  1
  Si  Si25  1  0.461347  0.388452  0.750000  1
  Si  Si26  1  0.965406  0.109971  0.750000  1
  Si  Si27  1  0.534428  0.608950  0.250000  1
  Si  Si28  1  0.034780  0.890575  0.250000  1
  Si  Si29  1  0.701844  0.859648  0.750000  1
  Si  Si30  1  0.206762  0.645366  0.750000  1
  Si  Si31  1  0.297562  0.144692  0.250000  1
  Si  Si32  1  0.796967  0.354744  0.250000  1
  W  W33  1  0.339606  0.005937  0.750000  1
  W  W34  1  0.159998  0.505990  0.250000  1
  W  W35  1  0.659913  0.994022  0.250000  1
