# generated using pymatgen
data_ErTm3(CuPt)2
_symmetry_space_group_name_H-M   'P 1'
_cell_length_a   4.40037900
_cell_length_b   5.47418024
_cell_length_c   7.04032959
_cell_angle_alpha   90.13925256
_cell_angle_beta   90.00000000
_cell_angle_gamma   90.00000000
_symmetry_Int_Tables_number   1
_chemical_formula_structural   ErTm3(CuPt)2
_chemical_formula_sum   'Er1 Tm3 Cu2 Pt2'
_cell_volume   169.59025157
_cell_formula_units_Z   1
loop_
 _symmetry_equiv_pos_site_id
 _symmetry_equiv_pos_as_xyz
  1  'x, y, z'
loop_
 _atom_site_type_symbol
 _atom_site_label
 _atom_site_symmetry_multiplicity
 _atom_site_fract_x
 _atom_site_fract_y
 _atom_site_fract_z
 _atom_site_occupancy
  Er  Er0  1  0.000000  0.884066  0.183654  1
  Tm  Tm1  1  0.000000  0.116307  0.683259  1
  Tm  Tm2  1  0.500000  0.393444  0.317327  1
  Tm  Tm3  1  0.500000  0.606255  0.817210  1
  Cu  Cu4  1  0.500000  0.891726  0.465795  1
  Cu  Cu5  1  0.500000  0.108456  0.959090  1
  Pt  Pt6  1  0.000000  0.613477  0.537525  1
  Pt  Pt7  1  0.000000  0.386269  0.036143  1
