# generated using pymatgen
data_Sc2Ni5P6Ru5
_symmetry_space_group_name_H-M   'P 1'
_cell_length_a   3.73271600
_cell_length_b   10.63720400
_cell_length_c   11.87433400
_cell_angle_alpha   90.00000000
_cell_angle_beta   90.00000000
_cell_angle_gamma   90.00000000
_symmetry_Int_Tables_number   1
_chemical_formula_structural   Sc2Ni5P6Ru5
_chemical_formula_sum   'Sc4 Ni10 P12 Ru10'
_cell_volume   471.47828713
_cell_formula_units_Z   2
loop_
 _symmetry_equiv_pos_site_id
 _symmetry_equiv_pos_as_xyz
  1  'x, y, z'
loop_
 _atom_site_type_symbol
 _atom_site_label
 _atom_site_symmetry_multiplicity
 _atom_site_fract_x
 _atom_site_fract_y
 _atom_site_fract_z
 _atom_site_occupancy
  Sc  Sc0  1  0.250000  0.592048  0.708009  1
  Sc  Sc1  1  0.250000  0.907952  0.208009  1
  Sc  Sc2  1  0.750000  0.410634  0.294731  1
  Sc  Sc3  1  0.750000  0.089366  0.794731  1
  Ni  Ni4  1  0.750000  0.775439  0.815761  1
  Ni  Ni5  1  0.750000  0.724561  0.315761  1
  Ni  Ni6  1  0.250000  0.884925  0.701951  1
  Ni  Ni7  1  0.250000  0.615075  0.201951  1
  Ni  Ni8  1  0.750000  0.101447  0.298476  1
  Ni  Ni9  1  0.750000  0.398553  0.798476  1
  Ni  Ni10  1  0.250000  0.462675  0.930177  1
  Ni  Ni11  1  0.250000  0.037325  0.430177  1
  Ni  Ni12  1  0.750000  0.534977  0.071212  1
  Ni  Ni13  1  0.750000  0.965023  0.571212  1
  P  P14  1  0.250000  0.422314  0.116366  1
  P  P15  1  0.250000  0.077686  0.616366  1
  P  P16  1  0.750000  0.584009  0.886959  1
  P  P17  1  0.750000  0.915991  0.386959  1
  P  P18  1  0.250000  0.267488  0.874894  1
  P  P19  1  0.250000  0.232512  0.374894  1
  P  P20  1  0.750000  0.731126  0.127699  1
  P  P21  1  0.750000  0.768874  0.627699  1
  P  P22  1  0.250000  0.597631  0.386933  1
  P  P23  1  0.250000  0.902369  0.886933  1
  P  P24  1  0.750000  0.403298  0.611234  1
  P  P25  1  0.750000  0.096702  0.111234  1
  Ru  Ru26  1  0.250000  0.708398  0.982523  1
  Ru  Ru27  1  0.250000  0.791602  0.482523  1
  Ru  Ru28  1  0.750000  0.290219  0.010003  1
  Ru  Ru29  1  0.750000  0.209781  0.510003  1
  Ru  Ru30  1  0.250000  0.408050  0.485385  1
  Ru  Ru31  1  0.250000  0.091950  0.985385  1
  Ru  Ru32  1  0.750000  0.595982  0.513886  1
  Ru  Ru33  1  0.750000  0.904018  0.013886  1
  Ru  Ru34  1  0.250000  0.223365  0.183800  1
  Ru  Ru35  1  0.250000  0.276635  0.683800  1
