# generated using pymatgen
data_Li4Dy2HoErSi6
_symmetry_space_group_name_H-M   'P 1'
_cell_length_a   9.25170480
_cell_length_b   9.25170437
_cell_length_c   6.69024700
_cell_angle_alpha   90.00000000
_cell_angle_beta   90.00000000
_cell_angle_gamma   153.56018694
_symmetry_Int_Tables_number   1
_chemical_formula_structural   Li4Dy2HoErSi6
_chemical_formula_sum   'Li4 Dy2 Ho1 Er1 Si6'
_cell_volume   254.97457941
_cell_formula_units_Z   1
loop_
 _symmetry_equiv_pos_site_id
 _symmetry_equiv_pos_as_xyz
  1  'x, y, z'
loop_
 _atom_site_type_symbol
 _atom_site_label
 _atom_site_symmetry_multiplicity
 _atom_site_fract_x
 _atom_site_fract_y
 _atom_site_fract_z
 _atom_site_occupancy
  Li  Li0  1  0.190323  0.809677  0.059589  1
  Li  Li1  1  0.190323  0.809677  0.440411  1
  Li  Li2  1  0.809479  0.190521  0.940061  1
  Li  Li3  1  0.809479  0.190521  0.559939  1
  Dy  Dy4  1  0.553190  0.446810  0.250000  1
  Dy  Dy5  1  0.447121  0.552879  0.750000  1
  Ho  Ho6  1  0.345131  0.654869  0.250000  1
  Er  Er7  1  0.654772  0.345228  0.750000  1
  Si  Si8  1  0.721136  0.278864  0.250000  1
  Si  Si9  1  0.278473  0.721527  0.750000  1
  Si  Si10  1  0.059703  0.940297  0.927414  1
  Si  Si11  1  0.940582  0.059418  0.072419  1
  Si  Si12  1  0.940582  0.059418  0.427581  1
  Si  Si13  1  0.059703  0.940297  0.572586  1
