# generated using pymatgen
data_Ac3CuGeS7
_symmetry_space_group_name_H-M   'P 1'
_cell_length_a   10.67730400
_cell_length_b   10.67725763
_cell_length_c   6.03114800
_cell_angle_alpha   90.00000000
_cell_angle_beta   90.00000000
_cell_angle_gamma   119.99957446
_symmetry_Int_Tables_number   1
_chemical_formula_structural   Ac3CuGeS7
_chemical_formula_sum   'Ac6 Cu2 Ge2 S14'
_cell_volume   595.46166811
_cell_formula_units_Z   2
loop_
 _symmetry_equiv_pos_site_id
 _symmetry_equiv_pos_as_xyz
  1  'x, y, z'
loop_
 _atom_site_type_symbol
 _atom_site_label
 _atom_site_symmetry_multiplicity
 _atom_site_fract_x
 _atom_site_fract_y
 _atom_site_fract_z
 _atom_site_occupancy
  Ac  Ac0  1  0.356804  0.126533  0.252412  1
  Ac  Ac1  1  0.769725  0.643187  0.252414  1
  Ac  Ac2  1  0.873461  0.230277  0.252415  1
  Ac  Ac3  1  0.643196  0.873468  0.752411  1
  Ac  Ac4  1  0.230276  0.356813  0.752415  1
  Ac  Ac5  1  0.126539  0.769723  0.752416  1
  Cu  Cu6  1  0.999999  0.000000  0.224405  1
  Cu  Cu7  1  0.000001  0.000000  0.724405  1
  Ge  Ge8  1  0.333347  0.666673  0.334650  1
  Ge  Ge9  1  0.666652  0.333326  0.834650  1
  S  S10  1  0.157896  0.244391  0.236156  1
  S  S11  1  0.086490  0.842098  0.236157  1
  S  S12  1  0.755610  0.913509  0.236157  1
  S  S13  1  0.666654  0.333327  0.467980  1
  S  S14  1  0.111373  0.524377  0.477742  1
  S  S15  1  0.413016  0.888646  0.477754  1
  S  S16  1  0.475639  0.586989  0.477759  1
  S  S17  1  0.244390  0.086490  0.736157  1
  S  S18  1  0.842104  0.755609  0.736156  1
  S  S19  1  0.913510  0.157903  0.736158  1
  S  S20  1  0.333346  0.666673  0.967979  1
  S  S21  1  0.888627  0.475623  0.977741  1
  S  S22  1  0.586983  0.111353  0.977754  1
  S  S23  1  0.524361  0.413011  0.977758  1
