# generated using pymatgen
data_Dy8TaNb11Si15Ge
_symmetry_space_group_name_H-M   'P 1'
_cell_length_a   6.88411378
_cell_length_b   7.08073405
_cell_length_c   13.45278404
_cell_angle_alpha   90.05264993
_cell_angle_beta   89.92848008
_cell_angle_gamma   90.03022310
_symmetry_Int_Tables_number   1
_chemical_formula_structural   Dy8TaNb11Si15Ge
_chemical_formula_sum   'Dy8 Ta1 Nb11 Si15 Ge1'
_cell_volume   655.74941420
_cell_formula_units_Z   1
loop_
 _symmetry_equiv_pos_site_id
 _symmetry_equiv_pos_as_xyz
  1  'x, y, z'
loop_
 _atom_site_type_symbol
 _atom_site_label
 _atom_site_symmetry_multiplicity
 _atom_site_fract_x
 _atom_site_fract_y
 _atom_site_fract_z
 _atom_site_occupancy
  Dy  Dy0  1  0.503151  0.328578  0.095700  1
  Dy  Dy1  1  0.002151  0.170781  0.403798  1
  Dy  Dy2  1  0.499851  0.673156  0.596630  1
  Dy  Dy3  1  0.996852  0.828441  0.904537  1
  Dy  Dy4  1  0.496640  0.671112  0.904383  1
  Dy  Dy5  1  0.996781  0.829287  0.596126  1
  Dy  Dy6  1  0.503684  0.327190  0.403409  1
  Dy  Dy7  1  0.003133  0.171577  0.095554  1
  Ta  Ta8  1  0.664179  0.009411  0.750212  1
  Nb  Nb9  1  0.163907  0.490459  0.751880  1
  Nb  Nb10  1  0.335477  0.991534  0.249742  1
  Nb  Nb11  1  0.835775  0.509150  0.249831  1
  Nb  Nb12  1  0.835909  0.324225  0.626034  1
  Nb  Nb13  1  0.337817  0.175319  0.874722  1
  Nb  Nb14  1  0.162013  0.675406  0.125254  1
  Nb  Nb15  1  0.661839  0.825065  0.374234  1
  Nb  Nb16  1  0.160452  0.677822  0.372902  1
  Nb  Nb17  1  0.661445  0.824379  0.125156  1
  Nb  Nb18  1  0.837580  0.324523  0.874634  1
  Nb  Nb19  1  0.340438  0.171815  0.626761  1
  Si  Si20  1  0.796949  0.626414  0.750220  1
  Si  Si21  1  0.296659  0.873392  0.750598  1
  Si  Si22  1  0.203379  0.374612  0.249696  1
  Si  Si23  1  0.703539  0.125587  0.249558  1
  Si  Si24  1  0.542720  0.375939  0.750399  1
  Si  Si25  1  0.042581  0.123670  0.750100  1
  Si  Si26  1  0.456765  0.624097  0.249867  1
  Si  Si27  1  0.956353  0.876768  0.249035  1
  Si  Si28  1  0.663812  0.037230  0.540563  1
  Si  Si29  1  0.162762  0.462785  0.959546  1
  Si  Si30  1  0.336714  0.963034  0.040506  1
  Si  Si31  1  0.833141  0.537834  0.458717  1
  Si  Si32  1  0.336489  0.962427  0.459609  1
  Si  Si33  1  0.837236  0.537042  0.040706  1
  Si  Si34  1  0.663114  0.036795  0.959071  1
  Ge  Ge35  1  0.168711  0.463146  0.540310  1
