# generated using pymatgen
data_Y10In4BiSb
_symmetry_space_group_name_H-M   'P 1'
_cell_length_a   6.64061500
_cell_length_b   9.02876667
_cell_length_c   9.04181707
_cell_angle_alpha   119.99342084
_cell_angle_beta   90.00015664
_cell_angle_gamma   89.99980498
_symmetry_Int_Tables_number   1
_chemical_formula_structural   Y10In4BiSb
_chemical_formula_sum   'Y10 In4 Bi1 Sb1'
_cell_volume   469.51759095
_cell_formula_units_Z   1
loop_
 _symmetry_equiv_pos_site_id
 _symmetry_equiv_pos_as_xyz
  1  'x, y, z'
loop_
 _atom_site_type_symbol
 _atom_site_label
 _atom_site_symmetry_multiplicity
 _atom_site_fract_x
 _atom_site_fract_y
 _atom_site_fract_z
 _atom_site_occupancy
  Y  Y0  1  0.504611  0.328511  0.665889  1
  Y  Y1  1  0.504639  0.666816  0.331516  1
  Y  Y2  1  0.995361  0.666818  0.331519  1
  Y  Y3  1  0.995388  0.328509  0.665886  1
  Y  Y4  1  0.750000  0.238816  0.000366  1
  Y  Y5  1  0.749998  0.761391  0.762809  1
  Y  Y6  1  0.749998  0.999130  0.239214  1
  Y  Y7  1  0.250001  0.761955  0.003990  1
  Y  Y8  1  0.250001  0.237503  0.233056  1
  Y  Y9  1  0.250001  0.008448  0.765060  1
  In  In10  1  0.750000  0.600541  0.999639  1
  In  In11  1  0.750000  0.394191  0.395330  1
  In  In12  1  0.749999  0.998469  0.605061  1
  In  In13  1  0.250000  0.402965  0.000416  1
  Bi  Bi14  1  0.250000  0.605727  0.606044  1
  Sb  Sb15  1  0.250001  0.000211  0.394206  1
