# generated using pymatgen
data_Y3V(Ni4P3)2
_symmetry_space_group_name_H-M   'P 1'
_cell_length_a   3.76457400
_cell_length_b   10.65709800
_cell_length_c   12.33371200
_cell_angle_alpha   90.00000000
_cell_angle_beta   90.00000000
_cell_angle_gamma   90.00000000
_symmetry_Int_Tables_number   1
_chemical_formula_structural   Y3V(Ni4P3)2
_chemical_formula_sum   'Y6 V2 Ni16 P12'
_cell_volume   494.82154513
_cell_formula_units_Z   2
loop_
 _symmetry_equiv_pos_site_id
 _symmetry_equiv_pos_as_xyz
  1  'x, y, z'
loop_
 _atom_site_type_symbol
 _atom_site_label
 _atom_site_symmetry_multiplicity
 _atom_site_fract_x
 _atom_site_fract_y
 _atom_site_fract_z
 _atom_site_occupancy
  Y  Y0  1  0.000000  0.500000  0.522394  1
  Y  Y1  1  0.500000  0.000000  0.477606  1
  Y  Y2  1  0.500000  0.817814  0.205424  1
  Y  Y3  1  0.500000  0.182186  0.205424  1
  Y  Y4  1  0.000000  0.682186  0.794576  1
  Y  Y5  1  0.000000  0.317814  0.794576  1
  V  V6  1  0.500000  0.500000  0.151758  1
  V  V7  1  0.000000  0.000000  0.848242  1
  Ni  Ni8  1  0.500000  0.500000  0.701111  1
  Ni  Ni9  1  0.000000  0.000000  0.298889  1
  Ni  Ni10  1  0.000000  0.500000  0.985080  1
  Ni  Ni11  1  0.500000  0.000000  0.014920  1
  Ni  Ni12  1  0.500000  0.333215  0.990174  1
  Ni  Ni13  1  0.500000  0.666785  0.990174  1
  Ni  Ni14  1  0.000000  0.166785  0.009826  1
  Ni  Ni15  1  0.000000  0.833215  0.009826  1
  Ni  Ni16  1  0.500000  0.301346  0.428154  1
  Ni  Ni17  1  0.500000  0.698654  0.428154  1
  Ni  Ni18  1  0.000000  0.198654  0.571846  1
  Ni  Ni19  1  0.000000  0.801346  0.571846  1
  Ni  Ni20  1  0.500000  0.879868  0.710256  1
  Ni  Ni21  1  0.500000  0.120132  0.710256  1
  Ni  Ni22  1  0.000000  0.620132  0.289744  1
  Ni  Ni23  1  0.000000  0.379868  0.289744  1
  P  P24  1  0.500000  0.500000  0.879129  1
  P  P25  1  0.000000  0.000000  0.120871  1
  P  P26  1  0.500000  0.500000  0.344648  1
  P  P27  1  0.000000  0.000000  0.655352  1
  P  P28  1  0.500000  0.314022  0.614454  1
  P  P29  1  0.500000  0.685978  0.614454  1
  P  P30  1  0.000000  0.185978  0.385546  1
  P  P31  1  0.000000  0.814022  0.385546  1
  P  P32  1  0.500000  0.846628  0.892813  1
  P  P33  1  0.500000  0.153372  0.892813  1
  P  P34  1  0.000000  0.653372  0.107187  1
  P  P35  1  0.000000  0.346628  0.107187  1
