# generated using pymatgen
data_Dy2Y5Hf3(Si5Ir2)4
_symmetry_space_group_name_H-M   'P 1'
_cell_length_a   12.56947820
_cell_length_b   12.56947696
_cell_length_c   4.20409800
_cell_angle_alpha   90.00000000
_cell_angle_beta   90.00000000
_cell_angle_gamma   90.01228013
_symmetry_Int_Tables_number   1
_chemical_formula_structural   Dy2Y5Hf3(Si5Ir2)4
_chemical_formula_sum   'Dy2 Y5 Hf3 Si20 Ir8'
_cell_volume   664.21285475
_cell_formula_units_Z   1
loop_
 _symmetry_equiv_pos_site_id
 _symmetry_equiv_pos_as_xyz
  1  'x, y, z'
loop_
 _atom_site_type_symbol
 _atom_site_label
 _atom_site_symmetry_multiplicity
 _atom_site_fract_x
 _atom_site_fract_y
 _atom_site_fract_z
 _atom_site_occupancy
  Dy  Dy0  1  0.499564  0.501312  0.000000  1
  Dy  Dy1  1  0.998688  0.000436  0.000000  1
  Y  Y2  1  0.824511  0.675489  0.500000  1
  Y  Y3  1  0.884436  0.381823  0.500000  1
  Y  Y4  1  0.118177  0.615564  0.500000  1
  Y  Y5  1  0.384205  0.115795  0.500000  1
  Y  Y6  1  0.611340  0.888660  0.500000  1
  Hf  Hf7  1  0.674008  0.174451  0.500000  1
  Hf  Hf8  1  0.325549  0.825992  0.500000  1
  Hf  Hf9  1  0.174667  0.325333  0.500000  1
  Si  Si10  1  0.565967  0.067937  0.000000  1
  Si  Si11  1  0.432063  0.934033  0.000000  1
  Si  Si12  1  0.067803  0.432197  0.000000  1
  Si  Si13  1  0.934653  0.565347  0.000000  1
  Si  Si14  1  0.661611  0.701748  0.000000  1
  Si  Si15  1  0.334765  0.299859  0.000000  1
  Si  Si16  1  0.166516  0.800724  0.000000  1
  Si  Si17  1  0.835036  0.200211  0.000000  1
  Si  Si18  1  0.299789  0.664964  0.000000  1
  Si  Si19  1  0.699276  0.333484  0.000000  1
  Si  Si20  1  0.200141  0.165235  0.000000  1
  Si  Si21  1  0.798252  0.838389  0.000000  1
  Si  Si22  1  0.656735  0.498003  0.500000  1
  Si  Si23  1  0.343123  0.490116  0.500000  1
  Si  Si24  1  0.156654  0.991359  0.500000  1
  Si  Si25  1  0.840467  0.004806  0.500000  1
  Si  Si26  1  0.495194  0.659533  0.500000  1
  Si  Si27  1  0.508641  0.343346  0.500000  1
  Si  Si28  1  0.009884  0.156877  0.500000  1
  Si  Si29  1  0.001997  0.843265  0.500000  1
  Ir  Ir30  1  0.743912  0.518781  0.000000  1
  Ir  Ir31  1  0.254325  0.478090  0.000000  1
  Ir  Ir32  1  0.245543  0.979572  0.000000  1
  Ir  Ir33  1  0.753023  0.024074  0.000000  1
  Ir  Ir34  1  0.475926  0.746977  0.000000  1
  Ir  Ir35  1  0.520428  0.254457  0.000000  1
  Ir  Ir36  1  0.021910  0.245675  0.000000  1
  Ir  Ir37  1  0.981219  0.756088  0.000000  1
