# generated using pymatgen
data_Ta3Nb2Ga(B2Ru5)2
_symmetry_space_group_name_H-M   'P 1'
_cell_length_a   9.39205097
_cell_length_b   9.39017897
_cell_length_c   3.01701400
_cell_angle_alpha   90.00000000
_cell_angle_beta   90.00000000
_cell_angle_gamma   90.14929304
_symmetry_Int_Tables_number   1
_chemical_formula_structural   Ta3Nb2Ga(B2Ru5)2
_chemical_formula_sum   'Ta3 Nb2 Ga1 B4 Ru10'
_cell_volume   266.07873162
_cell_formula_units_Z   1
loop_
 _symmetry_equiv_pos_site_id
 _symmetry_equiv_pos_as_xyz
  1  'x, y, z'
loop_
 _atom_site_type_symbol
 _atom_site_label
 _atom_site_symmetry_multiplicity
 _atom_site_fract_x
 _atom_site_fract_y
 _atom_site_fract_z
 _atom_site_occupancy
  Ta  Ta0  1  0.325111  0.820597  0.000000  1
  Ta  Ta1  1  0.674889  0.179403  0.000000  1
  Ta  Ta2  1  0.000000  0.000000  0.000000  1
  Nb  Nb3  1  0.820149  0.675248  0.000000  1
  Nb  Nb4  1  0.179851  0.324752  0.000000  1
  Ga  Ga5  1  0.500000  0.500000  0.000000  1
  B  B6  1  0.616454  0.870572  0.000000  1
  B  B7  1  0.383546  0.129428  0.000000  1
  B  B8  1  0.129232  0.616285  0.000000  1
  B  B9  1  0.870768  0.383715  0.000000  1
  Ru  Ru10  1  0.568258  0.715661  0.500000  1
  Ru  Ru11  1  0.431742  0.284339  0.500000  1
  Ru  Ru12  1  0.071853  0.780571  0.500000  1
  Ru  Ru13  1  0.928147  0.219429  0.500000  1
  Ru  Ru14  1  0.284858  0.569748  0.500000  1
  Ru  Ru15  1  0.715142  0.430252  0.500000  1
  Ru  Ru16  1  0.219763  0.070501  0.500000  1
  Ru  Ru17  1  0.780237  0.929499  0.500000  1
  Ru  Ru18  1  0.500000  0.000000  0.500000  1
  Ru  Ru19  1  0.000000  0.500000  0.500000  1
