# generated using pymatgen
data_Er20Bi8Ir3Os
_symmetry_space_group_name_H-M   'P 1'
_cell_length_a   7.92342627
_cell_length_b   8.98390900
_cell_length_c   12.42939400
_cell_angle_alpha   90.00000000
_cell_angle_beta   89.91805584
_cell_angle_gamma   90.00000000
_symmetry_Int_Tables_number   1
_chemical_formula_structural   Er20Bi8Ir3Os
_chemical_formula_sum   'Er20 Bi8 Ir3 Os1'
_cell_volume   884.76488134
_cell_formula_units_Z   1
loop_
 _symmetry_equiv_pos_site_id
 _symmetry_equiv_pos_as_xyz
  1  'x, y, z'
loop_
 _atom_site_type_symbol
 _atom_site_label
 _atom_site_symmetry_multiplicity
 _atom_site_fract_x
 _atom_site_fract_y
 _atom_site_fract_z
 _atom_site_occupancy
  Er  Er0  1  0.659542  0.750000  0.705826  1
  Er  Er1  1  0.339180  0.250000  0.292593  1
  Er  Er2  1  0.161425  0.250000  0.793330  1
  Er  Er3  1  0.837768  0.750000  0.208082  1
  Er  Er4  1  0.122882  0.750000  0.808592  1
  Er  Er5  1  0.875462  0.250000  0.191331  1
  Er  Er6  1  0.623096  0.250000  0.691828  1
  Er  Er7  1  0.376746  0.750000  0.308848  1
  Er  Er8  1  0.557257  0.750000  0.997809  1
  Er  Er9  1  0.445796  0.250000  0.001508  1
  Er  Er10  1  0.057662  0.250000  0.501848  1
  Er  Er11  1  0.944178  0.750000  0.497572  1
  Er  Er12  1  0.826278  0.456449  0.933383  1
  Er  Er13  1  0.174698  0.542477  0.066681  1
  Er  Er14  1  0.325068  0.544485  0.566182  1
  Er  Er15  1  0.174698  0.957523  0.066681  1
  Er  Er16  1  0.673012  0.460086  0.434969  1
  Er  Er17  1  0.826278  0.043551  0.933383  1
  Er  Er18  1  0.673012  0.039914  0.434969  1
  Er  Er19  1  0.325068  0.955515  0.566182  1
  Bi  Bi20  1  0.933620  0.009124  0.672323  1
  Bi  Bi21  1  0.066197  0.991605  0.327115  1
  Bi  Bi22  1  0.433812  0.990896  0.827047  1
  Bi  Bi23  1  0.066197  0.508395  0.327115  1
  Bi  Bi24  1  0.565789  0.008510  0.172699  1
  Bi  Bi25  1  0.933620  0.490876  0.672323  1
  Bi  Bi26  1  0.565789  0.491490  0.172699  1
  Bi  Bi27  1  0.433812  0.509104  0.827047  1
  Ir  Ir28  1  0.928447  0.750000  0.991862  1
  Ir  Ir29  1  0.072812  0.250000  0.009057  1
  Ir  Ir30  1  0.426963  0.250000  0.508723  1
  Os  Os31  1  0.573835  0.750000  0.490391  1
