# generated using pymatgen
data_Hf16Fe5Ir2Pt
_symmetry_space_group_name_H-M   'P 1'
_cell_length_a   8.54054810
_cell_length_b   8.57882406
_cell_length_c   8.57882500
_cell_angle_alpha   60.18902555
_cell_angle_beta   60.22116533
_cell_angle_gamma   60.22116784
_symmetry_Int_Tables_number   1
_chemical_formula_structural   Hf16Fe5Ir2Pt
_chemical_formula_sum   'Hf16 Fe5 Ir2 Pt1'
_cell_volume   446.57126641
_cell_formula_units_Z   1
loop_
 _symmetry_equiv_pos_site_id
 _symmetry_equiv_pos_as_xyz
  1  'x, y, z'
loop_
 _atom_site_type_symbol
 _atom_site_label
 _atom_site_symmetry_multiplicity
 _atom_site_fract_x
 _atom_site_fract_y
 _atom_site_fract_z
 _atom_site_occupancy
  Hf  Hf0  1  0.056940  0.647098  0.647098  1
  Hf  Hf1  1  0.646118  0.059158  0.646647  1
  Hf  Hf2  1  0.646118  0.646647  0.059158  1
  Hf  Hf3  1  0.646434  0.647261  0.647261  1
  Hf  Hf4  1  0.800247  0.802824  0.198625  1
  Hf  Hf5  1  0.199999  0.200542  0.798269  1
  Hf  Hf6  1  0.800247  0.198625  0.802824  1
  Hf  Hf7  1  0.199999  0.798269  0.200542  1
  Hf  Hf8  1  0.198436  0.801404  0.801404  1
  Hf  Hf9  1  0.800180  0.197829  0.197829  1
  Hf  Hf10  1  0.438046  0.437101  0.068228  1
  Hf  Hf11  1  0.066647  0.058435  0.437921  1
  Hf  Hf12  1  0.438046  0.068228  0.437101  1
  Hf  Hf13  1  0.066647  0.437921  0.058435  1
  Hf  Hf14  1  0.072887  0.436923  0.436923  1
  Hf  Hf15  1  0.438661  0.061987  0.061987  1
  Fe  Fe16  1  0.412587  0.417004  0.417004  1
  Fe  Fe17  1  0.420144  0.860315  0.860315  1
  Fe  Fe18  1  0.859020  0.419973  0.860987  1
  Fe  Fe19  1  0.859020  0.860987  0.419973  1
  Fe  Fe20  1  0.858473  0.860300  0.860300  1
  Ir  Ir21  1  0.413140  0.750632  0.415481  1
  Ir  Ir22  1  0.413140  0.415481  0.750632  1
  Pt  Pt23  1  0.748825  0.415057  0.415057  1
