# generated using pymatgen
data_Ba6SiAsI4
_symmetry_space_group_name_H-M   'P 1'
_cell_length_a   16.38482550
_cell_length_b   15.62328294
_cell_length_c   8.65362188
_cell_angle_alpha   79.23398324
_cell_angle_beta   69.51073326
_cell_angle_gamma   31.25528721
_symmetry_Int_Tables_number   1
_chemical_formula_structural   Ba6SiAsI4
_chemical_formula_sum   'Ba12 Si2 As2 I8'
_cell_volume   1047.44518969
_cell_formula_units_Z   2
loop_
 _symmetry_equiv_pos_site_id
 _symmetry_equiv_pos_as_xyz
  1  'x, y, z'
loop_
 _atom_site_type_symbol
 _atom_site_label
 _atom_site_symmetry_multiplicity
 _atom_site_fract_x
 _atom_site_fract_y
 _atom_site_fract_z
 _atom_site_occupancy
  Ba  Ba0  1  0.376439  0.942917  0.585391  1
  Ba  Ba1  1  0.585391  0.095255  0.376439  1
  Ba  Ba2  1  0.308556  0.872940  0.159582  1
  Ba  Ba3  1  0.942917  0.376439  0.095255  1
  Ba  Ba4  1  0.459925  0.040075  0.040075  1
  Ba  Ba5  1  0.872940  0.308556  0.658920  1
  Ba  Ba6  1  0.095255  0.585391  0.942917  1
  Ba  Ba7  1  0.658920  0.159582  0.872940  1
  Ba  Ba8  1  0.788186  0.211814  0.211814  1
  Ba  Ba9  1  0.211814  0.788186  0.788186  1
  Ba  Ba10  1  0.159582  0.658920  0.308556  1
  Ba  Ba11  1  0.040075  0.459925  0.459925  1
  Si  Si12  1  0.164876  0.164876  0.335124  1
  Si  Si13  1  0.335124  0.335124  0.164876  1
  As  As14  1  0.083203  0.083203  0.916797  1
  As  As15  1  0.916797  0.916797  0.083203  1
  I  I16  1  0.671639  0.671639  0.828361  1
  I  I17  1  0.746705  0.746705  0.253295  1
  I  I18  1  0.253295  0.253295  0.746705  1
  I  I19  1  0.577763  0.577763  0.422237  1
  I  I20  1  0.996264  0.996264  0.503736  1
  I  I21  1  0.828361  0.828361  0.671639  1
  I  I22  1  0.422237  0.422237  0.577763  1
  I  I23  1  0.503736  0.503736  0.996264  1
