# generated using pymatgen
data_Zr3Mn3Si2Ge
_symmetry_space_group_name_H-M   'P 1'
_cell_length_a   6.65646100
_cell_length_b   6.65646133
_cell_length_c   3.79476800
_cell_angle_alpha   90.00000000
_cell_angle_beta   90.00000000
_cell_angle_gamma   119.99999337
_symmetry_Int_Tables_number   1
_chemical_formula_structural   Zr3Mn3Si2Ge
_chemical_formula_sum   'Zr3 Mn3 Si2 Ge1'
_cell_volume   145.61385375
_cell_formula_units_Z   1
loop_
 _symmetry_equiv_pos_site_id
 _symmetry_equiv_pos_as_xyz
  1  'x, y, z'
loop_
 _atom_site_type_symbol
 _atom_site_label
 _atom_site_symmetry_multiplicity
 _atom_site_fract_x
 _atom_site_fract_y
 _atom_site_fract_z
 _atom_site_occupancy
  Zr  Zr0  1  0.588383  0.003648  0.499999  1
  Zr  Zr1  1  0.415265  0.411616  0.499999  1
  Zr  Zr2  1  0.996352  0.584736  0.499999  1
  Mn  Mn3  1  0.239200  0.006154  0.000000  1
  Mn  Mn4  1  0.993846  0.233047  0.000000  1
  Mn  Mn5  1  0.766954  0.760799  0.000000  1
  Si  Si6  1  0.666666  0.333333  0.000000  1
  Si  Si7  1  0.000000  0.000000  0.499999  1
  Ge  Ge8  1  0.333333  0.666667  0.000000  1
