# generated using pymatgen
data_La15Pr(MgTc)4
_symmetry_space_group_name_H-M   'P 1'
_cell_length_a   10.15180523
_cell_length_b   10.14438931
_cell_length_c   10.15211079
_cell_angle_alpha   60.02387341
_cell_angle_beta   59.89916316
_cell_angle_gamma   60.02447850
_symmetry_Int_Tables_number   1
_chemical_formula_structural   La15Pr(MgTc)4
_chemical_formula_sum   'La15 Pr1 Mg4 Tc4'
_cell_volume   738.98706989
_cell_formula_units_Z   1
loop_
 _symmetry_equiv_pos_site_id
 _symmetry_equiv_pos_as_xyz
  1  'x, y, z'
loop_
 _atom_site_type_symbol
 _atom_site_label
 _atom_site_symmetry_multiplicity
 _atom_site_fract_x
 _atom_site_fract_y
 _atom_site_fract_z
 _atom_site_occupancy
  La  La0  1  0.187128  0.186610  0.812631  1
  La  La1  1  0.556205  0.558052  0.942447  1
  La  La2  1  0.969499  0.343747  0.343025  1
  La  La3  1  0.813773  0.186234  0.813733  1
  La  La4  1  0.187449  0.812559  0.187425  1
  La  La5  1  0.343023  0.343743  0.969501  1
  La  La6  1  0.343486  0.969362  0.343478  1
  La  La7  1  0.942453  0.943288  0.556214  1
  La  La8  1  0.942460  0.558056  0.556198  1
  La  La9  1  0.343493  0.343673  0.343484  1
  La  La10  1  0.812641  0.813582  0.187172  1
  La  La11  1  0.812631  0.186607  0.187163  1
  La  La12  1  0.556208  0.943286  0.942454  1
  La  La13  1  0.943851  0.556145  0.943896  1
  La  La14  1  0.187133  0.813610  0.812635  1
  Pr  Pr15  1  0.558492  0.941506  0.558490  1
  Mg  Mg16  1  0.577346  0.577901  0.577345  1
  Mg  Mg17  1  0.577344  0.267409  0.577344  1
  Mg  Mg18  1  0.577444  0.577448  0.267670  1
  Mg  Mg19  1  0.267658  0.577460  0.577439  1
  Tc  Tc20  1  0.133463  0.599485  0.133459  1
  Tc  Tc21  1  0.600592  0.133324  0.132766  1
  Tc  Tc22  1  0.132768  0.133323  0.600573  1
  Tc  Tc23  1  0.133461  0.133592  0.133460  1
