# generated using pymatgen
data_RuBrF8
_symmetry_space_group_name_H-M   'P 1'
_cell_length_a   5.98057100
_cell_length_b   8.38503606
_cell_length_c   10.63252282
_cell_angle_alpha   40.54758465
_cell_angle_beta   90.00000000
_cell_angle_gamma   90.00000000
_symmetry_Int_Tables_number   1
_chemical_formula_structural   RuBrF8
_chemical_formula_sum   'Ru2 Br2 F16'
_cell_volume   346.61733468
_cell_formula_units_Z   2
loop_
 _symmetry_equiv_pos_site_id
 _symmetry_equiv_pos_as_xyz
  1  'x, y, z'
loop_
 _atom_site_type_symbol
 _atom_site_label
 _atom_site_symmetry_multiplicity
 _atom_site_fract_x
 _atom_site_fract_y
 _atom_site_fract_z
 _atom_site_occupancy
  Ru  Ru0  1  0.549178  0.000000  0.750000  1
  Ru  Ru1  1  0.450822  0.000000  0.250000  1
  Br  Br2  1  0.821581  0.500000  0.250000  1
  Br  Br3  1  0.178419  0.500000  0.750000  1
  F  F4  1  0.025579  0.651803  0.066574  1
  F  F5  1  0.974421  0.348197  0.933426  1
  F  F6  1  0.025579  0.348197  0.433426  1
  F  F7  1  0.974421  0.651803  0.566574  1
  F  F8  1  0.549396  0.687312  0.027359  1
  F  F9  1  0.324987  0.119003  0.786388  1
  F  F10  1  0.324987  0.880997  0.713612  1
  F  F11  1  0.450604  0.312688  0.972641  1
  F  F12  1  0.768241  0.879196  0.712071  1
  F  F13  1  0.549396  0.312688  0.472641  1
  F  F14  1  0.675013  0.119003  0.286388  1
  F  F15  1  0.231759  0.879196  0.212071  1
  F  F16  1  0.450604  0.687312  0.527359  1
  F  F17  1  0.768241  0.120804  0.787929  1
  F  F18  1  0.675013  0.880997  0.213612  1
  F  F19  1  0.231759  0.120804  0.287929  1
