# generated using pymatgen
data_La9Tm(IrPt2)2
_symmetry_space_group_name_H-M   'P 1'
_cell_length_a   11.56747200
_cell_length_b   11.56747200
_cell_length_c   6.57415600
_cell_angle_alpha   90.00000000
_cell_angle_beta   90.00000000
_cell_angle_gamma   90.00000000
_symmetry_Int_Tables_number   1
_chemical_formula_structural   La9Tm(IrPt2)2
_chemical_formula_sum   'La18 Tm2 Ir4 Pt8'
_cell_volume   879.66420309
_cell_formula_units_Z   2
loop_
 _symmetry_equiv_pos_site_id
 _symmetry_equiv_pos_as_xyz
  1  'x, y, z'
loop_
 _atom_site_type_symbol
 _atom_site_label
 _atom_site_symmetry_multiplicity
 _atom_site_fract_x
 _atom_site_fract_y
 _atom_site_fract_z
 _atom_site_occupancy
  La  La0  1  0.295064  0.089214  0.375675  1
  La  La1  1  0.295064  0.910786  0.875675  1
  La  La2  1  0.704936  0.089214  0.875675  1
  La  La3  1  0.704936  0.910786  0.375675  1
  La  La4  1  0.588414  0.790953  0.878814  1
  La  La5  1  0.588414  0.209047  0.378814  1
  La  La6  1  0.411586  0.790953  0.378814  1
  La  La7  1  0.411586  0.209047  0.878814  1
  La  La8  1  0.209047  0.411586  0.621186  1
  La  La9  1  0.209047  0.588414  0.121186  1
  La  La10  1  0.790953  0.411586  0.121186  1
  La  La11  1  0.790953  0.588414  0.621186  1
  La  La12  1  0.910786  0.704936  0.124325  1
  La  La13  1  0.910786  0.295064  0.624325  1
  La  La14  1  0.089214  0.704936  0.624325  1
  La  La15  1  0.089214  0.295064  0.124325  1
  La  La16  1  0.000000  0.000000  0.500000  1
  La  La17  1  0.000000  0.000000  0.000000  1
  Tm  Tm18  1  0.500000  0.500000  0.000000  1
  Tm  Tm19  1  0.500000  0.500000  0.500000  1
  Ir  Ir20  1  0.500000  0.000000  0.116325  1
  Ir  Ir21  1  0.500000  0.000000  0.616325  1
  Ir  Ir22  1  0.000000  0.500000  0.883675  1
  Ir  Ir23  1  0.000000  0.500000  0.383675  1
  Pt  Pt24  1  0.844817  0.155183  0.250000  1
  Pt  Pt25  1  0.844817  0.844817  0.750000  1
  Pt  Pt26  1  0.155183  0.155183  0.750000  1
  Pt  Pt27  1  0.155183  0.844817  0.250000  1
  Pt  Pt28  1  0.644745  0.355255  0.750000  1
  Pt  Pt29  1  0.644745  0.644745  0.250000  1
  Pt  Pt30  1  0.355255  0.355255  0.250000  1
  Pt  Pt31  1  0.355255  0.644745  0.750000  1
