# generated using pymatgen
data_Dy5Lu5In8Pt3Rh
_symmetry_space_group_name_H-M   'P 1'
_cell_length_a   3.63100800
_cell_length_b   8.07179544
_cell_length_c   18.07892732
_cell_angle_alpha   89.88589992
_cell_angle_beta   90.00000000
_cell_angle_gamma   90.00000000
_symmetry_Int_Tables_number   1
_chemical_formula_structural   Dy5Lu5In8Pt3Rh
_chemical_formula_sum   'Dy5 Lu5 In8 Pt3 Rh1'
_cell_volume   529.86977942
_cell_formula_units_Z   1
loop_
 _symmetry_equiv_pos_site_id
 _symmetry_equiv_pos_as_xyz
  1  'x, y, z'
loop_
 _atom_site_type_symbol
 _atom_site_label
 _atom_site_symmetry_multiplicity
 _atom_site_fract_x
 _atom_site_fract_y
 _atom_site_fract_z
 _atom_site_occupancy
  Dy  Dy0  1  0.000000  0.757164  0.779458  1
  Dy  Dy1  1  0.000000  0.256686  0.720402  1
  Dy  Dy2  1  0.000000  0.748872  0.279268  1
  Dy  Dy3  1  0.000000  0.999542  0.000127  1
  Dy  Dy4  1  0.000000  0.500310  0.499419  1
  Lu  Lu5  1  0.000000  0.115742  0.411128  1
  Lu  Lu6  1  0.000000  0.882962  0.585682  1
  Lu  Lu7  1  0.000000  0.383398  0.914302  1
  Lu  Lu8  1  0.000000  0.615987  0.087976  1
  Lu  Lu9  1  0.000000  0.240799  0.222157  1
  In  In10  1  0.500000  0.420518  0.351129  1
  In  In11  1  0.500000  0.577458  0.648513  1
  In  In12  1  0.500000  0.077572  0.851652  1
  In  In13  1  0.500000  0.928394  0.149587  1
  In  In14  1  0.500000  0.294238  0.066346  1
  In  In15  1  0.500000  0.704819  0.935160  1
  In  In16  1  0.500000  0.204333  0.564660  1
  In  In17  1  0.500000  0.797582  0.432585  1
  Pt  Pt18  1  0.500000  0.973886  0.694238  1
  Pt  Pt19  1  0.500000  0.473858  0.805902  1
  Pt  Pt20  1  0.500000  0.519088  0.195324  1
  Rh  Rh21  1  0.500000  0.026792  0.304987  1
