# generated using pymatgen
data_Dy3Al12IrOs3
_symmetry_space_group_name_H-M   'P 1'
_cell_length_a   8.83200665
_cell_length_b   8.79800353
_cell_length_c   9.57729651
_cell_angle_alpha   89.99999945
_cell_angle_beta   90.17929586
_cell_angle_gamma   119.87271181
_symmetry_Int_Tables_number   1
_chemical_formula_structural   Dy3Al12IrOs3
_chemical_formula_sum   'Dy6 Al24 Ir2 Os6'
_cell_volume   645.31219413
_cell_formula_units_Z   2
loop_
 _symmetry_equiv_pos_site_id
 _symmetry_equiv_pos_as_xyz
  1  'x, y, z'
loop_
 _atom_site_type_symbol
 _atom_site_label
 _atom_site_symmetry_multiplicity
 _atom_site_fract_x
 _atom_site_fract_y
 _atom_site_fract_z
 _atom_site_occupancy
  Dy  Dy0  1  0.191132  0.387254  0.251156  1
  Dy  Dy1  1  0.808868  0.612746  0.748844  1
  Dy  Dy2  1  0.613838  0.806919  0.252686  1
  Dy  Dy3  1  0.386162  0.193081  0.747314  1
  Dy  Dy4  1  0.191132  0.803879  0.251156  1
  Dy  Dy5  1  0.808868  0.196121  0.748844  1
  Al  Al6  1  0.331739  0.665870  0.022929  1
  Al  Al7  1  0.668261  0.334130  0.977071  1
  Al  Al8  1  0.667082  0.333541  0.521667  1
  Al  Al9  1  0.332918  0.666459  0.478333  1
  Al  Al10  1  0.165035  0.328511  0.574798  1
  Al  Al11  1  0.834965  0.671489  0.425202  1
  Al  Al12  1  0.672485  0.836243  0.576274  1
  Al  Al13  1  0.837356  0.672658  0.075483  1
  Al  Al14  1  0.327515  0.163757  0.423726  1
  Al  Al15  1  0.162644  0.327342  0.924517  1
  Al  Al16  1  0.165035  0.836525  0.574798  1
  Al  Al17  1  0.326226  0.163113  0.076841  1
  Al  Al18  1  0.834965  0.163475  0.425202  1
  Al  Al19  1  0.673774  0.836887  0.923159  1
  Al  Al20  1  0.837356  0.164697  0.075483  1
  Al  Al21  1  0.162644  0.835303  0.924517  1
  Al  Al22  1  0.561337  0.123846  0.250235  1
  Al  Al23  1  0.438663  0.876154  0.749765  1
  Al  Al24  1  0.875353  0.437677  0.249261  1
  Al  Al25  1  0.124647  0.562323  0.750739  1
  Al  Al26  1  0.561337  0.437491  0.250235  1
  Al  Al27  1  0.438663  0.562509  0.749765  1
  Al  Al28  1  0.998872  0.999436  0.250134  1
  Al  Al29  1  0.001128  0.000564  0.749866  1
  Ir  Ir30  1  0.500000  0.000000  0.000000  1
  Ir  Ir31  1  0.500000  0.500000  0.000000  1
  Os  Os32  1  0.000000  0.500000  0.000000  1
  Os  Os33  1  0.500000  0.000000  0.500000  1
  Os  Os34  1  0.000000  0.500000  0.500000  1
  Os  Os35  1  0.500000  0.500000  0.500000  1
  Os  Os36  1  0.000000  0.000000  0.000000  1
  Os  Os37  1  0.000000  0.000000  0.500000  1
