# generated using pymatgen
data_PrSmHg2(Ir2O7)2
_symmetry_space_group_name_H-M   'P 1'
_cell_length_a   7.55537145
_cell_length_b   7.35417652
_cell_length_c   7.35417500
_cell_angle_alpha   59.01855750
_cell_angle_beta   59.09788699
_cell_angle_gamma   59.09788229
_symmetry_Int_Tables_number   1
_chemical_formula_structural   PrSmHg2(Ir2O7)2
_chemical_formula_sum   'Pr1 Sm1 Hg2 Ir4 O14'
_cell_volume   282.82295492
_cell_formula_units_Z   1
loop_
 _symmetry_equiv_pos_site_id
 _symmetry_equiv_pos_as_xyz
  1  'x, y, z'
loop_
 _atom_site_type_symbol
 _atom_site_label
 _atom_site_symmetry_multiplicity
 _atom_site_fract_x
 _atom_site_fract_y
 _atom_site_fract_z
 _atom_site_occupancy
  Pr  Pr0  1  0.125000  0.125000  0.125000  1
  Sm  Sm1  1  0.625000  0.125000  0.125000  1
  Hg  Hg2  1  0.125000  0.125000  0.625000  1
  Hg  Hg3  1  0.125000  0.625000  0.125000  1
  Ir  Ir4  1  0.625000  0.625000  0.625000  1
  Ir  Ir5  1  0.125000  0.625000  0.625000  1
  Ir  Ir6  1  0.625000  0.125000  0.625000  1
  Ir  Ir7  1  0.625000  0.625000  0.125000  1
  O  O8  1  0.944052  0.555471  0.555471  1
  O  O9  1  0.303220  0.298781  0.704419  1
  O  O10  1  0.946780  0.545581  0.951219  1
  O  O11  1  0.707417  0.289644  0.289644  1
  O  O12  1  0.558726  0.540953  0.951989  1
  O  O13  1  0.558726  0.951989  0.540953  1
  O  O14  1  0.542583  0.960356  0.960356  1
  O  O15  1  0.247691  0.257672  0.257672  1
  O  O16  1  0.305948  0.694529  0.694529  1
  O  O17  1  0.691274  0.298011  0.709047  1
  O  O18  1  0.002309  0.992328  0.992328  1
  O  O19  1  0.946780  0.951219  0.545581  1
  O  O20  1  0.303220  0.704419  0.298781  1
  O  O21  1  0.691274  0.709047  0.298011  1
