# generated using pymatgen
data_ThAl10TcIr
_symmetry_space_group_name_H-M   'P 1'
_cell_length_a   6.91197635
_cell_length_b   6.91627368
_cell_length_c   9.23709600
_cell_angle_alpha   90.00000000
_cell_angle_beta   90.00000000
_cell_angle_gamma   97.18723369
_symmetry_Int_Tables_number   1
_chemical_formula_structural   ThAl10TcIr
_chemical_formula_sum   'Th2 Al20 Tc2 Ir2'
_cell_volume   438.11081056
_cell_formula_units_Z   2
loop_
 _symmetry_equiv_pos_site_id
 _symmetry_equiv_pos_as_xyz
  1  'x, y, z'
loop_
 _atom_site_type_symbol
 _atom_site_label
 _atom_site_symmetry_multiplicity
 _atom_site_fract_x
 _atom_site_fract_y
 _atom_site_fract_z
 _atom_site_occupancy
  Th  Th0  1  0.864414  0.118404  0.750000  1
  Th  Th1  1  0.135586  0.881596  0.250000  1
  Al  Al2  1  0.513136  0.775787  0.750000  1
  Al  Al3  1  0.486864  0.224213  0.250000  1
  Al  Al4  1  0.595553  0.860280  0.250000  1
  Al  Al5  1  0.774806  0.776872  0.998614  1
  Al  Al6  1  0.158897  0.840286  0.603598  1
  Al  Al7  1  0.225194  0.223128  0.001386  1
  Al  Al8  1  0.142700  0.407688  0.250000  1
  Al  Al9  1  0.619084  0.376157  0.949835  1
  Al  Al10  1  0.841103  0.159714  0.103598  1
  Al  Al11  1  0.380916  0.623843  0.449835  1
  Al  Al12  1  0.158897  0.840286  0.896402  1
  Al  Al13  1  0.220746  0.481299  0.750000  1
  Al  Al14  1  0.380916  0.623843  0.050165  1
  Al  Al15  1  0.841103  0.159714  0.396402  1
  Al  Al16  1  0.619084  0.376157  0.550165  1
  Al  Al17  1  0.404447  0.139720  0.750000  1
  Al  Al18  1  0.779254  0.518701  0.250000  1
  Al  Al19  1  0.774806  0.776872  0.501386  1
  Al  Al20  1  0.225194  0.223128  0.498614  1
  Al  Al21  1  0.857300  0.592312  0.750000  1
  Tc  Tc22  1  0.500000  0.000000  0.000000  1
  Tc  Tc23  1  0.500000  0.000000  0.500000  1
  Ir  Ir24  1  0.000000  0.500000  0.500000  1
  Ir  Ir25  1  0.000000  0.500000  0.000000  1
