# generated using pymatgen
data_Nd5Th3Sb20
_symmetry_space_group_name_H-M   'P 1'
_cell_length_a   4.27124900
_cell_length_b   13.48802898
_cell_length_c   15.12397688
_cell_angle_alpha   77.18640679
_cell_angle_beta   90.00000000
_cell_angle_gamma   90.00000000
_symmetry_Int_Tables_number   1
_chemical_formula_structural   Nd5Th3Sb20
_chemical_formula_sum   'Nd5 Th3 Sb20'
_cell_volume   849.60508148
_cell_formula_units_Z   1
loop_
 _symmetry_equiv_pos_site_id
 _symmetry_equiv_pos_as_xyz
  1  'x, y, z'
loop_
 _atom_site_type_symbol
 _atom_site_label
 _atom_site_symmetry_multiplicity
 _atom_site_fract_x
 _atom_site_fract_y
 _atom_site_fract_z
 _atom_site_occupancy
  Nd  Nd0  1  0.750000  0.333881  0.141438  1
  Nd  Nd1  1  0.250000  0.951858  0.360485  1
  Nd  Nd2  1  0.250000  0.666134  0.857286  1
  Nd  Nd3  1  0.250000  0.670603  0.572722  1
  Nd  Nd4  1  0.750000  0.048030  0.641339  1
  Th  Th5  1  0.750000  0.329643  0.428991  1
  Th  Th6  1  0.250000  0.389678  0.772785  1
  Th  Th7  1  0.750000  0.611967  0.226585  1
  Sb  Sb8  1  0.750000  0.855653  0.824426  1
  Sb  Sb9  1  0.250000  0.859390  0.679523  1
  Sb  Sb10  1  0.250000  0.144058  0.480423  1
  Sb  Sb11  1  0.750000  0.274495  0.939103  1
  Sb  Sb12  1  0.250000  0.139048  0.778354  1
  Sb  Sb13  1  0.750000  0.572004  0.447125  1
  Sb  Sb14  1  0.750000  0.141633  0.317090  1
  Sb  Sb15  1  0.250000  0.714993  0.343851  1
  Sb  Sb16  1  0.750000  0.285051  0.656294  1
  Sb  Sb17  1  0.750000  0.860726  0.222773  1
  Sb  Sb18  1  0.250000  0.421540  0.977783  1
  Sb  Sb19  1  0.250000  0.428923  0.552022  1
  Sb  Sb20  1  0.750000  0.573513  0.734932  1
  Sb  Sb21  1  0.250000  0.424674  0.268167  1
  Sb  Sb22  1  0.750000  0.859018  0.521077  1
  Sb  Sb23  1  0.750000  0.030976  0.909674  1
  Sb  Sb24  1  0.250000  0.725590  0.059999  1
  Sb  Sb25  1  0.250000  0.965284  0.090042  1
  Sb  Sb26  1  0.250000  0.143671  0.173987  1
  Sb  Sb27  1  0.750000  0.577963  0.021728  1
