# generated using pymatgen
data_Ce14YEr5Pt16
_symmetry_space_group_name_H-M   'P 1'
_cell_length_a   7.55215557
_cell_length_b   7.63184805
_cell_length_c   14.85904000
_cell_angle_alpha   90.03321300
_cell_angle_beta   89.94429859
_cell_angle_gamma   90.04883826
_symmetry_Int_Tables_number   1
_chemical_formula_structural   Ce14YEr5Pt16
_chemical_formula_sum   'Ce14 Y1 Er5 Pt16'
_cell_volume   856.42819912
_cell_formula_units_Z   1
loop_
 _symmetry_equiv_pos_site_id
 _symmetry_equiv_pos_as_xyz
  1  'x, y, z'
loop_
 _atom_site_type_symbol
 _atom_site_label
 _atom_site_symmetry_multiplicity
 _atom_site_fract_x
 _atom_site_fract_y
 _atom_site_fract_z
 _atom_site_occupancy
  Ce  Ce0  1  0.686126  0.979029  0.250672  1
  Ce  Ce1  1  0.184123  0.521890  0.252137  1
  Ce  Ce2  1  0.816167  0.480623  0.749912  1
  Ce  Ce3  1  0.315089  0.019421  0.749004  1
  Ce  Ce4  1  0.656593  0.837201  0.621405  1
  Ce  Ce5  1  0.156373  0.662033  0.878760  1
  Ce  Ce6  1  0.841330  0.336476  0.380616  1
  Ce  Ce7  1  0.342035  0.164144  0.120354  1
  Ce  Ce8  1  0.343789  0.159081  0.379782  1
  Ce  Ce9  1  0.843783  0.339591  0.120138  1
  Ce  Ce10  1  0.156534  0.660971  0.619722  1
  Ce  Ce11  1  0.657786  0.840409  0.878875  1
  Ce  Ce12  1  0.001317  0.822270  0.409625  1
  Ce  Ce13  1  0.500073  0.678204  0.090902  1
  Y  Y14  1  0.002709  0.824967  0.092553  1
  Er  Er15  1  0.498829  0.320579  0.592483  1
  Er  Er16  1  0.000079  0.180268  0.907137  1
  Er  Er17  1  0.000802  0.182059  0.592576  1
  Er  Er18  1  0.499661  0.316780  0.906723  1
  Er  Er19  1  0.501685  0.676384  0.408310  1
  Pt  Pt20  1  0.819162  0.641384  0.251545  1
  Pt  Pt21  1  0.321587  0.858878  0.249675  1
  Pt  Pt22  1  0.679980  0.143533  0.749994  1
  Pt  Pt23  1  0.180024  0.356048  0.748801  1
  Pt  Pt24  1  0.546657  0.381367  0.250317  1
  Pt  Pt25  1  0.047425  0.119781  0.249989  1
  Pt  Pt26  1  0.952640  0.887709  0.750227  1
  Pt  Pt27  1  0.451657  0.613042  0.749758  1
  Pt  Pt28  1  0.805196  0.533251  0.540194  1
  Pt  Pt29  1  0.306824  0.966205  0.959685  1
  Pt  Pt30  1  0.689325  0.035154  0.462048  1
  Pt  Pt31  1  0.190118  0.461974  0.037165  1
  Pt  Pt32  1  0.192656  0.460116  0.462114  1
  Pt  Pt33  1  0.689281  0.041377  0.037560  1
  Pt  Pt34  1  0.312244  0.966564  0.541710  1
  Pt  Pt35  1  0.810347  0.531240  0.957533  1
