# generated using pymatgen
data_TmThCoNi7B2
_symmetry_space_group_name_H-M   'P 1'
_cell_length_a   4.99788819
_cell_length_b   4.96930530
_cell_length_c   7.01435700
_cell_angle_alpha   90.00000000
_cell_angle_beta   90.00000000
_cell_angle_gamma   119.81098410
_symmetry_Int_Tables_number   1
_chemical_formula_structural   TmThCoNi7B2
_chemical_formula_sum   'Tm1 Th1 Co1 Ni7 B2'
_cell_volume   151.15577517
_cell_formula_units_Z   1
loop_
 _symmetry_equiv_pos_site_id
 _symmetry_equiv_pos_as_xyz
  1  'x, y, z'
loop_
 _atom_site_type_symbol
 _atom_site_label
 _atom_site_symmetry_multiplicity
 _atom_site_fract_x
 _atom_site_fract_y
 _atom_site_fract_z
 _atom_site_occupancy
  Tm  Tm0  1  0.000000  0.000000  0.498576  1
  Th  Th1  1  0.000000  0.000000  0.003668  1
  Co  Co2  1  0.000000  0.500000  0.298214  1
  Ni  Ni3  1  0.500000  0.500000  0.294460  1
  Ni  Ni4  1  0.500000  0.500000  0.704467  1
  Ni  Ni5  1  0.500000  0.000000  0.704467  1
  Ni  Ni6  1  0.000000  0.500000  0.705010  1
  Ni  Ni7  1  0.669566  0.334783  0.000158  1
  Ni  Ni8  1  0.330434  0.665217  0.000158  1
  Ni  Ni9  1  0.500000  0.000000  0.294460  1
  B  B10  1  0.671626  0.335812  0.498182  1
  B  B11  1  0.328374  0.664188  0.498182  1
