# generated using pymatgen
data_Ca9PrInSi4Ge
_symmetry_space_group_name_H-M   'P 1'
_cell_length_a   7.72004681
_cell_length_b   9.35873944
_cell_length_c   7.70997960
_cell_angle_alpha   114.45522613
_cell_angle_beta   90.09703719
_cell_angle_gamma   114.61466550
_symmetry_Int_Tables_number   1
_chemical_formula_structural   Ca9PrInSi4Ge
_chemical_formula_sum   'Ca9 Pr1 In1 Si4 Ge1'
_cell_volume   450.67287540
_cell_formula_units_Z   1
loop_
 _symmetry_equiv_pos_site_id
 _symmetry_equiv_pos_as_xyz
  1  'x, y, z'
loop_
 _atom_site_type_symbol
 _atom_site_label
 _atom_site_symmetry_multiplicity
 _atom_site_fract_x
 _atom_site_fract_y
 _atom_site_fract_z
 _atom_site_occupancy
  Ca  Ca0  1  0.987551  0.969707  0.982141  1
  Ca  Ca1  1  0.508925  0.023806  0.515301  1
  Ca  Ca2  1  0.526660  0.721277  0.674304  1
  Ca  Ca3  1  0.195799  0.720707  0.045966  1
  Ca  Ca4  1  0.673389  0.721318  0.194165  1
  Ca  Ca5  1  0.047430  0.723158  0.526851  1
  Ca  Ca6  1  0.454238  0.279769  0.306711  1
  Ca  Ca7  1  0.826593  0.279269  0.970067  1
  Ca  Ca8  1  0.306683  0.279534  0.828928  1
  Pr  Pr9  1  0.965649  0.273822  0.448146  1
  In  In10  1  0.750794  0.498312  0.748388  1
  Si  Si11  1  0.888552  0.002505  0.611816  1
  Si  Si12  1  0.110995  0.000608  0.385316  1
  Si  Si13  1  0.618558  0.007450  0.117240  1
  Si  Si14  1  0.389422  0.999997  0.889398  1
  Ge  Ge15  1  0.248761  0.498763  0.255262  1
