# generated using pymatgen
data_Er8Be3Si12Au
_symmetry_space_group_name_H-M   'P 1'
_cell_length_a   7.92552100
_cell_length_b   7.92552116
_cell_length_c   7.97355700
_cell_angle_alpha   90.00000000
_cell_angle_beta   90.00000000
_cell_angle_gamma   119.99999515
_symmetry_Int_Tables_number   1
_chemical_formula_structural   Er8Be3Si12Au
_chemical_formula_sum   'Er8 Be3 Si12 Au1'
_cell_volume   433.74892063
_cell_formula_units_Z   1
loop_
 _symmetry_equiv_pos_site_id
 _symmetry_equiv_pos_as_xyz
  1  'x, y, z'
loop_
 _atom_site_type_symbol
 _atom_site_label
 _atom_site_symmetry_multiplicity
 _atom_site_fract_x
 _atom_site_fract_y
 _atom_site_fract_z
 _atom_site_occupancy
  Er  Er0  1  0.503878  0.007756  0.246562  1
  Er  Er1  1  0.502210  0.004419  0.753272  1
  Er  Er2  1  0.992244  0.496122  0.246562  1
  Er  Er3  1  0.995581  0.497790  0.753272  1
  Er  Er4  1  0.503878  0.496122  0.246562  1
  Er  Er5  1  0.502210  0.497790  0.753272  1
  Er  Er6  1  0.000000  0.000000  0.247942  1
  Er  Er7  1  0.000000  0.000000  0.751823  1
  Be  Be8  1  0.333333  0.666667  0.003635  1
  Be  Be9  1  0.666667  0.333333  0.997261  1
  Be  Be10  1  0.666667  0.333333  0.502529  1
  Si  Si11  1  0.171889  0.343777  0.000598  1
  Si  Si12  1  0.826530  0.653061  0.999285  1
  Si  Si13  1  0.656223  0.828111  0.000598  1
  Si  Si14  1  0.825904  0.651809  0.500657  1
  Si  Si15  1  0.346939  0.173470  0.999285  1
  Si  Si16  1  0.161687  0.323374  0.499655  1
  Si  Si17  1  0.171889  0.828111  0.000598  1
  Si  Si18  1  0.348191  0.174096  0.500657  1
  Si  Si19  1  0.826530  0.173470  0.999285  1
  Si  Si20  1  0.676626  0.838313  0.499655  1
  Si  Si21  1  0.825904  0.174096  0.500657  1
  Si  Si22  1  0.161687  0.838313  0.499655  1
  Au  Au23  1  0.333333  0.666667  0.496728  1
