# generated using pymatgen
data_Th3Ga3Ni2Os
_symmetry_space_group_name_H-M   'P 1'
_cell_length_a   7.17232000
_cell_length_b   7.17232022
_cell_length_c   4.01890500
_cell_angle_alpha   90.00000000
_cell_angle_beta   90.00000000
_cell_angle_gamma   120.00000821
_symmetry_Int_Tables_number   1
_chemical_formula_structural   Th3Ga3Ni2Os
_chemical_formula_sum   'Th3 Ga3 Ni2 Os1'
_cell_volume   179.04313142
_cell_formula_units_Z   1
loop_
 _symmetry_equiv_pos_site_id
 _symmetry_equiv_pos_as_xyz
  1  'x, y, z'
loop_
 _atom_site_type_symbol
 _atom_site_label
 _atom_site_symmetry_multiplicity
 _atom_site_fract_x
 _atom_site_fract_y
 _atom_site_fract_z
 _atom_site_occupancy
  Th  Th0  1  0.999578  0.416642  0.500000  1
  Th  Th1  1  0.583358  0.582937  0.500000  1
  Th  Th2  1  0.417063  0.000422  0.500000  1
  Ga  Ga3  1  0.000029  0.766482  0.000000  1
  Ga  Ga4  1  0.233518  0.233547  0.000000  1
  Ga  Ga5  1  0.766453  0.999971  0.000000  1
  Ni  Ni6  1  0.666667  0.333333  0.000000  1
  Ni  Ni7  1  0.000000  0.000000  0.500000  1
  Os  Os8  1  0.333333  0.666667  0.000000  1
