# generated using pymatgen
data_Th2SiRh6
_symmetry_space_group_name_H-M   'P 1'
_cell_length_a   6.08221861
_cell_length_b   6.08221781
_cell_length_c   6.08221900
_cell_angle_alpha   59.99999895
_cell_angle_beta   60.00000330
_cell_angle_gamma   60.00000099
_symmetry_Int_Tables_number   1
_chemical_formula_structural   Th2SiRh6
_chemical_formula_sum   'Th2 Si1 Rh6'
_cell_volume   159.10032257
_cell_formula_units_Z   1
loop_
 _symmetry_equiv_pos_site_id
 _symmetry_equiv_pos_as_xyz
  1  'x, y, z'
loop_
 _atom_site_type_symbol
 _atom_site_label
 _atom_site_symmetry_multiplicity
 _atom_site_fract_x
 _atom_site_fract_y
 _atom_site_fract_z
 _atom_site_occupancy
  Th  Th0  1  0.250000  0.250000  0.250000  1
  Th  Th1  1  0.750000  0.750000  0.750000  1
  Si  Si2  1  0.000000  0.000000  0.000000  1
  Rh  Rh3  1  0.732331  0.267670  0.267670  1
  Rh  Rh4  1  0.267670  0.732331  0.267670  1
  Rh  Rh5  1  0.732330  0.732330  0.267671  1
  Rh  Rh6  1  0.267670  0.267670  0.732331  1
  Rh  Rh7  1  0.732330  0.267671  0.732330  1
  Rh  Rh8  1  0.267671  0.732330  0.732330  1
