# generated using pymatgen
data_HoEr9(RuRh)2
_symmetry_space_group_name_H-M   'P 1'
_cell_length_a   6.31940830
_cell_length_b   7.22872742
_cell_length_c   8.43611883
_cell_angle_alpha   96.74436407
_cell_angle_beta   111.97277559
_cell_angle_gamma   90.01043192
_symmetry_Int_Tables_number   1
_chemical_formula_structural   HoEr9(RuRh)2
_chemical_formula_sum   'Ho1 Er9 Ru2 Rh2'
_cell_volume   354.49925879
_cell_formula_units_Z   1
loop_
 _symmetry_equiv_pos_site_id
 _symmetry_equiv_pos_as_xyz
  1  'x, y, z'
loop_
 _atom_site_type_symbol
 _atom_site_label
 _atom_site_symmetry_multiplicity
 _atom_site_fract_x
 _atom_site_fract_y
 _atom_site_fract_z
 _atom_site_occupancy
  Ho  Ho0  1  0.792799  0.582257  0.811964  1
  Er  Er1  1  0.980991  0.917653  0.188115  1
  Er  Er2  1  0.209246  0.414544  0.185521  1
  Er  Er3  1  0.023726  0.085327  0.814603  1
  Er  Er4  1  0.206887  0.684276  0.565127  1
  Er  Er5  1  0.641808  0.816071  0.434568  1
  Er  Er6  1  0.792604  0.312419  0.436980  1
  Er  Er7  1  0.355536  0.187353  0.563016  1
  Er  Er8  1  0.419056  0.750048  0.000010  1
  Er  Er9  1  0.578414  0.249936  0.000020  1
  Ru  Ru10  1  0.396938  0.075183  0.220314  1
  Ru  Ru11  1  0.176963  0.424739  0.779386  1
  Rh  Rh12  1  0.601798  0.923661  0.778763  1
  Rh  Rh13  1  0.823236  0.576534  0.221613  1
