# generated using pymatgen
data_Cs2Rb5DyFe6(P4O17)2
_symmetry_space_group_name_H-M   'P 1'
_cell_length_a   9.40784541
_cell_length_b   10.00952322
_cell_length_c   10.14967400
_cell_angle_alpha   91.97441882
_cell_angle_beta   94.12273906
_cell_angle_gamma   116.23677881
_symmetry_Int_Tables_number   1
_chemical_formula_structural   Cs2Rb5DyFe6(P4O17)2
_chemical_formula_sum   'Cs2 Rb5 Dy1 Fe6 P8 O34'
_cell_volume   852.74093544
_cell_formula_units_Z   1
loop_
 _symmetry_equiv_pos_site_id
 _symmetry_equiv_pos_as_xyz
  1  'x, y, z'
loop_
 _atom_site_type_symbol
 _atom_site_label
 _atom_site_symmetry_multiplicity
 _atom_site_fract_x
 _atom_site_fract_y
 _atom_site_fract_z
 _atom_site_occupancy
  Cs  Cs0  1  0.069423  0.206309  0.345604  1
  Cs  Cs1  1  0.930577  0.793691  0.654396  1
  Rb  Rb2  1  0.623549  0.970708  0.375990  1
  Rb  Rb3  1  0.376451  0.029292  0.624010  1
  Rb  Rb4  1  0.679207  0.441950  0.906606  1
  Rb  Rb5  1  0.320793  0.558050  0.093394  1
  Rb  Rb6  1  0.500000  0.000000  0.000000  1
  Dy  Dy7  1  0.500000  0.500000  0.500000  1
  Fe  Fe8  1  0.156509  0.108360  0.968961  1
  Fe  Fe9  1  0.843491  0.891640  0.031039  1
  Fe  Fe10  1  0.834903  0.095587  0.753229  1
  Fe  Fe11  1  0.165097  0.904413  0.246771  1
  Fe  Fe12  1  0.843388  0.422431  0.274926  1
  Fe  Fe13  1  0.156612  0.577569  0.725074  1
  P  P14  1  0.785123  0.336304  0.574099  1
  P  P15  1  0.214877  0.663696  0.425901  1
  P  P16  1  0.198569  0.271115  0.699324  1
  P  P17  1  0.801431  0.728885  0.300676  1
  P  P18  1  0.908281  0.230009  0.035310  1
  P  P19  1  0.091719  0.769991  0.964690  1
  P  P20  1  0.556128  0.756171  0.779785  1
  P  P21  1  0.443872  0.243829  0.220215  1
  O  O22  1  0.373858  0.224232  0.073054  1
  O  O23  1  0.626142  0.775768  0.926946  1
  O  O24  1  0.833150  0.315839  0.433425  1
  O  O25  1  0.166850  0.684161  0.566575  1
  O  O26  1  0.020905  0.164456  0.647815  1
  O  O27  1  0.979095  0.835544  0.352185  1
  O  O28  1  0.183962  0.918428  0.898617  1
  O  O29  1  0.816038  0.081572  0.101383  1
  O  O30  1  0.262105  0.198439  0.805262  1
  O  O31  1  0.737895  0.801561  0.194738  1
  O  O32  1  0.933484  0.006462  0.875414  1
  O  O33  1  0.066516  0.993538  0.124586  1
  O  O34  1  0.211076  0.419987  0.760860  1
  O  O35  1  0.788924  0.580013  0.239140  1
  O  O36  1  0.085488  0.267312  0.026692  1
  O  O37  1  0.914512  0.732688  0.973308  1
  O  O38  1  0.617702  0.268089  0.217739  1
  O  O39  1  0.382298  0.731911  0.782261  1
  O  O40  1  0.300041  0.300044  0.580889  1
  O  O41  1  0.699959  0.699956  0.419111  1
  O  O42  1  0.716222  0.177826  0.628079  1
  O  O43  1  0.283778  0.822174  0.371921  1
  O  O44  1  0.655236  0.391252  0.562869  1
  O  O45  1  0.344764  0.608748  0.437131  1
  O  O46  1  0.816769  0.220224  0.896908  1
  O  O47  1  0.183231  0.779776  0.103092  1
  O  O48  1  0.907304  0.362958  0.116813  1
  O  O49  1  0.092696  0.637042  0.883187  1
  O  O50  1  0.570781  0.627286  0.703277  1
  O  O51  1  0.429219  0.372714  0.296723  1
  O  O52  1  0.646211  0.904150  0.708846  1
  O  O53  1  0.353789  0.095850  0.291154  1
  O  O54  1  0.927700  0.447659  0.667212  1
  O  O55  1  0.072300  0.552341  0.332788  1
