# generated using pymatgen
data_CePr3FeCo33
_symmetry_space_group_name_H-M   'P 1'
_cell_length_a   6.31482279
_cell_length_b   6.31482336
_cell_length_c   12.69779626
_cell_angle_alpha   83.11464378
_cell_angle_beta   83.11464522
_cell_angle_gamma   82.96686603
_symmetry_Int_Tables_number   1
_chemical_formula_structural   CePr3FeCo33
_chemical_formula_sum   'Ce1 Pr3 Fe1 Co33'
_cell_volume   496.06353818
_cell_formula_units_Z   1
loop_
 _symmetry_equiv_pos_site_id
 _symmetry_equiv_pos_as_xyz
  1  'x, y, z'
loop_
 _atom_site_type_symbol
 _atom_site_label
 _atom_site_symmetry_multiplicity
 _atom_site_fract_x
 _atom_site_fract_y
 _atom_site_fract_z
 _atom_site_occupancy
  Ce  Ce0  1  0.345150  0.345150  0.674139  1
  Pr  Pr1  1  0.344469  0.344469  0.171185  1
  Pr  Pr2  1  0.656254  0.656254  0.827701  1
  Pr  Pr3  1  0.657308  0.657309  0.326906  1
  Fe  Fe4  1  0.340252  0.340252  0.425815  1
  Co  Co5  1  0.095748  0.095748  0.550435  1
  Co  Co6  1  0.095686  0.095686  0.047057  1
  Co  Co7  1  0.904639  0.904639  0.951678  1
  Co  Co8  1  0.904237  0.904237  0.453510  1
  Co  Co9  1  0.997900  0.997900  0.750627  1
  Co  Co10  1  0.999323  0.999323  0.249968  1
  Co  Co11  1  0.996164  0.501737  0.499835  1
  Co  Co12  1  0.000621  0.499987  0.999127  1
  Co  Co13  1  0.499987  0.000621  0.999127  1
  Co  Co14  1  0.501737  0.996164  0.499835  1
  Co  Co15  1  0.712046  0.284813  0.502566  1
  Co  Co16  1  0.716552  0.284237  0.999045  1
  Co  Co17  1  0.284234  0.001813  0.856486  1
  Co  Co18  1  0.282688  0.997992  0.358713  1
  Co  Co19  1  0.000990  0.713215  0.642660  1
  Co  Co20  1  0.000454  0.715865  0.141268  1
  Co  Co21  1  0.713215  0.000990  0.642660  1
  Co  Co22  1  0.715865  0.000454  0.141268  1
  Co  Co23  1  0.001813  0.284234  0.856486  1
  Co  Co24  1  0.997992  0.282688  0.358713  1
  Co  Co25  1  0.284237  0.716552  0.999045  1
  Co  Co26  1  0.284813  0.712046  0.502566  1
  Co  Co27  1  0.655030  0.655030  0.574852  1
  Co  Co28  1  0.658147  0.658147  0.073953  1
  Co  Co29  1  0.654148  0.151355  0.827118  1
  Co  Co30  1  0.659103  0.150672  0.329410  1
  Co  Co31  1  0.151355  0.654148  0.827118  1
  Co  Co32  1  0.150672  0.659103  0.329410  1
  Co  Co33  1  0.343117  0.343117  0.925603  1
  Co  Co34  1  0.342598  0.858133  0.671919  1
  Co  Co35  1  0.342409  0.850913  0.170138  1
  Co  Co36  1  0.858133  0.342598  0.671919  1
  Co  Co37  1  0.850913  0.342409  0.170138  1
