# generated using pymatgen
data_Ca3Pr(GePd14)2
_symmetry_space_group_name_H-M   'P 1'
_cell_length_a   8.95578100
_cell_length_b   8.95578100
_cell_length_c   7.19559000
_cell_angle_alpha   90.00000000
_cell_angle_beta   90.00000000
_cell_angle_gamma   90.00000000
_symmetry_Int_Tables_number   1
_chemical_formula_structural   Ca3Pr(GePd14)2
_chemical_formula_sum   'Ca3 Pr1 Ge2 Pd28'
_cell_volume   577.12958738
_cell_formula_units_Z   1
loop_
 _symmetry_equiv_pos_site_id
 _symmetry_equiv_pos_as_xyz
  1  'x, y, z'
loop_
 _atom_site_type_symbol
 _atom_site_label
 _atom_site_symmetry_multiplicity
 _atom_site_fract_x
 _atom_site_fract_y
 _atom_site_fract_z
 _atom_site_occupancy
  Ca  Ca0  1  0.000000  0.500000  0.060436  1
  Ca  Ca1  1  0.000000  0.000000  0.500776  1
  Ca  Ca2  1  0.500000  0.500000  0.500776  1
  Pr  Pr3  1  0.500000  0.000000  0.940732  1
  Ge  Ge4  1  0.500000  0.000000  0.451040  1
  Ge  Ge5  1  0.000000  0.500000  0.549829  1
  Pd  Pd6  1  0.328725  0.828725  0.621807  1
  Pd  Pd7  1  0.328725  0.171275  0.621807  1
  Pd  Pd8  1  0.671275  0.828725  0.621807  1
  Pd  Pd9  1  0.671275  0.171275  0.621807  1
  Pd  Pd10  1  0.169728  0.669728  0.375168  1
  Pd  Pd11  1  0.169728  0.330272  0.375168  1
  Pd  Pd12  1  0.830272  0.669728  0.375168  1
  Pd  Pd13  1  0.830272  0.330272  0.375168  1
  Pd  Pd14  1  0.500000  0.765866  0.256163  1
  Pd  Pd15  1  0.500000  0.234134  0.256163  1
  Pd  Pd16  1  0.265866  0.000000  0.256163  1
  Pd  Pd17  1  0.734134  0.000000  0.256163  1
  Pd  Pd18  1  0.000000  0.733099  0.746319  1
  Pd  Pd19  1  0.000000  0.266901  0.746319  1
  Pd  Pd20  1  0.233099  0.500000  0.746319  1
  Pd  Pd21  1  0.766901  0.500000  0.746319  1
  Pd  Pd22  1  0.500000  0.349058  0.857030  1
  Pd  Pd23  1  0.500000  0.650942  0.857030  1
  Pd  Pd24  1  0.849058  0.000000  0.857030  1
  Pd  Pd25  1  0.150942  0.000000  0.857030  1
  Pd  Pd26  1  0.000000  0.150479  0.142678  1
  Pd  Pd27  1  0.000000  0.849521  0.142678  1
  Pd  Pd28  1  0.650479  0.500000  0.142678  1
  Pd  Pd29  1  0.349521  0.500000  0.142678  1
  Pd  Pd30  1  0.249487  0.749487  0.999937  1
  Pd  Pd31  1  0.249487  0.250513  0.999937  1
  Pd  Pd32  1  0.750513  0.749487  0.999937  1
  Pd  Pd33  1  0.750513  0.250513  0.999937  1
