# generated using pymatgen
data_Zr12Al8ZnCo2RuC4
_symmetry_space_group_name_H-M   'P 1'
_cell_length_a   8.60628590
_cell_length_b   8.60628602
_cell_length_c   8.63931500
_cell_angle_alpha   60.12638416
_cell_angle_beta   60.12638369
_cell_angle_gamma   59.99999620
_symmetry_Int_Tables_number   1
_chemical_formula_structural   Zr12Al8ZnCo2RuC4
_chemical_formula_sum   'Zr12 Al8 Zn1 Co2 Ru1 C4'
_cell_volume   453.33874327
_cell_formula_units_Z   1
loop_
 _symmetry_equiv_pos_site_id
 _symmetry_equiv_pos_as_xyz
  1  'x, y, z'
loop_
 _atom_site_type_symbol
 _atom_site_label
 _atom_site_symmetry_multiplicity
 _atom_site_fract_x
 _atom_site_fract_y
 _atom_site_fract_z
 _atom_site_occupancy
  Zr  Zr0  1  0.557003  0.945166  0.552051  1
  Zr  Zr1  1  0.304834  0.692997  0.697949  1
  Zr  Zr2  1  0.695076  0.304461  0.306157  1
  Zr  Zr3  1  0.304461  0.695076  0.306157  1
  Zr  Zr4  1  0.694984  0.694984  0.306130  1
  Zr  Zr5  1  0.305100  0.305100  0.697662  1
  Zr  Zr6  1  0.555016  0.555016  0.943870  1
  Zr  Zr7  1  0.945166  0.557003  0.552051  1
  Zr  Zr8  1  0.554924  0.945539  0.943843  1
  Zr  Zr9  1  0.944900  0.944900  0.552338  1
  Zr  Zr10  1  0.692997  0.304834  0.697949  1
  Zr  Zr11  1  0.945539  0.554924  0.943843  1
  Al  Al12  1  0.913645  0.913645  0.934722  1
  Al  Al13  1  0.012134  0.338735  0.317920  1
  Al  Al14  1  0.338735  0.012134  0.317920  1
  Al  Al15  1  0.331561  0.331561  0.010762  1
  Al  Al16  1  0.911265  0.237866  0.932080  1
  Al  Al17  1  0.918439  0.918439  0.239238  1
  Al  Al18  1  0.237866  0.911265  0.932080  1
  Al  Al19  1  0.336355  0.336355  0.315278  1
  Zn  Zn20  1  0.125000  0.125000  0.625000  1
  Co  Co21  1  0.625000  0.125000  0.125000  1
  Co  Co22  1  0.125000  0.625000  0.125000  1
  Ru  Ru23  1  0.125000  0.125000  0.125000  1
  C  C24  1  0.625000  0.625000  0.625000  1
  C  C25  1  0.125000  0.625000  0.625000  1
  C  C26  1  0.625000  0.125000  0.625000  1
  C  C27  1  0.625000  0.625000  0.125000  1
