# generated using pymatgen
data_Sc12Ga(PtI8)2
_symmetry_space_group_name_H-M   'P 1'
_cell_length_a   9.20579574
_cell_length_b   12.05883323
_cell_length_c   12.68522871
_cell_angle_alpha   117.31695115
_cell_angle_beta   101.19383214
_cell_angle_gamma   100.65846579
_symmetry_Int_Tables_number   1
_chemical_formula_structural   Sc12Ga(PtI8)2
_chemical_formula_sum   'Sc12 Ga1 Pt2 I16'
_cell_volume   1165.11231301
_cell_formula_units_Z   1
loop_
 _symmetry_equiv_pos_site_id
 _symmetry_equiv_pos_as_xyz
  1  'x, y, z'
loop_
 _atom_site_type_symbol
 _atom_site_label
 _atom_site_symmetry_multiplicity
 _atom_site_fract_x
 _atom_site_fract_y
 _atom_site_fract_z
 _atom_site_occupancy
  Sc  Sc0  1  0.092486  0.269112  0.357816  1
  Sc  Sc1  1  0.907514  0.730888  0.642184  1
  Sc  Sc2  1  0.774719  0.535308  0.328323  1
  Sc  Sc3  1  0.225281  0.464692  0.671677  1
  Sc  Sc4  1  0.281406  0.731601  0.641680  1
  Sc  Sc5  1  0.718594  0.268399  0.358320  1
  Sc  Sc6  1  0.148632  0.535316  0.328600  1
  Sc  Sc7  1  0.851368  0.464684  0.671400  1
  Sc  Sc8  1  0.407118  0.360849  0.277157  1
  Sc  Sc9  1  0.592882  0.639151  0.722843  1
  Sc  Sc10  1  0.459401  0.311230  0.521022  1
  Sc  Sc11  1  0.540599  0.688770  0.478978  1
  Ga  Ga12  1  0.000000  0.500000  0.500000  1
  Pt  Pt13  1  0.338966  0.500171  0.499624  1
  Pt  Pt14  1  0.661035  0.499829  0.500376  1
  I  I15  1  0.396534  0.740198  0.883207  1
  I  I16  1  0.603466  0.259802  0.116793  1
  I  I17  1  0.186166  0.959159  0.780142  1
  I  I18  1  0.813834  0.040841  0.219858  1
  I  I19  1  0.338211  0.095552  0.251235  1
  I  I20  1  0.661789  0.904448  0.748765  1
  I  I21  1  0.556876  0.438530  0.800384  1
  I  I22  1  0.443124  0.561470  0.199616  1
  I  I23  1  0.307661  0.824840  0.461577  1
  I  I24  1  0.692339  0.175160  0.538423  1
  I  I25  1  0.167911  0.173701  0.534607  1
  I  I26  1  0.832089  0.826299  0.465393  1
  I  I27  1  0.926008  0.572795  0.161816  1
  I  I28  1  0.073992  0.427205  0.838184  1
  I  I29  1  0.922580  0.738415  0.883598  1
  I  I30  1  0.077420  0.261585  0.116402  1
