# generated using pymatgen
data_Ac3La9Ir(RuBr4)3
_symmetry_space_group_name_H-M   'P 1'
_cell_length_a   10.73923425
_cell_length_b   10.78871706
_cell_length_c   10.74046927
_cell_angle_alpha   108.42348656
_cell_angle_beta   111.41536644
_cell_angle_gamma   108.41877042
_symmetry_Int_Tables_number   1
_chemical_formula_structural   Ac3La9Ir(RuBr4)3
_chemical_formula_sum   'Ac3 La9 Ir1 Ru3 Br12'
_cell_volume   959.13280075
_cell_formula_units_Z   1
loop_
 _symmetry_equiv_pos_site_id
 _symmetry_equiv_pos_as_xyz
  1  'x, y, z'
loop_
 _atom_site_type_symbol
 _atom_site_label
 _atom_site_symmetry_multiplicity
 _atom_site_fract_x
 _atom_site_fract_y
 _atom_site_fract_z
 _atom_site_occupancy
  Ac  Ac0  1  0.260759  0.746511  0.235673  1
  Ac  Ac1  1  0.485752  0.746511  0.010838  1
  Ac  Ac2  1  0.237570  0.475139  0.487570  1
  La  La3  1  0.017719  0.035439  0.267719  1
  La  La4  1  0.228503  0.264833  0.745366  1
  La  La5  1  0.017960  0.481051  0.754350  1
  La  La6  1  0.476705  0.235969  0.461508  1
  La  La7  1  0.269783  0.017958  0.037951  1
  La  La8  1  0.759264  0.235969  0.274460  1
  La  La9  1  0.748175  0.017958  0.480009  1
  La  La10  1  0.463090  0.481051  0.226701  1
  La  La11  1  0.036331  0.264833  0.019467  1
  Ir  Ir12  1  0.500784  0.001568  0.250784  1
  Ru  Ru13  1  0.247963  0.495925  0.997963  1
  Ru  Ru14  1  0.997682  0.247803  0.497471  1
  Ru  Ru15  1  0.250120  0.247803  0.250332  1
  Br  Br16  1  0.254422  0.004944  0.511324  1
  Br  Br17  1  0.515861  0.493745  0.757610  1
  Br  Br18  1  0.235169  0.755899  0.742212  1
  Br  Br19  1  0.987422  0.749575  0.987719  1
  Br  Br20  1  0.977885  0.493745  0.236135  1
  Br  Br21  1  0.750522  0.004944  0.993619  1
  Br  Br22  1  0.762151  0.749575  0.261856  1
  Br  Br23  1  0.520730  0.755899  0.513689  1
  Br  Br24  1  0.498309  0.248042  0.999481  1
  Br  Br25  1  0.748717  0.497435  0.498717  1
  Br  Br26  1  0.749734  0.248042  0.748561  1
  Br  Br27  1  0.000917  0.001833  0.750917  1
