# generated using pymatgen
data_Dy4Y3Lu13Sn16
_symmetry_space_group_name_H-M   'P 1'
_cell_length_a   7.94497419
_cell_length_b   8.07215954
_cell_length_c   15.24829300
_cell_angle_alpha   90.01305268
_cell_angle_beta   90.21105736
_cell_angle_gamma   89.90309588
_symmetry_Int_Tables_number   1
_chemical_formula_structural   Dy4Y3Lu13Sn16
_chemical_formula_sum   'Dy4 Y3 Lu13 Sn16'
_cell_volume   977.91223050
_cell_formula_units_Z   1
loop_
 _symmetry_equiv_pos_site_id
 _symmetry_equiv_pos_as_xyz
  1  'x, y, z'
loop_
 _atom_site_type_symbol
 _atom_site_label
 _atom_site_symmetry_multiplicity
 _atom_site_fract_x
 _atom_site_fract_y
 _atom_site_fract_z
 _atom_site_occupancy
  Dy  Dy0  1  0.479324  0.678041  0.095839  1
  Dy  Dy1  1  0.980535  0.821315  0.404416  1
  Dy  Dy2  1  0.518534  0.321781  0.595421  1
  Dy  Dy3  1  0.020385  0.179146  0.903774  1
  Y  Y4  1  0.019490  0.179173  0.596479  1
  Y  Y5  1  0.480679  0.678877  0.404448  1
  Y  Y6  1  0.979412  0.820877  0.095953  1
  Lu  Lu7  1  0.364928  0.838252  0.876418  1
  Lu  Lu8  1  0.863439  0.662231  0.624034  1
  Lu  Lu9  1  0.635767  0.162192  0.376071  1
  Lu  Lu10  1  0.134049  0.338191  0.123183  1
  Lu  Lu11  1  0.634210  0.161850  0.123176  1
  Lu  Lu12  1  0.135947  0.337972  0.376297  1
  Lu  Lu13  1  0.364263  0.838444  0.624509  1
  Lu  Lu14  1  0.865957  0.661327  0.876653  1
  Lu  Lu15  1  0.522775  0.321228  0.903104  1
  Lu  Lu16  1  0.195849  0.504823  0.750510  1
  Lu  Lu17  1  0.695293  0.995177  0.750548  1
  Lu  Lu18  1  0.804314  0.494732  0.249749  1
  Lu  Lu19  1  0.304390  0.005091  0.249802  1
  Sn  Sn20  1  0.295933  0.039373  0.041648  1
  Sn  Sn21  1  0.797480  0.459367  0.458657  1
  Sn  Sn22  1  0.701595  0.960614  0.541283  1
  Sn  Sn23  1  0.207267  0.537327  0.957723  1
  Sn  Sn24  1  0.702963  0.960860  0.958161  1
  Sn  Sn25  1  0.201844  0.541081  0.541454  1
  Sn  Sn26  1  0.297873  0.040289  0.458619  1
  Sn  Sn27  1  0.794890  0.458941  0.040426  1
  Sn  Sn28  1  0.561512  0.619650  0.750490  1
  Sn  Sn29  1  0.061154  0.879460  0.750285  1
  Sn  Sn30  1  0.438787  0.380055  0.249611  1
  Sn  Sn31  1  0.938652  0.120038  0.249822  1
  Sn  Sn32  1  0.331605  0.151563  0.750985  1
  Sn  Sn33  1  0.829021  0.350375  0.750188  1
  Sn  Sn34  1  0.669944  0.850341  0.250160  1
  Sn  Sn35  1  0.169937  0.649949  0.250102  1
