# generated using pymatgen
data_Dy7HoSc12Si15As
_symmetry_space_group_name_H-M   'P 1'
_cell_length_a   7.14079185
_cell_length_b   7.37354800
_cell_length_c   13.98225036
_cell_angle_alpha   90.03546159
_cell_angle_beta   88.79675490
_cell_angle_gamma   90.15440156
_symmetry_Int_Tables_number   1
_chemical_formula_structural   Dy7HoSc12Si15As
_chemical_formula_sum   'Dy7 Ho1 Sc12 Si15 As1'
_cell_volume   736.04190259
_cell_formula_units_Z   1
loop_
 _symmetry_equiv_pos_site_id
 _symmetry_equiv_pos_as_xyz
  1  'x, y, z'
loop_
 _atom_site_type_symbol
 _atom_site_label
 _atom_site_symmetry_multiplicity
 _atom_site_fract_x
 _atom_site_fract_y
 _atom_site_fract_z
 _atom_site_occupancy
  Dy  Dy0  1  0.011669  0.176098  0.097184  1
  Dy  Dy1  1  0.988820  0.824459  0.902598  1
  Dy  Dy2  1  0.488972  0.675456  0.902861  1
  Dy  Dy3  1  0.994118  0.821836  0.595672  1
  Dy  Dy4  1  0.511419  0.325061  0.097283  1
  Dy  Dy5  1  0.004089  0.178121  0.403841  1
  Dy  Dy6  1  0.503284  0.321154  0.402187  1
  Ho  Ho7  1  0.501265  0.677740  0.597421  1
  Sc  Sc8  1  0.166366  0.501023  0.749788  1
  Sc  Sc9  1  0.833603  0.499087  0.252947  1
  Sc  Sc10  1  0.333780  0.000997  0.251579  1
  Sc  Sc11  1  0.666497  0.998778  0.748875  1
  Sc  Sc12  1  0.342228  0.170526  0.626493  1
  Sc  Sc13  1  0.658655  0.827877  0.373847  1
  Sc  Sc14  1  0.156502  0.671973  0.377119  1
  Sc  Sc15  1  0.667437  0.823478  0.125558  1
  Sc  Sc16  1  0.840658  0.329010  0.622614  1
  Sc  Sc17  1  0.332179  0.176035  0.874083  1
  Sc  Sc18  1  0.833379  0.322865  0.874511  1
  Sc  Sc19  1  0.166801  0.677127  0.125101  1
  Si  Si20  1  0.037883  0.116468  0.749422  1
  Si  Si21  1  0.961898  0.883893  0.249624  1
  Si  Si22  1  0.458435  0.616818  0.249051  1
  Si  Si23  1  0.540496  0.383482  0.750595  1
  Si  Si24  1  0.289934  0.870556  0.750189  1
  Si  Si25  1  0.711025  0.127938  0.249146  1
  Si  Si26  1  0.209189  0.373474  0.249701  1
  Si  Si27  1  0.792041  0.627138  0.750274  1
  Si  Si28  1  0.810618  0.540165  0.457361  1
  Si  Si29  1  0.329562  0.962024  0.460674  1
  Si  Si30  1  0.842805  0.535225  0.039337  1
  Si  Si31  1  0.670290  0.037812  0.539968  1
  Si  Si32  1  0.156861  0.465392  0.960391  1
  Si  Si33  1  0.656257  0.034614  0.959907  1
  Si  Si34  1  0.343778  0.965996  0.040108  1
  As  As35  1  0.187210  0.460300  0.542692  1
