# generated using pymatgen
data_HoErAl20Os3Rh
_symmetry_space_group_name_H-M   'P 1'
_cell_length_a   6.86234942
_cell_length_b   6.85046472
_cell_length_c   9.14055519
_cell_angle_alpha   90.17803577
_cell_angle_beta   90.30663466
_cell_angle_gamma   96.67719557
_symmetry_Int_Tables_number   1
_chemical_formula_structural   HoErAl20Os3Rh
_chemical_formula_sum   'Ho1 Er1 Al20 Os3 Rh1'
_cell_volume   426.77630863
_cell_formula_units_Z   1
loop_
 _symmetry_equiv_pos_site_id
 _symmetry_equiv_pos_as_xyz
  1  'x, y, z'
loop_
 _atom_site_type_symbol
 _atom_site_label
 _atom_site_symmetry_multiplicity
 _atom_site_fract_x
 _atom_site_fract_y
 _atom_site_fract_z
 _atom_site_occupancy
  Ho  Ho0  1  0.871196  0.131893  0.749460  1
  Er  Er1  1  0.129113  0.867585  0.250732  1
  Al  Al2  1  0.517796  0.780299  0.747619  1
  Al  Al3  1  0.782999  0.517877  0.249145  1
  Al  Al4  1  0.482002  0.219469  0.252271  1
  Al  Al5  1  0.217212  0.482362  0.750828  1
  Al  Al6  1  0.624265  0.378947  0.950970  1
  Al  Al7  1  0.375891  0.621082  0.049114  1
  Al  Al8  1  0.623874  0.377030  0.546595  1
  Al  Al9  1  0.376110  0.622880  0.453314  1
  Al  Al10  1  0.416207  0.147752  0.749830  1
  Al  Al11  1  0.146631  0.414198  0.250456  1
  Al  Al12  1  0.583072  0.851892  0.250117  1
  Al  Al13  1  0.853763  0.586569  0.749521  1
  Al  Al14  1  0.844567  0.154604  0.398792  1
  Al  Al15  1  0.155381  0.845276  0.601013  1
  Al  Al16  1  0.845191  0.156245  0.102980  1
  Al  Al17  1  0.155076  0.843844  0.897273  1
  Al  Al18  1  0.775864  0.775855  0.000724  1
  Al  Al19  1  0.777582  0.777396  0.498577  1
  Al  Al20  1  0.224249  0.224277  0.999830  1
  Al  Al21  1  0.222269  0.222670  0.500964  1
  Os  Os22  1  0.000137  0.500210  0.000185  1
  Os  Os23  1  0.499764  0.999939  0.499787  1
  Os  Os24  1  0.999997  0.500129  0.499819  1
  Rh  Rh25  1  0.499787  0.999719  0.000081  1
