# generated using pymatgen
data_La5Nd5(Ga2Ru3)2
_symmetry_space_group_name_H-M   'P 1'
_cell_length_a   8.55261348
_cell_length_b   8.55261212
_cell_length_c   8.63135375
_cell_angle_alpha   109.45870351
_cell_angle_beta   109.45590632
_cell_angle_gamma   109.12667924
_symmetry_Int_Tables_number   1
_chemical_formula_structural   La5Nd5(Ga2Ru3)2
_chemical_formula_sum   'La5 Nd5 Ga4 Ru6'
_cell_volume   488.23727279
_cell_formula_units_Z   1
loop_
 _symmetry_equiv_pos_site_id
 _symmetry_equiv_pos_as_xyz
  1  'x, y, z'
loop_
 _atom_site_type_symbol
 _atom_site_label
 _atom_site_symmetry_multiplicity
 _atom_site_fract_x
 _atom_site_fract_y
 _atom_site_fract_z
 _atom_site_occupancy
  La  La0  1  0.253765  0.692182  0.441769  1
  La  La1  1  0.750413  0.811996  0.058231  1
  La  La2  1  0.440806  0.249868  0.688676  1
  La  La3  1  0.690364  0.440364  0.250000  1
  La  La4  1  0.061193  0.752130  0.811324  1
  Nd  Nd5  1  0.216706  0.219926  0.218480  1
  Nd  Nd6  1  0.501445  0.998226  0.281520  1
  Nd  Nd7  1  0.281118  0.497945  0.997118  1
  Nd  Nd8  1  0.000827  0.284000  0.502882  1
  Nd  Nd9  1  0.814670  0.064670  0.750000  1
  Ga  Ga10  1  0.587511  0.587204  0.585317  1
  Ga  Ga11  1  0.501887  0.002194  0.914683  1
  Ga  Ga12  1  0.917761  0.498440  0.000884  1
  Ga  Ga13  1  0.997556  0.916877  0.499116  1
  Ru  Ru14  1  0.243828  0.114507  0.865870  1
  Ru  Ru15  1  0.748637  0.377958  0.634130  1
  Ru  Ru16  1  0.865860  0.254351  0.127661  1
  Ru  Ru17  1  0.117446  0.867445  0.250000  1
  Ru  Ru18  1  0.626690  0.738198  0.372339  1
  Ru  Ru19  1  0.381517  0.631517  0.750000  1
