# generated using pymatgen
data_Tb16In6CoOs
_symmetry_space_group_name_H-M   'P 1'
_cell_length_a   10.44949400
_cell_length_b   10.44949601
_cell_length_c   7.09863500
_cell_angle_alpha   90.00000000
_cell_angle_beta   90.00000000
_cell_angle_gamma   119.99999998
_symmetry_Int_Tables_number   1
_chemical_formula_structural   Tb16In6CoOs
_chemical_formula_sum   'Tb16 In6 Co1 Os1'
_cell_volume   671.26821432
_cell_formula_units_Z   1
loop_
 _symmetry_equiv_pos_site_id
 _symmetry_equiv_pos_as_xyz
  1  'x, y, z'
loop_
 _atom_site_type_symbol
 _atom_site_label
 _atom_site_symmetry_multiplicity
 _atom_site_fract_x
 _atom_site_fract_y
 _atom_site_fract_z
 _atom_site_occupancy
  Tb  Tb0  1  0.465954  0.534046  0.481494  1
  Tb  Tb1  1  0.068091  0.534046  0.481494  1
  Tb  Tb2  1  0.465954  0.931909  0.481494  1
  Tb  Tb3  1  0.535822  0.464178  0.982204  1
  Tb  Tb4  1  0.928358  0.464178  0.982204  1
  Tb  Tb5  1  0.535822  0.071642  0.982204  1
  Tb  Tb6  1  0.822196  0.177804  0.275424  1
  Tb  Tb7  1  0.355609  0.177804  0.275424  1
  Tb  Tb8  1  0.822196  0.644391  0.275424  1
  Tb  Tb9  1  0.176543  0.823457  0.776044  1
  Tb  Tb10  1  0.646913  0.823457  0.776044  1
  Tb  Tb11  1  0.176543  0.353087  0.776044  1
  Tb  Tb12  1  0.333333  0.666667  0.101683  1
  Tb  Tb13  1  0.666667  0.333333  0.592617  1
  Tb  Tb14  1  0.000000  0.000000  0.494899  1
  Tb  Tb15  1  0.000000  0.000000  0.996982  1
  In  In16  1  0.162430  0.837570  0.233532  1
  In  In17  1  0.675139  0.837570  0.233532  1
  In  In18  1  0.162430  0.324861  0.233532  1
  In  In19  1  0.836524  0.163476  0.733274  1
  In  In20  1  0.326953  0.163476  0.733274  1
  In  In21  1  0.836524  0.673047  0.733274  1
  Co  Co22  1  0.666667  0.333333  0.207243  1
  Os  Os23  1  0.333333  0.666667  0.705213  1
