# generated using pymatgen
data_Nd2Nb3Ni9P7
_symmetry_space_group_name_H-M   'P 1'
_cell_length_a   3.76624400
_cell_length_b   9.37643620
_cell_length_c   9.37643600
_cell_angle_alpha   119.99999931
_cell_angle_beta   90.00000000
_cell_angle_gamma   90.00000000
_symmetry_Int_Tables_number   1
_chemical_formula_structural   Nd2Nb3Ni9P7
_chemical_formula_sum   'Nd2 Nb3 Ni9 P7'
_cell_volume   286.75743295
_cell_formula_units_Z   1
loop_
 _symmetry_equiv_pos_site_id
 _symmetry_equiv_pos_as_xyz
  1  'x, y, z'
loop_
 _atom_site_type_symbol
 _atom_site_label
 _atom_site_symmetry_multiplicity
 _atom_site_fract_x
 _atom_site_fract_y
 _atom_site_fract_z
 _atom_site_occupancy
  Nd  Nd0  1  0.000000  0.666667  0.333333  1
  Nd  Nd1  1  0.500000  0.333333  0.666667  1
  Nb  Nb2  1  0.500000  0.776929  0.893726  1
  Nb  Nb3  1  0.500000  0.116797  0.223071  1
  Nb  Nb4  1  0.500000  0.106274  0.883203  1
  Ni  Ni5  1  0.000000  0.570793  0.937554  1
  Ni  Ni6  1  0.000000  0.366760  0.429207  1
  Ni  Ni7  1  0.000000  0.062446  0.633240  1
  Ni  Ni8  1  0.000000  0.871127  0.154086  1
  Ni  Ni9  1  0.000000  0.282960  0.128873  1
  Ni  Ni10  1  0.000000  0.845914  0.717040  1
  Ni  Ni11  1  0.500000  0.943254  0.384001  1
  Ni  Ni12  1  0.500000  0.440747  0.056746  1
  Ni  Ni13  1  0.500000  0.615999  0.559253  1
  P  P14  1  0.500000  0.707744  0.114016  1
  P  P15  1  0.500000  0.406274  0.292256  1
  P  P16  1  0.500000  0.885984  0.593726  1
  P  P17  1  0.000000  0.000000  0.000000  1
  P  P18  1  0.000000  0.588049  0.692652  1
  P  P19  1  0.000000  0.104603  0.411951  1
  P  P20  1  0.000000  0.307348  0.895397  1
