# generated using pymatgen
data_PrDy7Sc12Si15Pt
_symmetry_space_group_name_H-M   'P 1'
_cell_length_a   7.10843949
_cell_length_b   7.45973165
_cell_length_c   14.01616909
_cell_angle_alpha   90.09942895
_cell_angle_beta   90.05799600
_cell_angle_gamma   90.26197625
_symmetry_Int_Tables_number   1
_chemical_formula_structural   PrDy7Sc12Si15Pt
_chemical_formula_sum   'Pr1 Dy7 Sc12 Si15 Pt1'
_cell_volume   743.22683909
_cell_formula_units_Z   1
loop_
 _symmetry_equiv_pos_site_id
 _symmetry_equiv_pos_as_xyz
  1  'x, y, z'
loop_
 _atom_site_type_symbol
 _atom_site_label
 _atom_site_symmetry_multiplicity
 _atom_site_fract_x
 _atom_site_fract_y
 _atom_site_fract_z
 _atom_site_occupancy
  Pr  Pr0  1  0.011449  0.175881  0.094886  1
  Dy  Dy1  1  0.990136  0.822024  0.903516  1
  Dy  Dy2  1  0.489941  0.676555  0.903418  1
  Dy  Dy3  1  0.989966  0.822174  0.595101  1
  Dy  Dy4  1  0.511325  0.323433  0.096734  1
  Dy  Dy5  1  0.012036  0.178564  0.403295  1
  Dy  Dy6  1  0.511671  0.323261  0.404525  1
  Dy  Dy7  1  0.488354  0.676735  0.595218  1
  Sc  Sc8  1  0.158943  0.503209  0.749837  1
  Sc  Sc9  1  0.838836  0.498126  0.250576  1
  Sc  Sc10  1  0.338809  0.004048  0.250738  1
  Sc  Sc11  1  0.665718  0.998998  0.749980  1
  Sc  Sc12  1  0.322727  0.173297  0.625545  1
  Sc  Sc13  1  0.670739  0.825784  0.374418  1
  Sc  Sc14  1  0.171823  0.676579  0.374991  1
  Sc  Sc15  1  0.671572  0.825549  0.127060  1
  Sc  Sc16  1  0.830942  0.322883  0.625568  1
  Sc  Sc17  1  0.324396  0.173965  0.873893  1
  Sc  Sc18  1  0.829022  0.324655  0.873855  1
  Sc  Sc19  1  0.171535  0.675877  0.126214  1
  Si  Si20  1  0.968937  0.880335  0.251871  1
  Si  Si21  1  0.469114  0.615279  0.250851  1
  Si  Si22  1  0.530678  0.387189  0.749285  1
  Si  Si23  1  0.287739  0.869106  0.749434  1
  Si  Si24  1  0.710141  0.129063  0.252678  1
  Si  Si25  1  0.215374  0.374522  0.252081  1
  Si  Si26  1  0.780687  0.625483  0.749179  1
  Si  Si27  1  0.158323  0.466194  0.538471  1
  Si  Si28  1  0.842945  0.535795  0.460990  1
  Si  Si29  1  0.344939  0.965860  0.460756  1
  Si  Si30  1  0.840188  0.540298  0.037546  1
  Si  Si31  1  0.657419  0.033587  0.539290  1
  Si  Si32  1  0.159427  0.470917  0.959853  1
  Si  Si33  1  0.656515  0.033006  0.960093  1
  Si  Si34  1  0.350348  0.962069  0.038145  1
  Pt  Pt35  1  0.027286  0.109697  0.750104  1
