# generated using pymatgen
data_LaPr2Nd(ZnSn)4
_symmetry_space_group_name_H-M   'P 1'
_cell_length_a   4.60361100
_cell_length_b   4.60361205
_cell_length_c   16.80826400
_cell_angle_alpha   90.00000000
_cell_angle_beta   90.00000000
_cell_angle_gamma   119.99999963
_symmetry_Int_Tables_number   1
_chemical_formula_structural   LaPr2Nd(ZnSn)4
_chemical_formula_sum   'La1 Pr2 Nd1 Zn4 Sn4'
_cell_volume   308.49691925
_cell_formula_units_Z   1
loop_
 _symmetry_equiv_pos_site_id
 _symmetry_equiv_pos_as_xyz
  1  'x, y, z'
loop_
 _atom_site_type_symbol
 _atom_site_label
 _atom_site_symmetry_multiplicity
 _atom_site_fract_x
 _atom_site_fract_y
 _atom_site_fract_z
 _atom_site_occupancy
  La  La0  1  0.000000  0.000000  0.500748  1
  Pr  Pr1  1  0.000000  0.000000  0.999272  1
  Pr  Pr2  1  0.000000  0.000000  0.248693  1
  Nd  Nd3  1  0.000000  0.000000  0.751378  1
  Zn  Zn4  1  0.333333  0.666667  0.341797  1
  Zn  Zn5  1  0.666667  0.333333  0.660014  1
  Zn  Zn6  1  0.666667  0.333333  0.841515  1
  Zn  Zn7  1  0.333333  0.666667  0.156746  1
  Sn  Sn8  1  0.333333  0.666667  0.883369  1
  Sn  Sn9  1  0.666667  0.333333  0.115285  1
  Sn  Sn10  1  0.666667  0.333333  0.382256  1
  Sn  Sn11  1  0.333333  0.666667  0.618929  1
