# generated using pymatgen
data_Ce4NbSn(B2Ru5)2
_symmetry_space_group_name_H-M   'P 1'
_cell_length_a   9.78535000
_cell_length_b   9.78535000
_cell_length_c   3.15717200
_cell_angle_alpha   90.00000000
_cell_angle_beta   90.00000000
_cell_angle_gamma   90.00000000
_symmetry_Int_Tables_number   1
_chemical_formula_structural   Ce4NbSn(B2Ru5)2
_chemical_formula_sum   'Ce4 Nb1 Sn1 B4 Ru10'
_cell_volume   302.30892611
_cell_formula_units_Z   1
loop_
 _symmetry_equiv_pos_site_id
 _symmetry_equiv_pos_as_xyz
  1  'x, y, z'
loop_
 _atom_site_type_symbol
 _atom_site_label
 _atom_site_symmetry_multiplicity
 _atom_site_fract_x
 _atom_site_fract_y
 _atom_site_fract_z
 _atom_site_occupancy
  Ce  Ce0  1  0.822369  0.674582  0.000000  1
  Ce  Ce1  1  0.177631  0.325418  0.000000  1
  Ce  Ce2  1  0.325418  0.822369  0.000000  1
  Ce  Ce3  1  0.674582  0.177631  0.000000  1
  Nb  Nb4  1  0.000000  0.000000  0.000000  1
  Sn  Sn5  1  0.500000  0.500000  0.000000  1
  B  B6  1  0.621397  0.879859  0.000000  1
  B  B7  1  0.378603  0.120141  0.000000  1
  B  B8  1  0.120141  0.621397  0.000000  1
  B  B9  1  0.879859  0.378603  0.000000  1
  Ru  Ru10  1  0.574587  0.726013  0.500000  1
  Ru  Ru11  1  0.425413  0.273987  0.500000  1
  Ru  Ru12  1  0.066989  0.780857  0.500000  1
  Ru  Ru13  1  0.933011  0.219143  0.500000  1
  Ru  Ru14  1  0.273987  0.574587  0.500000  1
  Ru  Ru15  1  0.726013  0.425413  0.500000  1
  Ru  Ru16  1  0.219143  0.066989  0.500000  1
  Ru  Ru17  1  0.780857  0.933011  0.500000  1
  Ru  Ru18  1  0.500000  0.000000  0.500000  1
  Ru  Ru19  1  0.000000  0.500000  0.500000  1
