# generated using pymatgen
data_TbThMn12P7
_symmetry_space_group_name_H-M   'P 1'
_cell_length_a   9.36092600
_cell_length_b   9.36092488
_cell_length_c   3.63693800
_cell_angle_alpha   90.00000000
_cell_angle_beta   90.00000000
_cell_angle_gamma   119.99999690
_symmetry_Int_Tables_number   1
_chemical_formula_structural   TbThMn12P7
_chemical_formula_sum   'Tb1 Th1 Mn12 P7'
_cell_volume   275.99684331
_cell_formula_units_Z   1
loop_
 _symmetry_equiv_pos_site_id
 _symmetry_equiv_pos_as_xyz
  1  'x, y, z'
loop_
 _atom_site_type_symbol
 _atom_site_label
 _atom_site_symmetry_multiplicity
 _atom_site_fract_x
 _atom_site_fract_y
 _atom_site_fract_z
 _atom_site_occupancy
  Tb  Tb0  1  0.666667  0.333333  0.000000  1
  Th  Th1  1  0.333333  0.666667  0.500000  1
  Mn  Mn2  1  0.048774  0.622777  0.000000  1
  Mn  Mn3  1  0.574003  0.951226  0.000000  1
  Mn  Mn4  1  0.377223  0.425997  0.000000  1
  Mn  Mn5  1  0.275242  0.121720  0.000000  1
  Mn  Mn6  1  0.846478  0.724758  0.000000  1
  Mn  Mn7  1  0.878280  0.153522  0.000000  1
  Mn  Mn8  1  0.437536  0.046607  0.500000  1
  Mn  Mn9  1  0.609072  0.562464  0.500000  1
  Mn  Mn10  1  0.953393  0.390928  0.500000  1
  Mn  Mn11  1  0.103547  0.876804  0.500000  1
  Mn  Mn12  1  0.773256  0.896453  0.500000  1
  Mn  Mn13  1  0.123196  0.226744  0.500000  1
  P  P14  1  0.289867  0.886982  0.000000  1
  P  P15  1  0.597115  0.710133  0.000000  1
  P  P16  1  0.113018  0.402885  0.000000  1
  P  P17  1  0.407199  0.281368  0.500000  1
  P  P18  1  0.874169  0.592801  0.500000  1
  P  P19  1  0.718632  0.125831  0.500000  1
  P  P20  1  0.000000  0.000000  0.000000  1
