# generated using pymatgen
data_Ac2PdPbAu
_symmetry_space_group_name_H-M   'P 1'
_cell_length_a   8.53328700
_cell_length_b   8.53531200
_cell_length_c   3.96316400
_cell_angle_alpha   90.00000000
_cell_angle_beta   90.00000000
_cell_angle_gamma   90.00000000
_symmetry_Int_Tables_number   1
_chemical_formula_structural   Ac2PdPbAu
_chemical_formula_sum   'Ac4 Pd2 Pb2 Au2'
_cell_volume   288.65414467
_cell_formula_units_Z   2
loop_
 _symmetry_equiv_pos_site_id
 _symmetry_equiv_pos_as_xyz
  1  'x, y, z'
loop_
 _atom_site_type_symbol
 _atom_site_label
 _atom_site_symmetry_multiplicity
 _atom_site_fract_x
 _atom_site_fract_y
 _atom_site_fract_z
 _atom_site_occupancy
  Ac  Ac0  1  0.681752  0.177852  0.500000  1
  Ac  Ac1  1  0.168562  0.323567  0.500000  1
  Ac  Ac2  1  0.818248  0.677852  0.500000  1
  Ac  Ac3  1  0.331438  0.823567  0.500000  1
  Pd  Pd4  1  0.625239  0.875215  0.000000  1
  Pd  Pd5  1  0.874761  0.375215  0.000000  1
  Pb  Pb6  1  0.992894  0.002592  0.000000  1
  Pb  Pb7  1  0.507106  0.502592  0.000000  1
  Au  Au8  1  0.382147  0.120775  0.000000  1
  Au  Au9  1  0.117853  0.620775  0.000000  1
