# generated using pymatgen
data_Gd2Ni(B2O5)2
_symmetry_space_group_name_H-M   'P 1'
_cell_length_a   4.58686477
_cell_length_b   7.36279100
_cell_length_c   9.50519067
_cell_angle_alpha   90.00000000
_cell_angle_beta   91.45601579
_cell_angle_gamma   90.00000000
_symmetry_Int_Tables_number   1
_chemical_formula_structural   Gd2Ni(B2O5)2
_chemical_formula_sum   'Gd4 Ni2 B8 O20'
_cell_volume   320.90685706
_cell_formula_units_Z   2
loop_
 _symmetry_equiv_pos_site_id
 _symmetry_equiv_pos_as_xyz
  1  'x, y, z'
loop_
 _atom_site_type_symbol
 _atom_site_label
 _atom_site_symmetry_multiplicity
 _atom_site_fract_x
 _atom_site_fract_y
 _atom_site_fract_z
 _atom_site_occupancy
  Gd  Gd0  1  0.004546  0.398062  0.165389  1
  Gd  Gd1  1  0.995453  0.898062  0.334611  1
  Gd  Gd2  1  0.004547  0.101938  0.665388  1
  Gd  Gd3  1  0.995454  0.601938  0.834611  1
  Ni  Ni4  1  0.000000  0.000000  0.000000  1
  Ni  Ni5  1  0.000000  0.500000  0.500000  1
  B  B6  1  0.471378  0.737670  0.086295  1
  B  B7  1  0.465640  0.096007  0.159071  1
  B  B8  1  0.534361  0.596008  0.340929  1
  B  B9  1  0.528623  0.237670  0.413705  1
  B  B10  1  0.471377  0.762330  0.586294  1
  B  B11  1  0.465639  0.403993  0.659072  1
  B  B12  1  0.534360  0.903993  0.840928  1
  B  B13  1  0.528622  0.262330  0.913706  1
  O  O14  1  0.334183  0.205181  0.035342  1
  O  O15  1  0.252437  0.611936  0.040927  1
  O  O16  1  0.324011  0.909854  0.141361  1
  O  O17  1  0.775214  0.095177  0.163934  1
  O  O18  1  0.666793  0.670985  0.207078  1
  O  O19  1  0.333208  0.170984  0.292922  1
  O  O20  1  0.224788  0.595177  0.336066  1
  O  O21  1  0.675988  0.409854  0.358639  1
  O  O22  1  0.747564  0.111936  0.459073  1
  O  O23  1  0.665818  0.705181  0.464658  1
  O  O24  1  0.334184  0.294819  0.535342  1
  O  O25  1  0.252436  0.888065  0.540927  1
  O  O26  1  0.324012  0.590146  0.641361  1
  O  O27  1  0.775212  0.404823  0.663934  1
  O  O28  1  0.666792  0.829016  0.707078  1
  O  O29  1  0.333207  0.329016  0.792921  1
  O  O30  1  0.224786  0.904823  0.836066  1
  O  O31  1  0.675989  0.090146  0.858639  1
  O  O32  1  0.747563  0.388065  0.959074  1
  O  O33  1  0.665817  0.794819  0.964658  1
