# generated using pymatgen
data_Tb5(GaSb)2
_symmetry_space_group_name_H-M   'P 1'
_cell_length_a   8.69183515
_cell_length_b   8.69183586
_cell_length_c   7.97008800
_cell_angle_alpha   90.00000000
_cell_angle_beta   90.00000000
_cell_angle_gamma   125.49818538
_symmetry_Int_Tables_number   1
_chemical_formula_structural   Tb5(GaSb)2
_chemical_formula_sum   'Tb10 Ga4 Sb4'
_cell_volume   490.20976459
_cell_formula_units_Z   2
loop_
 _symmetry_equiv_pos_site_id
 _symmetry_equiv_pos_as_xyz
  1  'x, y, z'
loop_
 _atom_site_type_symbol
 _atom_site_label
 _atom_site_symmetry_multiplicity
 _atom_site_fract_x
 _atom_site_fract_y
 _atom_site_fract_z
 _atom_site_occupancy
  Tb  Tb0  1  0.039505  0.302053  0.331690  1
  Tb  Tb1  1  0.960495  0.697947  0.668310  1
  Tb  Tb2  1  0.460495  0.197947  0.831690  1
  Tb  Tb3  1  0.802053  0.539505  0.168310  1
  Tb  Tb4  1  0.539505  0.802053  0.168310  1
  Tb  Tb5  1  0.197947  0.460495  0.831690  1
  Tb  Tb6  1  0.697947  0.960495  0.668310  1
  Tb  Tb7  1  0.302053  0.039505  0.331690  1
  Tb  Tb8  1  0.000000  0.000000  0.000000  1
  Tb  Tb9  1  0.500000  0.500000  0.500000  1
  Ga  Ga10  1  0.376749  0.376749  0.122610  1
  Ga  Ga11  1  0.623251  0.623251  0.877390  1
  Ga  Ga12  1  0.123251  0.123251  0.622610  1
  Ga  Ga13  1  0.876749  0.876749  0.377390  1
  Sb  Sb14  1  0.794726  0.205274  0.000000  1
  Sb  Sb15  1  0.205274  0.794726  0.000000  1
  Sb  Sb16  1  0.705274  0.294726  0.500000  1
  Sb  Sb17  1  0.294726  0.705274  0.500000  1
