# generated using pymatgen
data_Ca5Yb7(PrSn2)8
_symmetry_space_group_name_H-M   'P 1'
_cell_length_a   7.98812101
_cell_length_b   8.52901801
_cell_length_c   16.13579004
_cell_angle_alpha   89.99601237
_cell_angle_beta   89.99340545
_cell_angle_gamma   89.99842492
_symmetry_Int_Tables_number   1
_chemical_formula_structural   Ca5Yb7(PrSn2)8
_chemical_formula_sum   'Ca5 Yb7 Pr8 Sn16'
_cell_volume   1099.34472465
_cell_formula_units_Z   1
loop_
 _symmetry_equiv_pos_site_id
 _symmetry_equiv_pos_as_xyz
  1  'x, y, z'
loop_
 _atom_site_type_symbol
 _atom_site_label
 _atom_site_symmetry_multiplicity
 _atom_site_fract_x
 _atom_site_fract_y
 _atom_site_fract_z
 _atom_site_occupancy
  Ca  Ca0  1  0.334172  0.826624  0.876592  1
  Ca  Ca1  1  0.162242  0.503551  0.749953  1
  Ca  Ca2  1  0.662428  0.996410  0.749941  1
  Ca  Ca3  1  0.837717  0.496355  0.250005  1
  Ca  Ca4  1  0.337723  0.003637  0.249998  1
  Yb  Yb5  1  0.834229  0.673367  0.623504  1
  Yb  Yb6  1  0.665767  0.173368  0.376491  1
  Yb  Yb7  1  0.165773  0.326647  0.123519  1
  Yb  Yb8  1  0.665778  0.173413  0.123516  1
  Yb  Yb9  1  0.165783  0.326631  0.376490  1
  Yb  Yb10  1  0.334220  0.826609  0.623500  1
  Yb  Yb11  1  0.834210  0.673355  0.876453  1
  Pr  Pr12  1  0.493981  0.315094  0.904126  1
  Pr  Pr13  1  0.994079  0.184871  0.595906  1
  Pr  Pr14  1  0.505914  0.684877  0.404092  1
  Pr  Pr15  1  0.005929  0.815127  0.095908  1
  Pr  Pr16  1  0.505936  0.684879  0.095944  1
  Pr  Pr17  1  0.005898  0.815111  0.404102  1
  Pr  Pr18  1  0.494082  0.315129  0.595900  1
  Pr  Pr19  1  0.994056  0.184956  0.904099  1
  Sn  Sn20  1  0.330427  0.035389  0.038725  1
  Sn  Sn21  1  0.830446  0.464878  0.461467  1
  Sn  Sn22  1  0.669551  0.964877  0.538534  1
  Sn  Sn23  1  0.169412  0.534584  0.961619  1
  Sn  Sn24  1  0.669915  0.965046  0.961594  1
  Sn  Sn25  1  0.169556  0.535128  0.538533  1
  Sn  Sn26  1  0.330456  0.035120  0.461475  1
  Sn  Sn27  1  0.830433  0.464890  0.038523  1
  Sn  Sn28  1  0.535806  0.601772  0.749731  1
  Sn  Sn29  1  0.035163  0.898048  0.749862  1
  Sn  Sn30  1  0.464472  0.397943  0.250001  1
  Sn  Sn31  1  0.964457  0.102018  0.249992  1
  Sn  Sn32  1  0.289853  0.141565  0.749879  1
  Sn  Sn33  1  0.789964  0.358737  0.750037  1
  Sn  Sn34  1  0.710084  0.858752  0.249993  1
  Sn  Sn35  1  0.210085  0.641241  0.249996  1
