# generated using pymatgen
data_K2Mo(BrF2)2
_symmetry_space_group_name_H-M   'P 1'
_cell_length_a   6.99204596
_cell_length_b   6.99208152
_cell_length_c   5.27826500
_cell_angle_alpha   93.44711985
_cell_angle_beta   93.44717024
_cell_angle_gamma   52.94282321
_symmetry_Int_Tables_number   1
_chemical_formula_structural   K2Mo(BrF2)2
_chemical_formula_sum   'K2 Mo1 Br2 F4'
_cell_volume   205.46681805
_cell_formula_units_Z   1
loop_
 _symmetry_equiv_pos_site_id
 _symmetry_equiv_pos_as_xyz
  1  'x, y, z'
loop_
 _atom_site_type_symbol
 _atom_site_label
 _atom_site_symmetry_multiplicity
 _atom_site_fract_x
 _atom_site_fract_y
 _atom_site_fract_z
 _atom_site_occupancy
  K  K0  1  0.368825  0.368836  0.350429  1
  K  K1  1  0.631175  0.631164  0.649571  1
  Mo  Mo2  1  0.000000  0.000000  0.000000  1
  Br  Br3  1  0.190269  0.190264  0.819017  1
  Br  Br4  1  0.809731  0.809736  0.180983  1
  F  F5  1  0.722835  0.185404  0.757937  1
  F  F6  1  0.185398  0.722842  0.757950  1
  F  F7  1  0.277165  0.814596  0.242063  1
  F  F8  1  0.814602  0.277158  0.242050  1
