# generated using pymatgen
data_Pr12IrPt2AuBr12
_symmetry_space_group_name_H-M   'P 1'
_cell_length_a   10.73930990
_cell_length_b   10.65638989
_cell_length_c   10.65639453
_cell_angle_alpha   109.38791904
_cell_angle_beta   109.97081974
_cell_angle_gamma   109.97087122
_symmetry_Int_Tables_number   1
_chemical_formula_structural   Pr12IrPt2AuBr12
_chemical_formula_sum   'Pr12 Ir1 Pt2 Au1 Br12'
_cell_volume   928.01609014
_cell_formula_units_Z   1
loop_
 _symmetry_equiv_pos_site_id
 _symmetry_equiv_pos_as_xyz
  1  'x, y, z'
loop_
 _atom_site_type_symbol
 _atom_site_label
 _atom_site_symmetry_multiplicity
 _atom_site_fract_x
 _atom_site_fract_y
 _atom_site_fract_z
 _atom_site_occupancy
  Pr  Pr0  1  0.470291  0.492814  0.229995  1
  Pr  Pr1  1  0.750000  0.234919  0.265080  1
  Pr  Pr2  1  0.750000  0.014553  0.485449  1
  Pr  Pr3  1  0.233462  0.472529  0.491502  1
  Pr  Pr4  1  0.263267  0.744415  0.231986  1
  Pr  Pr5  1  0.029709  0.270004  0.007186  1
  Pr  Pr6  1  0.009296  0.027596  0.267392  1
  Pr  Pr7  1  0.482682  0.745747  0.011549  1
  Pr  Pr8  1  0.490705  0.232609  0.472405  1
  Pr  Pr9  1  0.017318  0.488451  0.754253  1
  Pr  Pr10  1  0.266539  0.008498  0.027472  1
  Pr  Pr11  1  0.236732  0.268013  0.755585  1
  Ir  Ir12  1  0.250000  0.501408  0.998593  1
  Pt  Pt13  1  0.500481  0.998514  0.249511  1
  Pt  Pt14  1  0.999519  0.250488  0.501486  1
  Au  Au15  1  0.250000  0.249891  0.250109  1
  Br  Br16  1  0.250000  0.755313  0.744688  1
  Br  Br17  1  0.505660  0.501344  0.751049  1
  Br  Br18  1  0.994340  0.748951  0.998656  1
  Br  Br19  1  0.745021  0.249872  0.754399  1
  Br  Br20  1  0.998312  0.993576  0.747787  1
  Br  Br21  1  0.250000  0.998852  0.501148  1
  Br  Br22  1  0.750511  0.504692  0.501255  1
  Br  Br23  1  0.502201  0.249320  0.998927  1
  Br  Br24  1  0.754979  0.745600  0.250128  1
  Br  Br25  1  0.749489  0.998745  0.995307  1
  Br  Br26  1  0.997799  0.501073  0.250680  1
  Br  Br27  1  0.501688  0.752213  0.506423  1
