# generated using pymatgen
data_Sc2AsS
_symmetry_space_group_name_H-M   'P 1'
_cell_length_a   6.56586583
_cell_length_b   6.56586634
_cell_length_c   6.56586585
_cell_angle_alpha   131.76391920
_cell_angle_beta   131.76393032
_cell_angle_gamma   70.60214167
_symmetry_Int_Tables_number   1
_chemical_formula_structural   Sc2AsS
_chemical_formula_sum   'Sc4 As2 S2'
_cell_volume   154.28662048
_cell_formula_units_Z   2
loop_
 _symmetry_equiv_pos_site_id
 _symmetry_equiv_pos_as_xyz
  1  'x, y, z'
loop_
 _atom_site_type_symbol
 _atom_site_label
 _atom_site_symmetry_multiplicity
 _atom_site_fract_x
 _atom_site_fract_y
 _atom_site_fract_z
 _atom_site_occupancy
  Sc  Sc0  1  0.749910  0.749910  0.000000  1
  Sc  Sc1  1  0.250090  0.250090  0.000000  1
  Sc  Sc2  1  0.000090  0.500090  0.500000  1
  Sc  Sc3  1  0.499910  0.999910  0.500000  1
  As  As4  1  0.500000  0.500000  0.000000  1
  As  As5  1  0.250000  0.750000  0.500000  1
  S  S6  1  0.000000  0.000000  0.000000  1
  S  S7  1  0.750000  0.250000  0.500000  1
