# generated using pymatgen
data_Th5Ga12Pd19
_symmetry_space_group_name_H-M   'P 1'
_cell_length_a   16.14706102
_cell_length_b   16.14705945
_cell_length_c   10.28327500
_cell_angle_alpha   75.89929052
_cell_angle_beta   75.89929192
_cell_angle_gamma   14.38762073
_symmetry_Int_Tables_number   1
_chemical_formula_structural   Th5Ga12Pd19
_chemical_formula_sum   'Th5 Ga12 Pd19'
_cell_volume   645.81118975
_cell_formula_units_Z   1
loop_
 _symmetry_equiv_pos_site_id
 _symmetry_equiv_pos_as_xyz
  1  'x, y, z'
loop_
 _atom_site_type_symbol
 _atom_site_label
 _atom_site_symmetry_multiplicity
 _atom_site_fract_x
 _atom_site_fract_y
 _atom_site_fract_z
 _atom_site_occupancy
  Th  Th0  1  0.500000  0.500000  0.500000  1
  Th  Th1  1  0.580816  0.580816  0.818950  1
  Th  Th2  1  0.419184  0.419184  0.181050  1
  Th  Th3  1  0.174024  0.174024  0.233621  1
  Th  Th4  1  0.825976  0.825976  0.766379  1
  Ga  Ga5  1  0.926017  0.926017  0.939776  1
  Ga  Ga6  1  0.073983  0.073983  0.060224  1
  Ga  Ga7  1  0.693683  0.693683  0.976459  1
  Ga  Ga8  1  0.306317  0.306317  0.023541  1
  Ga  Ga9  1  0.400954  0.400954  0.607969  1
  Ga  Ga10  1  0.738617  0.738617  0.335873  1
  Ga  Ga11  1  0.154368  0.154368  0.665241  1
  Ga  Ga12  1  0.845632  0.845632  0.334759  1
  Ga  Ga13  1  0.017969  0.017969  0.730875  1
  Ga  Ga14  1  0.982031  0.982031  0.269125  1
  Ga  Ga15  1  0.599046  0.599046  0.392031  1
  Ga  Ga16  1  0.261383  0.261383  0.664127  1
  Pd  Pd17  1  0.778955  0.778955  0.517661  1
  Pd  Pd18  1  0.757106  0.757106  0.090898  1
  Pd  Pd19  1  0.242894  0.242894  0.909102  1
  Pd  Pd20  1  0.221045  0.221045  0.482339  1
  Pd  Pd21  1  0.340983  0.340983  0.495895  1
  Pd  Pd22  1  0.616728  0.616728  0.123365  1
  Pd  Pd23  1  0.383272  0.383272  0.876635  1
  Pd  Pd24  1  0.524871  0.524871  0.166703  1
  Pd  Pd25  1  0.475129  0.475129  0.833297  1
  Pd  Pd26  1  0.299670  0.299670  0.273103  1
  Pd  Pd27  1  0.700330  0.700330  0.726897  1
  Pd  Pd28  1  0.000000  0.000000  0.000000  1
  Pd  Pd29  1  0.849307  0.849307  0.083753  1
  Pd  Pd30  1  0.088971  0.088971  0.556060  1
  Pd  Pd31  1  0.911029  0.911029  0.443940  1
  Pd  Pd32  1  0.061495  0.061495  0.314079  1
  Pd  Pd33  1  0.938505  0.938505  0.685921  1
  Pd  Pd34  1  0.659017  0.659017  0.504105  1
  Pd  Pd35  1  0.150693  0.150693  0.916247  1
