# generated using pymatgen
data_Pr7NdSnPd24
_symmetry_space_group_name_H-M   'P 1'
_cell_length_a   8.58074700
_cell_length_b   8.58074700
_cell_length_c   8.58074700
_cell_angle_alpha   89.99938569
_cell_angle_beta   90.00061431
_cell_angle_gamma   90.00061431
_symmetry_Int_Tables_number   1
_chemical_formula_structural   Pr7NdSnPd24
_chemical_formula_sum   'Pr7 Nd1 Sn1 Pd24'
_cell_volume   631.79370066
_cell_formula_units_Z   1
loop_
 _symmetry_equiv_pos_site_id
 _symmetry_equiv_pos_as_xyz
  1  'x, y, z'
loop_
 _atom_site_type_symbol
 _atom_site_label
 _atom_site_symmetry_multiplicity
 _atom_site_fract_x
 _atom_site_fract_y
 _atom_site_fract_z
 _atom_site_occupancy
  Pr  Pr0  1  0.252043  0.252050  0.252050  1
  Pr  Pr1  1  0.747954  0.747943  0.747943  1
  Pr  Pr2  1  0.747950  0.747957  0.252050  1
  Pr  Pr3  1  0.747950  0.252050  0.747957  1
  Pr  Pr4  1  0.252057  0.252046  0.747943  1
  Pr  Pr5  1  0.252057  0.747943  0.252046  1
  Pr  Pr6  1  0.252043  0.747957  0.747957  1
  Nd  Nd7  1  0.747931  0.252069  0.252069  1
  Sn  Sn8  1  0.999981  0.000019  0.000019  1
  Pd  Pd9  1  0.266666  0.500001  0.000006  1
  Pd  Pd10  1  0.733330  0.499916  0.000083  1
  Pd  Pd11  1  0.999917  0.266670  0.499916  1
  Pd  Pd12  1  0.500084  0.266670  0.000083  1
  Pd  Pd13  1  0.999994  0.733334  0.500001  1
  Pd  Pd14  1  0.499999  0.733334  0.000006  1
  Pd  Pd15  1  0.500084  0.000083  0.266670  1
  Pd  Pd16  1  0.266666  0.000006  0.500001  1
  Pd  Pd17  1  0.499999  0.000006  0.733334  1
  Pd  Pd18  1  0.733330  0.000083  0.499916  1
  Pd  Pd19  1  0.999917  0.499916  0.266670  1
  Pd  Pd20  1  0.999994  0.500001  0.733334  1
  Pd  Pd21  1  0.255183  0.499998  0.499998  1
  Pd  Pd22  1  0.744813  0.499905  0.499905  1
  Pd  Pd23  1  0.500095  0.255187  0.499905  1
  Pd  Pd24  1  0.500002  0.744817  0.499998  1
  Pd  Pd25  1  0.500095  0.499905  0.255187  1
  Pd  Pd26  1  0.500002  0.499998  0.744817  1
  Pd  Pd27  1  0.312027  0.999996  0.999996  1
  Pd  Pd28  1  0.687984  0.000077  0.000077  1
  Pd  Pd29  1  0.999923  0.312016  0.000077  1
  Pd  Pd30  1  0.000004  0.687973  0.999996  1
  Pd  Pd31  1  0.999923  0.000077  0.312016  1
  Pd  Pd32  1  0.000004  0.999996  0.687973  1
