# generated using pymatgen
data_NdTm2Be2(PPd5)4
_symmetry_space_group_name_H-M   'P 1'
_cell_length_a   8.67614950
_cell_length_b   8.59368244
_cell_length_c   8.59368410
_cell_angle_alpha   60.63590443
_cell_angle_beta   59.68205432
_cell_angle_gamma   59.68204492
_symmetry_Int_Tables_number   1
_chemical_formula_structural   NdTm2Be2(PPd5)4
_chemical_formula_sum   'Nd1 Tm2 Be2 P4 Pd20'
_cell_volume   452.99139976
_cell_formula_units_Z   1
loop_
 _symmetry_equiv_pos_site_id
 _symmetry_equiv_pos_as_xyz
  1  'x, y, z'
loop_
 _atom_site_type_symbol
 _atom_site_label
 _atom_site_symmetry_multiplicity
 _atom_site_fract_x
 _atom_site_fract_y
 _atom_site_fract_z
 _atom_site_occupancy
  Nd  Nd0  1  0.750000  0.750000  0.750000  1
  Tm  Tm1  1  0.250000  0.250000  0.250000  1
  Tm  Tm2  1  0.000000  0.000000  0.000000  1
  Be  Be3  1  0.733102  0.266898  0.266898  1
  Be  Be4  1  0.266898  0.733102  0.733102  1
  P  P5  1  0.266059  0.733941  0.266059  1
  P  P6  1  0.733941  0.266059  0.733941  1
  P  P7  1  0.266059  0.266059  0.733941  1
  P  P8  1  0.733941  0.733941  0.266059  1
  Pd  Pd9  1  0.384598  0.380480  0.380480  1
  Pd  Pd10  1  0.608499  0.614898  0.614898  1
  Pd  Pd11  1  0.380480  0.384598  0.854444  1
  Pd  Pd12  1  0.380480  0.854444  0.384598  1
  Pd  Pd13  1  0.614898  0.608499  0.161703  1
  Pd  Pd14  1  0.614898  0.161703  0.608499  1
  Pd  Pd15  1  0.854444  0.380480  0.380480  1
  Pd  Pd16  1  0.161703  0.614898  0.614898  1
  Pd  Pd17  1  0.342250  0.001565  0.001565  1
  Pd  Pd18  1  0.654619  0.001565  0.001565  1
  Pd  Pd19  1  0.001565  0.342250  0.654619  1
  Pd  Pd20  1  0.001565  0.654619  0.342250  1
  Pd  Pd21  1  0.997381  0.342364  0.003664  1
  Pd  Pd22  1  0.656592  0.003664  0.342364  1
  Pd  Pd23  1  0.003664  0.656592  0.997381  1
  Pd  Pd24  1  0.342364  0.997381  0.656592  1
  Pd  Pd25  1  0.997381  0.003664  0.342364  1
  Pd  Pd26  1  0.003664  0.997381  0.656592  1
  Pd  Pd27  1  0.656592  0.342364  0.003664  1
  Pd  Pd28  1  0.342364  0.656592  0.997381  1
