# generated using pymatgen
data_Lu2TaOs3
_symmetry_space_group_name_H-M   'P 1'
_cell_length_a   5.49781700
_cell_length_b   5.49781745
_cell_length_c   8.48450600
_cell_angle_alpha   90.00000000
_cell_angle_beta   90.00000000
_cell_angle_gamma   119.99999125
_symmetry_Int_Tables_number   1
_chemical_formula_structural   Lu2TaOs3
_chemical_formula_sum   'Lu4 Ta2 Os6'
_cell_volume   222.09451173
_cell_formula_units_Z   2
loop_
 _symmetry_equiv_pos_site_id
 _symmetry_equiv_pos_as_xyz
  1  'x, y, z'
loop_
 _atom_site_type_symbol
 _atom_site_label
 _atom_site_symmetry_multiplicity
 _atom_site_fract_x
 _atom_site_fract_y
 _atom_site_fract_z
 _atom_site_occupancy
  Lu  Lu0  1  0.333333  0.666667  0.435098  1
  Lu  Lu1  1  0.666667  0.333333  0.564902  1
  Lu  Lu2  1  0.666667  0.333333  0.935098  1
  Lu  Lu3  1  0.333333  0.666667  0.064902  1
  Ta  Ta4  1  0.000000  0.000000  0.000000  1
  Ta  Ta5  1  0.000000  0.000000  0.500000  1
  Os  Os6  1  0.174138  0.348277  0.750000  1
  Os  Os7  1  0.174138  0.825862  0.750000  1
  Os  Os8  1  0.348277  0.174138  0.250000  1
  Os  Os9  1  0.825862  0.651723  0.250000  1
  Os  Os10  1  0.651723  0.825862  0.750000  1
  Os  Os11  1  0.825862  0.174138  0.250000  1
