# generated using pymatgen
data_HoEr7ReTc3C8
_symmetry_space_group_name_H-M   'P 1'
_cell_length_a   5.05209100
_cell_length_b   6.53365108
_cell_length_c   9.80098533
_cell_angle_alpha   90.00604423
_cell_angle_beta   90.00000000
_cell_angle_gamma   90.00000000
_symmetry_Int_Tables_number   1
_chemical_formula_structural   HoEr7ReTc3C8
_chemical_formula_sum   'Ho1 Er7 Re1 Tc3 C8'
_cell_volume   323.51680057
_cell_formula_units_Z   1
loop_
 _symmetry_equiv_pos_site_id
 _symmetry_equiv_pos_as_xyz
  1  'x, y, z'
loop_
 _atom_site_type_symbol
 _atom_site_label
 _atom_site_symmetry_multiplicity
 _atom_site_fract_x
 _atom_site_fract_y
 _atom_site_fract_z
 _atom_site_occupancy
  Ho  Ho0  1  0.250000  0.966135  0.283218  1
  Er  Er1  1  0.750000  0.533269  0.783328  1
  Er  Er2  1  0.750000  0.676196  0.442370  1
  Er  Er3  1  0.250000  0.822863  0.941899  1
  Er  Er4  1  0.750000  0.177954  0.058374  1
  Er  Er5  1  0.250000  0.323374  0.558416  1
  Er  Er6  1  0.250000  0.465704  0.217068  1
  Er  Er7  1  0.750000  0.033531  0.716891  1
  Re  Re8  1  0.750000  0.717468  0.132076  1
  Tc  Tc9  1  0.250000  0.282625  0.867874  1
  Tc  Tc10  1  0.250000  0.782790  0.632272  1
  Tc  Tc11  1  0.750000  0.218072  0.368085  1
  C  C12  1  0.250000  0.675472  0.448931  1
  C  C13  1  0.250000  0.549985  0.758487  1
  C  C14  1  0.750000  0.451268  0.240629  1
  C  C15  1  0.750000  0.823871  0.947698  1
  C  C16  1  0.250000  0.049788  0.741704  1
  C  C17  1  0.250000  0.175571  0.051216  1
  C  C18  1  0.750000  0.324135  0.551418  1
  C  C19  1  0.750000  0.949930  0.258047  1
