# generated using pymatgen
data_Er4Sn6Ir3Rh4
_symmetry_space_group_name_H-M   'P 1'
_cell_length_a   7.57976995
_cell_length_b   7.57977088
_cell_length_c   7.57673600
_cell_angle_alpha   109.46311272
_cell_angle_beta   109.46311520
_cell_angle_gamma   109.47933371
_symmetry_Int_Tables_number   1
_chemical_formula_structural   Er4Sn6Ir3Rh4
_chemical_formula_sum   'Er4 Sn6 Ir3 Rh4'
_cell_volume   335.13189841
_cell_formula_units_Z   1
loop_
 _symmetry_equiv_pos_site_id
 _symmetry_equiv_pos_as_xyz
  1  'x, y, z'
loop_
 _atom_site_type_symbol
 _atom_site_label
 _atom_site_symmetry_multiplicity
 _atom_site_fract_x
 _atom_site_fract_y
 _atom_site_fract_z
 _atom_site_occupancy
  Er  Er0  1  0.000000  0.000000  0.500000  1
  Er  Er1  1  0.990719  0.495360  0.995360  1
  Er  Er2  1  0.504640  0.009281  0.004640  1
  Er  Er3  1  0.504640  0.495360  0.500000  1
  Sn  Sn4  1  0.683816  0.688486  0.999857  1
  Sn  Sn5  1  0.311514  0.995330  0.311371  1
  Sn  Sn6  1  0.004670  0.316184  0.316041  1
  Sn  Sn7  1  0.311514  0.316184  0.000143  1
  Sn  Sn8  1  0.683816  0.995330  0.683959  1
  Sn  Sn9  1  0.004670  0.688486  0.688629  1
  Ir  Ir10  1  0.750098  0.249902  0.500000  1
  Ir  Ir11  1  0.750098  0.500197  0.250098  1
  Ir  Ir12  1  0.499803  0.249902  0.749902  1
  Rh  Rh13  1  0.249807  0.499615  0.749807  1
  Rh  Rh14  1  0.249807  0.750193  0.500000  1
  Rh  Rh15  1  0.500385  0.750193  0.250193  1
  Rh  Rh16  1  0.000000  0.000000  0.000000  1
