# generated using pymatgen
data_K4NdNb5O15
_symmetry_space_group_name_H-M   'P 1'
_cell_length_a   9.06962469
_cell_length_b   9.06962559
_cell_length_c   7.02311847
_cell_angle_alpha   75.12174822
_cell_angle_beta   75.12174512
_cell_angle_gamma   36.95890019
_symmetry_Int_Tables_number   1
_chemical_formula_structural   K4NdNb5O15
_chemical_formula_sum   'K4 Nd1 Nb5 O15'
_cell_volume   334.37160013
_cell_formula_units_Z   1
loop_
 _symmetry_equiv_pos_site_id
 _symmetry_equiv_pos_as_xyz
  1  'x, y, z'
loop_
 _atom_site_type_symbol
 _atom_site_label
 _atom_site_symmetry_multiplicity
 _atom_site_fract_x
 _atom_site_fract_y
 _atom_site_fract_z
 _atom_site_occupancy
  K  K0  1  0.600198  0.600198  0.597754  1
  K  K1  1  0.200838  0.200838  0.200315  1
  K  K2  1  0.799162  0.799162  0.799685  1
  K  K3  1  0.399802  0.399802  0.402246  1
  Nd  Nd4  1  0.000000  0.000000  0.000000  1
  Nb  Nb5  1  0.201272  0.201272  0.696543  1
  Nb  Nb6  1  0.798728  0.798728  0.303457  1
  Nb  Nb7  1  0.398648  0.398648  0.900996  1
  Nb  Nb8  1  0.000000  0.000000  0.500000  1
  Nb  Nb9  1  0.601352  0.601352  0.099004  1
  O  O10  1  0.385355  0.901376  0.902966  1
  O  O11  1  0.000000  0.500000  0.500000  1
  O  O12  1  0.614645  0.098624  0.097034  1
  O  O13  1  0.194426  0.710333  0.710406  1
  O  O14  1  0.805574  0.289667  0.289594  1
  O  O15  1  0.299721  0.299721  0.802952  1
  O  O16  1  0.903530  0.903530  0.387923  1
  O  O17  1  0.500000  0.500000  0.000000  1
  O  O18  1  0.096470  0.096470  0.612077  1
  O  O19  1  0.700279  0.700279  0.197048  1
  O  O20  1  0.500000  0.000000  0.500000  1
  O  O21  1  0.098624  0.614645  0.097034  1
  O  O22  1  0.710333  0.194426  0.710406  1
  O  O23  1  0.289667  0.805574  0.289594  1
  O  O24  1  0.901376  0.385355  0.902966  1
