# generated using pymatgen
data_La4Lu6Ru3Rh
_symmetry_space_group_name_H-M   'P 1'
_cell_length_a   6.45657968
_cell_length_b   7.20610217
_cell_length_c   8.64605808
_cell_angle_alpha   96.67802348
_cell_angle_beta   111.76681118
_cell_angle_gamma   89.94613298
_symmetry_Int_Tables_number   1
_chemical_formula_structural   La4Lu6Ru3Rh
_chemical_formula_sum   'La4 Lu6 Ru3 Rh1'
_cell_volume   370.66849602
_cell_formula_units_Z   1
loop_
 _symmetry_equiv_pos_site_id
 _symmetry_equiv_pos_as_xyz
  1  'x, y, z'
loop_
 _atom_site_type_symbol
 _atom_site_label
 _atom_site_symmetry_multiplicity
 _atom_site_fract_x
 _atom_site_fract_y
 _atom_site_fract_z
 _atom_site_occupancy
  La  La0  1  0.520921  0.088277  0.801726  1
  La  La1  1  0.481400  0.916191  0.197807  1
  La  La2  1  0.721214  0.410436  0.197873  1
  La  La3  1  0.280269  0.588518  0.801020  1
  Lu  Lu4  1  0.300870  0.313377  0.430126  1
  Lu  Lu5  1  0.702094  0.686330  0.572419  1
  Lu  Lu6  1  0.870923  0.186442  0.570528  1
  Lu  Lu7  1  0.128295  0.814914  0.430165  1
  Lu  Lu8  1  0.074140  0.248294  0.998883  1
  Lu  Lu9  1  0.923625  0.750457  0.999067  1
  Ru  Ru10  1  0.677511  0.418879  0.773036  1
  Ru  Ru11  1  0.095650  0.918180  0.774377  1
  Ru  Ru12  1  0.905292  0.081095  0.226012  1
  Rh  Rh13  1  0.317796  0.578609  0.226959  1
