# generated using pymatgen
data_La4Nd5YSn8
_symmetry_space_group_name_H-M   'P 1'
_cell_length_a   8.29695300
_cell_length_b   8.45912800
_cell_length_c   16.01696500
_cell_angle_alpha   90.00000000
_cell_angle_beta   90.00000000
_cell_angle_gamma   90.00000000
_symmetry_Int_Tables_number   1
_chemical_formula_structural   La4Nd5YSn8
_chemical_formula_sum   'La8 Nd10 Y2 Sn16'
_cell_volume   1124.15048730
_cell_formula_units_Z   2
loop_
 _symmetry_equiv_pos_site_id
 _symmetry_equiv_pos_as_xyz
  1  'x, y, z'
loop_
 _atom_site_type_symbol
 _atom_site_label
 _atom_site_symmetry_multiplicity
 _atom_site_fract_x
 _atom_site_fract_y
 _atom_site_fract_z
 _atom_site_occupancy
  La  La0  1  0.514048  0.319226  0.903153  1
  La  La1  1  0.014048  0.180774  0.596847  1
  La  La2  1  0.485548  0.681085  0.402191  1
  La  La3  1  0.985548  0.818915  0.097809  1
  La  La4  1  0.485548  0.681085  0.097809  1
  La  La5  1  0.985548  0.818915  0.402191  1
  La  La6  1  0.514048  0.319226  0.596847  1
  La  La7  1  0.014048  0.180774  0.903153  1
  Nd  Nd8  1  0.362440  0.835905  0.879552  1
  Nd  Nd9  1  0.862440  0.664095  0.620448  1
  Nd  Nd10  1  0.638101  0.163138  0.378065  1
  Nd  Nd11  1  0.138101  0.336862  0.121935  1
  Nd  Nd12  1  0.638101  0.163138  0.121935  1
  Nd  Nd13  1  0.138101  0.336862  0.378065  1
  Nd  Nd14  1  0.362440  0.835905  0.620448  1
  Nd  Nd15  1  0.862440  0.664095  0.879552  1
  Nd  Nd16  1  0.193837  0.502213  0.750000  1
  Nd  Nd17  1  0.693837  0.997787  0.750000  1
  Y  Y18  1  0.804751  0.498419  0.250000  1
  Y  Y19  1  0.304751  0.001581  0.250000  1
  Sn  Sn20  1  0.298326  0.036661  0.044195  1
  Sn  Sn21  1  0.798326  0.463339  0.455805  1
  Sn  Sn22  1  0.701342  0.961930  0.541524  1
  Sn  Sn23  1  0.201342  0.538070  0.958476  1
  Sn  Sn24  1  0.701342  0.961930  0.958476  1
  Sn  Sn25  1  0.201342  0.538070  0.541524  1
  Sn  Sn26  1  0.298326  0.036661  0.455805  1
  Sn  Sn27  1  0.798326  0.463339  0.044195  1
  Sn  Sn28  1  0.563017  0.616733  0.750000  1
  Sn  Sn29  1  0.063017  0.883267  0.750000  1
  Sn  Sn30  1  0.439918  0.381856  0.250000  1
  Sn  Sn31  1  0.939918  0.118144  0.250000  1
  Sn  Sn32  1  0.318981  0.141441  0.750000  1
  Sn  Sn33  1  0.818981  0.358559  0.750000  1
  Sn  Sn34  1  0.679886  0.855808  0.250000  1
  Sn  Sn35  1  0.179886  0.644192  0.250000  1
