# generated using pymatgen
data_Tm12Mn(InTc)2
_symmetry_space_group_name_H-M   'P 1'
_cell_length_a   8.31420236
_cell_length_b   8.31420304
_cell_length_c   8.31420300
_cell_angle_alpha   108.75740883
_cell_angle_beta   108.75741043
_cell_angle_gamma   110.90846401
_symmetry_Int_Tables_number   1
_chemical_formula_structural   Tm12Mn(InTc)2
_chemical_formula_sum   'Tm12 Mn1 In2 Tc2'
_cell_volume   442.21595961
_cell_formula_units_Z   1
loop_
 _symmetry_equiv_pos_site_id
 _symmetry_equiv_pos_as_xyz
  1  'x, y, z'
loop_
 _atom_site_type_symbol
 _atom_site_label
 _atom_site_symmetry_multiplicity
 _atom_site_fract_x
 _atom_site_fract_y
 _atom_site_fract_z
 _atom_site_occupancy
  Tm  Tm0  1  0.304521  0.304513  0.610496  1
  Tm  Tm1  1  0.694011  0.694026  0.389489  1
  Tm  Tm2  1  0.694018  0.304513  0.999993  1
  Tm  Tm3  1  0.304537  0.694026  0.000015  1
  Tm  Tm4  1  0.190015  0.430886  0.240872  1
  Tm  Tm5  1  0.808299  0.568991  0.760692  1
  Tm  Tm6  1  0.189986  0.949144  0.759159  1
  Tm  Tm7  1  0.949123  0.189993  0.759131  1
  Tm  Tm8  1  0.808323  0.047657  0.239334  1
  Tm  Tm9  1  0.047608  0.808289  0.239318  1
  Tm  Tm10  1  0.430861  0.189993  0.240869  1
  Tm  Tm11  1  0.568972  0.808289  0.760682  1
  Mn  Mn12  1  0.630078  0.630120  0.000042  1
  In  In13  1  0.998155  0.498083  0.499928  1
  In  In14  1  0.498105  0.998105  0.500000  1
  Tc  Tc15  1  0.383290  0.383263  0.999973  1
  Tc  Tc16  1  0.000101  0.000109  0.000008  1
