# generated using pymatgen
data_Dy2ErTmIn4
_symmetry_space_group_name_H-M   'P 1'
_cell_length_a   6.50028535
_cell_length_b   6.50028433
_cell_length_c   10.13587000
_cell_angle_alpha   90.00000000
_cell_angle_beta   90.00000000
_cell_angle_gamma   101.38723374
_symmetry_Int_Tables_number   1
_chemical_formula_structural   Dy2ErTmIn4
_chemical_formula_sum   'Dy4 Er2 Tm2 In8'
_cell_volume   419.84746909
_cell_formula_units_Z   2
loop_
 _symmetry_equiv_pos_site_id
 _symmetry_equiv_pos_as_xyz
  1  'x, y, z'
loop_
 _atom_site_type_symbol
 _atom_site_label
 _atom_site_symmetry_multiplicity
 _atom_site_fract_x
 _atom_site_fract_y
 _atom_site_fract_z
 _atom_site_occupancy
  Dy  Dy0  1  0.247959  0.752041  0.500000  1
  Dy  Dy1  1  0.247959  0.752041  0.000000  1
  Dy  Dy2  1  0.752041  0.247959  0.500000  1
  Dy  Dy3  1  0.752041  0.247959  0.000000  1
  Er  Er4  1  0.521776  0.521776  0.250000  1
  Er  Er5  1  0.478224  0.478224  0.750000  1
  Tm  Tm6  1  0.986674  0.986674  0.250000  1
  Tm  Tm7  1  0.013326  0.013326  0.750000  1
  In  In8  1  0.251981  0.251981  0.012199  1
  In  In9  1  0.748019  0.748019  0.987801  1
  In  In10  1  0.251981  0.251981  0.487801  1
  In  In11  1  0.748019  0.748019  0.512199  1
  In  In12  1  0.491379  0.014655  0.250000  1
  In  In13  1  0.985345  0.508621  0.750000  1
  In  In14  1  0.508621  0.985345  0.750000  1
  In  In15  1  0.014655  0.491379  0.250000  1
