# generated using pymatgen
data_KEuSe4
_symmetry_space_group_name_H-M   'P 1'
_cell_length_a   6.24407900
_cell_length_b   6.24407900
_cell_length_c   8.65034800
_cell_angle_alpha   90.00000000
_cell_angle_beta   90.00000000
_cell_angle_gamma   90.00000000
_symmetry_Int_Tables_number   1
_chemical_formula_structural   KEuSe4
_chemical_formula_sum   'K2 Eu2 Se8'
_cell_volume   337.26428813
_cell_formula_units_Z   2
loop_
 _symmetry_equiv_pos_site_id
 _symmetry_equiv_pos_as_xyz
  1  'x, y, z'
loop_
 _atom_site_type_symbol
 _atom_site_label
 _atom_site_symmetry_multiplicity
 _atom_site_fract_x
 _atom_site_fract_y
 _atom_site_fract_z
 _atom_site_occupancy
  K  K0  1  0.500000  0.500000  0.500000  1
  K  K1  1  0.000000  0.000000  0.500000  1
  Eu  Eu2  1  0.500000  0.500000  0.000000  1
  Eu  Eu3  1  0.000000  0.000000  0.000000  1
  Se  Se4  1  0.636574  0.863426  0.218943  1
  Se  Se5  1  0.136574  0.636574  0.218943  1
  Se  Se6  1  0.863426  0.363426  0.218943  1
  Se  Se7  1  0.636574  0.136574  0.781057  1
  Se  Se8  1  0.363426  0.863426  0.781057  1
  Se  Se9  1  0.363426  0.136574  0.218943  1
  Se  Se10  1  0.863426  0.636574  0.781057  1
  Se  Se11  1  0.136574  0.363426  0.781057  1
