# generated using pymatgen
data_Pu3Pa(CoB10)2
_symmetry_space_group_name_H-M   'P 1'
_cell_length_a   4.15183200
_cell_length_b   5.57129519
_cell_length_c   11.13996500
_cell_angle_alpha   90.10404434
_cell_angle_beta   90.00000000
_cell_angle_gamma   90.00000000
_symmetry_Int_Tables_number   1
_chemical_formula_structural   Pu3Pa(CoB10)2
_chemical_formula_sum   'Pu3 Pa1 Co2 B20'
_cell_volume   257.67901496
_cell_formula_units_Z   1
loop_
 _symmetry_equiv_pos_site_id
 _symmetry_equiv_pos_as_xyz
  1  'x, y, z'
loop_
 _atom_site_type_symbol
 _atom_site_label
 _atom_site_symmetry_multiplicity
 _atom_site_fract_x
 _atom_site_fract_y
 _atom_site_fract_z
 _atom_site_occupancy
  Pu  Pu0  1  0.500000  0.809617  0.635980  1
  Pu  Pu1  1  0.500000  0.308473  0.863009  1
  Pu  Pu2  1  0.500000  0.693349  0.137736  1
  Pa  Pa3  1  0.500000  0.196269  0.365987  1
  Co  Co4  1  0.000000  0.999431  0.000582  1
  Co  Co5  1  0.000000  0.494571  0.497804  1
  B  B6  1  0.000000  0.371598  0.039192  1
  B  B7  1  0.000000  0.627185  0.960550  1
  B  B8  1  0.000000  0.125338  0.539207  1
  B  B9  1  0.000000  0.870944  0.461225  1
  B  B10  1  0.000000  0.343662  0.197640  1
  B  B11  1  0.000000  0.656357  0.802315  1
  B  B12  1  0.000000  0.156242  0.697580  1
  B  B13  1  0.000000  0.846437  0.303076  1
  B  B14  1  0.000000  0.031094  0.187194  1
  B  B15  1  0.000000  0.970565  0.813960  1
  B  B16  1  0.000000  0.470968  0.685239  1
  B  B17  1  0.000000  0.531050  0.312520  1
  B  B18  1  0.301270  0.199435  0.112843  1
  B  B19  1  0.699301  0.800440  0.887745  1
  B  B20  1  0.300699  0.800440  0.887745  1
  B  B21  1  0.698786  0.298789  0.612131  1
  B  B22  1  0.698730  0.199435  0.112843  1
  B  B23  1  0.301351  0.699763  0.386886  1
  B  B24  1  0.698649  0.699763  0.386886  1
  B  B25  1  0.301214  0.298789  0.612131  1
