# generated using pymatgen
data_Rb4Hf3Zr3CoBr18
_symmetry_space_group_name_H-M   'P 1'
_cell_length_a   10.66632511
_cell_length_b   10.91791821
_cell_length_c   11.01804218
_cell_angle_alpha   118.37811609
_cell_angle_beta   100.24546931
_cell_angle_gamma   104.05622762
_symmetry_Int_Tables_number   1
_chemical_formula_structural   Rb4Hf3Zr3CoBr18
_chemical_formula_sum   'Rb4 Hf3 Zr3 Co1 Br18'
_cell_volume   1028.41007255
_cell_formula_units_Z   1
loop_
 _symmetry_equiv_pos_site_id
 _symmetry_equiv_pos_as_xyz
  1  'x, y, z'
loop_
 _atom_site_type_symbol
 _atom_site_label
 _atom_site_symmetry_multiplicity
 _atom_site_fract_x
 _atom_site_fract_y
 _atom_site_fract_z
 _atom_site_occupancy
  Rb  Rb0  1  0.656941  0.538561  0.228716  1
  Rb  Rb1  1  0.342835  0.462110  0.771929  1
  Rb  Rb2  1  0.692143  0.228552  0.566588  1
  Rb  Rb3  1  0.307824  0.772380  0.433998  1
  Hf  Hf4  1  0.153632  0.054818  0.231107  1
  Hf  Hf5  1  0.848344  0.940055  0.767194  1
  Hf  Hf6  1  0.859763  0.126211  0.133027  1
  Zr  Zr7  1  0.136703  0.870968  0.865325  1
  Zr  Zr8  1  0.148970  0.240971  0.044697  1
  Zr  Zr9  1  0.854547  0.758305  0.951263  1
  Co  Co10  1  0.000908  0.004490  0.003360  1
  Br  Br11  1  0.005509  0.402242  0.193614  1
  Br  Br12  1  0.992506  0.589748  0.805505  1
  Br  Br13  1  0.327087  0.327886  0.309370  1
  Br  Br14  1  0.669390  0.671517  0.689838  1
  Br  Br15  1  0.321550  0.518391  0.101331  1
  Br  Br16  1  0.678630  0.484593  0.900357  1
  Br  Br17  1  0.006490  0.801844  0.209556  1
  Br  Br18  1  0.991923  0.198878  0.791844  1
  Br  Br19  1  0.707598  0.268777  0.281709  1
  Br  Br20  1  0.293691  0.729710  0.716419  1
  Br  Br21  1  0.316818  0.128422  0.905739  1
  Br  Br22  1  0.686484  0.877335  0.096286  1
  Br  Br23  1  0.015492  0.199950  0.400301  1
  Br  Br24  1  0.981367  0.799832  0.593644  1
  Br  Br25  1  0.319510  0.926782  0.113496  1
  Br  Br26  1  0.683546  0.074729  0.891206  1
  Br  Br27  1  0.329790  0.120977  0.493930  1
  Br  Br28  1  0.670010  0.880966  0.508650  1
