# generated using pymatgen
data_U2Ga3Sn2Sb
_symmetry_space_group_name_H-M   'P 1'
_cell_length_a   4.44116200
_cell_length_b   4.46837300
_cell_length_c   8.89787300
_cell_angle_alpha   90.00000000
_cell_angle_beta   90.00000000
_cell_angle_gamma   90.00000000
_symmetry_Int_Tables_number   1
_chemical_formula_structural   U2Ga3Sn2Sb
_chemical_formula_sum   'U2 Ga3 Sn2 Sb1'
_cell_volume   176.57622867
_cell_formula_units_Z   1
loop_
 _symmetry_equiv_pos_site_id
 _symmetry_equiv_pos_as_xyz
  1  'x, y, z'
loop_
 _atom_site_type_symbol
 _atom_site_label
 _atom_site_symmetry_multiplicity
 _atom_site_fract_x
 _atom_site_fract_y
 _atom_site_fract_z
 _atom_site_occupancy
  U  U0  1  0.000000  0.000000  0.758561  1
  U  U1  1  0.000000  0.000000  0.241439  1
  Ga  Ga2  1  0.500000  0.500000  0.758465  1
  Ga  Ga3  1  0.500000  0.500000  0.241535  1
  Ga  Ga4  1  0.500000  0.000000  0.000000  1
  Sn  Sn5  1  0.500000  0.000000  0.500000  1
  Sn  Sn6  1  0.000000  0.500000  0.500000  1
  Sb  Sb7  1  0.000000  0.500000  0.000000  1
