# generated using pymatgen
data_Pa4MnSi2Ni5
_symmetry_space_group_name_H-M   'P 1'
_cell_length_a   5.09604200
_cell_length_b   5.24439368
_cell_length_c   7.68609000
_cell_angle_alpha   90.00000000
_cell_angle_beta   90.00000000
_cell_angle_gamma   119.06856876
_symmetry_Int_Tables_number   1
_chemical_formula_structural   Pa4MnSi2Ni5
_chemical_formula_sum   'Pa4 Mn1 Si2 Ni5'
_cell_volume   179.54135704
_cell_formula_units_Z   1
loop_
 _symmetry_equiv_pos_site_id
 _symmetry_equiv_pos_as_xyz
  1  'x, y, z'
loop_
 _atom_site_type_symbol
 _atom_site_label
 _atom_site_symmetry_multiplicity
 _atom_site_fract_x
 _atom_site_fract_y
 _atom_site_fract_z
 _atom_site_occupancy
  Pa  Pa0  1  0.671685  0.343367  0.431458  1
  Pa  Pa1  1  0.326287  0.652575  0.561867  1
  Pa  Pa2  1  0.326287  0.652575  0.938133  1
  Pa  Pa3  1  0.671685  0.343367  0.068542  1
  Mn  Mn4  1  0.167961  0.335923  0.250000  1
  Si  Si5  1  0.001865  0.003732  0.000749  1
  Si  Si6  1  0.001865  0.003732  0.499251  1
  Ni  Ni7  1  0.827023  0.157545  0.750000  1
  Ni  Ni8  1  0.170644  0.840594  0.250000  1
  Ni  Ni9  1  0.330523  0.157545  0.750000  1
  Ni  Ni10  1  0.669949  0.840594  0.250000  1
  Ni  Ni11  1  0.834225  0.668451  0.750000  1
