# generated using pymatgen
data_Nb9SiB4MoP
_symmetry_space_group_name_H-M   'P 1'
_cell_length_a   7.29729421
_cell_length_b   7.29729321
_cell_length_c   7.29729372
_cell_angle_alpha   129.57387165
_cell_angle_beta   129.57387804
_cell_angle_gamma   74.08891571
_symmetry_Int_Tables_number   1
_chemical_formula_structural   Nb9SiB4MoP
_chemical_formula_sum   'Nb9 Si1 B4 Mo1 P1'
_cell_volume   225.12810598
_cell_formula_units_Z   1
loop_
 _symmetry_equiv_pos_site_id
 _symmetry_equiv_pos_as_xyz
  1  'x, y, z'
loop_
 _atom_site_type_symbol
 _atom_site_label
 _atom_site_symmetry_multiplicity
 _atom_site_fract_x
 _atom_site_fract_y
 _atom_site_fract_z
 _atom_site_occupancy
  Nb  Nb0  1  0.807587  0.970771  0.500327  1
  Nb  Nb1  1  0.307261  0.807587  0.836816  1
  Nb  Nb2  1  0.189383  0.026456  0.493820  1
  Nb  Nb3  1  0.532636  0.695565  0.506180  1
  Nb  Nb4  1  0.026456  0.532636  0.837072  1
  Nb  Nb5  1  0.695565  0.189383  0.162928  1
  Nb  Nb6  1  0.970771  0.470444  0.163184  1
  Nb  Nb7  1  0.499352  0.499352  0.000000  1
  Nb  Nb8  1  0.470444  0.307261  0.499673  1
  Si  Si9  1  0.251506  0.251506  0.000000  1
  B  B10  1  0.384125  0.885953  0.269980  1
  B  B11  1  0.885953  0.615974  0.501826  1
  B  B12  1  0.615974  0.114147  0.730020  1
  B  B13  1  0.114147  0.384125  0.498174  1
  Mo  Mo14  1  0.001842  0.001842  0.000000  1
  P  P15  1  0.746997  0.746997  0.000000  1
