# generated using pymatgen
data_Sm4Ga18(PdRu)3
_symmetry_space_group_name_H-M   'P 1'
_cell_length_a   7.66020254
_cell_length_b   7.66020391
_cell_length_c   9.63808759
_cell_angle_alpha   89.92474384
_cell_angle_beta   89.92474471
_cell_angle_gamma   119.83816562
_symmetry_Int_Tables_number   1
_chemical_formula_structural   Sm4Ga18(PdRu)3
_chemical_formula_sum   'Sm4 Ga18 Pd3 Ru3'
_cell_volume   490.57624081
_cell_formula_units_Z   1
loop_
 _symmetry_equiv_pos_site_id
 _symmetry_equiv_pos_as_xyz
  1  'x, y, z'
loop_
 _atom_site_type_symbol
 _atom_site_label
 _atom_site_symmetry_multiplicity
 _atom_site_fract_x
 _atom_site_fract_y
 _atom_site_fract_z
 _atom_site_occupancy
  Sm  Sm0  1  0.995822  0.669259  0.250984  1
  Sm  Sm1  1  0.002145  0.329098  0.748572  1
  Sm  Sm2  1  0.670902  0.997855  0.251428  1
  Sm  Sm3  1  0.330741  0.004178  0.749016  1
  Ga  Ga4  1  0.132488  0.129998  0.250244  1
  Ga  Ga5  1  0.870002  0.867512  0.749756  1
  Ga  Ga6  1  0.007553  0.339265  0.080238  1
  Ga  Ga7  1  0.002411  0.664892  0.920011  1
  Ga  Ga8  1  0.999216  0.660734  0.577262  1
  Ga  Ga9  1  0.339266  0.000785  0.422738  1
  Ga  Ga10  1  0.002222  0.339757  0.421555  1
  Ga  Ga11  1  0.660243  0.997778  0.578445  1
  Ga  Ga12  1  0.660735  0.992447  0.919762  1
  Ga  Ga13  1  0.335108  0.997590  0.079989  1
  Ga  Ga14  1  0.341092  0.340777  0.561457  1
  Ga  Ga15  1  0.659223  0.658908  0.438543  1
  Ga  Ga16  1  0.658904  0.664829  0.065341  1
  Ga  Ga17  1  0.335171  0.341096  0.934659  1
  Ga  Ga18  1  0.336969  0.550214  0.250920  1
  Ga  Ga19  1  0.665047  0.455379  0.745896  1
  Ga  Ga20  1  0.544621  0.334953  0.254104  1
  Ga  Ga21  1  0.449786  0.663031  0.749080  1
  Pd  Pd22  1  0.671467  0.328533  0.000000  1
  Pd  Pd23  1  0.000627  0.999373  0.000000  1
  Pd  Pd24  1  0.999649  0.000351  0.500000  1
  Ru  Ru25  1  0.328102  0.671898  0.000000  1
  Ru  Ru26  1  0.327852  0.672148  0.500000  1
  Ru  Ru27  1  0.672639  0.327361  0.500000  1
