# generated using pymatgen
data_PrLuFe6(CoB4)2
_symmetry_space_group_name_H-M   'P 1'
_cell_length_a   6.98394435
_cell_length_b   6.99113232
_cell_length_c   3.80933300
_cell_angle_alpha   90.00000000
_cell_angle_beta   90.00000000
_cell_angle_gamma   89.74473456
_symmetry_Int_Tables_number   1
_chemical_formula_structural   PrLuFe6(CoB4)2
_chemical_formula_sum   'Pr1 Lu1 Fe6 Co2 B8'
_cell_volume   185.99142473
_cell_formula_units_Z   1
loop_
 _symmetry_equiv_pos_site_id
 _symmetry_equiv_pos_as_xyz
  1  'x, y, z'
loop_
 _atom_site_type_symbol
 _atom_site_label
 _atom_site_symmetry_multiplicity
 _atom_site_fract_x
 _atom_site_fract_y
 _atom_site_fract_z
 _atom_site_occupancy
  Pr  Pr0  1  0.500000  0.500000  0.500578  1
  Lu  Lu1  1  0.000000  0.000000  0.000189  1
  Fe  Fe2  1  0.887115  0.365222  0.392409  1
  Fe  Fe3  1  0.112885  0.634778  0.392409  1
  Fe  Fe4  1  0.364533  0.112626  0.607181  1
  Fe  Fe5  1  0.635467  0.887374  0.607181  1
  Fe  Fe6  1  0.616283  0.129324  0.107119  1
  Fe  Fe7  1  0.383717  0.870676  0.107119  1
  Co  Co8  1  0.132723  0.383588  0.891535  1
  Co  Co9  1  0.867277  0.616412  0.891535  1
  B  B10  1  0.668544  0.808971  0.105116  1
  B  B11  1  0.331456  0.191029  0.105116  1
  B  B12  1  0.291930  0.837249  0.606859  1
  B  B13  1  0.708070  0.162751  0.606859  1
  B  B14  1  0.839548  0.709070  0.393524  1
  B  B15  1  0.160452  0.290930  0.393524  1
  B  B16  1  0.195617  0.671207  0.895873  1
  B  B17  1  0.804383  0.328793  0.895873  1
