# generated using pymatgen
data_MgZnFe(MoO4)3
_symmetry_space_group_name_H-M   'P 1'
_cell_length_a   7.11265405
_cell_length_b   8.52293780
_cell_length_c   9.91439701
_cell_angle_alpha   96.48176087
_cell_angle_beta   106.73826703
_cell_angle_gamma   102.09135815
_symmetry_Int_Tables_number   1
_chemical_formula_structural   MgZnFe(MoO4)3
_chemical_formula_sum   'Mg2 Zn2 Fe2 Mo6 O24'
_cell_volume   553.07152206
_cell_formula_units_Z   2
loop_
 _symmetry_equiv_pos_site_id
 _symmetry_equiv_pos_as_xyz
  1  'x, y, z'
loop_
 _atom_site_type_symbol
 _atom_site_label
 _atom_site_symmetry_multiplicity
 _atom_site_fract_x
 _atom_site_fract_y
 _atom_site_fract_z
 _atom_site_occupancy
  Mg  Mg0  1  0.534714  0.694909  0.490185  1
  Mg  Mg1  1  0.465286  0.305091  0.509815  1
  Zn  Zn2  1  0.966947  0.885449  0.710918  1
  Zn  Zn3  1  0.033053  0.114551  0.289082  1
  Fe  Fe4  1  0.252729  0.696276  0.909766  1
  Fe  Fe5  1  0.747271  0.303724  0.090234  1
  Mo  Mo6  1  0.504982  0.990118  0.754685  1
  Mo  Mo7  1  0.495018  0.009882  0.245315  1
  Mo  Mo8  1  0.698314  0.602685  0.836040  1
  Mo  Mo9  1  0.301686  0.397315  0.163960  1
  Mo  Mo10  1  0.979350  0.706798  0.375708  1
  Mo  Mo11  1  0.020650  0.293202  0.624292  1
  O  O12  1  0.264087  0.868978  0.762354  1
  O  O13  1  0.735913  0.131022  0.237646  1
  O  O14  1  0.558170  0.707789  0.919408  1
  O  O15  1  0.441830  0.292211  0.080592  1
  O  O16  1  0.555517  0.523568  0.646646  1
  O  O17  1  0.444483  0.476432  0.353354  1
  O  O18  1  0.549312  0.865756  0.355702  1
  O  O19  1  0.450688  0.134244  0.644298  1
  O  O20  1  0.659790  0.098040  0.926606  1
  O  O21  1  0.340210  0.901960  0.073394  1
  O  O22  1  0.646123  0.864104  0.680228  1
  O  O23  1  0.353877  0.135896  0.319772  1
  O  O24  1  0.021759  0.122170  0.715120  1
  O  O25  1  0.978241  0.877830  0.284880  1
  O  O26  1  0.050963  0.265736  0.145386  1
  O  O27  1  0.949037  0.734264  0.854614  1
  O  O28  1  0.148248  0.477952  0.750448  1
  O  O29  1  0.851752  0.522048  0.249552  1
  O  O30  1  0.144040  0.268649  0.485463  1
  O  O31  1  0.855960  0.731351  0.514537  1
  O  O32  1  0.256798  0.560644  0.075773  1
  O  O33  1  0.743202  0.439356  0.924227  1
  O  O34  1  0.235569  0.705757  0.460468  1
  O  O35  1  0.764431  0.294243  0.539532  1
