# generated using pymatgen
data_TaB12Ru12W11
_symmetry_space_group_name_H-M   'P 1'
_cell_length_a   2.99142900
_cell_length_b   9.01408559
_cell_length_c   15.78391854
_cell_angle_alpha   89.91305933
_cell_angle_beta   90.00000000
_cell_angle_gamma   90.00000000
_symmetry_Int_Tables_number   1
_chemical_formula_structural   TaB12Ru12W11
_chemical_formula_sum   'Ta1 B12 Ru12 W11'
_cell_volume   425.61282704
_cell_formula_units_Z   1
loop_
 _symmetry_equiv_pos_site_id
 _symmetry_equiv_pos_as_xyz
  1  'x, y, z'
loop_
 _atom_site_type_symbol
 _atom_site_label
 _atom_site_symmetry_multiplicity
 _atom_site_fract_x
 _atom_site_fract_y
 _atom_site_fract_z
 _atom_site_occupancy
  Ta  Ta0  1  0.000000  0.794520  0.697519  1
  B  B1  1  0.500000  0.600971  0.494192  1
  B  B2  1  0.500000  0.395022  0.504413  1
  B  B3  1  0.500000  0.104077  0.005195  1
  B  B4  1  0.500000  0.897456  0.995371  1
  B  B5  1  0.000000  0.601157  0.831472  1
  B  B6  1  0.000000  0.400397  0.167658  1
  B  B7  1  0.000000  0.097520  0.667564  1
  B  B8  1  0.000000  0.900050  0.331932  1
  B  B9  1  0.500000  0.710845  0.592257  1
  B  B10  1  0.500000  0.284794  0.405089  1
  B  B11  1  0.500000  0.215062  0.904799  1
  B  B12  1  0.500000  0.787539  0.095428  1
  Ru  Ru13  1  0.500000  0.724630  0.346942  1
  Ru  Ru14  1  0.500000  0.273517  0.652051  1
  Ru  Ru15  1  0.500000  0.225345  0.152423  1
  Ru  Ru16  1  0.500000  0.775056  0.851380  1
  Ru  Ru17  1  0.500000  0.517666  0.087649  1
  Ru  Ru18  1  0.500000  0.483610  0.912290  1
  Ru  Ru19  1  0.500000  0.017138  0.412350  1
  Ru  Ru20  1  0.500000  0.979323  0.587381  1
  Ru  Ru21  1  0.500000  0.533750  0.738694  1
  Ru  Ru22  1  0.500000  0.467116  0.260004  1
  Ru  Ru23  1  0.500000  0.038622  0.762533  1
  Ru  Ru24  1  0.500000  0.967673  0.239591  1
  W  W25  1  0.000000  0.789522  0.490577  1
  W  W26  1  0.000000  0.207026  0.508592  1
  W  W27  1  0.000000  0.291997  0.008300  1
  W  W28  1  0.000000  0.708977  0.992570  1
  W  W29  1  0.000000  0.512637  0.591040  1
  W  W30  1  0.000000  0.483028  0.407007  1
  W  W31  1  0.000000  0.016770  0.907886  1
  W  W32  1  0.000000  0.985033  0.092706  1
  W  W33  1  0.000000  0.709804  0.194203  1
  W  W34  1  0.000000  0.293037  0.805451  1
  W  W35  1  0.000000  0.209311  0.305494  1
