# generated using pymatgen
data_Tb8Dy8MgCd2AgIr4
_symmetry_space_group_name_H-M   'P 1'
_cell_length_a   9.64129494
_cell_length_b   9.64131138
_cell_length_c   9.64436700
_cell_angle_alpha   59.86962865
_cell_angle_beta   59.86957193
_cell_angle_gamma   59.89377574
_symmetry_Int_Tables_number   1
_chemical_formula_structural   Tb8Dy8MgCd2AgIr4
_chemical_formula_sum   'Tb8 Dy8 Mg1 Cd2 Ag1 Ir4'
_cell_volume   632.15404126
_cell_formula_units_Z   1
loop_
 _symmetry_equiv_pos_site_id
 _symmetry_equiv_pos_as_xyz
  1  'x, y, z'
loop_
 _atom_site_type_symbol
 _atom_site_label
 _atom_site_symmetry_multiplicity
 _atom_site_fract_x
 _atom_site_fract_y
 _atom_site_fract_z
 _atom_site_occupancy
  Tb  Tb0  1  0.439650  0.439651  0.059775  1
  Tb  Tb1  1  0.061720  0.061719  0.436262  1
  Tb  Tb2  1  0.186153  0.811527  0.811484  1
  Tb  Tb3  1  0.810978  0.188892  0.185844  1
  Tb  Tb4  1  0.811524  0.186153  0.811484  1
  Tb  Tb5  1  0.188898  0.810977  0.185838  1
  Tb  Tb6  1  0.811680  0.811683  0.184638  1
  Tb  Tb7  1  0.187263  0.187259  0.811489  1
  Dy  Dy8  1  0.597617  0.597621  0.598223  1
  Dy  Dy9  1  0.600117  0.600119  0.201376  1
  Dy  Dy10  1  0.598606  0.204538  0.600115  1
  Dy  Dy11  1  0.204537  0.598609  0.600114  1
  Dy  Dy12  1  0.060931  0.438527  0.438585  1
  Dy  Dy13  1  0.438202  0.060149  0.059621  1
  Dy  Dy14  1  0.438525  0.060935  0.438583  1
  Dy  Dy15  1  0.060151  0.438201  0.059624  1
  Mg  Mg16  1  0.826916  0.826911  0.521596  1
  Cd  Cd17  1  0.831976  0.507685  0.831118  1
  Cd  Cd18  1  0.507684  0.831976  0.831118  1
  Ag  Ag19  1  0.833602  0.833600  0.831879  1
  Ir  Ir20  1  0.391751  0.391750  0.391562  1
  Ir  Ir21  1  0.392480  0.392477  0.825791  1
  Ir  Ir22  1  0.393505  0.825538  0.391944  1
  Ir  Ir23  1  0.825536  0.393506  0.391943  1
