# generated using pymatgen
data_Cs8TiFeO8
_symmetry_space_group_name_H-M   'P 1'
_cell_length_a   7.14643100
_cell_length_b   11.35178380
_cell_length_c   11.91118900
_cell_angle_alpha   79.82663389
_cell_angle_beta   90.00000000
_cell_angle_gamma   90.00000000
_symmetry_Int_Tables_number   1
_chemical_formula_structural   Cs8TiFeO8
_chemical_formula_sum   'Cs16 Ti2 Fe2 O16'
_cell_volume   951.09988716
_cell_formula_units_Z   2
loop_
 _symmetry_equiv_pos_site_id
 _symmetry_equiv_pos_as_xyz
  1  'x, y, z'
loop_
 _atom_site_type_symbol
 _atom_site_label
 _atom_site_symmetry_multiplicity
 _atom_site_fract_x
 _atom_site_fract_y
 _atom_site_fract_z
 _atom_site_occupancy
  Cs  Cs0  1  0.611292  0.835545  0.001263  1
  Cs  Cs1  1  0.111292  0.164455  0.498737  1
  Cs  Cs2  1  0.396056  0.154163  0.001230  1
  Cs  Cs3  1  0.896056  0.845837  0.498770  1
  Cs  Cs4  1  0.423544  0.938328  0.345264  1
  Cs  Cs5  1  0.923544  0.061672  0.154736  1
  Cs  Cs6  1  0.578411  0.054817  0.671637  1
  Cs  Cs7  1  0.078411  0.945183  0.828363  1
  Cs  Cs8  1  0.224921  0.392475  0.217832  1
  Cs  Cs9  1  0.724921  0.607525  0.282168  1
  Cs  Cs10  1  0.771878  0.616539  0.761856  1
  Cs  Cs11  1  0.271878  0.383461  0.738144  1
  Cs  Cs12  1  0.249534  0.588183  0.441921  1
  Cs  Cs13  1  0.749534  0.411817  0.058079  1
  Cs  Cs14  1  0.743765  0.390235  0.571460  1
  Cs  Cs15  1  0.243765  0.609765  0.928540  1
  Ti  Ti16  1  0.142175  0.760219  0.151525  1
  Ti  Ti17  1  0.642175  0.239781  0.348475  1
  Fe  Fe18  1  0.858166  0.231469  0.854011  1
  Fe  Fe19  1  0.358166  0.768531  0.645989  1
  O  O20  1  0.348297  0.659550  0.179172  1
  O  O21  1  0.848297  0.340450  0.320828  1
  O  O22  1  0.651106  0.331388  0.835290  1
  O  O23  1  0.151106  0.668612  0.664710  1
  O  O24  1  0.219425  0.904059  0.067431  1
  O  O25  1  0.719425  0.095941  0.432569  1
  O  O26  1  0.762482  0.084792  0.914759  1
  O  O27  1  0.262482  0.915208  0.585241  1
  O  O28  1  0.037001  0.786017  0.286705  1
  O  O29  1  0.537001  0.213983  0.213295  1
  O  O30  1  0.987445  0.205298  0.726104  1
  O  O31  1  0.487445  0.794702  0.773896  1
  O  O32  1  0.528649  0.691013  0.566849  1
  O  O33  1  0.028649  0.308987  0.933151  1
  O  O34  1  0.465852  0.314506  0.427486  1
  O  O35  1  0.965852  0.685494  0.072514  1
