# generated using pymatgen
data_Sr9Th(Sn3H)2
_symmetry_space_group_name_H-M   'P 1'
_cell_length_a   9.96168266
_cell_length_b   9.96168265
_cell_length_c   9.95616186
_cell_angle_alpha   128.80946696
_cell_angle_beta   128.80946405
_cell_angle_gamma   75.30042816
_symmetry_Int_Tables_number   1
_chemical_formula_structural   Sr9Th(Sn3H)2
_chemical_formula_sum   'Sr9 Th1 Sn6 H2'
_cell_volume   583.98005417
_cell_formula_units_Z   1
loop_
 _symmetry_equiv_pos_site_id
 _symmetry_equiv_pos_as_xyz
  1  'x, y, z'
loop_
 _atom_site_type_symbol
 _atom_site_label
 _atom_site_symmetry_multiplicity
 _atom_site_fract_x
 _atom_site_fract_y
 _atom_site_fract_z
 _atom_site_occupancy
  Sr  Sr0  1  0.496949  0.504537  0.001371  1
  Sr  Sr1  1  0.004537  0.996949  0.001371  1
  Sr  Sr2  1  0.183205  0.683205  0.166271  1
  Sr  Sr3  1  0.011213  0.185720  0.498903  1
  Sr  Sr4  1  0.685720  0.511213  0.498903  1
  Sr  Sr5  1  0.485319  0.985319  0.174129  1
  Sr  Sr6  1  0.811159  0.311159  0.825511  1
  Sr  Sr7  1  0.985741  0.811899  0.498455  1
  Sr  Sr8  1  0.311899  0.485741  0.498455  1
  Th  Th9  1  0.523103  0.023103  0.835154  1
  Sn  Sn10  1  0.262910  0.237255  0.988534  1
  Sn  Sn11  1  0.737255  0.762910  0.988534  1
  Sn  Sn12  1  0.866908  0.366908  0.240062  1
  Sn  Sn13  1  0.117198  0.617198  0.736367  1
  Sn  Sn14  1  0.376037  0.120768  0.510290  1
  Sn  Sn15  1  0.620768  0.876037  0.510290  1
  H  H16  1  0.270485  0.770485  0.523133  1
  H  H17  1  0.749593  0.249593  0.504266  1
