# generated using pymatgen
data_NdTaReB6
_symmetry_space_group_name_H-M   'P 1'
_cell_length_a   3.60206900
_cell_length_b   9.02521400
_cell_length_c   11.44093700
_cell_angle_alpha   90.00000000
_cell_angle_beta   90.00000000
_cell_angle_gamma   90.00000000
_symmetry_Int_Tables_number   1
_chemical_formula_structural   NdTaReB6
_chemical_formula_sum   'Nd4 Ta4 Re4 B24'
_cell_volume   371.93849576
_cell_formula_units_Z   4
loop_
 _symmetry_equiv_pos_site_id
 _symmetry_equiv_pos_as_xyz
  1  'x, y, z'
loop_
 _atom_site_type_symbol
 _atom_site_label
 _atom_site_symmetry_multiplicity
 _atom_site_fract_x
 _atom_site_fract_y
 _atom_site_fract_z
 _atom_site_occupancy
  Nd  Nd0  1  0.000000  0.323060  0.414558  1
  Nd  Nd1  1  0.000000  0.676940  0.585442  1
  Nd  Nd2  1  0.000000  0.823060  0.085442  1
  Nd  Nd3  1  0.000000  0.176940  0.914558  1
  Ta  Ta4  1  0.000000  0.947413  0.376218  1
  Ta  Ta5  1  0.000000  0.052587  0.623782  1
  Ta  Ta6  1  0.000000  0.447413  0.123782  1
  Ta  Ta7  1  0.000000  0.552587  0.876218  1
  Re  Re8  1  0.000000  0.645263  0.315791  1
  Re  Re9  1  0.000000  0.354737  0.684209  1
  Re  Re10  1  0.000000  0.145263  0.184209  1
  Re  Re11  1  0.000000  0.854737  0.815791  1
  B  B12  1  0.500000  0.556543  0.430328  1
  B  B13  1  0.500000  0.443457  0.569672  1
  B  B14  1  0.500000  0.056543  0.069672  1
  B  B15  1  0.500000  0.943457  0.930328  1
  B  B16  1  0.500000  0.756348  0.415994  1
  B  B17  1  0.500000  0.243652  0.584006  1
  B  B18  1  0.500000  0.256348  0.084006  1
  B  B19  1  0.500000  0.743652  0.915994  1
  B  B20  1  0.500000  0.797756  0.264279  1
  B  B21  1  0.500000  0.202244  0.735721  1
  B  B22  1  0.500000  0.297756  0.235721  1
  B  B23  1  0.500000  0.702244  0.764279  1
  B  B24  1  0.500000  0.628526  0.181457  1
  B  B25  1  0.500000  0.371474  0.818543  1
  B  B26  1  0.500000  0.128526  0.318543  1
  B  B27  1  0.500000  0.871474  0.681457  1
  B  B28  1  0.500000  0.983078  0.215240  1
  B  B29  1  0.500000  0.016922  0.784760  1
  B  B30  1  0.500000  0.483078  0.284760  1
  B  B31  1  0.500000  0.516922  0.715240  1
  B  B32  1  0.500000  0.597344  0.025682  1
  B  B33  1  0.500000  0.402656  0.974318  1
  B  B34  1  0.500000  0.097344  0.474318  1
  B  B35  1  0.500000  0.902656  0.525682  1
