# generated using pymatgen
data_LaTi2BiF14
_symmetry_space_group_name_H-M   'P 1'
_cell_length_a   5.65780600
_cell_length_b   9.18761372
_cell_length_c   12.17377400
_cell_angle_alpha   62.86882661
_cell_angle_beta   90.00000000
_cell_angle_gamma   90.00000000
_symmetry_Int_Tables_number   1
_chemical_formula_structural   LaTi2BiF14
_chemical_formula_sum   'La2 Ti4 Bi2 F28'
_cell_volume   563.18211510
_cell_formula_units_Z   2
loop_
 _symmetry_equiv_pos_site_id
 _symmetry_equiv_pos_as_xyz
  1  'x, y, z'
loop_
 _atom_site_type_symbol
 _atom_site_label
 _atom_site_symmetry_multiplicity
 _atom_site_fract_x
 _atom_site_fract_y
 _atom_site_fract_z
 _atom_site_occupancy
  La  La0  1  0.242463  0.192656  0.733488  1
  La  La1  1  0.742463  0.807344  0.766512  1
  Ti  Ti2  1  0.246238  0.727248  0.539136  1
  Ti  Ti3  1  0.746238  0.272752  0.960864  1
  Ti  Ti4  1  0.756206  0.276292  0.453067  1
  Ti  Ti5  1  0.256206  0.723708  0.046933  1
  Bi  Bi6  1  0.760737  0.813047  0.263003  1
  Bi  Bi7  1  0.260737  0.186953  0.236997  1
  F  F8  1  0.966650  0.717332  0.454543  1
  F  F9  1  0.466650  0.282668  0.045457  1
  F  F10  1  0.030822  0.286970  0.538415  1
  F  F11  1  0.530822  0.713030  0.961585  1
  F  F12  1  0.059606  0.708313  0.927977  1
  F  F13  1  0.559606  0.291687  0.572023  1
  F  F14  1  0.943800  0.290097  0.077803  1
  F  F15  1  0.443800  0.709903  0.422197  1
  F  F16  1  0.733154  0.502265  0.867584  1
  F  F17  1  0.233154  0.497735  0.632416  1
  F  F18  1  0.264043  0.494645  0.138747  1
  F  F19  1  0.764043  0.505355  0.361253  1
  F  F20  1  0.740775  0.041846  0.051331  1
  F  F21  1  0.240775  0.958154  0.448669  1
  F  F22  1  0.260710  0.952970  0.954018  1
  F  F23  1  0.760710  0.047030  0.545982  1
  F  F24  1  0.054224  0.743422  0.661887  1
  F  F25  1  0.554224  0.256578  0.838113  1
  F  F26  1  0.949880  0.255065  0.332444  1
  F  F27  1  0.449880  0.744935  0.167556  1
  F  F28  1  0.012898  0.268604  0.869295  1
  F  F29  1  0.512898  0.731396  0.630705  1
  F  F30  1  0.986443  0.733329  0.136592  1
  F  F31  1  0.486443  0.266671  0.363408  1
  F  F32  1  0.087370  0.972293  0.228902  1
  F  F33  1  0.587370  0.027707  0.271098  1
  F  F34  1  0.903979  0.033454  0.771832  1
  F  F35  1  0.403979  0.966546  0.728168  1
