# generated using pymatgen
data_Cs6Sm(NpBr6)3
_symmetry_space_group_name_H-M   'P 1'
_cell_length_a   10.60961113
_cell_length_b   10.60960935
_cell_length_c   10.60961062
_cell_angle_alpha   83.24543628
_cell_angle_beta   83.24544049
_cell_angle_gamma   83.24543334
_symmetry_Int_Tables_number   1
_chemical_formula_structural   Cs6Sm(NpBr6)3
_chemical_formula_sum   'Cs6 Sm1 Np3 Br18'
_cell_volume   1171.19747528
_cell_formula_units_Z   1
loop_
 _symmetry_equiv_pos_site_id
 _symmetry_equiv_pos_as_xyz
  1  'x, y, z'
loop_
 _atom_site_type_symbol
 _atom_site_label
 _atom_site_symmetry_multiplicity
 _atom_site_fract_x
 _atom_site_fract_y
 _atom_site_fract_z
 _atom_site_occupancy
  Cs  Cs0  1  0.089133  0.749859  0.410925  1
  Cs  Cs1  1  0.749859  0.410925  0.089133  1
  Cs  Cs2  1  0.249982  0.589199  0.910927  1
  Cs  Cs3  1  0.410925  0.089133  0.749859  1
  Cs  Cs4  1  0.910927  0.249982  0.589199  1
  Cs  Cs5  1  0.589199  0.910927  0.249982  1
  Sm  Sm6  1  0.348774  0.348774  0.348774  1
  Np  Np7  1  0.651670  0.651670  0.651670  1
  Np  Np8  1  0.848195  0.848195  0.848195  1
  Np  Np9  1  0.151712  0.151712  0.151712  1
  Br  Br10  1  0.267375  0.914491  0.079781  1
  Br  Br11  1  0.733045  0.084770  0.919851  1
  Br  Br12  1  0.906728  0.593568  0.750311  1
  Br  Br13  1  0.084770  0.919851  0.733045  1
  Br  Br14  1  0.593568  0.750311  0.906728  1
  Br  Br15  1  0.419123  0.583167  0.233187  1
  Br  Br16  1  0.250673  0.094418  0.406949  1
  Br  Br17  1  0.914491  0.079781  0.267375  1
  Br  Br18  1  0.580087  0.414756  0.767344  1
  Br  Br19  1  0.079781  0.267375  0.914491  1
  Br  Br20  1  0.919851  0.733045  0.084770  1
  Br  Br21  1  0.414756  0.767344  0.580087  1
  Br  Br22  1  0.233187  0.419123  0.583167  1
  Br  Br23  1  0.750311  0.906728  0.593568  1
  Br  Br24  1  0.094418  0.406949  0.250673  1
  Br  Br25  1  0.767344  0.580087  0.414756  1
  Br  Br26  1  0.406949  0.250673  0.094418  1
  Br  Br27  1  0.583167  0.233187  0.419123  1
