# generated using pymatgen
data_Ac(In2Pd)2
_symmetry_space_group_name_H-M   'P 1'
_cell_length_a   4.70602600
_cell_length_b   7.40236000
_cell_length_c   19.03753800
_cell_angle_alpha   90.00000000
_cell_angle_beta   90.00000000
_cell_angle_gamma   90.00000000
_symmetry_Int_Tables_number   1
_chemical_formula_structural   Ac(In2Pd)2
_chemical_formula_sum   'Ac4 In16 Pd8'
_cell_volume   663.18593626
_cell_formula_units_Z   4
loop_
 _symmetry_equiv_pos_site_id
 _symmetry_equiv_pos_as_xyz
  1  'x, y, z'
loop_
 _atom_site_type_symbol
 _atom_site_label
 _atom_site_symmetry_multiplicity
 _atom_site_fract_x
 _atom_site_fract_y
 _atom_site_fract_z
 _atom_site_occupancy
  Ac  Ac0  1  0.250000  0.527515  0.863291  1
  Ac  Ac1  1  0.750000  0.027515  0.636709  1
  Ac  Ac2  1  0.750000  0.472485  0.136709  1
  Ac  Ac3  1  0.250000  0.972485  0.363291  1
  In  In4  1  0.750000  0.259422  0.304001  1
  In  In5  1  0.750000  0.503405  0.573227  1
  In  In6  1  0.750000  0.660241  0.315389  1
  In  In7  1  0.250000  0.003405  0.926773  1
  In  In8  1  0.750000  0.326412  0.964663  1
  In  In9  1  0.250000  0.759422  0.195999  1
  In  In10  1  0.250000  0.673588  0.035337  1
  In  In11  1  0.250000  0.826412  0.535337  1
  In  In12  1  0.750000  0.240578  0.804001  1
  In  In13  1  0.250000  0.496595  0.426773  1
  In  In14  1  0.250000  0.160241  0.184611  1
  In  In15  1  0.750000  0.839759  0.815389  1
  In  In16  1  0.250000  0.740578  0.695999  1
  In  In17  1  0.750000  0.996595  0.073227  1
  In  In18  1  0.250000  0.339759  0.684611  1
  In  In19  1  0.750000  0.173588  0.464663  1
  Pd  Pd20  1  0.250000  0.252284  0.539452  1
  Pd  Pd21  1  0.750000  0.545741  0.719808  1
  Pd  Pd22  1  0.750000  0.747716  0.460548  1
  Pd  Pd23  1  0.250000  0.247716  0.039452  1
  Pd  Pd24  1  0.750000  0.752284  0.960548  1
  Pd  Pd25  1  0.250000  0.454259  0.280192  1
  Pd  Pd26  1  0.750000  0.954259  0.219808  1
  Pd  Pd27  1  0.250000  0.045741  0.780192  1
