# generated using pymatgen
data_Tb20GaCo4Sb7
_symmetry_space_group_name_H-M   'P 1'
_cell_length_a   7.89404818
_cell_length_b   8.81048936
_cell_length_c   12.18306023
_cell_angle_alpha   90.08184286
_cell_angle_beta   89.98608691
_cell_angle_gamma   90.02041600
_symmetry_Int_Tables_number   1
_chemical_formula_structural   Tb20GaCo4Sb7
_chemical_formula_sum   'Tb20 Ga1 Co4 Sb7'
_cell_volume   847.33610475
_cell_formula_units_Z   1
loop_
 _symmetry_equiv_pos_site_id
 _symmetry_equiv_pos_as_xyz
  1  'x, y, z'
loop_
 _atom_site_type_symbol
 _atom_site_label
 _atom_site_symmetry_multiplicity
 _atom_site_fract_x
 _atom_site_fract_y
 _atom_site_fract_z
 _atom_site_occupancy
  Tb  Tb0  1  0.150234  0.755048  0.206595  1
  Tb  Tb1  1  0.660408  0.244541  0.294215  1
  Tb  Tb2  1  0.847019  0.251079  0.796523  1
  Tb  Tb3  1  0.345557  0.750544  0.701980  1
  Tb  Tb4  1  0.453348  0.749203  0.997787  1
  Tb  Tb5  1  0.952649  0.241744  0.497418  1
  Tb  Tb6  1  0.543302  0.251190  0.002697  1
  Tb  Tb7  1  0.038990  0.758725  0.492572  1
  Tb  Tb8  1  0.631472  0.754677  0.306237  1
  Tb  Tb9  1  0.116207  0.243956  0.197838  1
  Tb  Tb10  1  0.377846  0.249874  0.694090  1
  Tb  Tb11  1  0.878121  0.749889  0.805655  1
  Tb  Tb12  1  0.822820  0.966177  0.070993  1
  Tb  Tb13  1  0.317337  0.034721  0.432711  1
  Tb  Tb14  1  0.179166  0.464083  0.935472  1
  Tb  Tb15  1  0.682342  0.532711  0.565718  1
  Tb  Tb16  1  0.179063  0.033534  0.934853  1
  Tb  Tb17  1  0.678910  0.962819  0.565069  1
  Tb  Tb18  1  0.819832  0.536101  0.065288  1
  Tb  Tb19  1  0.321051  0.467678  0.433768  1
  Ga  Ga20  1  0.928111  0.994959  0.329463  1
  Co  Co21  1  0.436575  0.749099  0.489893  1
  Co  Co22  1  0.932194  0.249564  0.010492  1
  Co  Co23  1  0.566646  0.249911  0.509010  1
  Co  Co24  1  0.067146  0.749201  0.990513  1
  Sb  Sb25  1  0.426485  0.007162  0.172280  1
  Sb  Sb26  1  0.073734  0.492287  0.669637  1
  Sb  Sb27  1  0.572160  0.508216  0.826637  1
  Sb  Sb28  1  0.073474  0.008357  0.673976  1
  Sb  Sb29  1  0.573063  0.992483  0.828250  1
  Sb  Sb30  1  0.927381  0.507163  0.327566  1
  Sb  Sb31  1  0.427358  0.493305  0.174806  1
