# generated using pymatgen
data_Hf6Ti4GaGe5
_symmetry_space_group_name_H-M   'P 1'
_cell_length_a   7.85195202
_cell_length_b   7.85195248
_cell_length_c   5.36666600
_cell_angle_alpha   90.00000000
_cell_angle_beta   90.00000000
_cell_angle_gamma   119.99104358
_symmetry_Int_Tables_number   1
_chemical_formula_structural   Hf6Ti4GaGe5
_chemical_formula_sum   'Hf6 Ti4 Ga1 Ge5'
_cell_volume   286.56931615
_cell_formula_units_Z   1
loop_
 _symmetry_equiv_pos_site_id
 _symmetry_equiv_pos_as_xyz
  1  'x, y, z'
loop_
 _atom_site_type_symbol
 _atom_site_label
 _atom_site_symmetry_multiplicity
 _atom_site_fract_x
 _atom_site_fract_y
 _atom_site_fract_z
 _atom_site_occupancy
  Hf  Hf0  1  0.249812  0.000662  0.250000  1
  Hf  Hf1  1  0.750890  0.999722  0.750000  1
  Hf  Hf2  1  0.000662  0.249812  0.250000  1
  Hf  Hf3  1  0.999722  0.750890  0.750000  1
  Hf  Hf4  1  0.752811  0.752811  0.250000  1
  Hf  Hf5  1  0.248422  0.248422  0.750000  1
  Ti  Ti6  1  0.332149  0.666743  0.000223  1
  Ti  Ti7  1  0.666743  0.332149  0.000223  1
  Ti  Ti8  1  0.666743  0.332149  0.499777  1
  Ti  Ti9  1  0.332149  0.666743  0.499777  1
  Ga  Ga10  1  0.601945  0.601945  0.750000  1
  Ge  Ge11  1  0.603732  0.999365  0.250000  1
  Ge  Ge12  1  0.396303  0.999974  0.750000  1
  Ge  Ge13  1  0.999365  0.603732  0.250000  1
  Ge  Ge14  1  0.999974  0.396303  0.750000  1
  Ge  Ge15  1  0.398578  0.398578  0.250000  1
