# generated using pymatgen
data_Yb(Zn2Pt)2
_symmetry_space_group_name_H-M   'P 1'
_cell_length_a   7.59646500
_cell_length_b   7.59646500
_cell_length_c   4.23567100
_cell_angle_alpha   90.00000000
_cell_angle_beta   90.00000000
_cell_angle_gamma   90.00000000
_symmetry_Int_Tables_number   1
_chemical_formula_structural   Yb(Zn2Pt)2
_chemical_formula_sum   'Yb2 Zn8 Pt4'
_cell_volume   244.42481882
_cell_formula_units_Z   2
loop_
 _symmetry_equiv_pos_site_id
 _symmetry_equiv_pos_as_xyz
  1  'x, y, z'
loop_
 _atom_site_type_symbol
 _atom_site_label
 _atom_site_symmetry_multiplicity
 _atom_site_fract_x
 _atom_site_fract_y
 _atom_site_fract_z
 _atom_site_occupancy
  Yb  Yb0  1  0.500000  0.500000  0.500000  1
  Yb  Yb1  1  0.000000  0.000000  0.000000  1
  Zn  Zn2  1  0.349890  0.095461  0.500000  1
  Zn  Zn3  1  0.650110  0.904539  0.500000  1
  Zn  Zn4  1  0.849890  0.404539  0.000000  1
  Zn  Zn5  1  0.150110  0.595461  0.000000  1
  Zn  Zn6  1  0.095461  0.349890  0.500000  1
  Zn  Zn7  1  0.904539  0.650110  0.500000  1
  Zn  Zn8  1  0.404539  0.849890  0.000000  1
  Zn  Zn9  1  0.595461  0.150110  0.000000  1
  Pt  Pt10  1  0.779509  0.220491  0.500000  1
  Pt  Pt11  1  0.220491  0.779509  0.500000  1
  Pt  Pt12  1  0.279509  0.279509  0.000000  1
  Pt  Pt13  1  0.720491  0.720491  0.000000  1
