# generated using pymatgen
data_Nd10SiBBr15
_symmetry_space_group_name_H-M   'P 1'
_cell_length_a   9.49484475
_cell_length_b   10.26915035
_cell_length_c   11.17020791
_cell_angle_alpha   90.85084176
_cell_angle_beta   114.67391378
_cell_angle_gamma   110.95336775
_symmetry_Int_Tables_number   1
_chemical_formula_structural   Nd10SiBBr15
_chemical_formula_sum   'Nd10 Si1 B1 Br15'
_cell_volume   906.79971355
_cell_formula_units_Z   1
loop_
 _symmetry_equiv_pos_site_id
 _symmetry_equiv_pos_as_xyz
  1  'x, y, z'
loop_
 _atom_site_type_symbol
 _atom_site_label
 _atom_site_symmetry_multiplicity
 _atom_site_fract_x
 _atom_site_fract_y
 _atom_site_fract_z
 _atom_site_occupancy
  Nd  Nd0  1  0.802188  0.410114  0.274884  1
  Nd  Nd1  1  0.185669  0.578844  0.716286  1
  Nd  Nd2  1  0.685067  0.743172  0.817425  1
  Nd  Nd3  1  0.324977  0.253629  0.176863  1
  Nd  Nd4  1  0.528117  0.696095  0.106277  1
  Nd  Nd5  1  0.474666  0.294697  0.904835  1
  Nd  Nd6  1  0.586512  0.041220  0.324534  1
  Nd  Nd7  1  0.409055  0.963767  0.661763  1
  Nd  Nd8  1  0.735361  0.085349  0.055177  1
  Nd  Nd9  1  0.266878  0.928311  0.954033  1
  Si  Si10  1  0.468476  0.825373  0.880607  1
  B  B11  1  0.534171  0.182943  0.125343  1
  Br  Br12  1  0.999115  0.001758  0.001407  1
  Br  Br13  1  0.636716  0.883215  0.582642  1
  Br  Br14  1  0.363823  0.118005  0.412812  1
  Br  Br15  1  0.880706  0.297039  0.525131  1
  Br  Br16  1  0.113860  0.699092  0.470993  1
  Br  Br17  1  0.293884  0.764703  0.181780  1
  Br  Br18  1  0.706041  0.237376  0.819175  1
  Br  Br19  1  0.059435  0.346549  0.228954  1
  Br  Br20  1  0.167035  0.059270  0.704193  1
  Br  Br21  1  0.832822  0.942867  0.297278  1
  Br  Br22  1  0.235324  0.409025  0.944497  1
  Br  Br23  1  0.763806  0.586158  0.054355  1
  Br  Br24  1  0.408492  0.463289  0.662430  1
  Br  Br25  1  0.593509  0.531918  0.342933  1
  Br  Br26  1  0.944294  0.656220  0.773392  1
