# generated using pymatgen
data_CeTh(Re2Si)4
_symmetry_space_group_name_H-M   'P 1'
_cell_length_a   4.15866200
_cell_length_b   7.24487492
_cell_length_c   15.67196997
_cell_angle_alpha   90.18560529
_cell_angle_beta   90.00000000
_cell_angle_gamma   90.00000000
_symmetry_Int_Tables_number   1
_chemical_formula_structural   CeTh(Re2Si)4
_chemical_formula_sum   'Ce2 Th2 Re16 Si8'
_cell_volume   472.17808681
_cell_formula_units_Z   2
loop_
 _symmetry_equiv_pos_site_id
 _symmetry_equiv_pos_as_xyz
  1  'x, y, z'
loop_
 _atom_site_type_symbol
 _atom_site_label
 _atom_site_symmetry_multiplicity
 _atom_site_fract_x
 _atom_site_fract_y
 _atom_site_fract_z
 _atom_site_occupancy
  Ce  Ce0  1  0.000000  0.586667  0.116984  1
  Ce  Ce1  1  0.000000  0.413333  0.883016  1
  Th  Th2  1  0.500000  0.085922  0.381351  1
  Th  Th3  1  0.500000  0.914078  0.618649  1
  Re  Re4  1  0.000000  0.143247  0.050607  1
  Re  Re5  1  0.000000  0.856753  0.949393  1
  Re  Re6  1  0.500000  0.642491  0.449249  1
  Re  Re7  1  0.500000  0.357509  0.550751  1
  Re  Re8  1  0.000000  0.737765  0.320315  1
  Re  Re9  1  0.000000  0.262235  0.679685  1
  Re  Re10  1  0.500000  0.239756  0.178153  1
  Re  Re11  1  0.500000  0.760244  0.821847  1
  Re  Re12  1  0.000000  0.428643  0.419632  1
  Re  Re13  1  0.000000  0.571357  0.580368  1
  Re  Re14  1  0.500000  0.929271  0.079832  1
  Re  Re15  1  0.500000  0.070729  0.920168  1
  Re  Re16  1  0.000000  0.998276  0.205498  1
  Re  Re17  1  0.000000  0.001724  0.794502  1
  Re  Re18  1  0.500000  0.499555  0.293617  1
  Re  Re19  1  0.500000  0.500445  0.706383  1
  Si  Si20  1  0.000000  0.829869  0.474694  1
  Si  Si21  1  0.000000  0.170131  0.525306  1
  Si  Si22  1  0.500000  0.332124  0.024778  1
  Si  Si23  1  0.500000  0.667876  0.975222  1
  Si  Si24  1  0.000000  0.305599  0.272032  1
  Si  Si25  1  0.000000  0.694401  0.727968  1
  Si  Si26  1  0.500000  0.800496  0.224509  1
  Si  Si27  1  0.500000  0.199504  0.775491  1
