# generated using pymatgen
data_LiScCo8(TcP3)2
_symmetry_space_group_name_H-M   'P 1'
_cell_length_a   3.62031300
_cell_length_b   10.20954200
_cell_length_c   11.68750500
_cell_angle_alpha   90.00000000
_cell_angle_beta   90.00000000
_cell_angle_gamma   90.00000000
_symmetry_Int_Tables_number   1
_chemical_formula_structural   LiScCo8(TcP3)2
_chemical_formula_sum   'Li2 Sc2 Co16 Tc4 P12'
_cell_volume   431.99049332
_cell_formula_units_Z   2
loop_
 _symmetry_equiv_pos_site_id
 _symmetry_equiv_pos_as_xyz
  1  'x, y, z'
loop_
 _atom_site_type_symbol
 _atom_site_label
 _atom_site_symmetry_multiplicity
 _atom_site_fract_x
 _atom_site_fract_y
 _atom_site_fract_z
 _atom_site_occupancy
  Li  Li0  1  0.250000  0.580407  0.702599  1
  Li  Li1  1  0.250000  0.919593  0.202599  1
  Sc  Sc2  1  0.750000  0.416451  0.296145  1
  Sc  Sc3  1  0.750000  0.083549  0.796145  1
  Co  Co4  1  0.250000  0.405369  0.486524  1
  Co  Co5  1  0.250000  0.094631  0.986524  1
  Co  Co6  1  0.750000  0.590052  0.512663  1
  Co  Co7  1  0.750000  0.909948  0.012663  1
  Co  Co8  1  0.250000  0.221694  0.177295  1
  Co  Co9  1  0.250000  0.278307  0.677295  1
  Co  Co10  1  0.750000  0.782574  0.822975  1
  Co  Co11  1  0.750000  0.717426  0.322975  1
  Co  Co12  1  0.250000  0.888076  0.701406  1
  Co  Co13  1  0.250000  0.611924  0.201406  1
  Co  Co14  1  0.750000  0.114559  0.298510  1
  Co  Co15  1  0.750000  0.385441  0.798510  1
  Co  Co16  1  0.250000  0.466976  0.932236  1
  Co  Co17  1  0.250000  0.033024  0.432236  1
  Co  Co18  1  0.750000  0.537433  0.066756  1
  Co  Co19  1  0.750000  0.962567  0.566756  1
  Tc  Tc20  1  0.250000  0.711139  0.990055  1
  Tc  Tc21  1  0.250000  0.788861  0.490055  1
  Tc  Tc22  1  0.750000  0.289071  0.013388  1
  Tc  Tc23  1  0.750000  0.210929  0.513388  1
  P  P24  1  0.250000  0.420500  0.116500  1
  P  P25  1  0.250000  0.079500  0.616500  1
  P  P26  1  0.750000  0.582027  0.878262  1
  P  P27  1  0.750000  0.917973  0.378262  1
  P  P28  1  0.250000  0.266607  0.864736  1
  P  P29  1  0.250000  0.233393  0.364736  1
  P  P30  1  0.750000  0.741377  0.136845  1
  P  P31  1  0.750000  0.758623  0.636845  1
  P  P32  1  0.250000  0.593441  0.389969  1
  P  P33  1  0.250000  0.906559  0.889969  1
  P  P34  1  0.750000  0.409092  0.613136  1
  P  P35  1  0.750000  0.090908  0.113136  1
