# generated using pymatgen
data_Mn2Re5As12
_symmetry_space_group_name_H-M   'P 1'
_cell_length_a   3.09166400
_cell_length_b   12.99575700
_cell_length_c   15.91388100
_cell_angle_alpha   90.00000000
_cell_angle_beta   90.00000000
_cell_angle_gamma   90.00000000
_symmetry_Int_Tables_number   1
_chemical_formula_structural   Mn2Re5As12
_chemical_formula_sum   'Mn4 Re10 As24'
_cell_volume   639.39609166
_cell_formula_units_Z   2
loop_
 _symmetry_equiv_pos_site_id
 _symmetry_equiv_pos_as_xyz
  1  'x, y, z'
loop_
 _atom_site_type_symbol
 _atom_site_label
 _atom_site_symmetry_multiplicity
 _atom_site_fract_x
 _atom_site_fract_y
 _atom_site_fract_z
 _atom_site_occupancy
  Mn  Mn0  1  0.500000  0.123873  0.346150  1
  Mn  Mn1  1  0.500000  0.876127  0.653850  1
  Mn  Mn2  1  0.000000  0.376127  0.846150  1
  Mn  Mn3  1  0.000000  0.623873  0.153850  1
  Re  Re4  1  0.500000  0.313522  0.105412  1
  Re  Re5  1  0.500000  0.686478  0.894588  1
  Re  Re6  1  0.000000  0.186478  0.605412  1
  Re  Re7  1  0.000000  0.813522  0.394588  1
  Re  Re8  1  0.500000  0.912822  0.261215  1
  Re  Re9  1  0.500000  0.087178  0.738785  1
  Re  Re10  1  0.000000  0.587178  0.761215  1
  Re  Re11  1  0.000000  0.412822  0.238785  1
  Re  Re12  1  0.500000  0.500000  0.500000  1
  Re  Re13  1  0.000000  0.000000  0.000000  1
  As  As14  1  0.500000  0.903424  0.096942  1
  As  As15  1  0.500000  0.096576  0.903058  1
  As  As16  1  0.000000  0.596576  0.596942  1
  As  As17  1  0.000000  0.403424  0.403058  1
  As  As18  1  0.500000  0.567067  0.259685  1
  As  As19  1  0.500000  0.432933  0.740315  1
  As  As20  1  0.000000  0.932933  0.759685  1
  As  As21  1  0.000000  0.067067  0.240315  1
  As  As22  1  0.500000  0.652721  0.405055  1
  As  As23  1  0.500000  0.347279  0.594945  1
  As  As24  1  0.000000  0.847279  0.905055  1
  As  As25  1  0.000000  0.152721  0.094945  1
  As  As26  1  0.500000  0.964547  0.418495  1
  As  As27  1  0.500000  0.035453  0.581505  1
  As  As28  1  0.000000  0.535453  0.918495  1
  As  As29  1  0.000000  0.464547  0.081505  1
  As  As30  1  0.500000  0.708187  0.058900  1
  As  As31  1  0.500000  0.291813  0.941100  1
  As  As32  1  0.000000  0.791813  0.558900  1
  As  As33  1  0.000000  0.208187  0.441100  1
  As  As34  1  0.500000  0.732274  0.740217  1
  As  As35  1  0.500000  0.267726  0.259783  1
  As  As36  1  0.000000  0.767726  0.240217  1
  As  As37  1  0.000000  0.232274  0.759783  1
