# generated using pymatgen
data_Sc4TcCl4
_symmetry_space_group_name_H-M   'P 1'
_cell_length_a   8.07076718
_cell_length_b   8.07076826
_cell_length_c   6.22199064
_cell_angle_alpha   89.38024428
_cell_angle_beta   89.38024753
_cell_angle_gamma   89.35893454
_symmetry_Int_Tables_number   1
_chemical_formula_structural   Sc4TcCl4
_chemical_formula_sum   'Sc8 Tc2 Cl8'
_cell_volume   405.21135850
_cell_formula_units_Z   2
loop_
 _symmetry_equiv_pos_site_id
 _symmetry_equiv_pos_as_xyz
  1  'x, y, z'
loop_
 _atom_site_type_symbol
 _atom_site_label
 _atom_site_symmetry_multiplicity
 _atom_site_fract_x
 _atom_site_fract_y
 _atom_site_fract_z
 _atom_site_occupancy
  Sc  Sc0  1  0.103659  0.741800  0.983572  1
  Sc  Sc1  1  0.258200  0.896341  0.516428  1
  Sc  Sc2  1  0.896341  0.258200  0.016428  1
  Sc  Sc3  1  0.741800  0.103659  0.483572  1
  Sc  Sc4  1  0.743323  0.897651  0.012072  1
  Sc  Sc5  1  0.102349  0.256677  0.487928  1
  Sc  Sc6  1  0.256677  0.102349  0.987928  1
  Sc  Sc7  1  0.897651  0.743323  0.512072  1
  Tc  Tc8  1  0.010207  0.989793  0.250000  1
  Tc  Tc9  1  0.989793  0.010207  0.750000  1
  Cl  Cl10  1  0.422159  0.819141  0.898632  1
  Cl  Cl11  1  0.180859  0.577841  0.601368  1
  Cl  Cl12  1  0.577841  0.180859  0.101368  1
  Cl  Cl13  1  0.819141  0.422159  0.398632  1
  Cl  Cl14  1  0.807303  0.581429  0.896883  1
  Cl  Cl15  1  0.418571  0.192697  0.603117  1
  Cl  Cl16  1  0.192697  0.418571  0.103117  1
  Cl  Cl17  1  0.581429  0.807303  0.396883  1
