# generated using pymatgen
data_Sc12Zn11SiC4
_symmetry_space_group_name_H-M   'P 1'
_cell_length_a   8.61901840
_cell_length_b   8.61901846
_cell_length_c   8.61109782
_cell_angle_alpha   59.96957414
_cell_angle_beta   59.96957642
_cell_angle_gamma   59.99999682
_symmetry_Int_Tables_number   1
_chemical_formula_structural   Sc12Zn11SiC4
_chemical_formula_sum   'Sc12 Zn11 Si1 C4'
_cell_volume   452.12576962
_cell_formula_units_Z   1
loop_
 _symmetry_equiv_pos_site_id
 _symmetry_equiv_pos_as_xyz
  1  'x, y, z'
loop_
 _atom_site_type_symbol
 _atom_site_label
 _atom_site_symmetry_multiplicity
 _atom_site_fract_x
 _atom_site_fract_y
 _atom_site_fract_z
 _atom_site_occupancy
  Sc  Sc0  1  0.442963  0.442963  0.056964  1
  Sc  Sc1  1  0.057111  0.442963  0.056964  1
  Sc  Sc2  1  0.442963  0.057111  0.056964  1
  Sc  Sc3  1  0.056712  0.056712  0.443613  1
  Sc  Sc4  1  0.442962  0.056712  0.443613  1
  Sc  Sc5  1  0.056712  0.442962  0.443613  1
  Sc  Sc6  1  0.807284  0.807284  0.194775  1
  Sc  Sc7  1  0.190656  0.807284  0.194775  1
  Sc  Sc8  1  0.807284  0.190656  0.194775  1
  Sc  Sc9  1  0.192888  0.192888  0.806916  1
  Sc  Sc10  1  0.807307  0.192888  0.806916  1
  Sc  Sc11  1  0.192888  0.807307  0.806916  1
  Zn  Zn12  1  0.830095  0.509799  0.830011  1
  Zn  Zn13  1  0.509799  0.830095  0.830011  1
  Zn  Zn14  1  0.830095  0.830095  0.830011  1
  Zn  Zn15  1  0.420112  0.420112  0.739664  1
  Zn  Zn16  1  0.420104  0.740112  0.419681  1
  Zn  Zn17  1  0.740112  0.420104  0.419681  1
  Zn  Zn18  1  0.420104  0.420104  0.419681  1
  Zn  Zn19  1  0.625053  0.625053  0.124840  1
  Zn  Zn20  1  0.625248  0.125035  0.624468  1
  Zn  Zn21  1  0.125035  0.625248  0.624468  1
  Zn  Zn22  1  0.625248  0.625248  0.624468  1
  Si  Si23  1  0.830439  0.830439  0.508683  1
  C  C24  1  0.125248  0.125248  0.624255  1
  C  C25  1  0.125262  0.625051  0.124424  1
  C  C26  1  0.625051  0.125262  0.124424  1
  C  C27  1  0.125262  0.125262  0.124424  1
