# generated using pymatgen
data_Pr4Sm(ThTe4)3
_symmetry_space_group_name_H-M   'P 1'
_cell_length_a   4.45796600
_cell_length_b   11.95669641
_cell_length_c   12.32530200
_cell_angle_alpha   89.55205441
_cell_angle_beta   90.00000000
_cell_angle_gamma   90.00000000
_symmetry_Int_Tables_number   1
_chemical_formula_structural   Pr4Sm(ThTe4)3
_chemical_formula_sum   'Pr4 Sm1 Th3 Te12'
_cell_volume   656.94989992
_cell_formula_units_Z   1
loop_
 _symmetry_equiv_pos_site_id
 _symmetry_equiv_pos_as_xyz
  1  'x, y, z'
loop_
 _atom_site_type_symbol
 _atom_site_label
 _atom_site_symmetry_multiplicity
 _atom_site_fract_x
 _atom_site_fract_y
 _atom_site_fract_z
 _atom_site_occupancy
  Pr  Pr0  1  0.250000  0.497544  0.699826  1
  Pr  Pr1  1  0.750000  0.501835  0.303997  1
  Pr  Pr2  1  0.750000  0.001463  0.801083  1
  Pr  Pr3  1  0.250000  0.000967  0.197395  1
  Sm  Sm4  1  0.250000  0.309565  0.019579  1
  Th  Th5  1  0.250000  0.189142  0.519051  1
  Th  Th6  1  0.750000  0.811018  0.480652  1
  Th  Th7  1  0.750000  0.688781  0.980782  1
  Te  Te8  1  0.250000  0.875102  0.953768  1
  Te  Te9  1  0.750000  0.124500  0.043043  1
  Te  Te10  1  0.750000  0.375857  0.546000  1
  Te  Te11  1  0.250000  0.624238  0.455240  1
  Te  Te12  1  0.250000  0.204090  0.774878  1
  Te  Te13  1  0.750000  0.796863  0.223295  1
  Te  Te14  1  0.750000  0.703072  0.723179  1
  Te  Te15  1  0.250000  0.298249  0.277083  1
  Te  Te16  1  0.250000  0.555516  0.117278  1
  Te  Te17  1  0.750000  0.442891  0.885271  1
  Te  Te18  1  0.750000  0.057545  0.382210  1
  Te  Te19  1  0.250000  0.941760  0.616391  1
