# generated using pymatgen
data_Ac2(AlAu2)3
_symmetry_space_group_name_H-M   'P 1'
_cell_length_a   8.87917260
_cell_length_b   8.87917285
_cell_length_c   8.87917453
_cell_angle_alpha   58.26974537
_cell_angle_beta   58.26974266
_cell_angle_gamma   58.26974570
_symmetry_Int_Tables_number   1
_chemical_formula_structural   Ac2(AlAu2)3
_chemical_formula_sum   'Ac4 Al6 Au12'
_cell_volume   475.37942316
_cell_formula_units_Z   2
loop_
 _symmetry_equiv_pos_site_id
 _symmetry_equiv_pos_as_xyz
  1  'x, y, z'
loop_
 _atom_site_type_symbol
 _atom_site_label
 _atom_site_symmetry_multiplicity
 _atom_site_fract_x
 _atom_site_fract_y
 _atom_site_fract_z
 _atom_site_occupancy
  Ac  Ac0  1  0.908164  0.908164  0.908164  1
  Ac  Ac1  1  0.408164  0.408164  0.408164  1
  Ac  Ac2  1  0.091836  0.091836  0.091836  1
  Ac  Ac3  1  0.591836  0.591836  0.591836  1
  Al  Al4  1  0.560859  0.750000  0.939141  1
  Al  Al5  1  0.939141  0.560859  0.750000  1
  Al  Al6  1  0.750000  0.939141  0.560859  1
  Al  Al7  1  0.439141  0.250000  0.060859  1
  Al  Al8  1  0.060859  0.439141  0.250000  1
  Al  Al9  1  0.250000  0.060859  0.439141  1
  Au  Au10  1  0.475635  0.866091  0.202434  1
  Au  Au11  1  0.202434  0.475635  0.866091  1
  Au  Au12  1  0.866091  0.202434  0.475635  1
  Au  Au13  1  0.702434  0.366091  0.975635  1
  Au  Au14  1  0.975635  0.702434  0.366091  1
  Au  Au15  1  0.366091  0.975635  0.702434  1
  Au  Au16  1  0.524365  0.133909  0.797566  1
  Au  Au17  1  0.797566  0.524365  0.133909  1
  Au  Au18  1  0.133909  0.797566  0.524365  1
  Au  Au19  1  0.297566  0.633909  0.024365  1
  Au  Au20  1  0.024365  0.297566  0.633909  1
  Au  Au21  1  0.633909  0.024365  0.297566  1
