# generated using pymatgen
data_LaYb7(Si3Pt)4
_symmetry_space_group_name_H-M   'P 1'
_cell_length_a   8.22174855
_cell_length_b   8.24344184
_cell_length_c   8.40622700
_cell_angle_alpha   90.00000000
_cell_angle_beta   90.00000000
_cell_angle_gamma   120.08731984
_symmetry_Int_Tables_number   1
_chemical_formula_structural   LaYb7(Si3Pt)4
_chemical_formula_sum   'La1 Yb7 Si12 Pt4'
_cell_volume   492.97138183
_cell_formula_units_Z   1
loop_
 _symmetry_equiv_pos_site_id
 _symmetry_equiv_pos_as_xyz
  1  'x, y, z'
loop_
 _atom_site_type_symbol
 _atom_site_label
 _atom_site_symmetry_multiplicity
 _atom_site_fract_x
 _atom_site_fract_y
 _atom_site_fract_z
 _atom_site_occupancy
  La  La0  1  0.001083  0.500540  0.750000  1
  Yb  Yb1  1  0.000032  0.000016  0.250000  1
  Yb  Yb2  1  0.000065  0.000032  0.750000  1
  Yb  Yb3  1  0.500477  0.499530  0.250000  1
  Yb  Yb4  1  0.500477  0.000949  0.250000  1
  Yb  Yb5  1  0.998978  0.499490  0.250000  1
  Yb  Yb6  1  0.499743  0.500451  0.750000  1
  Yb  Yb7  1  0.499743  0.999290  0.750000  1
  Si  Si8  1  0.165979  0.836712  0.497331  1
  Si  Si9  1  0.165979  0.329268  0.497331  1
  Si  Si10  1  0.668583  0.834292  0.500115  1
  Si  Si11  1  0.834014  0.163282  0.497177  1
  Si  Si12  1  0.834014  0.670731  0.497177  1
  Si  Si13  1  0.331277  0.165638  0.499904  1
  Si  Si14  1  0.834014  0.163282  0.002823  1
  Si  Si15  1  0.834014  0.670731  0.002823  1
  Si  Si16  1  0.331277  0.165638  0.000096  1
  Si  Si17  1  0.165979  0.836712  0.002669  1
  Si  Si18  1  0.165979  0.329268  0.002669  1
  Si  Si19  1  0.668583  0.834292  0.999885  1
  Pt  Pt20  1  0.333260  0.666630  0.494785  1
  Pt  Pt21  1  0.666595  0.333297  0.497500  1
  Pt  Pt22  1  0.666595  0.333297  0.002500  1
  Pt  Pt23  1  0.333260  0.666630  0.005215  1
