# generated using pymatgen
data_HoLu15(In3Pt)2
_symmetry_space_group_name_H-M   'P 1'
_cell_length_a   10.30663800
_cell_length_b   10.30663721
_cell_length_c   6.85620500
_cell_angle_alpha   90.00000000
_cell_angle_beta   90.00000000
_cell_angle_gamma   119.99999612
_symmetry_Int_Tables_number   1
_chemical_formula_structural   HoLu15(In3Pt)2
_chemical_formula_sum   'Ho1 Lu15 In6 Pt2'
_cell_volume   630.73721336
_cell_formula_units_Z   1
loop_
 _symmetry_equiv_pos_site_id
 _symmetry_equiv_pos_as_xyz
  1  'x, y, z'
loop_
 _atom_site_type_symbol
 _atom_site_label
 _atom_site_symmetry_multiplicity
 _atom_site_fract_x
 _atom_site_fract_y
 _atom_site_fract_z
 _atom_site_occupancy
  Ho  Ho0  1  0.000000  0.000000  0.989331  1
  Lu  Lu1  1  0.530711  0.061420  0.508787  1
  Lu  Lu2  1  0.938580  0.469289  0.508787  1
  Lu  Lu3  1  0.530711  0.469289  0.508787  1
  Lu  Lu4  1  0.469275  0.938552  0.008806  1
  Lu  Lu5  1  0.061448  0.530725  0.008806  1
  Lu  Lu6  1  0.469275  0.530725  0.008806  1
  Lu  Lu7  1  0.175640  0.351280  0.714928  1
  Lu  Lu8  1  0.648720  0.824360  0.714928  1
  Lu  Lu9  1  0.175640  0.824360  0.714928  1
  Lu  Lu10  1  0.824307  0.648614  0.215665  1
  Lu  Lu11  1  0.351386  0.175693  0.215665  1
  Lu  Lu12  1  0.824307  0.175693  0.215665  1
  Lu  Lu13  1  0.666667  0.333333  0.883308  1
  Lu  Lu14  1  0.333333  0.666667  0.383494  1
  Lu  Lu15  1  0.000000  0.000000  0.489236  1
  In  In16  1  0.837252  0.674505  0.749968  1
  In  In17  1  0.325495  0.162748  0.749968  1
  In  In18  1  0.837252  0.162748  0.749968  1
  In  In19  1  0.162758  0.325516  0.251376  1
  In  In20  1  0.674484  0.837242  0.251376  1
  In  In21  1  0.162758  0.837242  0.251376  1
  Pt  Pt22  1  0.666667  0.333333  0.281595  1
  Pt  Pt23  1  0.333333  0.666667  0.782492  1
