# generated using pymatgen
data_Tb3Y10Lu7Bi12
_symmetry_space_group_name_H-M   'P 1'
_cell_length_a   8.21774245
_cell_length_b   9.47275833
_cell_length_c   12.03776502
_cell_angle_alpha   89.99510961
_cell_angle_beta   90.10349174
_cell_angle_gamma   89.96421094
_symmetry_Int_Tables_number   1
_chemical_formula_structural   Tb3Y10Lu7Bi12
_chemical_formula_sum   'Tb3 Y10 Lu7 Bi12'
_cell_volume   937.07435024
_cell_formula_units_Z   1
loop_
 _symmetry_equiv_pos_site_id
 _symmetry_equiv_pos_as_xyz
  1  'x, y, z'
loop_
 _atom_site_type_symbol
 _atom_site_label
 _atom_site_symmetry_multiplicity
 _atom_site_fract_x
 _atom_site_fract_y
 _atom_site_fract_z
 _atom_site_occupancy
  Tb  Tb0  1  0.185980  0.750337  0.719306  1
  Tb  Tb1  1  0.686340  0.750740  0.781388  1
  Tb  Tb2  1  0.813860  0.249538  0.281264  1
  Y  Y3  1  0.314033  0.250351  0.218755  1
  Y  Y4  1  0.192502  0.563783  0.440700  1
  Y  Y5  1  0.693344  0.562312  0.059196  1
  Y  Y6  1  0.193697  0.937268  0.440176  1
  Y  Y7  1  0.306433  0.062336  0.940634  1
  Y  Y8  1  0.806845  0.437438  0.559413  1
  Y  Y9  1  0.356528  0.752068  0.215663  1
  Y  Y10  1  0.853157  0.750919  0.283604  1
  Y  Y11  1  0.645307  0.250613  0.783911  1
  Y  Y12  1  0.146013  0.250508  0.716391  1
  Lu  Lu13  1  0.024579  0.750354  0.989149  1
  Lu  Lu14  1  0.526023  0.750509  0.511022  1
  Lu  Lu15  1  0.975325  0.250699  0.010608  1
  Lu  Lu16  1  0.475863  0.249727  0.489132  1
  Lu  Lu17  1  0.306905  0.431997  0.940587  1
  Lu  Lu18  1  0.806215  0.067417  0.559744  1
  Lu  Lu19  1  0.693020  0.932157  0.059018  1
  Bi  Bi20  1  0.434715  0.003650  0.671698  1
  Bi  Bi21  1  0.934311  0.496603  0.828582  1
  Bi  Bi22  1  0.565958  0.503955  0.328060  1
  Bi  Bi23  1  0.065524  0.996799  0.171487  1
  Bi  Bi24  1  0.566566  0.996593  0.328601  1
  Bi  Bi25  1  0.066508  0.504383  0.171011  1
  Bi  Bi26  1  0.433300  0.496616  0.671576  1
  Bi  Bi27  1  0.933430  0.004493  0.828710  1
  Bi  Bi28  1  0.405276  0.745727  0.957442  1
  Bi  Bi29  1  0.905647  0.754375  0.542234  1
  Bi  Bi30  1  0.594045  0.246341  0.042199  1
  Bi  Bi31  1  0.092753  0.249394  0.458742  1
