# generated using pymatgen
data_La3Ni7(BIr3)2
_symmetry_space_group_name_H-M   'P 1'
_cell_length_a   5.28135289
_cell_length_b   5.33967644
_cell_length_c   11.17188000
_cell_angle_alpha   90.00000000
_cell_angle_beta   90.00000000
_cell_angle_gamma   120.36599589
_symmetry_Int_Tables_number   1
_chemical_formula_structural   La3Ni7(BIr3)2
_chemical_formula_sum   'La3 Ni7 B2 Ir6'
_cell_volume   271.83382359
_cell_formula_units_Z   1
loop_
 _symmetry_equiv_pos_site_id
 _symmetry_equiv_pos_as_xyz
  1  'x, y, z'
loop_
 _atom_site_type_symbol
 _atom_site_label
 _atom_site_symmetry_multiplicity
 _atom_site_fract_x
 _atom_site_fract_y
 _atom_site_fract_z
 _atom_site_occupancy
  La  La0  1  0.000000  0.000000  0.670743  1
  La  La1  1  0.000000  0.000000  0.325154  1
  La  La2  1  0.000000  0.000000  0.996743  1
  Ni  Ni3  1  0.314891  0.657446  0.319112  1
  Ni  Ni4  1  0.685109  0.342554  0.319112  1
  Ni  Ni5  1  0.644146  0.322072  0.684546  1
  Ni  Ni6  1  0.355854  0.677928  0.684546  1
  Ni  Ni7  1  0.000000  0.500000  0.130576  1
  Ni  Ni8  1  0.500000  0.000000  0.868628  1
  Ni  Ni9  1  0.500000  0.500000  0.868628  1
  B  B10  1  0.667987  0.333993  0.997577  1
  B  B11  1  0.332013  0.666007  0.997577  1
  Ir  Ir12  1  0.000000  0.500000  0.862869  1
  Ir  Ir13  1  0.500000  0.000000  0.499540  1
  Ir  Ir14  1  0.500000  0.500000  0.499540  1
  Ir  Ir15  1  0.000000  0.500000  0.505916  1
  Ir  Ir16  1  0.500000  0.000000  0.134595  1
  Ir  Ir17  1  0.500000  0.500000  0.134595  1
