# generated using pymatgen
data_Ca5Ge2Pb
_symmetry_space_group_name_H-M   'P 1'
_cell_length_a   9.39251043
_cell_length_b   9.39251118
_cell_length_c   9.39250900
_cell_angle_alpha   130.70669041
_cell_angle_beta   130.70669433
_cell_angle_gamma   72.27949912
_symmetry_Int_Tables_number   1
_chemical_formula_structural   Ca5Ge2Pb
_chemical_formula_sum   'Ca10 Ge4 Pb2'
_cell_volume   465.48634594
_cell_formula_units_Z   2
loop_
 _symmetry_equiv_pos_site_id
 _symmetry_equiv_pos_as_xyz
  1  'x, y, z'
loop_
 _atom_site_type_symbol
 _atom_site_label
 _atom_site_symmetry_multiplicity
 _atom_site_fract_x
 _atom_site_fract_y
 _atom_site_fract_z
 _atom_site_occupancy
  Ca  Ca0  1  0.500000  0.500000  0.000000  1
  Ca  Ca1  1  0.000000  0.000000  0.000000  1
  Ca  Ca2  1  0.311967  0.811964  0.852409  1
  Ca  Ca3  1  0.811541  0.959901  0.500003  1
  Ca  Ca4  1  0.459904  0.311546  0.500010  1
  Ca  Ca5  1  0.188459  0.040099  0.499997  1
  Ca  Ca6  1  0.540096  0.688454  0.499990  1
  Ca  Ca7  1  0.040442  0.540439  0.852415  1
  Ca  Ca8  1  0.688033  0.188036  0.147591  1
  Ca  Ca9  1  0.959558  0.459561  0.147585  1
  Ge  Ge10  1  0.381319  0.881317  0.262634  1
  Ge  Ge11  1  0.881646  0.618350  0.499996  1
  Ge  Ge12  1  0.118354  0.381650  0.500004  1
  Ge  Ge13  1  0.618681  0.118683  0.737366  1
  Pb  Pb14  1  0.750005  0.749994  0.999999  1
  Pb  Pb15  1  0.249995  0.250006  0.000001  1
