# generated using pymatgen
data_Tb12Sm8Si15Pt
_symmetry_space_group_name_H-M   'P 1'
_cell_length_a   7.45732500
_cell_length_b   7.81383179
_cell_length_c   14.77080200
_cell_angle_alpha   90.00000000
_cell_angle_beta   90.00000000
_cell_angle_gamma   89.96124715
_symmetry_Int_Tables_number   1
_chemical_formula_structural   Tb12Sm8Si15Pt
_chemical_formula_sum   'Tb12 Sm8 Si15 Pt1'
_cell_volume   860.69861777
_cell_formula_units_Z   1
loop_
 _symmetry_equiv_pos_site_id
 _symmetry_equiv_pos_as_xyz
  1  'x, y, z'
loop_
 _atom_site_type_symbol
 _atom_site_label
 _atom_site_symmetry_multiplicity
 _atom_site_fract_x
 _atom_site_fract_y
 _atom_site_fract_z
 _atom_site_occupancy
  Tb  Tb0  1  0.148757  0.518058  0.750000  1
  Tb  Tb1  1  0.846952  0.486189  0.250000  1
  Tb  Tb2  1  0.347343  0.015784  0.250000  1
  Tb  Tb3  1  0.659412  0.987482  0.750000  1
  Tb  Tb4  1  0.315177  0.175704  0.624446  1
  Tb  Tb5  1  0.680718  0.822495  0.376145  1
  Tb  Tb6  1  0.179331  0.680834  0.376496  1
  Tb  Tb7  1  0.680718  0.822495  0.123855  1
  Tb  Tb8  1  0.823382  0.319499  0.623959  1
  Tb  Tb9  1  0.315177  0.175704  0.875554  1
  Tb  Tb10  1  0.823382  0.319499  0.876041  1
  Tb  Tb11  1  0.179331  0.680834  0.123504  1
  Sm  Sm12  1  0.022693  0.183134  0.096984  1
  Sm  Sm13  1  0.980090  0.820130  0.906064  1
  Sm  Sm14  1  0.477987  0.680319  0.904897  1
  Sm  Sm15  1  0.980090  0.820130  0.593936  1
  Sm  Sm16  1  0.522200  0.318923  0.096667  1
  Sm  Sm17  1  0.022693  0.183134  0.403016  1
  Sm  Sm18  1  0.522200  0.318923  0.403333  1
  Sm  Sm19  1  0.477987  0.680319  0.595103  1
  Si  Si20  1  0.974084  0.895913  0.250000  1
  Si  Si21  1  0.474220  0.607773  0.250000  1
  Si  Si22  1  0.523865  0.395274  0.750000  1
  Si  Si23  1  0.274708  0.870173  0.750000  1
  Si  Si24  1  0.729744  0.124926  0.250000  1
  Si  Si25  1  0.229656  0.376418  0.250000  1
  Si  Si26  1  0.762696  0.620467  0.750000  1
  Si  Si27  1  0.148835  0.471645  0.538588  1
  Si  Si28  1  0.852572  0.530210  0.460876  1
  Si  Si29  1  0.353416  0.970694  0.460738  1
  Si  Si30  1  0.852572  0.530210  0.039124  1
  Si  Si31  1  0.647456  0.029327  0.539021  1
  Si  Si32  1  0.148835  0.471645  0.961412  1
  Si  Si33  1  0.647456  0.029327  0.960979  1
  Si  Si34  1  0.353416  0.970694  0.039262  1
  Pt  Pt35  1  0.020846  0.095714  0.750000  1
