# generated using pymatgen
data_Er8HfSi16Tc11
_symmetry_space_group_name_H-M   'P 1'
_cell_length_a   6.80706721
_cell_length_b   6.82849435
_cell_length_c   12.68598017
_cell_angle_alpha   90.00508497
_cell_angle_beta   90.35811236
_cell_angle_gamma   90.34412356
_symmetry_Int_Tables_number   1
_chemical_formula_structural   Er8HfSi16Tc11
_chemical_formula_sum   'Er8 Hf1 Si16 Tc11'
_cell_volume   589.64782637
_cell_formula_units_Z   1
loop_
 _symmetry_equiv_pos_site_id
 _symmetry_equiv_pos_as_xyz
  1  'x, y, z'
loop_
 _atom_site_type_symbol
 _atom_site_label
 _atom_site_symmetry_multiplicity
 _atom_site_fract_x
 _atom_site_fract_y
 _atom_site_fract_z
 _atom_site_occupancy
  Er  Er0  1  0.335371  0.996251  0.465935  1
  Er  Er1  1  0.502193  0.834834  0.720100  1
  Er  Er2  1  0.492507  0.158751  0.218147  1
  Er  Er3  1  0.835241  0.500299  0.277648  1
  Er  Er4  1  0.160484  0.491584  0.784902  1
  Er  Er5  1  0.657480  0.002403  0.971753  1
  Er  Er6  1  0.998099  0.341281  0.530461  1
  Er  Er7  1  0.001039  0.658271  0.031293  1
  Hf  Hf8  1  0.995200  0.831586  0.622077  1
  Si  Si9  1  0.207873  0.127444  0.685389  1
  Si  Si10  1  0.384453  0.690779  0.939002  1
  Si  Si11  1  0.617573  0.310652  0.436779  1
  Si  Si12  1  0.689661  0.383407  0.064576  1
  Si  Si13  1  0.315264  0.617456  0.559159  1
  Si  Si14  1  0.807414  0.883694  0.187745  1
  Si  Si15  1  0.118413  0.196892  0.313775  1
  Si  Si16  1  0.883391  0.800567  0.821385  1
  Si  Si17  1  0.262595  0.981783  0.060958  1
  Si  Si18  1  0.529638  0.781523  0.314460  1
  Si  Si19  1  0.477891  0.219682  0.813451  1
  Si  Si20  1  0.778455  0.517708  0.691462  1
  Si  Si21  1  0.221556  0.475313  0.185098  1
  Si  Si22  1  0.702640  0.047157  0.562641  1
  Si  Si23  1  0.981485  0.260926  0.939705  1
  Si  Si24  1  0.034981  0.718667  0.424147  1
  Tc  Tc25  1  0.329453  0.332638  0.001846  1
  Tc  Tc26  1  0.166327  0.832333  0.246406  1
  Tc  Tc27  1  0.835237  0.161977  0.752115  1
  Tc  Tc28  1  0.671988  0.667118  0.498505  1
  Tc  Tc29  1  0.191934  0.970707  0.868059  1
  Tc  Tc30  1  0.518485  0.678362  0.124636  1
  Tc  Tc31  1  0.495014  0.324401  0.623176  1
  Tc  Tc32  1  0.676909  0.509157  0.881935  1
  Tc  Tc33  1  0.327446  0.481715  0.371829  1
  Tc  Tc34  1  0.826353  0.026095  0.375728  1
  Tc  Tc35  1  0.969961  0.186586  0.133718  1
