# generated using pymatgen
data_Zr8Fe2RhAu
_symmetry_space_group_name_H-M   'P 1'
_cell_length_a   8.74319499
_cell_length_b   8.74319548
_cell_length_c   8.73527100
_cell_angle_alpha   60.02998897
_cell_angle_beta   60.02998712
_cell_angle_gamma   60.28299453
_symmetry_Int_Tables_number   1
_chemical_formula_structural   Zr8Fe2RhAu
_chemical_formula_sum   'Zr16 Fe4 Rh2 Au2'
_cell_volume   473.39048613
_cell_formula_units_Z   2
loop_
 _symmetry_equiv_pos_site_id
 _symmetry_equiv_pos_as_xyz
  1  'x, y, z'
loop_
 _atom_site_type_symbol
 _atom_site_label
 _atom_site_symmetry_multiplicity
 _atom_site_fract_x
 _atom_site_fract_y
 _atom_site_fract_z
 _atom_site_occupancy
  Zr  Zr0  1  0.057662  0.647001  0.647669  1
  Zr  Zr1  1  0.647001  0.057662  0.647669  1
  Zr  Zr2  1  0.647112  0.647112  0.057804  1
  Zr  Zr3  1  0.647112  0.647112  0.647972  1
  Zr  Zr4  1  0.810202  0.810202  0.189798  1
  Zr  Zr5  1  0.192099  0.192099  0.807901  1
  Zr  Zr6  1  0.809355  0.190344  0.809699  1
  Zr  Zr7  1  0.190344  0.809355  0.190602  1
  Zr  Zr8  1  0.190344  0.809355  0.809699  1
  Zr  Zr9  1  0.809355  0.190344  0.190602  1
  Zr  Zr10  1  0.440738  0.440738  0.059262  1
  Zr  Zr11  1  0.062324  0.062324  0.437676  1
  Zr  Zr12  1  0.440562  0.066782  0.438107  1
  Zr  Zr13  1  0.066782  0.440562  0.054549  1
  Zr  Zr14  1  0.066782  0.440562  0.438107  1
  Zr  Zr15  1  0.440562  0.066782  0.054549  1
  Fe  Fe16  1  0.424868  0.857909  0.858611  1
  Fe  Fe17  1  0.857909  0.424868  0.858611  1
  Fe  Fe18  1  0.858206  0.858206  0.424740  1
  Fe  Fe19  1  0.858206  0.858206  0.858847  1
  Rh  Rh20  1  0.408875  0.408875  0.768572  1
  Rh  Rh21  1  0.408875  0.408875  0.413680  1
  Au  Au22  1  0.751168  0.413556  0.417638  1
  Au  Au23  1  0.413556  0.751168  0.417638  1
