# generated using pymatgen
data_Pr2U(AlIr)3
_symmetry_space_group_name_H-M   'P 1'
_cell_length_a   7.22396494
_cell_length_b   7.29065847
_cell_length_c   4.03177800
_cell_angle_alpha   90.00000000
_cell_angle_beta   90.00000000
_cell_angle_gamma   120.30588084
_symmetry_Int_Tables_number   1
_chemical_formula_structural   Pr2U(AlIr)3
_chemical_formula_sum   'Pr2 U1 Al3 Ir3'
_cell_volume   183.32544564
_cell_formula_units_Z   1
loop_
 _symmetry_equiv_pos_site_id
 _symmetry_equiv_pos_as_xyz
  1  'x, y, z'
loop_
 _atom_site_type_symbol
 _atom_site_label
 _atom_site_symmetry_multiplicity
 _atom_site_fract_x
 _atom_site_fract_y
 _atom_site_fract_z
 _atom_site_occupancy
  Pr  Pr0  1  0.416291  0.419796  0.500000  1
  Pr  Pr1  1  0.583709  0.003505  0.500000  1
  U  U2  1  0.000000  0.580655  0.500000  1
  Al  Al3  1  0.768416  0.763311  0.000000  1
  Al  Al4  1  0.231584  0.994894  0.000000  1
  Al  Al5  1  0.000000  0.227134  0.000000  1
  Ir  Ir6  1  0.715554  0.373465  0.000000  1
  Ir  Ir7  1  0.284446  0.657912  0.000000  1
  Ir  Ir8  1  0.000000  0.979328  0.500000  1
