# generated using pymatgen
data_CeEr5Al24Ru7Au
_symmetry_space_group_name_H-M   'P 1'
_cell_length_a   8.82850823
_cell_length_b   8.82680276
_cell_length_c   9.53662324
_cell_angle_alpha   89.85841290
_cell_angle_beta   90.12897799
_cell_angle_gamma   119.86204081
_symmetry_Int_Tables_number   1
_chemical_formula_structural   CeEr5Al24Ru7Au
_chemical_formula_sum   'Ce1 Er5 Al24 Ru7 Au1'
_cell_volume   644.49038700
_cell_formula_units_Z   1
loop_
 _symmetry_equiv_pos_site_id
 _symmetry_equiv_pos_as_xyz
  1  'x, y, z'
loop_
 _atom_site_type_symbol
 _atom_site_label
 _atom_site_symmetry_multiplicity
 _atom_site_fract_x
 _atom_site_fract_y
 _atom_site_fract_z
 _atom_site_occupancy
  Ce  Ce0  1  0.190826  0.385616  0.250737  1
  Er  Er1  1  0.808725  0.614837  0.749865  1
  Er  Er2  1  0.194282  0.804085  0.253421  1
  Er  Er3  1  0.611792  0.806639  0.250537  1
  Er  Er4  1  0.387633  0.191072  0.749143  1
  Er  Er5  1  0.804919  0.194771  0.745625  1
  Al  Al6  1  0.334904  0.669668  0.483768  1
  Al  Al7  1  0.672726  0.329565  0.974887  1
  Al  Al8  1  0.666998  0.334147  0.518330  1
  Al  Al9  1  0.330233  0.674633  0.024336  1
  Al  Al10  1  0.162269  0.323518  0.579670  1
  Al  Al11  1  0.676367  0.837428  0.578463  1
  Al  Al12  1  0.161941  0.836824  0.579685  1
  Al  Al13  1  0.835992  0.161912  0.077632  1
  Al  Al14  1  0.835100  0.161408  0.421381  1
  Al  Al15  1  0.848995  0.678222  0.078687  1
  Al  Al16  1  0.321779  0.150692  0.079367  1
  Al  Al17  1  0.678650  0.849297  0.919333  1
  Al  Al18  1  0.151413  0.321654  0.919168  1
  Al  Al19  1  0.837983  0.675977  0.423450  1
  Al  Al20  1  0.997958  0.998113  0.250360  1
  Al  Al21  1  0.000902  0.999959  0.749983  1
  Al  Al22  1  0.560117  0.120657  0.248288  1
  Al  Al23  1  0.437556  0.563217  0.744200  1
  Al  Al24  1  0.120780  0.560266  0.751256  1
  Al  Al25  1  0.875031  0.438985  0.248447  1
  Al  Al26  1  0.564893  0.436122  0.255415  1
  Al  Al27  1  0.439338  0.878040  0.751517  1
  Al  Al28  1  0.162357  0.837135  0.920896  1
  Al  Al29  1  0.324826  0.161162  0.423178  1
  Ru  Ru30  1  0.999918  0.999984  0.500364  1
  Ru  Ru31  1  0.999787  0.999718  0.000059  1
  Ru  Ru32  1  0.500794  0.001504  0.500926  1
  Ru  Ru33  1  0.001132  0.500413  0.000919  1
  Ru  Ru34  1  0.000562  0.499989  0.498865  1
  Ru  Ru35  1  0.499505  0.499978  0.498751  1
  Ru  Ru36  1  0.501044  0.002203  0.998710  1
  Au  Au37  1  0.499973  0.500591  0.000383  1
