# generated using pymatgen
data_Ho3Fe8Co
_symmetry_space_group_name_H-M   'P 1'
_cell_length_a   8.64790293
_cell_length_b   8.64790327
_cell_length_c   8.64790370
_cell_angle_alpha   34.22249016
_cell_angle_beta   34.22248900
_cell_angle_gamma   34.22248813
_symmetry_Int_Tables_number   1
_chemical_formula_structural   Ho3Fe8Co
_chemical_formula_sum   'Ho3 Fe8 Co1'
_cell_volume   182.41380353
_cell_formula_units_Z   1
loop_
 _symmetry_equiv_pos_site_id
 _symmetry_equiv_pos_as_xyz
  1  'x, y, z'
loop_
 _atom_site_type_symbol
 _atom_site_label
 _atom_site_symmetry_multiplicity
 _atom_site_fract_x
 _atom_site_fract_y
 _atom_site_fract_z
 _atom_site_occupancy
  Ho  Ho0  1  0.000000  0.000000  0.000000  1
  Ho  Ho1  1  0.141905  0.141905  0.141905  1
  Ho  Ho2  1  0.858095  0.858095  0.858095  1
  Fe  Fe3  1  0.332644  0.332644  0.332644  1
  Fe  Fe4  1  0.667356  0.667356  0.667356  1
  Fe  Fe5  1  0.082317  0.581423  0.581423  1
  Fe  Fe6  1  0.581423  0.581423  0.082317  1
  Fe  Fe7  1  0.581423  0.082317  0.581423  1
  Fe  Fe8  1  0.418577  0.917683  0.418577  1
  Fe  Fe9  1  0.917683  0.418577  0.418577  1
  Fe  Fe10  1  0.418577  0.418577  0.917683  1
  Co  Co11  1  0.500000  0.500000  0.500000  1
