# generated using pymatgen
data_Ce4Zn3Au5
_symmetry_space_group_name_H-M   'P 1'
_cell_length_a   4.70624400
_cell_length_b   7.04295437
_cell_length_c   8.16039600
_cell_angle_alpha   89.78764662
_cell_angle_beta   90.00000000
_cell_angle_gamma   90.00000000
_symmetry_Int_Tables_number   1
_chemical_formula_structural   Ce4Zn3Au5
_chemical_formula_sum   'Ce4 Zn3 Au5'
_cell_volume   270.48149997
_cell_formula_units_Z   1
loop_
 _symmetry_equiv_pos_site_id
 _symmetry_equiv_pos_as_xyz
  1  'x, y, z'
loop_
 _atom_site_type_symbol
 _atom_site_label
 _atom_site_symmetry_multiplicity
 _atom_site_fract_x
 _atom_site_fract_y
 _atom_site_fract_z
 _atom_site_occupancy
  Ce  Ce0  1  0.500000  0.502188  0.770644  1
  Ce  Ce1  1  0.500000  0.000963  0.735961  1
  Ce  Ce2  1  0.000000  0.490677  0.230215  1
  Ce  Ce3  1  0.000000  0.002372  0.261900  1
  Zn  Zn4  1  0.500000  0.718953  0.417778  1
  Zn  Zn5  1  0.000000  0.776936  0.917376  1
  Zn  Zn6  1  0.000000  0.282410  0.578221  1
  Au  Au7  1  0.500000  0.760778  0.085830  1
  Au  Au8  1  0.500000  0.269808  0.432496  1
  Au  Au9  1  0.000000  0.230074  0.897060  1
  Au  Au10  1  0.000000  0.734051  0.584268  1
  Au  Au11  1  0.500000  0.230791  0.088251  1
