# generated using pymatgen
data_Tb3GaGeRuRh
_symmetry_space_group_name_H-M   'P 1'
_cell_length_a   5.53494357
_cell_length_b   7.87771866
_cell_length_c   13.60439711
_cell_angle_alpha   90.02094269
_cell_angle_beta   90.24923204
_cell_angle_gamma   90.26700536
_symmetry_Int_Tables_number   1
_chemical_formula_structural   Tb3GaGeRuRh
_chemical_formula_sum   'Tb12 Ga4 Ge4 Ru4 Rh4'
_cell_volume   593.17673280
_cell_formula_units_Z   4
loop_
 _symmetry_equiv_pos_site_id
 _symmetry_equiv_pos_as_xyz
  1  'x, y, z'
loop_
 _atom_site_type_symbol
 _atom_site_label
 _atom_site_symmetry_multiplicity
 _atom_site_fract_x
 _atom_site_fract_y
 _atom_site_fract_z
 _atom_site_occupancy
  Tb  Tb0  1  0.631590  0.264829  0.251819  1
  Tb  Tb1  1  0.367448  0.739901  0.749495  1
  Tb  Tb2  1  0.366401  0.765929  0.248123  1
  Tb  Tb3  1  0.632983  0.230224  0.750257  1
  Tb  Tb4  1  0.151230  0.396326  0.099503  1
  Tb  Tb5  1  0.848636  0.602719  0.900311  1
  Tb  Tb6  1  0.848153  0.601142  0.598504  1
  Tb  Tb7  1  0.847837  0.897268  0.402221  1
  Tb  Tb8  1  0.149495  0.405523  0.398997  1
  Tb  Tb9  1  0.151626  0.095708  0.600169  1
  Tb  Tb10  1  0.152612  0.094689  0.900720  1
  Tb  Tb11  1  0.848038  0.906375  0.099144  1
  Ga  Ga12  1  0.636353  0.248399  0.999333  1
  Ga  Ga13  1  0.363722  0.751412  0.000380  1
  Ga  Ga14  1  0.366880  0.749333  0.499487  1
  Ga  Ga15  1  0.638445  0.250673  0.500315  1
  Ge  Ge16  1  0.126636  0.115288  0.250886  1
  Ge  Ge17  1  0.871861  0.884910  0.749435  1
  Ge  Ge18  1  0.869862  0.615676  0.249193  1
  Ge  Ge19  1  0.128669  0.384879  0.750473  1
  Ru  Ru20  1  0.356188  0.034375  0.093830  1
  Ru  Ru21  1  0.644952  0.963797  0.907646  1
  Ru  Ru22  1  0.644955  0.968266  0.591447  1
  Ru  Ru23  1  0.642217  0.531220  0.407316  1
  Rh  Rh24  1  0.355302  0.034544  0.407451  1
  Rh  Rh25  1  0.358002  0.465862  0.593945  1
  Rh  Rh26  1  0.357599  0.469367  0.907281  1
  Rh  Rh27  1  0.642310  0.531366  0.092320  1
