# generated using pymatgen
data_Nd4AlPd11Pt
_symmetry_space_group_name_H-M   'P 1'
_cell_length_a   7.44985932
_cell_length_b   7.44985903
_cell_length_c   7.44985960
_cell_angle_alpha   108.72152597
_cell_angle_beta   109.84735944
_cell_angle_gamma   109.84737030
_symmetry_Int_Tables_number   1
_chemical_formula_structural   Nd4AlPd11Pt
_chemical_formula_sum   'Nd4 Al1 Pd11 Pt1'
_cell_volume   318.24869208
_cell_formula_units_Z   1
loop_
 _symmetry_equiv_pos_site_id
 _symmetry_equiv_pos_as_xyz
  1  'x, y, z'
loop_
 _atom_site_type_symbol
 _atom_site_label
 _atom_site_symmetry_multiplicity
 _atom_site_fract_x
 _atom_site_fract_y
 _atom_site_fract_z
 _atom_site_occupancy
  Nd  Nd0  1  0.508870  0.978182  0.978182  1
  Nd  Nd1  1  0.000000  0.978182  0.469311  1
  Nd  Nd2  1  0.491130  0.469311  0.469311  1
  Nd  Nd3  1  0.000000  0.469311  0.978182  1
  Al  Al4  1  0.000000  0.450850  0.450850  1
  Pd  Pd5  1  0.248642  0.964170  0.212812  1
  Pd  Pd6  1  0.000000  0.737423  0.737423  1
  Pd  Pd7  1  0.286809  0.768785  0.481976  1
  Pd  Pd8  1  0.713191  0.481976  0.195166  1
  Pd  Pd9  1  0.500000  0.230130  0.730130  1
  Pd  Pd10  1  0.713191  0.195166  0.481976  1
  Pd  Pd11  1  0.751358  0.715528  0.964170  1
  Pd  Pd12  1  0.751358  0.964170  0.715528  1
  Pd  Pd13  1  0.286809  0.481976  0.768785  1
  Pd  Pd14  1  0.500000  0.730130  0.230130  1
  Pd  Pd15  1  0.248642  0.212812  0.964170  1
  Pt  Pt16  1  0.000000  0.171897  0.171897  1
