# generated using pymatgen
data_Ti6NbSi2B4Mo3
_symmetry_space_group_name_H-M   'P 1'
_cell_length_a   7.18128652
_cell_length_b   7.14348446
_cell_length_c   7.17311352
_cell_angle_alpha   129.73140481
_cell_angle_beta   129.87246251
_cell_angle_gamma   73.60916384
_symmetry_Int_Tables_number   1
_chemical_formula_structural   Ti6NbSi2B4Mo3
_chemical_formula_sum   'Ti6 Nb1 Si2 B4 Mo3'
_cell_volume   212.05399145
_cell_formula_units_Z   1
loop_
 _symmetry_equiv_pos_site_id
 _symmetry_equiv_pos_as_xyz
  1  'x, y, z'
loop_
 _atom_site_type_symbol
 _atom_site_label
 _atom_site_symmetry_multiplicity
 _atom_site_fract_x
 _atom_site_fract_y
 _atom_site_fract_z
 _atom_site_occupancy
  Ti  Ti0  1  0.309706  0.808905  0.852070  1
  Ti  Ti1  1  0.191698  0.039403  0.500000  1
  Ti  Ti2  1  0.539022  0.689878  0.500000  1
  Ti  Ti3  1  0.041973  0.540968  0.848210  1
  Ti  Ti4  1  0.693763  0.192758  0.151790  1
  Ti  Ti5  1  0.957636  0.456834  0.147930  1
  Nb  Nb6  1  0.807185  0.964424  0.500000  1
  Si  Si7  1  0.748890  0.747582  0.993944  1
  Si  Si8  1  0.254945  0.253636  0.006056  1
  B  B9  1  0.386769  0.889267  0.279608  1
  B  B10  1  0.892077  0.609639  0.500000  1
  B  B11  1  0.607162  0.109659  0.720392  1
  B  B12  1  0.111047  0.390454  0.500000  1
  Mo  Mo13  1  0.000833  0.000276  0.001048  1
  Mo  Mo14  1  0.499784  0.499228  0.998952  1
  Mo  Mo15  1  0.457510  0.307088  0.500000  1
