# generated using pymatgen
data_Tb5Nd15(Ir5Ru)2
_symmetry_space_group_name_H-M   'P 1'
_cell_length_a   11.18686574
_cell_length_b   11.17389450
_cell_length_c   6.55185420
_cell_angle_alpha   90.01065703
_cell_angle_beta   89.97398708
_cell_angle_gamma   90.03275299
_symmetry_Int_Tables_number   1
_chemical_formula_structural   Tb5Nd15(Ir5Ru)2
_chemical_formula_sum   'Tb5 Nd15 Ir10 Ru2'
_cell_volume   818.98716164
_cell_formula_units_Z   1
loop_
 _symmetry_equiv_pos_site_id
 _symmetry_equiv_pos_as_xyz
  1  'x, y, z'
loop_
 _atom_site_type_symbol
 _atom_site_label
 _atom_site_symmetry_multiplicity
 _atom_site_fract_x
 _atom_site_fract_y
 _atom_site_fract_z
 _atom_site_occupancy
  Tb  Tb0  1  0.086705  0.292752  0.114058  1
  Tb  Tb1  1  0.000839  0.001614  0.001237  1
  Tb  Tb2  1  0.499788  0.499644  0.001286  1
  Tb  Tb3  1  0.499765  0.499956  0.500594  1
  Tb  Tb4  1  0.999991  0.000250  0.500879  1
  Nd  Nd5  1  0.791403  0.412294  0.117581  1
  Nd  Nd6  1  0.208952  0.585844  0.117828  1
  Nd  Nd7  1  0.913109  0.709560  0.117679  1
  Nd  Nd8  1  0.412217  0.790378  0.382174  1
  Nd  Nd9  1  0.587824  0.209739  0.381967  1
  Nd  Nd10  1  0.289624  0.088722  0.380990  1
  Nd  Nd11  1  0.709609  0.912260  0.382180  1
  Nd  Nd12  1  0.411227  0.209326  0.884708  1
  Nd  Nd13  1  0.709710  0.088260  0.884584  1
  Nd  Nd14  1  0.290602  0.911531  0.884265  1
  Nd  Nd15  1  0.588328  0.790579  0.883863  1
  Nd  Nd16  1  0.087809  0.709325  0.615277  1
  Nd  Nd17  1  0.913123  0.290445  0.615322  1
  Nd  Nd18  1  0.208789  0.411259  0.615267  1
  Nd  Nd19  1  0.790558  0.587593  0.615159  1
  Ir  Ir20  1  0.149870  0.851023  0.250678  1
  Ir  Ir21  1  0.347908  0.349733  0.248536  1
  Ir  Ir22  1  0.649297  0.649913  0.249810  1
  Ir  Ir23  1  0.852103  0.150511  0.249096  1
  Ir  Ir24  1  0.351238  0.648790  0.750452  1
  Ir  Ir25  1  0.148550  0.150298  0.754141  1
  Ir  Ir26  1  0.851211  0.851136  0.749980  1
  Ir  Ir27  1  0.648412  0.350923  0.750100  1
  Ir  Ir28  1  0.500028  0.000100  0.622816  1
  Ir  Ir29  1  0.000882  0.497495  0.879124  1
  Ru  Ru30  1  0.000536  0.498677  0.377484  1
  Ru  Ru31  1  0.499993  0.000069  0.120882  1
