# generated using pymatgen
data_Zr3PdN
_symmetry_space_group_name_H-M   'P 1'
_cell_length_a   3.37355500
_cell_length_b   5.97864501
_cell_length_c   8.97537500
_cell_angle_alpha   90.00000000
_cell_angle_beta   90.00000000
_cell_angle_gamma   106.41254424
_symmetry_Int_Tables_number   1
_chemical_formula_structural   Zr3PdN
_chemical_formula_sum   'Zr6 Pd2 N2'
_cell_volume   173.65046094
_cell_formula_units_Z   2
loop_
 _symmetry_equiv_pos_site_id
 _symmetry_equiv_pos_as_xyz
  1  'x, y, z'
loop_
 _atom_site_type_symbol
 _atom_site_label
 _atom_site_symmetry_multiplicity
 _atom_site_fract_x
 _atom_site_fract_y
 _atom_site_fract_z
 _atom_site_occupancy
  Zr  Zr0  1  0.372210  0.744303  0.946105  1
  Zr  Zr1  1  0.627790  0.255697  0.446105  1
  Zr  Zr2  1  0.627790  0.255697  0.053895  1
  Zr  Zr3  1  0.372210  0.744303  0.553895  1
  Zr  Zr4  1  0.052334  0.105547  0.750000  1
  Zr  Zr5  1  0.947665  0.894453  0.250000  1
  Pd  Pd6  1  0.750657  0.500462  0.750000  1
  Pd  Pd7  1  0.249343  0.499538  0.250000  1
  N  N8  1  0.000000  0.000000  0.000000  1
  N  N9  1  0.000000  0.000000  0.500000  1
