# generated using pymatgen
data_TmU7O16
_symmetry_space_group_name_H-M   'P 1'
_cell_length_a   10.80894801
_cell_length_b   5.39018600
_cell_length_c   5.39121700
_cell_angle_alpha   90.00027636
_cell_angle_beta   89.99651844
_cell_angle_gamma   90.00195697
_symmetry_Int_Tables_number   1
_chemical_formula_structural   TmU7O16
_chemical_formula_sum   'Tm1 U7 O16'
_cell_volume   314.10437939
_cell_formula_units_Z   1
loop_
 _symmetry_equiv_pos_site_id
 _symmetry_equiv_pos_as_xyz
  1  'x, y, z'
loop_
 _atom_site_type_symbol
 _atom_site_label
 _atom_site_symmetry_multiplicity
 _atom_site_fract_x
 _atom_site_fract_y
 _atom_site_fract_z
 _atom_site_occupancy
  Tm  Tm0  1  0.125049  0.499986  0.248094  1
  U  U1  1  0.371771  0.999942  0.248550  1
  U  U2  1  0.878222  0.000021  0.251512  1
  U  U3  1  0.625069  0.499988  0.251919  1
  U  U4  1  0.372036  0.499974  0.748063  1
  U  U5  1  0.124963  0.000019  0.748099  1
  U  U6  1  0.625034  0.000004  0.752033  1
  U  U7  1  0.877953  0.500063  0.751937  1
  O  O8  1  0.999373  0.249304  0.999265  1
  O  O9  1  0.499056  0.750011  0.999752  1
  O  O10  1  0.749998  0.750077  0.003425  1
  O  O11  1  0.750007  0.249624  0.003411  1
  O  O12  1  0.250696  0.249242  0.496584  1
  O  O13  1  0.250672  0.750493  0.496721  1
  O  O14  1  0.000058  0.750538  0.500730  1
  O  O15  1  0.500076  0.249544  0.500699  1
  O  O16  1  0.500050  0.750396  0.500545  1
  O  O17  1  0.000176  0.249472  0.500624  1
  O  O18  1  0.750865  0.249819  0.504083  1
  O  O19  1  0.750700  0.750433  0.504083  1
  O  O20  1  0.249763  0.750693  0.995304  1
  O  O21  1  0.249886  0.249475  0.995230  1
  O  O22  1  0.499215  0.250010  0.999927  1
  O  O23  1  0.999311  0.750871  0.999414  1
