# generated using pymatgen
data_Tb7Hf(B6Os)4
_symmetry_space_group_name_H-M   'P 1'
_cell_length_a   3.65267300
_cell_length_b   9.15113397
_cell_length_c   11.52626547
_cell_angle_alpha   90.09432384
_cell_angle_beta   90.00000000
_cell_angle_gamma   90.00000000
_symmetry_Int_Tables_number   1
_chemical_formula_structural   Tb7Hf(B6Os)4
_chemical_formula_sum   'Tb7 Hf1 B24 Os4'
_cell_volume   385.27757953
_cell_formula_units_Z   1
loop_
 _symmetry_equiv_pos_site_id
 _symmetry_equiv_pos_as_xyz
  1  'x, y, z'
loop_
 _atom_site_type_symbol
 _atom_site_label
 _atom_site_symmetry_multiplicity
 _atom_site_fract_x
 _atom_site_fract_y
 _atom_site_fract_z
 _atom_site_occupancy
  Tb  Tb0  1  0.000000  0.322642  0.413470  1
  Tb  Tb1  1  0.000000  0.677738  0.587157  1
  Tb  Tb2  1  0.000000  0.821229  0.085862  1
  Tb  Tb3  1  0.000000  0.179172  0.913173  1
  Tb  Tb4  1  0.000000  0.944492  0.373591  1
  Tb  Tb5  1  0.000000  0.056246  0.627658  1
  Tb  Tb6  1  0.000000  0.444667  0.125080  1
  Hf  Hf7  1  0.000000  0.556326  0.873077  1
  B  B8  1  0.500000  0.553914  0.432792  1
  B  B9  1  0.500000  0.446866  0.568282  1
  B  B10  1  0.500000  0.053692  0.066403  1
  B  B11  1  0.500000  0.943602  0.933045  1
  B  B12  1  0.500000  0.747287  0.419689  1
  B  B13  1  0.500000  0.253757  0.581263  1
  B  B14  1  0.500000  0.248069  0.079888  1
  B  B15  1  0.500000  0.747839  0.919411  1
  B  B16  1  0.500000  0.790610  0.266107  1
  B  B17  1  0.500000  0.210252  0.734953  1
  B  B18  1  0.500000  0.291022  0.233097  1
  B  B19  1  0.500000  0.705404  0.766713  1
  B  B20  1  0.500000  0.631283  0.185319  1
  B  B21  1  0.500000  0.371865  0.816047  1
  B  B22  1  0.500000  0.132576  0.314167  1
  B  B23  1  0.500000  0.866220  0.686051  1
  B  B24  1  0.500000  0.984087  0.212811  1
  B  B25  1  0.500000  0.014958  0.787868  1
  B  B26  1  0.500000  0.483263  0.286801  1
  B  B27  1  0.500000  0.519298  0.715016  1
  B  B28  1  0.500000  0.604748  0.024476  1
  B  B29  1  0.500000  0.398742  0.967633  1
  B  B30  1  0.500000  0.111330  0.470126  1
  B  B31  1  0.500000  0.888773  0.530975  1
  Os  Os32  1  0.000000  0.637265  0.320222  1
  Os  Os33  1  0.000000  0.365679  0.682304  1
  Os  Os34  1  0.000000  0.138097  0.177232  1
  Os  Os35  1  0.000000  0.856991  0.822241  1
