# generated using pymatgen
data_Rb2EuP2O7
_symmetry_space_group_name_H-M   'P 1'
_cell_length_a   6.00427771
_cell_length_b   6.00427692
_cell_length_c   13.71622001
_cell_angle_alpha   75.49553429
_cell_angle_beta   75.49553795
_cell_angle_gamma   59.55161983
_symmetry_Int_Tables_number   1
_chemical_formula_structural   Rb2EuP2O7
_chemical_formula_sum   'Rb4 Eu2 P4 O14'
_cell_volume   408.15883140
_cell_formula_units_Z   2
loop_
 _symmetry_equiv_pos_site_id
 _symmetry_equiv_pos_as_xyz
  1  'x, y, z'
loop_
 _atom_site_type_symbol
 _atom_site_label
 _atom_site_symmetry_multiplicity
 _atom_site_fract_x
 _atom_site_fract_y
 _atom_site_fract_z
 _atom_site_occupancy
  Rb  Rb0  1  0.867797  0.426769  0.335675  1
  Rb  Rb1  1  0.573231  0.132203  0.164325  1
  Rb  Rb2  1  0.132203  0.573231  0.664325  1
  Rb  Rb3  1  0.426769  0.867797  0.835675  1
  Eu  Eu4  1  0.500000  0.000000  0.500000  1
  Eu  Eu5  1  0.000000  0.500000  0.000000  1
  P  P6  1  0.799807  0.254589  0.635221  1
  P  P7  1  0.745411  0.200193  0.864779  1
  P  P8  1  0.200193  0.745411  0.364779  1
  P  P9  1  0.254589  0.799807  0.135221  1
  O  O10  1  0.660664  0.339336  0.750000  1
  O  O11  1  0.339336  0.660664  0.250000  1
  O  O12  1  0.700077  0.519926  0.567019  1
  O  O13  1  0.480074  0.299923  0.932981  1
  O  O14  1  0.299923  0.480074  0.432981  1
  O  O15  1  0.519926  0.700077  0.067019  1
  O  O16  1  0.097062  0.106221  0.633608  1
  O  O17  1  0.893779  0.902938  0.866392  1
  O  O18  1  0.902938  0.893779  0.366392  1
  O  O19  1  0.106221  0.097062  0.133608  1
  O  O20  1  0.083126  0.689425  0.122340  1
  O  O21  1  0.310575  0.916874  0.377660  1
  O  O22  1  0.916874  0.310575  0.877660  1
  O  O23  1  0.689425  0.083126  0.622340  1
