# generated using pymatgen
data_NaFe2CoSb12Pt
_symmetry_space_group_name_H-M   'P 1'
_cell_length_a   8.02653229
_cell_length_b   8.01004209
_cell_length_c   7.98855425
_cell_angle_alpha   109.37823311
_cell_angle_beta   109.46096904
_cell_angle_gamma   109.54596574
_symmetry_Int_Tables_number   1
_chemical_formula_structural   NaFe2CoSb12Pt
_chemical_formula_sum   'Na1 Fe2 Co1 Sb12 Pt1'
_cell_volume   395.51320019
_cell_formula_units_Z   1
loop_
 _symmetry_equiv_pos_site_id
 _symmetry_equiv_pos_as_xyz
  1  'x, y, z'
loop_
 _atom_site_type_symbol
 _atom_site_label
 _atom_site_symmetry_multiplicity
 _atom_site_fract_x
 _atom_site_fract_y
 _atom_site_fract_z
 _atom_site_occupancy
  Na  Na0  1  0.000000  0.000000  0.000000  1
  Fe  Fe1  1  0.000000  0.500000  0.000000  1
  Fe  Fe2  1  0.500000  0.500000  0.500000  1
  Co  Co3  1  0.500000  0.000000  0.000000  1
  Sb  Sb4  1  0.649164  0.814065  0.146274  1
  Sb  Sb5  1  0.840657  0.335236  0.172040  1
  Sb  Sb6  1  0.505658  0.837891  0.665768  1
  Sb  Sb7  1  0.832915  0.648948  0.503177  1
  Sb  Sb8  1  0.494342  0.162109  0.334232  1
  Sb  Sb9  1  0.159343  0.664764  0.827960  1
  Sb  Sb10  1  0.816008  0.166536  0.669920  1
  Sb  Sb11  1  0.183992  0.833464  0.330080  1
  Sb  Sb12  1  0.167085  0.351052  0.496823  1
  Sb  Sb13  1  0.668160  0.506206  0.837525  1
  Sb  Sb14  1  0.331840  0.493794  0.162475  1
  Sb  Sb15  1  0.350836  0.185935  0.853726  1
  Pt  Pt16  1  0.000000  0.000000  0.500000  1
