# generated using pymatgen
data_Pa4TcB16Os3
_symmetry_space_group_name_H-M   'P 1'
_cell_length_a   3.61368400
_cell_length_b   5.99057091
_cell_length_c   11.62768410
_cell_angle_alpha   89.96090585
_cell_angle_beta   90.00000000
_cell_angle_gamma   90.00000000
_symmetry_Int_Tables_number   1
_chemical_formula_structural   Pa4TcB16Os3
_chemical_formula_sum   'Pa4 Tc1 B16 Os3'
_cell_volume   251.71639863
_cell_formula_units_Z   1
loop_
 _symmetry_equiv_pos_site_id
 _symmetry_equiv_pos_as_xyz
  1  'x, y, z'
loop_
 _atom_site_type_symbol
 _atom_site_label
 _atom_site_symmetry_multiplicity
 _atom_site_fract_x
 _atom_site_fract_y
 _atom_site_fract_z
 _atom_site_occupancy
  Pa  Pa0  1  0.000000  0.628775  0.351516  1
  Pa  Pa1  1  0.000000  0.372231  0.649040  1
  Pa  Pa2  1  0.000000  0.128360  0.149620  1
  Pa  Pa3  1  0.000000  0.871533  0.849122  1
  Tc  Tc4  1  0.000000  0.860769  0.593691  1
  B  B5  1  0.500000  0.789028  0.188607  1
  B  B6  1  0.500000  0.211514  0.811596  1
  B  B7  1  0.500000  0.289273  0.311326  1
  B  B8  1  0.500000  0.711495  0.688347  1
  B  B9  1  0.500000  0.865250  0.032056  1
  B  B10  1  0.500000  0.134694  0.967927  1
  B  B11  1  0.500000  0.364566  0.468305  1
  B  B12  1  0.500000  0.634255  0.532636  1
  B  B13  1  0.500000  0.885682  0.455241  1
  B  B14  1  0.500000  0.112200  0.546326  1
  B  B15  1  0.500000  0.386713  0.045739  1
  B  B16  1  0.500000  0.613424  0.954135  1
  B  B17  1  0.500000  0.969720  0.309269  1
  B  B18  1  0.500000  0.028189  0.691500  1
  B  B19  1  0.500000  0.471451  0.191264  1
  B  B20  1  0.500000  0.527946  0.808866  1
  Os  Os21  1  0.000000  0.641866  0.096197  1
  Os  Os22  1  0.000000  0.358107  0.904385  1
  Os  Os23  1  0.000000  0.142959  0.403290  1
