# generated using pymatgen
data_K6DyVF12
_symmetry_space_group_name_H-M   'P 1'
_cell_length_a   6.53096031
_cell_length_b   6.28196137
_cell_length_c   10.97036335
_cell_angle_alpha   55.44771352
_cell_angle_beta   89.30367356
_cell_angle_gamma   89.84771672
_symmetry_Int_Tables_number   1
_chemical_formula_structural   K6DyVF12
_chemical_formula_sum   'K6 Dy1 V1 F12'
_cell_volume   370.66072024
_cell_formula_units_Z   1
loop_
 _symmetry_equiv_pos_site_id
 _symmetry_equiv_pos_as_xyz
  1  'x, y, z'
loop_
 _atom_site_type_symbol
 _atom_site_label
 _atom_site_symmetry_multiplicity
 _atom_site_fract_x
 _atom_site_fract_y
 _atom_site_fract_z
 _atom_site_occupancy
  K  K0  1  0.500000  0.500000  0.000000  1
  K  K1  1  0.000000  0.500000  0.500000  1
  K  K2  1  0.054803  0.744435  0.738770  1
  K  K3  1  0.945197  0.255565  0.261230  1
  K  K4  1  0.548787  0.283244  0.730296  1
  K  K5  1  0.451213  0.716756  0.269704  1
  Dy  Dy6  1  0.000000  0.000000  0.000000  1
  V  V7  1  0.500000  0.000000  0.500000  1
  F  F8  1  0.749508  0.778790  0.556859  1
  F  F9  1  0.250492  0.221210  0.443141  1
  F  F10  1  0.277928  0.238530  0.923902  1
  F  F11  1  0.722072  0.761470  0.076098  1
  F  F12  1  0.454942  0.890245  0.707290  1
  F  F13  1  0.545058  0.109755  0.292710  1
  F  F14  1  0.944459  0.113324  0.773680  1
  F  F15  1  0.055541  0.886676  0.226320  1
  F  F16  1  0.326247  0.704967  0.539879  1
  F  F17  1  0.673753  0.295033  0.460121  1
  F  F18  1  0.829240  0.341368  0.945457  1
  F  F19  1  0.170760  0.658632  0.054543  1
