# generated using pymatgen
data_Ho17Er3Ir11Ru
_symmetry_space_group_name_H-M   'P 1'
_cell_length_a   10.80813100
_cell_length_b   10.80828500
_cell_length_c   6.36886400
_cell_angle_alpha   90.00000000
_cell_angle_beta   90.00000000
_cell_angle_gamma   90.00113444
_symmetry_Int_Tables_number   1
_chemical_formula_structural   Ho17Er3Ir11Ru
_chemical_formula_sum   'Ho17 Er3 Ir11 Ru1'
_cell_volume   743.99387966
_cell_formula_units_Z   1
loop_
 _symmetry_equiv_pos_site_id
 _symmetry_equiv_pos_as_xyz
  1  'x, y, z'
loop_
 _atom_site_type_symbol
 _atom_site_label
 _atom_site_symmetry_multiplicity
 _atom_site_fract_x
 _atom_site_fract_y
 _atom_site_fract_z
 _atom_site_occupancy
  Ho  Ho0  1  0.292307  0.086941  0.376155  1
  Ho  Ho1  1  0.292581  0.912986  0.879205  1
  Ho  Ho2  1  0.707419  0.087014  0.879205  1
  Ho  Ho3  1  0.707693  0.913059  0.376155  1
  Ho  Ho4  1  0.587006  0.792560  0.879175  1
  Ho  Ho5  1  0.586911  0.207774  0.376180  1
  Ho  Ho6  1  0.413089  0.792226  0.376180  1
  Ho  Ho7  1  0.412994  0.207440  0.879175  1
  Ho  Ho8  1  0.209288  0.411949  0.622474  1
  Ho  Ho9  1  0.209256  0.587919  0.122119  1
  Ho  Ho10  1  0.790744  0.412081  0.122119  1
  Ho  Ho11  1  0.790712  0.588051  0.622474  1
  Ho  Ho12  1  0.912080  0.709232  0.122091  1
  Ho  Ho13  1  0.911913  0.290789  0.622497  1
  Ho  Ho14  1  0.088087  0.709211  0.622497  1
  Ho  Ho15  1  0.087920  0.290768  0.122091  1
  Ho  Ho16  1  0.000000  0.000000  0.499368  1
  Er  Er17  1  0.000000  0.000000  0.999330  1
  Er  Er18  1  0.500000  0.500000  0.999332  1
  Er  Er19  1  0.500000  0.500000  0.499353  1
  Ir  Ir20  1  0.847100  0.153668  0.249860  1
  Ir  Ir21  1  0.847149  0.846684  0.749939  1
  Ir  Ir22  1  0.152851  0.153316  0.749939  1
  Ir  Ir23  1  0.152900  0.846332  0.249860  1
  Ir  Ir24  1  0.653203  0.347258  0.749764  1
  Ir  Ir25  1  0.653559  0.652788  0.250038  1
  Ir  Ir26  1  0.346441  0.347212  0.250038  1
  Ir  Ir27  1  0.346797  0.652742  0.749764  1
  Ir  Ir28  1  0.500000  0.000000  0.622836  1
  Ir  Ir29  1  0.000000  0.500000  0.878586  1
  Ir  Ir30  1  0.000000  0.500000  0.378674  1
  Ru  Ru31  1  0.500000  0.000000  0.123526  1
