# generated using pymatgen
data_Y2Ho5CoBr12
_symmetry_space_group_name_H-M   'P 1'
_cell_length_a   9.19441070
_cell_length_b   9.19052689
_cell_length_c   9.19339200
_cell_angle_alpha   106.70412277
_cell_angle_beta   106.72241682
_cell_angle_gamma   106.70079678
_symmetry_Int_Tables_number   1
_chemical_formula_structural   Y2Ho5CoBr12
_chemical_formula_sum   'Y2 Ho5 Co1 Br12'
_cell_volume   652.03811477
_cell_formula_units_Z   1
loop_
 _symmetry_equiv_pos_site_id
 _symmetry_equiv_pos_as_xyz
  1  'x, y, z'
loop_
 _atom_site_type_symbol
 _atom_site_label
 _atom_site_symmetry_multiplicity
 _atom_site_fract_x
 _atom_site_fract_y
 _atom_site_fract_z
 _atom_site_occupancy
  Y  Y0  1  0.301168  0.096687  0.020705  1
  Y  Y1  1  0.096391  0.020739  0.301273  1
  Ho  Ho2  1  0.020399  0.299054  0.095528  1
  Ho  Ho3  1  0.700904  0.904058  0.979171  1
  Ho  Ho4  1  0.903673  0.979319  0.700836  1
  Ho  Ho5  1  0.979066  0.700725  0.903809  1
  Ho  Ho6  1  0.499953  0.500076  0.499978  1
  Co  Co7  1  0.999300  0.999872  0.999413  1
  Br  Br8  1  0.220099  0.069657  0.676269  1
  Br  Br9  1  0.069524  0.675880  0.219801  1
  Br  Br10  1  0.677144  0.220658  0.069813  1
  Br  Br11  1  0.778430  0.930122  0.323134  1
  Br  Br12  1  0.930427  0.323382  0.779657  1
  Br  Br13  1  0.323032  0.778524  0.930105  1
  Br  Br14  1  0.385804  0.461061  0.167891  1
  Br  Br15  1  0.461110  0.167824  0.386395  1
  Br  Br16  1  0.167657  0.386467  0.460279  1
  Br  Br17  1  0.614121  0.539647  0.832207  1
  Br  Br18  1  0.539599  0.832197  0.614049  1
  Br  Br19  1  0.832202  0.614048  0.539688  1
