# generated using pymatgen
data_Th3Al3Cu2Tc
_symmetry_space_group_name_H-M   'P 1'
_cell_length_a   7.19491600
_cell_length_b   7.19491634
_cell_length_c   4.16005000
_cell_angle_alpha   90.00000000
_cell_angle_beta   90.00000000
_cell_angle_gamma   119.99998926
_symmetry_Int_Tables_number   1
_chemical_formula_structural   Th3Al3Cu2Tc
_chemical_formula_sum   'Th3 Al3 Cu2 Tc1'
_cell_volume   186.50080272
_cell_formula_units_Z   1
loop_
 _symmetry_equiv_pos_site_id
 _symmetry_equiv_pos_as_xyz
  1  'x, y, z'
loop_
 _atom_site_type_symbol
 _atom_site_label
 _atom_site_symmetry_multiplicity
 _atom_site_fract_x
 _atom_site_fract_y
 _atom_site_fract_z
 _atom_site_occupancy
  Th  Th0  1  0.581618  0.007148  0.000000  1
  Th  Th1  1  0.992852  0.574469  0.000000  1
  Th  Th2  1  0.425531  0.418382  0.000000  1
  Al  Al3  1  0.233082  0.003707  0.500000  1
  Al  Al4  1  0.996293  0.229375  0.500000  1
  Al  Al5  1  0.770625  0.766918  0.500000  1
  Cu  Cu6  1  0.333333  0.666667  0.500000  1
  Cu  Cu7  1  0.000000  0.000000  0.000000  1
  Tc  Tc8  1  0.666667  0.333333  0.500000  1
