# generated using pymatgen
data_Cs6Rb3InAs4
_symmetry_space_group_name_H-M   'P 1'
_cell_length_a   10.84800300
_cell_length_b   10.84800260
_cell_length_c   11.63616300
_cell_angle_alpha   90.00000000
_cell_angle_beta   90.00000000
_cell_angle_gamma   119.99999818
_symmetry_Int_Tables_number   1
_chemical_formula_structural   Cs6Rb3InAs4
_chemical_formula_sum   'Cs12 Rb6 In2 As8'
_cell_volume   1185.87800188
_cell_formula_units_Z   2
loop_
 _symmetry_equiv_pos_site_id
 _symmetry_equiv_pos_as_xyz
  1  'x, y, z'
loop_
 _atom_site_type_symbol
 _atom_site_label
 _atom_site_symmetry_multiplicity
 _atom_site_fract_x
 _atom_site_fract_y
 _atom_site_fract_z
 _atom_site_occupancy
  Cs  Cs0  1  0.207743  0.792257  0.952244  1
  Cs  Cs1  1  0.207743  0.415486  0.952244  1
  Cs  Cs2  1  0.584514  0.792257  0.952244  1
  Cs  Cs3  1  0.415486  0.207743  0.452244  1
  Cs  Cs4  1  0.792257  0.584514  0.047756  1
  Cs  Cs5  1  0.792257  0.207743  0.452244  1
  Cs  Cs6  1  0.792257  0.584514  0.452244  1
  Cs  Cs7  1  0.207743  0.792257  0.547756  1
  Cs  Cs8  1  0.584514  0.792257  0.547756  1
  Cs  Cs9  1  0.415486  0.207743  0.047756  1
  Cs  Cs10  1  0.792257  0.207743  0.047756  1
  Cs  Cs11  1  0.207743  0.415486  0.547756  1
  Rb  Rb12  1  0.241033  0.120516  0.750000  1
  Rb  Rb13  1  0.879484  0.120516  0.750000  1
  Rb  Rb14  1  0.758967  0.879484  0.250000  1
  Rb  Rb15  1  0.120516  0.241033  0.250000  1
  Rb  Rb16  1  0.120516  0.879484  0.250000  1
  Rb  Rb17  1  0.879484  0.758967  0.750000  1
  In  In18  1  0.333333  0.666667  0.250000  1
  In  In19  1  0.666667  0.333333  0.750000  1
  As  As20  1  0.000000  0.000000  0.000000  1
  As  As21  1  0.046301  0.523150  0.250000  1
  As  As22  1  0.476850  0.953699  0.250000  1
  As  As23  1  0.523150  0.046301  0.750000  1
  As  As24  1  0.523150  0.476850  0.750000  1
  As  As25  1  0.000000  0.000000  0.500000  1
  As  As26  1  0.476850  0.523150  0.250000  1
  As  As27  1  0.953699  0.476850  0.750000  1
