# generated using pymatgen
data_SmY5(GaRu)4
_symmetry_space_group_name_H-M   'P 1'
_cell_length_a   5.62632878
_cell_length_b   7.72775181
_cell_length_c   13.84568100
_cell_angle_alpha   90.00000000
_cell_angle_beta   90.00000000
_cell_angle_gamma   90.22805872
_symmetry_Int_Tables_number   1
_chemical_formula_structural   SmY5(GaRu)4
_chemical_formula_sum   'Sm2 Y10 Ga8 Ru8'
_cell_volume   601.98982890
_cell_formula_units_Z   2
loop_
 _symmetry_equiv_pos_site_id
 _symmetry_equiv_pos_as_xyz
  1  'x, y, z'
loop_
 _atom_site_type_symbol
 _atom_site_label
 _atom_site_symmetry_multiplicity
 _atom_site_fract_x
 _atom_site_fract_y
 _atom_site_fract_z
 _atom_site_occupancy
  Sm  Sm0  1  0.622535  0.236936  0.250000  1
  Sm  Sm1  1  0.377465  0.763064  0.750000  1
  Y  Y2  1  0.152076  0.400437  0.595338  1
  Y  Y3  1  0.847924  0.599563  0.095338  1
  Y  Y4  1  0.152815  0.096520  0.404062  1
  Y  Y5  1  0.847185  0.903480  0.904062  1
  Y  Y6  1  0.847924  0.599563  0.404662  1
  Y  Y7  1  0.152076  0.400437  0.904662  1
  Y  Y8  1  0.847185  0.903480  0.595938  1
  Y  Y9  1  0.152815  0.096520  0.095938  1
  Y  Y10  1  0.623111  0.263098  0.750000  1
  Y  Y11  1  0.376889  0.736902  0.250000  1
  Ga  Ga12  1  0.126665  0.111109  0.750000  1
  Ga  Ga13  1  0.873335  0.888891  0.250000  1
  Ga  Ga14  1  0.126953  0.394901  0.250000  1
  Ga  Ga15  1  0.873047  0.605099  0.750000  1
  Ga  Ga16  1  0.630634  0.250044  0.500669  1
  Ga  Ga17  1  0.369366  0.749956  0.000669  1
  Ga  Ga18  1  0.369366  0.749956  0.499331  1
  Ga  Ga19  1  0.630634  0.250044  0.999331  1
  Ru  Ru20  1  0.350061  0.035491  0.593729  1
  Ru  Ru21  1  0.649939  0.964509  0.093729  1
  Ru  Ru22  1  0.351521  0.463687  0.406684  1
  Ru  Ru23  1  0.648479  0.536313  0.906684  1
  Ru  Ru24  1  0.649939  0.964509  0.406271  1
  Ru  Ru25  1  0.350061  0.035491  0.906271  1
  Ru  Ru26  1  0.648479  0.536313  0.593316  1
  Ru  Ru27  1  0.351521  0.463687  0.093316  1
