# generated using pymatgen
data_Y20Si12S
_symmetry_space_group_name_H-M   'P 1'
_cell_length_a   14.74610500
_cell_length_b   6.40466724
_cell_length_c   8.47082300
_cell_angle_alpha   89.90896648
_cell_angle_beta   90.00000000
_cell_angle_gamma   90.00000000
_symmetry_Int_Tables_number   1
_chemical_formula_structural   Y20Si12S
_chemical_formula_sum   'Y20 Si12 S1'
_cell_volume   800.01651373
_cell_formula_units_Z   1
loop_
 _symmetry_equiv_pos_site_id
 _symmetry_equiv_pos_as_xyz
  1  'x, y, z'
loop_
 _atom_site_type_symbol
 _atom_site_label
 _atom_site_symmetry_multiplicity
 _atom_site_fract_x
 _atom_site_fract_y
 _atom_site_fract_z
 _atom_site_occupancy
  Y  Y0  1  0.666463  0.500000  0.500000  1
  Y  Y1  1  0.168197  0.500000  0.000000  1
  Y  Y2  1  0.831803  0.500000  0.000000  1
  Y  Y3  1  0.333537  0.500000  0.500000  1
  Y  Y4  1  0.832149  0.000000  0.000000  1
  Y  Y5  1  0.335194  0.000000  0.500000  1
  Y  Y6  1  0.664806  0.000000  0.500000  1
  Y  Y7  1  0.167851  0.000000  0.000000  1
  Y  Y8  1  0.500000  0.251613  0.755638  1
  Y  Y9  1  0.000000  0.247239  0.248285  1
  Y  Y10  1  0.620122  0.250195  0.122413  1
  Y  Y11  1  0.125646  0.243622  0.626580  1
  Y  Y12  1  0.874354  0.243622  0.626580  1
  Y  Y13  1  0.379878  0.250195  0.122413  1
  Y  Y14  1  0.000000  0.752761  0.751715  1
  Y  Y15  1  0.500000  0.748387  0.244362  1
  Y  Y16  1  0.874354  0.756378  0.373420  1
  Y  Y17  1  0.379878  0.749805  0.877587  1
  Y  Y18  1  0.620122  0.749805  0.877587  1
  Y  Y19  1  0.125646  0.756378  0.373420  1
  Si  Si20  1  0.000000  0.247841  0.895842  1
  Si  Si21  1  0.500000  0.252157  0.394930  1
  Si  Si22  1  0.800940  0.246216  0.301870  1
  Si  Si23  1  0.303768  0.248513  0.803132  1
  Si  Si24  1  0.696232  0.248513  0.803132  1
  Si  Si25  1  0.199060  0.246216  0.301870  1
  Si  Si26  1  0.500000  0.747843  0.605070  1
  Si  Si27  1  0.000000  0.752159  0.104158  1
  Si  Si28  1  0.696232  0.751487  0.196868  1
  Si  Si29  1  0.199060  0.753784  0.698130  1
  Si  Si30  1  0.800940  0.753784  0.698130  1
  Si  Si31  1  0.303768  0.751487  0.196868  1
  S  S32  1  0.000000  0.500000  0.500000  1
