# generated using pymatgen
data_NaTm3As6Rh7
_symmetry_space_group_name_H-M   'P 1'
_cell_length_a   7.22079193
_cell_length_b   7.22079253
_cell_length_c   7.22079033
_cell_angle_alpha   109.48571269
_cell_angle_beta   109.48571842
_cell_angle_gamma   109.48570592
_symmetry_Int_Tables_number   1
_chemical_formula_structural   NaTm3As6Rh7
_chemical_formula_sum   'Na1 Tm3 As6 Rh7'
_cell_volume   289.66718970
_cell_formula_units_Z   1
loop_
 _symmetry_equiv_pos_site_id
 _symmetry_equiv_pos_as_xyz
  1  'x, y, z'
loop_
 _atom_site_type_symbol
 _atom_site_label
 _atom_site_symmetry_multiplicity
 _atom_site_fract_x
 _atom_site_fract_y
 _atom_site_fract_z
 _atom_site_occupancy
  Na  Na0  1  0.500000  0.500000  0.500000  1
  Tm  Tm1  1  0.000000  0.500000  0.000000  1
  Tm  Tm2  1  0.500000  0.000000  0.000000  1
  Tm  Tm3  1  0.000000  0.000000  0.500000  1
  As  As4  1  0.678300  0.993232  0.678300  1
  As  As5  1  0.678300  0.678300  0.993232  1
  As  As6  1  0.321700  0.321700  0.006768  1
  As  As7  1  0.993232  0.678300  0.678300  1
  As  As8  1  0.006768  0.321700  0.321700  1
  As  As9  1  0.321700  0.006768  0.321700  1
  Rh  Rh10  1  0.500000  0.752332  0.247668  1
  Rh  Rh11  1  0.752332  0.247668  0.500000  1
  Rh  Rh12  1  0.247668  0.752332  0.500000  1
  Rh  Rh13  1  0.247668  0.500000  0.752332  1
  Rh  Rh14  1  0.000000  0.000000  0.000000  1
  Rh  Rh15  1  0.500000  0.247668  0.752332  1
  Rh  Rh16  1  0.752332  0.500000  0.247668  1
