# generated using pymatgen
data_Y6Si6OsRh3
_symmetry_space_group_name_H-M   'P 1'
_cell_length_a   5.77241771
_cell_length_b   5.77241715
_cell_length_c   13.74077362
_cell_angle_alpha   90.05176069
_cell_angle_beta   89.94823861
_cell_angle_gamma   137.50033802
_symmetry_Int_Tables_number   1
_chemical_formula_structural   Y6Si6OsRh3
_chemical_formula_sum   'Y6 Si6 Os1 Rh3'
_cell_volume   309.31927957
_cell_formula_units_Z   1
loop_
 _symmetry_equiv_pos_site_id
 _symmetry_equiv_pos_as_xyz
  1  'x, y, z'
loop_
 _atom_site_type_symbol
 _atom_site_label
 _atom_site_symmetry_multiplicity
 _atom_site_fract_x
 _atom_site_fract_y
 _atom_site_fract_z
 _atom_site_occupancy
  Y  Y0  1  0.921237  0.078763  0.384671  1
  Y  Y1  1  0.078910  0.921090  0.615541  1
  Y  Y2  1  0.924214  0.075786  0.114737  1
  Y  Y3  1  0.076786  0.923214  0.885889  1
  Y  Y4  1  0.643709  0.356291  0.249747  1
  Y  Y5  1  0.356306  0.643694  0.749136  1
  Si  Si6  1  0.609944  0.390056  0.460671  1
  Si  Si7  1  0.389597  0.610403  0.538909  1
  Si  Si8  1  0.614479  0.385521  0.039337  1
  Si  Si9  1  0.383368  0.616632  0.958983  1
  Si  Si10  1  0.334883  0.665117  0.249496  1
  Si  Si11  1  0.669412  0.330588  0.752860  1
  Os  Os12  1  0.784443  0.215557  0.919279  1
  Rh  Rh13  1  0.214501  0.785499  0.079955  1
  Rh  Rh14  1  0.784011  0.215989  0.578589  1
  Rh  Rh15  1  0.214202  0.785798  0.422201  1
