# generated using pymatgen
data_Dy3Y3GaTcNi
_symmetry_space_group_name_H-M   'P 1'
_cell_length_a   8.37840217
_cell_length_b   8.37840214
_cell_length_c   8.37840322
_cell_angle_alpha   104.33608291
_cell_angle_beta   110.90792031
_cell_angle_gamma   113.29863290
_symmetry_Int_Tables_number   1
_chemical_formula_structural   Dy3Y3GaTcNi
_chemical_formula_sum   'Dy6 Y6 Ga2 Tc2 Ni2'
_cell_volume   449.84243801
_cell_formula_units_Z   2
loop_
 _symmetry_equiv_pos_site_id
 _symmetry_equiv_pos_as_xyz
  1  'x, y, z'
loop_
 _atom_site_type_symbol
 _atom_site_label
 _atom_site_symmetry_multiplicity
 _atom_site_fract_x
 _atom_site_fract_y
 _atom_site_fract_z
 _atom_site_occupancy
  Dy  Dy0  1  0.183876  0.851115  0.667237  1
  Dy  Dy1  1  0.183876  0.516639  0.332763  1
  Dy  Dy2  1  0.601380  0.780526  0.820852  1
  Dy  Dy3  1  0.959674  0.780526  0.179148  1
  Dy  Dy4  1  0.040907  0.220189  0.820716  1
  Dy  Dy5  1  0.399472  0.220189  0.179284  1
  Y  Y6  1  0.689376  0.255557  0.945859  1
  Y  Y7  1  0.309699  0.743517  0.054141  1
  Y  Y8  1  0.689376  0.743517  0.433819  1
  Y  Y9  1  0.309699  0.255557  0.566181  1
  Y  Y10  1  0.814413  0.146696  0.332282  1
  Y  Y11  1  0.814413  0.482131  0.667718  1
  Ga  Ga12  1  0.500116  0.500116  0.000000  1
  Ga  Ga13  1  0.500503  0.000503  0.500000  1
  Tc  Tc14  1  0.821338  0.500969  0.320369  1
  Tc  Tc15  1  0.180601  0.500969  0.679631  1
  Ni  Ni16  1  0.000640  0.116887  0.116246  1
  Ni  Ni17  1  0.000640  0.884394  0.883754  1
