# generated using pymatgen
data_Nd4HoP12Pd3Ru16
_symmetry_space_group_name_H-M   'P 1'
_cell_length_a   12.68771800
_cell_length_b   12.68771791
_cell_length_c   4.01243100
_cell_angle_alpha   90.00000000
_cell_angle_beta   90.00000000
_cell_angle_gamma   120.00000023
_symmetry_Int_Tables_number   1
_chemical_formula_structural   Nd4HoP12Pd3Ru16
_chemical_formula_sum   'Nd4 Ho1 P12 Pd3 Ru16'
_cell_volume   559.37781655
_cell_formula_units_Z   1
loop_
 _symmetry_equiv_pos_site_id
 _symmetry_equiv_pos_as_xyz
  1  'x, y, z'
loop_
 _atom_site_type_symbol
 _atom_site_label
 _atom_site_symmetry_multiplicity
 _atom_site_fract_x
 _atom_site_fract_y
 _atom_site_fract_z
 _atom_site_occupancy
  Nd  Nd0  1  0.000129  0.181995  0.500000  1
  Nd  Nd1  1  0.818005  0.818133  0.500000  1
  Nd  Nd2  1  0.181867  0.999871  0.500000  1
  Nd  Nd3  1  0.666667  0.333333  0.000000  1
  Ho  Ho4  1  0.333333  0.666667  0.000000  1
  P  P5  1  0.000863  0.811776  0.000000  1
  P  P6  1  0.188224  0.189087  0.000000  1
  P  P7  1  0.810913  0.999137  0.000000  1
  P  P8  1  0.700244  0.178211  0.500000  1
  P  P9  1  0.821789  0.522032  0.500000  1
  P  P10  1  0.477968  0.299756  0.500000  1
  P  P11  1  0.181004  0.699586  0.500000  1
  P  P12  1  0.518581  0.818996  0.500000  1
  P  P13  1  0.300414  0.481419  0.500000  1
  P  P14  1  0.999825  0.368444  0.000000  1
  P  P15  1  0.631556  0.631381  0.000000  1
  P  P16  1  0.368619  0.000175  0.000000  1
  Pd  Pd17  1  0.999930  0.553387  0.000000  1
  Pd  Pd18  1  0.446613  0.446542  0.000000  1
  Pd  Pd19  1  0.553458  0.000070  0.000000  1
  Ru  Ru20  1  0.001111  0.710883  0.500000  1
  Ru  Ru21  1  0.289117  0.290228  0.500000  1
  Ru  Ru22  1  0.709772  0.998889  0.500000  1
  Ru  Ru23  1  0.805734  0.185081  0.000000  1
  Ru  Ru24  1  0.814919  0.620654  0.000000  1
  Ru  Ru25  1  0.379346  0.194266  0.000000  1
  Ru  Ru26  1  0.187048  0.804813  0.000000  1
  Ru  Ru27  1  0.617766  0.812952  0.000000  1
  Ru  Ru28  1  0.195187  0.382234  0.000000  1
  Ru  Ru29  1  0.878078  0.369132  0.500000  1
  Ru  Ru30  1  0.630868  0.508947  0.500000  1
  Ru  Ru31  1  0.491053  0.121922  0.500000  1
  Ru  Ru32  1  0.369845  0.875028  0.500000  1
  Ru  Ru33  1  0.505183  0.630155  0.500000  1
  Ru  Ru34  1  0.124972  0.494817  0.500000  1
  Ru  Ru35  1  0.000000  0.000000  0.000000  1
