# generated using pymatgen
data_Tm3Mg(InRh2)4
_symmetry_space_group_name_H-M   'P 1'
_cell_length_a   6.34361000
_cell_length_b   6.34299300
_cell_length_c   6.95057400
_cell_angle_alpha   90.00000000
_cell_angle_beta   90.00041382
_cell_angle_gamma   90.00000000
_symmetry_Int_Tables_number   1
_chemical_formula_structural   Tm3Mg(InRh2)4
_chemical_formula_sum   'Tm3 Mg1 In4 Rh8'
_cell_volume   279.67353939
_cell_formula_units_Z   1
loop_
 _symmetry_equiv_pos_site_id
 _symmetry_equiv_pos_as_xyz
  1  'x, y, z'
loop_
 _atom_site_type_symbol
 _atom_site_label
 _atom_site_symmetry_multiplicity
 _atom_site_fract_x
 _atom_site_fract_y
 _atom_site_fract_z
 _atom_site_occupancy
  Tm  Tm0  1  0.749949  0.250000  0.999985  1
  Tm  Tm1  1  0.250038  0.750001  0.999986  1
  Tm  Tm2  1  0.250015  0.750001  0.500014  1
  Mg  Mg3  1  0.750002  0.250000  0.500009  1
  In  In4  1  0.249988  0.250000  0.999994  1
  In  In5  1  0.749993  0.750001  0.999995  1
  In  In6  1  0.750001  0.750001  0.500011  1
  In  In7  1  0.249979  0.250000  0.500010  1
  Rh  Rh8  1  0.997502  0.002486  0.255146  1
  Rh  Rh9  1  0.997502  0.497515  0.255146  1
  Rh  Rh10  1  0.502509  0.002508  0.255190  1
  Rh  Rh11  1  0.502509  0.497491  0.255190  1
  Rh  Rh12  1  0.502505  0.002514  0.744807  1
  Rh  Rh13  1  0.502505  0.497487  0.744807  1
  Rh  Rh14  1  0.997502  0.002483  0.744857  1
  Rh  Rh15  1  0.997502  0.497516  0.744857  1
