# generated using pymatgen
data_LiHo6Co17(Si2P)4
_symmetry_space_group_name_H-M   'P 1'
_cell_length_a   3.75221200
_cell_length_b   10.65103300
_cell_length_c   12.27346200
_cell_angle_alpha   90.00000000
_cell_angle_beta   90.00000000
_cell_angle_gamma   90.00000000
_symmetry_Int_Tables_number   1
_chemical_formula_structural   LiHo6Co17(Si2P)4
_chemical_formula_sum   'Li1 Ho6 Co17 Si8 P4'
_cell_volume   490.50809676
_cell_formula_units_Z   1
loop_
 _symmetry_equiv_pos_site_id
 _symmetry_equiv_pos_as_xyz
  1  'x, y, z'
loop_
 _atom_site_type_symbol
 _atom_site_label
 _atom_site_symmetry_multiplicity
 _atom_site_fract_x
 _atom_site_fract_y
 _atom_site_fract_z
 _atom_site_occupancy
  Li  Li0  1  0.500000  0.500000  0.147417  1
  Ho  Ho1  1  0.000000  0.500000  0.525727  1
  Ho  Ho2  1  0.500000  0.000000  0.473277  1
  Ho  Ho3  1  0.500000  0.817806  0.206817  1
  Ho  Ho4  1  0.500000  0.182194  0.206817  1
  Ho  Ho5  1  0.000000  0.683098  0.792929  1
  Ho  Ho6  1  0.000000  0.316902  0.792929  1
  Co  Co7  1  0.000000  0.500000  0.991498  1
  Co  Co8  1  0.500000  0.000000  0.017757  1
  Co  Co9  1  0.500000  0.293519  0.428775  1
  Co  Co10  1  0.500000  0.706481  0.428775  1
  Co  Co11  1  0.000000  0.198511  0.565959  1
  Co  Co12  1  0.000000  0.801489  0.565959  1
  Co  Co13  1  0.500000  0.882085  0.707021  1
  Co  Co14  1  0.500000  0.117915  0.707021  1
  Co  Co15  1  0.000000  0.623330  0.291070  1
  Co  Co16  1  0.000000  0.376670  0.291070  1
  Co  Co17  1  0.500000  0.329499  0.998751  1
  Co  Co18  1  0.500000  0.670501  0.998751  1
  Co  Co19  1  0.000000  0.167153  0.005085  1
  Co  Co20  1  0.000000  0.832847  0.005085  1
  Co  Co21  1  0.000000  0.000000  0.847797  1
  Co  Co22  1  0.500000  0.500000  0.701713  1
  Co  Co23  1  0.000000  0.000000  0.305124  1
  Si  Si24  1  0.500000  0.305737  0.614444  1
  Si  Si25  1  0.500000  0.694263  0.614444  1
  Si  Si26  1  0.500000  0.500000  0.887890  1
  Si  Si27  1  0.000000  0.000000  0.118925  1
  Si  Si28  1  0.500000  0.852902  0.892609  1
  Si  Si29  1  0.500000  0.147098  0.892609  1
  Si  Si30  1  0.500000  0.500000  0.342734  1
  Si  Si31  1  0.000000  0.000000  0.659260  1
  P  P32  1  0.000000  0.192908  0.383484  1
  P  P33  1  0.000000  0.807092  0.383484  1
  P  P34  1  0.000000  0.659235  0.103496  1
  P  P35  1  0.000000  0.340765  0.103496  1
