# generated using pymatgen
data_DyY7(HoBi)12
_symmetry_space_group_name_H-M   'P 1'
_cell_length_a   8.25826023
_cell_length_b   9.51787700
_cell_length_c   12.08032733
_cell_angle_alpha   90.00000000
_cell_angle_beta   89.97320404
_cell_angle_gamma   90.00000000
_symmetry_Int_Tables_number   1
_chemical_formula_structural   DyY7(HoBi)12
_chemical_formula_sum   'Dy1 Y7 Ho12 Bi12'
_cell_volume   949.52697384
_cell_formula_units_Z   1
loop_
 _symmetry_equiv_pos_site_id
 _symmetry_equiv_pos_as_xyz
  1  'x, y, z'
loop_
 _atom_site_type_symbol
 _atom_site_label
 _atom_site_symmetry_multiplicity
 _atom_site_fract_x
 _atom_site_fract_y
 _atom_site_fract_z
 _atom_site_occupancy
  Dy  Dy0  1  0.186430  0.750000  0.718930  1
  Y  Y1  1  0.686341  0.750000  0.780872  1
  Y  Y2  1  0.813703  0.250000  0.280924  1
  Y  Y3  1  0.313662  0.250000  0.219107  1
  Y  Y4  1  0.353667  0.750000  0.215579  1
  Y  Y5  1  0.853723  0.750000  0.284481  1
  Y  Y6  1  0.646267  0.250000  0.784376  1
  Y  Y7  1  0.146297  0.250000  0.715602  1
  Ho  Ho8  1  0.025720  0.750000  0.988477  1
  Ho  Ho9  1  0.525263  0.750000  0.511284  1
  Ho  Ho10  1  0.974461  0.250000  0.011153  1
  Ho  Ho11  1  0.474512  0.250000  0.488895  1
  Ho  Ho12  1  0.306584  0.436252  0.940514  1
  Ho  Ho13  1  0.806582  0.063765  0.559465  1
  Ho  Ho14  1  0.693406  0.936192  0.059480  1
  Ho  Ho15  1  0.193449  0.563859  0.440707  1
  Ho  Ho16  1  0.693406  0.563808  0.059480  1
  Ho  Ho17  1  0.193449  0.936141  0.440707  1
  Ho  Ho18  1  0.306584  0.063748  0.940514  1
  Ho  Ho19  1  0.806582  0.436235  0.559465  1
  Bi  Bi20  1  0.433197  0.003792  0.673189  1
  Bi  Bi21  1  0.933516  0.496140  0.826772  1
  Bi  Bi22  1  0.566598  0.503927  0.326915  1
  Bi  Bi23  1  0.066625  0.996054  0.173063  1
  Bi  Bi24  1  0.566598  0.996073  0.326915  1
  Bi  Bi25  1  0.066625  0.503946  0.173063  1
  Bi  Bi26  1  0.433197  0.496208  0.673189  1
  Bi  Bi27  1  0.933516  0.003860  0.826772  1
  Bi  Bi28  1  0.408352  0.750000  0.957903  1
  Bi  Bi29  1  0.908334  0.750000  0.542232  1
  Bi  Bi30  1  0.591670  0.250000  0.042003  1
  Bi  Bi31  1  0.091684  0.250000  0.457973  1
