# generated using pymatgen
data_Ho8Tm12Si15Pt
_symmetry_space_group_name_H-M   'P 1'
_cell_length_a   7.32314600
_cell_length_b   7.67312993
_cell_length_c   14.46595900
_cell_angle_alpha   90.00000000
_cell_angle_beta   90.00000000
_cell_angle_gamma   90.10918353
_symmetry_Int_Tables_number   1
_chemical_formula_structural   Ho8Tm12Si15Pt
_chemical_formula_sum   'Ho8 Tm12 Si15 Pt1'
_cell_volume   812.86174707
_cell_formula_units_Z   1
loop_
 _symmetry_equiv_pos_site_id
 _symmetry_equiv_pos_as_xyz
  1  'x, y, z'
loop_
 _atom_site_type_symbol
 _atom_site_label
 _atom_site_symmetry_multiplicity
 _atom_site_fract_x
 _atom_site_fract_y
 _atom_site_fract_z
 _atom_site_occupancy
  Ho  Ho0  1  0.522660  0.680854  0.594147  1
  Ho  Ho1  1  0.024426  0.819084  0.904863  1
  Ho  Ho2  1  0.475507  0.317296  0.097437  1
  Ho  Ho3  1  0.975348  0.181173  0.402493  1
  Ho  Ho4  1  0.475507  0.317296  0.402563  1
  Ho  Ho5  1  0.975348  0.181173  0.097507  1
  Ho  Ho6  1  0.522660  0.680854  0.905853  1
  Ho  Ho7  1  0.024426  0.819084  0.595137  1
  Tm  Tm8  1  0.677464  0.179715  0.623712  1
  Tm  Tm9  1  0.187450  0.324918  0.876167  1
  Tm  Tm10  1  0.318694  0.820755  0.123939  1
  Tm  Tm11  1  0.817546  0.676188  0.375506  1
  Tm  Tm12  1  0.318694  0.820755  0.376061  1
  Tm  Tm13  1  0.817546  0.676188  0.124494  1
  Tm  Tm14  1  0.677464  0.179715  0.876288  1
  Tm  Tm15  1  0.187450  0.324918  0.623833  1
  Tm  Tm16  1  0.843187  0.509188  0.750000  1
  Tm  Tm17  1  0.353930  0.986659  0.750000  1
  Tm  Tm18  1  0.149835  0.487065  0.250000  1
  Tm  Tm19  1  0.650285  0.011321  0.250000  1
  Si  Si20  1  0.650002  0.969555  0.459835  1
  Si  Si21  1  0.148210  0.529137  0.040075  1
  Si  Si22  1  0.348672  0.027680  0.960766  1
  Si  Si23  1  0.851321  0.470834  0.539653  1
  Si  Si24  1  0.348672  0.027680  0.539234  1
  Si  Si25  1  0.851321  0.470834  0.960347  1
  Si  Si26  1  0.650002  0.969555  0.040165  1
  Si  Si27  1  0.148210  0.529137  0.459925  1
  Si  Si28  1  0.979347  0.104830  0.750000  1
  Si  Si29  1  0.520085  0.606252  0.250000  1
  Si  Si30  1  0.020880  0.892367  0.250000  1
  Si  Si31  1  0.738080  0.875296  0.750000  1
  Si  Si32  1  0.226551  0.633006  0.750000  1
  Si  Si33  1  0.270663  0.129346  0.250000  1
  Si  Si34  1  0.771141  0.369044  0.250000  1
  Pt  Pt35  1  0.481412  0.401249  0.750000  1
