# generated using pymatgen
data_La13Yb3(DySn4)4
_symmetry_space_group_name_H-M   'P 1'
_cell_length_a   8.23479255
_cell_length_b   8.52714088
_cell_length_c   16.26154457
_cell_angle_alpha   90.17636949
_cell_angle_beta   90.24980576
_cell_angle_gamma   89.74725018
_symmetry_Int_Tables_number   1
_chemical_formula_structural   La13Yb3(DySn4)4
_chemical_formula_sum   'La13 Yb3 Dy4 Sn16'
_cell_volume   1141.84593393
_cell_formula_units_Z   1
loop_
 _symmetry_equiv_pos_site_id
 _symmetry_equiv_pos_as_xyz
  1  'x, y, z'
loop_
 _atom_site_type_symbol
 _atom_site_label
 _atom_site_symmetry_multiplicity
 _atom_site_fract_x
 _atom_site_fract_y
 _atom_site_fract_z
 _atom_site_occupancy
  La  La0  1  0.849190  0.664733  0.381161  1
  La  La1  1  0.348431  0.831119  0.375099  1
  La  La2  1  0.848446  0.666889  0.119163  1
  La  La3  1  0.651958  0.167820  0.876864  1
  La  La4  1  0.152162  0.331237  0.620832  1
  La  La5  1  0.492609  0.679371  0.600077  1
  La  La6  1  0.999601  0.818861  0.903074  1
  La  La7  1  0.502176  0.319285  0.095950  1
  La  La8  1  0.000186  0.186542  0.403692  1
  La  La9  1  0.505845  0.319050  0.403476  1
  La  La10  1  0.001445  0.185430  0.093779  1
  La  La11  1  0.493442  0.680208  0.901694  1
  La  La12  1  0.999224  0.817942  0.597846  1
  Yb  Yb13  1  0.321812  0.998478  0.751778  1
  Yb  Yb14  1  0.180305  0.498856  0.248100  1
  Yb  Yb15  1  0.676833  0.000067  0.250273  1
  Dy  Dy16  1  0.653637  0.168386  0.629387  1
  Dy  Dy17  1  0.154791  0.333352  0.876428  1
  Dy  Dy18  1  0.346026  0.830086  0.123688  1
  Dy  Dy19  1  0.819110  0.500822  0.749530  1
  Sn  Sn20  1  0.683908  0.965016  0.468077  1
  Sn  Sn21  1  0.197670  0.539928  0.035650  1
  Sn  Sn22  1  0.308899  0.040112  0.964444  1
  Sn  Sn23  1  0.799179  0.458339  0.546096  1
  Sn  Sn24  1  0.333544  0.038860  0.540784  1
  Sn  Sn25  1  0.820994  0.464558  0.952748  1
  Sn  Sn26  1  0.667743  0.960719  0.041047  1
  Sn  Sn27  1  0.195773  0.536329  0.458614  1
  Sn  Sn28  1  0.453788  0.387249  0.752276  1
  Sn  Sn29  1  0.956147  0.116938  0.749254  1
  Sn  Sn30  1  0.546209  0.610690  0.247693  1
  Sn  Sn31  1  0.046168  0.892819  0.245515  1
  Sn  Sn32  1  0.699704  0.855123  0.749582  1
  Sn  Sn33  1  0.185177  0.636593  0.751373  1
  Sn  Sn34  1  0.302863  0.138454  0.246763  1
  Sn  Sn35  1  0.805007  0.359734  0.248193  1
