# generated using pymatgen
data_Rb12Sc(MnSe4)3
_symmetry_space_group_name_H-M   'P 1'
_cell_length_a   10.81437068
_cell_length_b   10.81438852
_cell_length_c   13.73194600
_cell_angle_alpha   90.03073961
_cell_angle_beta   90.03191055
_cell_angle_gamma   140.52747341
_symmetry_Int_Tables_number   1
_chemical_formula_structural   Rb12Sc(MnSe4)3
_chemical_formula_sum   'Rb12 Sc1 Mn3 Se12'
_cell_volume   1020.92189554
_cell_formula_units_Z   1
loop_
 _symmetry_equiv_pos_site_id
 _symmetry_equiv_pos_as_xyz
  1  'x, y, z'
loop_
 _atom_site_type_symbol
 _atom_site_label
 _atom_site_symmetry_multiplicity
 _atom_site_fract_x
 _atom_site_fract_y
 _atom_site_fract_z
 _atom_site_occupancy
  Rb  Rb0  1  0.850539  0.849372  0.333883  1
  Rb  Rb1  1  0.150610  0.149396  0.666120  1
  Rb  Rb2  1  0.646107  0.649879  0.830830  1
  Rb  Rb3  1  0.350124  0.353890  0.169185  1
  Rb  Rb4  1  0.832584  0.475163  0.132286  1
  Rb  Rb5  1  0.524786  0.167375  0.867702  1
  Rb  Rb6  1  0.013999  0.656610  0.628935  1
  Rb  Rb7  1  0.343350  0.985942  0.371054  1
  Rb  Rb8  1  0.158209  0.512917  0.871151  1
  Rb  Rb9  1  0.487070  0.841773  0.128849  1
  Rb  Rb10  1  0.985500  0.341937  0.371381  1
  Rb  Rb11  1  0.658044  0.014488  0.628595  1
  Sc  Sc12  1  0.082208  0.917831  0.000015  1
  Mn  Mn13  1  0.582568  0.416989  0.499994  1
  Mn  Mn14  1  0.918547  0.081495  0.000160  1
  Mn  Mn15  1  0.418307  0.581972  0.499865  1
  Se  Se16  1  0.002732  0.307575  0.112254  1
  Se  Se17  1  0.692601  0.997403  0.887842  1
  Se  Se18  1  0.187358  0.487231  0.613258  1
  Se  Se19  1  0.512852  0.812803  0.386643  1
  Se  Se20  1  0.978612  0.673084  0.878584  1
  Se  Se21  1  0.326970  0.021413  0.121428  1
  Se  Se22  1  0.817117  0.515681  0.387969  1
  Se  Se23  1  0.484293  0.182837  0.612032  1
  Se  Se24  1  0.786699  0.792093  0.085219  1
  Se  Se25  1  0.207921  0.213327  0.914843  1
  Se  Se26  1  0.700143  0.699781  0.577054  1
  Se  Se27  1  0.300150  0.299742  0.422872  1
