# generated using pymatgen
data_DyY15(TmPb4)4
_symmetry_space_group_name_H-M   'P 1'
_cell_length_a   8.22734579
_cell_length_b   8.28379628
_cell_length_c   15.67406700
_cell_angle_alpha   89.91906873
_cell_angle_beta   89.97482490
_cell_angle_gamma   90.04888562
_symmetry_Int_Tables_number   1
_chemical_formula_structural   DyY15(TmPb4)4
_chemical_formula_sum   'Dy1 Y15 Tm4 Pb16'
_cell_volume   1068.24342029
_cell_formula_units_Z   1
loop_
 _symmetry_equiv_pos_site_id
 _symmetry_equiv_pos_as_xyz
  1  'x, y, z'
loop_
 _atom_site_type_symbol
 _atom_site_label
 _atom_site_symmetry_multiplicity
 _atom_site_fract_x
 _atom_site_fract_y
 _atom_site_fract_z
 _atom_site_occupancy
  Dy  Dy0  1  0.038638  0.174510  0.899398  1
  Y  Y1  1  0.378331  0.842301  0.878879  1
  Y  Y2  1  0.877345  0.657566  0.621481  1
  Y  Y3  1  0.622725  0.157749  0.378779  1
  Y  Y4  1  0.121492  0.342165  0.120716  1
  Y  Y5  1  0.621672  0.157675  0.120992  1
  Y  Y6  1  0.122777  0.342226  0.378800  1
  Y  Y7  1  0.377009  0.842308  0.621391  1
  Y  Y8  1  0.877644  0.657684  0.879059  1
  Y  Y9  1  0.537443  0.324977  0.899856  1
  Y  Y10  1  0.036424  0.175282  0.599916  1
  Y  Y11  1  0.463418  0.675417  0.400240  1
  Y  Y12  1  0.962315  0.825229  0.099997  1
  Y  Y13  1  0.462260  0.675138  0.100019  1
  Y  Y14  1  0.963475  0.824457  0.400152  1
  Y  Y15  1  0.536917  0.324531  0.600209  1
  Tm  Tm16  1  0.209772  0.504410  0.750258  1
  Tm  Tm17  1  0.709943  0.995706  0.750130  1
  Tm  Tm18  1  0.790200  0.495521  0.249996  1
  Tm  Tm19  1  0.290138  0.004416  0.249743  1
  Pb  Pb20  1  0.280483  0.032938  0.043111  1
  Pb  Pb21  1  0.781521  0.466718  0.456606  1
  Pb  Pb22  1  0.718387  0.966379  0.543403  1
  Pb  Pb23  1  0.218913  0.532415  0.956346  1
  Pb  Pb24  1  0.720304  0.968603  0.956341  1
  Pb  Pb25  1  0.218658  0.532900  0.543587  1
  Pb  Pb26  1  0.281513  0.033201  0.456492  1
  Pb  Pb27  1  0.780332  0.467757  0.043698  1
  Pb  Pb28  1  0.572404  0.625605  0.750077  1
  Pb  Pb29  1  0.072419  0.874522  0.750332  1
  Pb  Pb30  1  0.427386  0.374393  0.249898  1
  Pb  Pb31  1  0.927521  0.125464  0.249838  1
  Pb  Pb32  1  0.349427  0.155031  0.749985  1
  Pb  Pb33  1  0.850159  0.344860  0.750292  1
  Pb  Pb34  1  0.650314  0.845079  0.250080  1
  Pb  Pb35  1  0.150322  0.654863  0.249908  1
