# generated using pymatgen
data_Dy2ErSc2Pb3
_symmetry_space_group_name_H-M   'P 1'
_cell_length_a   8.89566471
_cell_length_b   8.88952930
_cell_length_c   6.36362000
_cell_angle_alpha   90.00000000
_cell_angle_beta   90.00000000
_cell_angle_gamma   119.97718906
_symmetry_Int_Tables_number   1
_chemical_formula_structural   Dy2ErSc2Pb3
_chemical_formula_sum   'Dy4 Er2 Sc4 Pb6'
_cell_volume   435.90497025
_cell_formula_units_Z   2
loop_
 _symmetry_equiv_pos_site_id
 _symmetry_equiv_pos_as_xyz
  1  'x, y, z'
loop_
 _atom_site_type_symbol
 _atom_site_label
 _atom_site_symmetry_multiplicity
 _atom_site_fract_x
 _atom_site_fract_y
 _atom_site_fract_z
 _atom_site_occupancy
  Dy  Dy0  1  0.238068  0.999878  0.250000  1
  Dy  Dy1  1  0.238068  0.238190  0.750000  1
  Dy  Dy2  1  0.999754  0.761971  0.750000  1
  Dy  Dy3  1  0.999754  0.237784  0.250000  1
  Er  Er4  1  0.761827  0.761932  0.250000  1
  Er  Er5  1  0.761827  0.999895  0.750000  1
  Sc  Sc6  1  0.333428  0.666715  0.000000  1
  Sc  Sc7  1  0.666732  0.333366  0.500000  1
  Sc  Sc8  1  0.666732  0.333366  0.000000  1
  Sc  Sc9  1  0.333428  0.666715  0.500000  1
  Pb  Pb10  1  0.600654  0.999458  0.250000  1
  Pb  Pb11  1  0.600654  0.601196  0.750000  1
  Pb  Pb12  1  0.999463  0.398841  0.750000  1
  Pb  Pb13  1  0.999463  0.600622  0.250000  1
  Pb  Pb14  1  0.400072  0.400059  0.250000  1
  Pb  Pb15  1  0.400072  0.000013  0.750000  1
