# generated using pymatgen
data_La7PrAlPd24
_symmetry_space_group_name_H-M   'P 1'
_cell_length_a   8.55338621
_cell_length_b   8.55338642
_cell_length_c   8.55338600
_cell_angle_alpha   90.01275415
_cell_angle_beta   89.98724585
_cell_angle_gamma   89.98724869
_symmetry_Int_Tables_number   1
_chemical_formula_structural   La7PrAlPd24
_chemical_formula_sum   'La7 Pr1 Al1 Pd24'
_cell_volume   625.76924431
_cell_formula_units_Z   1
loop_
 _symmetry_equiv_pos_site_id
 _symmetry_equiv_pos_as_xyz
  1  'x, y, z'
loop_
 _atom_site_type_symbol
 _atom_site_label
 _atom_site_symmetry_multiplicity
 _atom_site_fract_x
 _atom_site_fract_y
 _atom_site_fract_z
 _atom_site_occupancy
  La  La0  1  0.252406  0.252341  0.252341  1
  La  La1  1  0.747763  0.747715  0.747715  1
  La  La2  1  0.747659  0.747594  0.252341  1
  La  La3  1  0.747659  0.252341  0.747594  1
  La  La4  1  0.252285  0.252237  0.747715  1
  La  La5  1  0.252285  0.747715  0.252237  1
  La  La6  1  0.252235  0.747765  0.747765  1
  Pr  Pr7  1  0.748543  0.251457  0.251457  1
  Al  Al8  1  0.999803  0.000197  0.000197  1
  Pd  Pd9  1  0.260749  0.500058  0.000079  1
  Pd  Pd10  1  0.739164  0.499908  0.999878  1
  Pd  Pd11  1  0.000122  0.260836  0.499908  1
  Pd  Pd12  1  0.500092  0.260836  0.999878  1
  Pd  Pd13  1  0.999921  0.739251  0.500058  1
  Pd  Pd14  1  0.499942  0.739251  0.000079  1
  Pd  Pd15  1  0.500092  0.999878  0.260836  1
  Pd  Pd16  1  0.260749  0.000079  0.500058  1
  Pd  Pd17  1  0.499942  0.000079  0.739251  1
  Pd  Pd18  1  0.739164  0.999878  0.499908  1
  Pd  Pd19  1  0.000122  0.499908  0.260836  1
  Pd  Pd20  1  0.999921  0.500058  0.739251  1
  Pd  Pd21  1  0.253342  0.499984  0.499984  1
  Pd  Pd22  1  0.746634  0.500037  0.500037  1
  Pd  Pd23  1  0.499963  0.253366  0.500037  1
  Pd  Pd24  1  0.500016  0.746658  0.499984  1
  Pd  Pd25  1  0.499963  0.500037  0.253366  1
  Pd  Pd26  1  0.500016  0.499984  0.746658  1
  Pd  Pd27  1  0.292005  0.999921  0.999921  1
  Pd  Pd28  1  0.707958  0.000338  0.000338  1
  Pd  Pd29  1  0.999662  0.292042  0.000338  1
  Pd  Pd30  1  0.000079  0.707995  0.999921  1
  Pd  Pd31  1  0.999662  0.000338  0.292042  1
  Pd  Pd32  1  0.000079  0.999921  0.707995  1
