# generated using pymatgen
data_Nd3Ga24RePd8
_symmetry_space_group_name_H-M   'P 1'
_cell_length_a   8.52060320
_cell_length_b   8.52024277
_cell_length_c   8.52150190
_cell_angle_alpha   89.59364136
_cell_angle_beta   89.59269372
_cell_angle_gamma   89.59406533
_symmetry_Int_Tables_number   1
_chemical_formula_structural   Nd3Ga24RePd8
_chemical_formula_sum   'Nd3 Ga24 Re1 Pd8'
_cell_volume   618.59415585
_cell_formula_units_Z   1
loop_
 _symmetry_equiv_pos_site_id
 _symmetry_equiv_pos_as_xyz
  1  'x, y, z'
loop_
 _atom_site_type_symbol
 _atom_site_label
 _atom_site_symmetry_multiplicity
 _atom_site_fract_x
 _atom_site_fract_y
 _atom_site_fract_z
 _atom_site_occupancy
  Nd  Nd0  1  0.000000  0.500000  0.000000  1
  Nd  Nd1  1  0.500000  0.000000  0.000000  1
  Nd  Nd2  1  0.000000  0.000000  0.500000  1
  Ga  Ga3  1  0.989873  0.643013  0.642964  1
  Ga  Ga4  1  0.643003  0.643029  0.989863  1
  Ga  Ga5  1  0.642980  0.989864  0.642948  1
  Ga  Ga6  1  0.010127  0.356987  0.357036  1
  Ga  Ga7  1  0.356997  0.356971  0.010137  1
  Ga  Ga8  1  0.357020  0.010136  0.357052  1
  Ga  Ga9  1  0.734820  0.500034  0.265126  1
  Ga  Ga10  1  0.265180  0.499966  0.734874  1
  Ga  Ga11  1  0.499994  0.265161  0.734869  1
  Ga  Ga12  1  0.500006  0.734839  0.265131  1
  Ga  Ga13  1  0.265187  0.734840  0.499973  1
  Ga  Ga14  1  0.734813  0.265160  0.500027  1
  Ga  Ga15  1  0.839442  0.141535  0.839514  1
  Ga  Ga16  1  0.141521  0.839466  0.839542  1
  Ga  Ga17  1  0.839489  0.839493  0.141504  1
  Ga  Ga18  1  0.160558  0.858465  0.160486  1
  Ga  Ga19  1  0.858479  0.160534  0.160458  1
  Ga  Ga20  1  0.160511  0.160507  0.858496  1
  Ga  Ga21  1  0.728675  0.490605  0.728740  1
  Ga  Ga22  1  0.490643  0.728691  0.728743  1
  Ga  Ga23  1  0.728694  0.728720  0.490583  1
  Ga  Ga24  1  0.271325  0.509395  0.271260  1
  Ga  Ga25  1  0.509357  0.271309  0.271257  1
  Ga  Ga26  1  0.271306  0.271280  0.509417  1
  Re  Re27  1  0.500000  0.500000  0.500000  1
  Pd  Pd28  1  0.834706  0.834691  0.834685  1
  Pd  Pd29  1  0.165294  0.165309  0.165315  1
  Pd  Pd30  1  0.663983  0.336045  0.000005  1
  Pd  Pd31  1  0.999994  0.336017  0.664048  1
  Pd  Pd32  1  0.335987  0.999972  0.664071  1
  Pd  Pd33  1  0.336017  0.663955  0.999995  1
  Pd  Pd34  1  0.000006  0.663983  0.335952  1
  Pd  Pd35  1  0.664013  0.000028  0.335929  1
