# generated using pymatgen
data_HoTm4Lu3(Sc3Si4)4
_symmetry_space_group_name_H-M   'P 1'
_cell_length_a   7.04216231
_cell_length_b   7.33667715
_cell_length_c   13.88875790
_cell_angle_alpha   90.03689288
_cell_angle_beta   90.00822277
_cell_angle_gamma   89.99148534
_symmetry_Int_Tables_number   1
_chemical_formula_structural   HoTm4Lu3(Sc3Si4)4
_chemical_formula_sum   'Ho1 Tm4 Lu3 Sc12 Si16'
_cell_volume   717.57739228
_cell_formula_units_Z   1
loop_
 _symmetry_equiv_pos_site_id
 _symmetry_equiv_pos_as_xyz
  1  'x, y, z'
loop_
 _atom_site_type_symbol
 _atom_site_label
 _atom_site_symmetry_multiplicity
 _atom_site_fract_x
 _atom_site_fract_y
 _atom_site_fract_z
 _atom_site_occupancy
  Ho  Ho0  1  0.011330  0.176189  0.095628  1
  Tm  Tm1  1  0.511386  0.323404  0.095705  1
  Tm  Tm2  1  0.011246  0.176557  0.403913  1
  Tm  Tm3  1  0.511668  0.323451  0.403790  1
  Tm  Tm4  1  0.488602  0.676905  0.596467  1
  Lu  Lu5  1  0.988608  0.822792  0.903592  1
  Lu  Lu6  1  0.488481  0.677111  0.903260  1
  Lu  Lu7  1  0.988599  0.823072  0.596827  1
  Sc  Sc8  1  0.161574  0.503881  0.750270  1
  Sc  Sc9  1  0.838179  0.496717  0.249987  1
  Sc  Sc10  1  0.338535  0.003393  0.249907  1
  Sc  Sc11  1  0.661643  0.996074  0.750219  1
  Sc  Sc12  1  0.331519  0.176636  0.625698  1
  Sc  Sc13  1  0.668234  0.823202  0.374751  1
  Sc  Sc14  1  0.167753  0.677503  0.374736  1
  Sc  Sc15  1  0.668038  0.822670  0.124885  1
  Sc  Sc16  1  0.832128  0.322735  0.625960  1
  Sc  Sc17  1  0.331777  0.176670  0.874450  1
  Sc  Sc18  1  0.831837  0.323005  0.874426  1
  Sc  Sc19  1  0.167796  0.677308  0.125190  1
  Si  Si20  1  0.033305  0.112068  0.750205  1
  Si  Si21  1  0.966224  0.886654  0.249990  1
  Si  Si22  1  0.466422  0.613338  0.249776  1
  Si  Si23  1  0.533208  0.387184  0.750200  1
  Si  Si24  1  0.285346  0.869685  0.750384  1
  Si  Si25  1  0.713973  0.129444  0.249995  1
  Si  Si26  1  0.214654  0.371008  0.250070  1
  Si  Si27  1  0.786078  0.630428  0.750478  1
  Si  Si28  1  0.159546  0.465788  0.539669  1
  Si  Si29  1  0.840082  0.535458  0.461223  1
  Si  Si30  1  0.339855  0.965287  0.460813  1
  Si  Si31  1  0.839921  0.535439  0.038817  1
  Si  Si32  1  0.661040  0.034653  0.539587  1
  Si  Si33  1  0.160954  0.466268  0.960291  1
  Si  Si34  1  0.660264  0.033733  0.960032  1
  Si  Si35  1  0.340195  0.964291  0.038810  1
