# generated using pymatgen
data_Nd10Sn5BiSe2
_symmetry_space_group_name_H-M   'P 1'
_cell_length_a   9.48707803
_cell_length_b   9.48707797
_cell_length_c   6.94232800
_cell_angle_alpha   90.00000000
_cell_angle_beta   90.00000000
_cell_angle_gamma   120.18995262
_symmetry_Int_Tables_number   1
_chemical_formula_structural   Nd10Sn5BiSe2
_chemical_formula_sum   'Nd10 Sn5 Bi1 Se2'
_cell_volume   540.09012729
_cell_formula_units_Z   1
loop_
 _symmetry_equiv_pos_site_id
 _symmetry_equiv_pos_as_xyz
  1  'x, y, z'
loop_
 _atom_site_type_symbol
 _atom_site_label
 _atom_site_symmetry_multiplicity
 _atom_site_fract_x
 _atom_site_fract_y
 _atom_site_fract_z
 _atom_site_occupancy
  Nd  Nd0  1  0.750211  0.750211  0.750000  1
  Nd  Nd1  1  0.250700  0.995571  0.750000  1
  Nd  Nd2  1  0.995571  0.250700  0.750000  1
  Nd  Nd3  1  0.251362  0.251362  0.250000  1
  Nd  Nd4  1  0.747087  0.999581  0.250000  1
  Nd  Nd5  1  0.999581  0.747087  0.250000  1
  Nd  Nd6  1  0.669373  0.332604  0.001636  1
  Nd  Nd7  1  0.332604  0.669373  0.001636  1
  Nd  Nd8  1  0.332604  0.669373  0.498364  1
  Nd  Nd9  1  0.669373  0.332604  0.498364  1
  Sn  Sn10  1  0.604116  0.000140  0.750000  1
  Sn  Sn11  1  0.000140  0.604116  0.750000  1
  Sn  Sn12  1  0.604669  0.604669  0.250000  1
  Sn  Sn13  1  0.395906  0.000381  0.250000  1
  Sn  Sn14  1  0.000381  0.395906  0.250000  1
  Bi  Bi15  1  0.394853  0.394853  0.750000  1
  Se  Se16  1  0.000734  0.000734  0.999824  1
  Se  Se17  1  0.000734  0.000734  0.500176  1
