# generated using pymatgen
data_Pr8Cd2PtRh
_symmetry_space_group_name_H-M   'P 1'
_cell_length_a   10.05701258
_cell_length_b   10.05701220
_cell_length_c   10.07275100
_cell_angle_alpha   59.94821479
_cell_angle_beta   59.94821605
_cell_angle_gamma   59.97609602
_symmetry_Int_Tables_number   1
_chemical_formula_structural   Pr8Cd2PtRh
_chemical_formula_sum   'Pr16 Cd4 Pt2 Rh2'
_cell_volume   719.70131896
_cell_formula_units_Z   2
loop_
 _symmetry_equiv_pos_site_id
 _symmetry_equiv_pos_as_xyz
  1  'x, y, z'
loop_
 _atom_site_type_symbol
 _atom_site_label
 _atom_site_symmetry_multiplicity
 _atom_site_fract_x
 _atom_site_fract_y
 _atom_site_fract_z
 _atom_site_occupancy
  Pr  Pr0  1  0.348445  0.348445  0.352706  1
  Pr  Pr1  1  0.348445  0.348445  0.950404  1
  Pr  Pr2  1  0.347026  0.952019  0.350478  1
  Pr  Pr3  1  0.952019  0.347026  0.350478  1
  Pr  Pr4  1  0.813182  0.190011  0.191113  1
  Pr  Pr5  1  0.190011  0.813182  0.805693  1
  Pr  Pr6  1  0.190011  0.813182  0.191113  1
  Pr  Pr7  1  0.813182  0.190011  0.805693  1
  Pr  Pr8  1  0.189774  0.189774  0.810226  1
  Pr  Pr9  1  0.808180  0.808180  0.191820  1
  Pr  Pr10  1  0.937241  0.562268  0.564264  1
  Pr  Pr11  1  0.562268  0.937241  0.936227  1
  Pr  Pr12  1  0.562268  0.937241  0.564264  1
  Pr  Pr13  1  0.937241  0.562268  0.936227  1
  Pr  Pr14  1  0.562544  0.562544  0.937456  1
  Pr  Pr15  1  0.936368  0.936368  0.563632  1
  Cd  Cd16  1  0.580025  0.580025  0.579885  1
  Cd  Cd17  1  0.580025  0.580025  0.260063  1
  Cd  Cd18  1  0.580595  0.258934  0.580235  1
  Cd  Cd19  1  0.258934  0.580595  0.580235  1
  Pt  Pt20  1  0.144157  0.571581  0.142131  1
  Pt  Pt21  1  0.571581  0.144157  0.142131  1
  Rh  Rh22  1  0.143239  0.143239  0.141449  1
  Rh  Rh23  1  0.143239  0.143239  0.572074  1
