# generated using pymatgen
data_TmLu5Al24Ru7Rh
_symmetry_space_group_name_H-M   'P 1'
_cell_length_a   8.73757692
_cell_length_b   8.76279470
_cell_length_c   9.54724825
_cell_angle_alpha   89.98727309
_cell_angle_beta   89.86688152
_cell_angle_gamma   120.08761728
_symmetry_Int_Tables_number   1
_chemical_formula_structural   TmLu5Al24Ru7Rh
_chemical_formula_sum   'Tm1 Lu5 Al24 Ru7 Rh1'
_cell_volume   632.49435565
_cell_formula_units_Z   1
loop_
 _symmetry_equiv_pos_site_id
 _symmetry_equiv_pos_as_xyz
  1  'x, y, z'
loop_
 _atom_site_type_symbol
 _atom_site_label
 _atom_site_symmetry_multiplicity
 _atom_site_fract_x
 _atom_site_fract_y
 _atom_site_fract_z
 _atom_site_occupancy
  Tm  Tm0  1  0.195503  0.387429  0.251149  1
  Lu  Lu1  1  0.804037  0.192409  0.748712  1
  Lu  Lu2  1  0.196081  0.807681  0.251294  1
  Lu  Lu3  1  0.389584  0.194813  0.749612  1
  Lu  Lu4  1  0.610310  0.805223  0.250379  1
  Lu  Lu5  1  0.804061  0.611757  0.748764  1
  Al  Al6  1  0.665400  0.332688  0.978940  1
  Al  Al7  1  0.334760  0.667604  0.020835  1
  Al  Al8  1  0.333237  0.666793  0.480031  1
  Al  Al9  1  0.666888  0.333471  0.520199  1
  Al  Al10  1  0.837750  0.163198  0.421845  1
  Al  Al11  1  0.162016  0.836679  0.578339  1
  Al  Al12  1  0.326245  0.162982  0.422425  1
  Al  Al13  1  0.163531  0.838681  0.921532  1
  Al  Al14  1  0.673842  0.836880  0.577768  1
  Al  Al15  1  0.836276  0.161208  0.078287  1
  Al  Al16  1  0.837926  0.674658  0.421791  1
  Al  Al17  1  0.674576  0.837220  0.921860  1
  Al  Al18  1  0.162043  0.325323  0.578535  1
  Al  Al19  1  0.325527  0.162660  0.077950  1
  Al  Al20  1  0.163580  0.324807  0.921352  1
  Al  Al21  1  0.836414  0.675182  0.078318  1
  Al  Al22  1  0.437950  0.560681  0.750224  1
  Al  Al23  1  0.562495  0.439365  0.249756  1
  Al  Al24  1  0.121723  0.560882  0.749419  1
  Al  Al25  1  0.877877  0.439182  0.250603  1
  Al  Al26  1  0.437892  0.877196  0.750218  1
  Al  Al27  1  0.562048  0.122756  0.249783  1
  Al  Al28  1  0.999804  0.999944  0.749987  1
  Al  Al29  1  0.999911  0.999573  0.250016  1
  Ru  Ru30  1  0.500321  0.500176  0.999824  1
  Ru  Ru31  1  0.500317  0.500135  0.500168  1
  Ru  Ru32  1  0.500089  0.000158  0.999985  1
  Ru  Ru33  1  0.999849  0.500147  0.500189  1
  Ru  Ru34  1  0.500103  0.000193  0.500027  1
  Ru  Ru35  1  0.000104  0.000076  0.000155  1
  Ru  Ru36  1  0.000052  0.000060  0.499883  1
  Rh  Rh37  1  0.999877  0.500131  0.999846  1
