# generated using pymatgen
data_K2Sn(PSe4)2
_symmetry_space_group_name_H-M   'P 1'
_cell_length_a   11.39400292
_cell_length_b   12.92466417
_cell_length_c   13.03766800
_cell_angle_alpha   81.72957313
_cell_angle_beta   70.95327979
_cell_angle_gamma   63.84600312
_symmetry_Int_Tables_number   1
_chemical_formula_structural   K2Sn(PSe4)2
_chemical_formula_sum   'K8 Sn4 P8 Se32'
_cell_volume   1629.04245320
_cell_formula_units_Z   4
loop_
 _symmetry_equiv_pos_site_id
 _symmetry_equiv_pos_as_xyz
  1  'x, y, z'
loop_
 _atom_site_type_symbol
 _atom_site_label
 _atom_site_symmetry_multiplicity
 _atom_site_fract_x
 _atom_site_fract_y
 _atom_site_fract_z
 _atom_site_occupancy
  K  K0  1  0.242697  0.869941  0.083510  1
  K  K1  1  0.346074  0.597791  0.358259  1
  K  K2  1  0.783994  0.610818  0.311216  1
  K  K3  1  0.943864  0.402209  0.858259  1
  K  K4  1  0.112638  0.130059  0.583510  1
  K  K5  1  0.852956  0.901837  0.009070  1
  K  K6  1  0.754793  0.098163  0.509070  1
  K  K7  1  0.394811  0.389182  0.811216  1
  Sn  Sn8  1  0.142054  0.241652  0.191075  1
  Sn  Sn9  1  0.746541  0.762593  0.685198  1
  Sn  Sn10  1  0.383707  0.758348  0.691075  1
  Sn  Sn11  1  0.509133  0.237407  0.185198  1
  P  P12  1  0.459597  0.939694  0.201684  1
  P  P13  1  0.874981  0.166076  0.134510  1
  P  P14  1  0.170685  0.539806  0.168168  1
  P  P15  1  0.083301  0.672920  0.743614  1
  P  P16  1  0.710491  0.460194  0.668168  1
  P  P17  1  0.399292  0.060306  0.701684  1
  P  P18  1  0.041056  0.833924  0.634510  1
  P  P19  1  0.756221  0.327080  0.243614  1
  Se  Se20  1  0.232651  0.027223  0.287950  1
  Se  Se21  1  0.607561  0.502274  0.849371  1
  Se  Se22  1  0.391359  0.485772  0.102380  1
  Se  Se23  1  0.468739  0.017520  0.520311  1
  Se  Se24  1  0.195238  0.698335  0.845192  1
  Se  Se25  1  0.539117  0.543979  0.591678  1
  Se  Se26  1  0.512641  0.707116  0.848583  1
  Se  Se27  1  0.071393  0.179379  0.037564  1
  Se  Se28  1  0.390429  0.186821  0.030267  1
  Se  Se29  1  0.259874  0.972777  0.787950  1
  Se  Se30  1  0.893572  0.301665  0.345192  1
  Se  Se31  1  0.913549  0.986707  0.734496  1
  Se  Se32  1  0.042964  0.725916  0.187271  1
  Se  Se33  1  0.486259  0.982480  0.020311  1
  Se  Se34  1  0.715771  0.477616  0.141525  1
  Se  Se35  1  0.771948  0.194141  0.009668  1
  Se  Se36  1  0.575742  0.310571  0.361614  1
  Se  Se37  1  0.277862  0.246638  0.693010  1
  Se  Se38  1  0.582958  0.012466  0.752819  1
  Se  Se39  1  0.886314  0.689429  0.861614  1
  Se  Se40  1  0.768880  0.274084  0.687271  1
  Se  Se41  1  0.109835  0.497726  0.349371  1
  Se  Se42  1  0.524501  0.753362  0.193010  1
  Se  Se43  1  0.900256  0.013293  0.234496  1
  Se  Se44  1  0.966089  0.805859  0.509668  1
  Se  Se45  1  0.250772  0.820621  0.537564  1
  Se  Se46  1  0.577250  0.813179  0.530267  1
  Se  Se47  1  0.595424  0.987534  0.252819  1
  Se  Se48  1  0.219757  0.292884  0.348583  1
  Se  Se49  1  0.193386  0.522384  0.641525  1
  Se  Se50  1  0.083095  0.456021  0.091678  1
  Se  Se51  1  0.877130  0.514228  0.602380  1
