# generated using pymatgen
data_ErNp2O6
_symmetry_space_group_name_H-M   'P 1'
_cell_length_a   6.53739630
_cell_length_b   6.53739654
_cell_length_c   6.53739644
_cell_angle_alpha   146.25204004
_cell_angle_beta   131.71362711
_cell_angle_gamma   60.20506415
_symmetry_Int_Tables_number   1
_chemical_formula_structural   ErNp2O6
_chemical_formula_sum   'Er1 Np2 O6'
_cell_volume   114.78811180
_cell_formula_units_Z   1
loop_
 _symmetry_equiv_pos_site_id
 _symmetry_equiv_pos_as_xyz
  1  'x, y, z'
loop_
 _atom_site_type_symbol
 _atom_site_label
 _atom_site_symmetry_multiplicity
 _atom_site_fract_x
 _atom_site_fract_y
 _atom_site_fract_z
 _atom_site_occupancy
  Er  Er0  1  0.000000  0.000000  0.000000  1
  Np  Np1  1  0.664813  0.664813  0.000000  1
  Np  Np2  1  0.335187  0.335187  0.000000  1
  O  O3  1  0.256684  0.500000  0.756684  1
  O  O4  1  0.915793  0.169665  0.746128  1
  O  O5  1  0.576462  0.830335  0.746128  1
  O  O6  1  0.743316  0.500000  0.243316  1
  O  O7  1  0.423538  0.169665  0.253872  1
  O  O8  1  0.084207  0.830335  0.253872  1
