# generated using pymatgen
data_Dy8Zr7Si16W5
_symmetry_space_group_name_H-M   'P 1'
_cell_length_a   7.15197151
_cell_length_b   7.14464956
_cell_length_c   13.13815222
_cell_angle_alpha   90.27392082
_cell_angle_beta   90.17709651
_cell_angle_gamma   90.08480209
_symmetry_Int_Tables_number   1
_chemical_formula_structural   Dy8Zr7Si16W5
_chemical_formula_sum   'Dy8 Zr7 Si16 W5'
_cell_volume   671.32601014
_cell_formula_units_Z   1
loop_
 _symmetry_equiv_pos_site_id
 _symmetry_equiv_pos_as_xyz
  1  'x, y, z'
loop_
 _atom_site_type_symbol
 _atom_site_label
 _atom_site_symmetry_multiplicity
 _atom_site_fract_x
 _atom_site_fract_y
 _atom_site_fract_z
 _atom_site_occupancy
  Dy  Dy0  1  0.001498  0.653186  0.036660  1
  Dy  Dy1  1  0.999797  0.346434  0.531682  1
  Dy  Dy2  1  0.654600  0.998074  0.965632  1
  Dy  Dy3  1  0.152920  0.500264  0.784687  1
  Dy  Dy4  1  0.844465  0.499758  0.284105  1
  Dy  Dy5  1  0.500924  0.155417  0.218984  1
  Dy  Dy6  1  0.497633  0.843607  0.713287  1
  Dy  Dy7  1  0.345996  0.000852  0.465576  1
  Zr  Zr8  1  0.853452  0.991010  0.376288  1
  Zr  Zr9  1  0.008902  0.150414  0.127134  1
  Zr  Zr10  1  0.995588  0.850203  0.620833  1
  Zr  Zr11  1  0.503833  0.351362  0.624380  1
  Zr  Zr12  1  0.146708  0.005804  0.876016  1
  Zr  Zr13  1  0.497268  0.646419  0.124856  1
  Zr  Zr14  1  0.647132  0.494422  0.875319  1
  Si  Si15  1  0.060763  0.701818  0.430297  1
  Si  Si16  1  0.950321  0.296290  0.934605  1
  Si  Si17  1  0.704225  0.051330  0.566680  1
  Si  Si18  1  0.206145  0.455004  0.189856  1
  Si  Si19  1  0.794547  0.548860  0.683127  1
  Si  Si20  1  0.450386  0.202905  0.816204  1
  Si  Si21  1  0.543836  0.788790  0.317617  1
  Si  Si22  1  0.297418  0.950503  0.067515  1
  Si  Si23  1  0.799910  0.859813  0.183556  1
  Si  Si24  1  0.301326  0.637625  0.559962  1
  Si  Si25  1  0.701783  0.356889  0.067261  1
  Si  Si26  1  0.630943  0.304811  0.428969  1
  Si  Si27  1  0.358315  0.701129  0.933670  1
  Si  Si28  1  0.141296  0.213466  0.322215  1
  Si  Si29  1  0.197014  0.141813  0.683166  1
  Si  Si30  1  0.857955  0.800238  0.814419  1
  W  W31  1  0.354270  0.507897  0.374267  1
  W  W32  1  0.669750  0.670926  0.497877  1
  W  W33  1  0.822985  0.174601  0.749752  1
  W  W34  1  0.179674  0.822817  0.251364  1
  W  W35  1  0.326423  0.325250  0.002179  1
