# generated using pymatgen
data_Cs2LaTb(SiSe4)2
_symmetry_space_group_name_H-M   'P 1'
_cell_length_a   7.12357600
_cell_length_b   9.94867074
_cell_length_c   13.52800388
_cell_angle_alpha   71.38598355
_cell_angle_beta   90.00000000
_cell_angle_gamma   90.00000000
_symmetry_Int_Tables_number   1
_chemical_formula_structural   Cs2LaTb(SiSe4)2
_chemical_formula_sum   'Cs4 La2 Tb2 Si4 Se16'
_cell_volume   908.58026366
_cell_formula_units_Z   2
loop_
 _symmetry_equiv_pos_site_id
 _symmetry_equiv_pos_as_xyz
  1  'x, y, z'
loop_
 _atom_site_type_symbol
 _atom_site_label
 _atom_site_symmetry_multiplicity
 _atom_site_fract_x
 _atom_site_fract_y
 _atom_site_fract_z
 _atom_site_occupancy
  Cs  Cs0  1  0.258064  0.434350  0.386591  1
  Cs  Cs1  1  0.758064  0.565650  0.113409  1
  Cs  Cs2  1  0.743903  0.567177  0.608944  1
  Cs  Cs3  1  0.243903  0.432823  0.891056  1
  La  La4  1  0.798539  0.047111  0.633063  1
  La  La5  1  0.298539  0.952889  0.866937  1
  Tb  Tb6  1  0.192976  0.954708  0.363659  1
  Tb  Tb7  1  0.692976  0.045292  0.136341  1
  Si  Si8  1  0.746625  0.165739  0.351378  1
  Si  Si9  1  0.246625  0.834261  0.148622  1
  Si  Si10  1  0.252754  0.829443  0.643678  1
  Si  Si11  1  0.752754  0.170557  0.856322  1
  Se  Se12  1  0.022241  0.204980  0.757849  1
  Se  Se13  1  0.786149  0.933589  0.450712  1
  Se  Se14  1  0.519352  0.212761  0.732624  1
  Se  Se15  1  0.730714  0.937736  0.957302  1
  Se  Se16  1  0.761998  0.316722  0.446600  1
  Se  Se17  1  0.972860  0.808153  0.242321  1
  Se  Se18  1  0.261998  0.683278  0.053400  1
  Se  Se19  1  0.230714  0.062264  0.542698  1
  Se  Se20  1  0.736836  0.309472  0.960216  1
  Se  Se21  1  0.476991  0.797736  0.272930  1
  Se  Se22  1  0.019352  0.787239  0.767376  1
  Se  Se23  1  0.236836  0.690528  0.539784  1
  Se  Se24  1  0.472860  0.191847  0.257679  1
  Se  Se25  1  0.976991  0.202264  0.227070  1
  Se  Se26  1  0.522241  0.795020  0.742151  1
  Se  Se27  1  0.286149  0.066411  0.049288  1
