# generated using pymatgen
data_Mg12Al3SiPd8
_symmetry_space_group_name_H-M   'P 1'
_cell_length_a   8.43991766
_cell_length_b   8.39391935
_cell_length_c   8.43991700
_cell_angle_alpha   59.81855701
_cell_angle_beta   59.99999866
_cell_angle_gamma   59.81855290
_symmetry_Int_Tables_number   1
_chemical_formula_structural   Mg12Al3SiPd8
_chemical_formula_sum   'Mg12 Al3 Si1 Pd8'
_cell_volume   421.62819463
_cell_formula_units_Z   1
loop_
 _symmetry_equiv_pos_site_id
 _symmetry_equiv_pos_as_xyz
  1  'x, y, z'
loop_
 _atom_site_type_symbol
 _atom_site_label
 _atom_site_symmetry_multiplicity
 _atom_site_fract_x
 _atom_site_fract_y
 _atom_site_fract_z
 _atom_site_occupancy
  Mg  Mg0  1  0.195033  0.804483  0.195033  1
  Mg  Mg1  1  0.196189  0.194313  0.804749  1
  Mg  Mg2  1  0.195033  0.804483  0.805451  1
  Mg  Mg3  1  0.054967  0.445517  0.054967  1
  Mg  Mg4  1  0.804749  0.194313  0.196189  1
  Mg  Mg5  1  0.054967  0.445517  0.444549  1
  Mg  Mg6  1  0.445251  0.055687  0.445251  1
  Mg  Mg7  1  0.444549  0.445517  0.054967  1
  Mg  Mg8  1  0.805451  0.804483  0.195033  1
  Mg  Mg9  1  0.445251  0.055687  0.053811  1
  Mg  Mg10  1  0.804749  0.194313  0.804749  1
  Mg  Mg11  1  0.053811  0.055687  0.445251  1
  Al  Al12  1  0.625000  0.625000  0.625000  1
  Al  Al13  1  0.125000  0.625000  0.625000  1
  Al  Al14  1  0.625000  0.625000  0.125000  1
  Si  Si15  1  0.625000  0.125000  0.625000  1
  Pd  Pd16  1  0.839211  0.482367  0.839211  1
  Pd  Pd17  1  0.836235  0.842673  0.836235  1
  Pd  Pd18  1  0.484859  0.842673  0.836235  1
  Pd  Pd19  1  0.410789  0.767633  0.410789  1
  Pd  Pd20  1  0.836235  0.842673  0.484859  1
  Pd  Pd21  1  0.765141  0.407327  0.413765  1
  Pd  Pd22  1  0.413765  0.407327  0.413765  1
  Pd  Pd23  1  0.413765  0.407327  0.765141  1
