# generated using pymatgen
data_Rb3Ca2BiO6
_symmetry_space_group_name_H-M   'P 1'
_cell_length_a   6.10275194
_cell_length_b   6.10275122
_cell_length_c   6.83249963
_cell_angle_alpha   98.51209051
_cell_angle_beta   98.51208277
_cell_angle_gamma   119.98536497
_symmetry_Int_Tables_number   1
_chemical_formula_structural   Rb3Ca2BiO6
_chemical_formula_sum   'Rb3 Ca2 Bi1 O6'
_cell_volume   210.53224932
_cell_formula_units_Z   1
loop_
 _symmetry_equiv_pos_site_id
 _symmetry_equiv_pos_as_xyz
  1  'x, y, z'
loop_
 _atom_site_type_symbol
 _atom_site_label
 _atom_site_symmetry_multiplicity
 _atom_site_fract_x
 _atom_site_fract_y
 _atom_site_fract_z
 _atom_site_occupancy
  Rb  Rb0  1  0.828032  0.171967  0.500002  1
  Rb  Rb1  1  0.500001  0.500001  0.500001  1
  Rb  Rb2  1  0.171967  0.828032  0.500002  1
  Ca  Ca3  1  0.666306  0.333696  0.999999  1
  Ca  Ca4  1  0.333696  0.666306  0.999999  1
  Bi  Bi5  1  0.000001  0.000001  0.000001  1
  O  O6  1  0.757045  0.757045  0.184226  1
  O  O7  1  0.365244  0.060535  0.180092  1
  O  O8  1  0.060535  0.365244  0.180092  1
  O  O9  1  0.939465  0.634757  0.819909  1
  O  O10  1  0.634757  0.939465  0.819909  1
  O  O11  1  0.242954  0.242954  0.815776  1
