# generated using pymatgen
data_Dy2HoAg(Pt2O7)2
_symmetry_space_group_name_H-M   'P 1'
_cell_length_a   7.33663717
_cell_length_b   7.33379316
_cell_length_c   7.19935504
_cell_angle_alpha   59.35887154
_cell_angle_beta   59.36717796
_cell_angle_gamma   59.98717115
_symmetry_Int_Tables_number   1
_chemical_formula_structural   Dy2HoAg(Pt2O7)2
_chemical_formula_sum   'Dy2 Ho1 Ag1 Pt4 O14'
_cell_volume   271.21509977
_cell_formula_units_Z   1
loop_
 _symmetry_equiv_pos_site_id
 _symmetry_equiv_pos_as_xyz
  1  'x, y, z'
loop_
 _atom_site_type_symbol
 _atom_site_label
 _atom_site_symmetry_multiplicity
 _atom_site_fract_x
 _atom_site_fract_y
 _atom_site_fract_z
 _atom_site_occupancy
  Dy  Dy0  1  0.625000  0.125000  0.125000  1
  Dy  Dy1  1  0.125000  0.125000  0.125000  1
  Ho  Ho2  1  0.125000  0.625000  0.125000  1
  Ag  Ag3  1  0.125000  0.125000  0.625000  1
  Pt  Pt4  1  0.625000  0.625000  0.625000  1
  Pt  Pt5  1  0.125000  0.625000  0.625000  1
  Pt  Pt6  1  0.625000  0.125000  0.625000  1
  Pt  Pt7  1  0.625000  0.625000  0.125000  1
  O  O8  1  0.292760  0.694826  0.719655  1
  O  O9  1  0.532055  0.965148  0.970742  1
  O  O10  1  0.694993  0.293034  0.718752  1
  O  O11  1  0.293222  0.293034  0.718752  1
  O  O12  1  0.718644  0.717753  0.278971  1
  O  O13  1  0.005269  0.003354  0.986109  1
  O  O14  1  0.284631  0.717753  0.278971  1
  O  O15  1  0.965369  0.532247  0.971029  1
  O  O16  1  0.956778  0.956966  0.531248  1
  O  O17  1  0.531356  0.532247  0.971029  1
  O  O18  1  0.244731  0.246646  0.263891  1
  O  O19  1  0.555007  0.956966  0.531248  1
  O  O20  1  0.717945  0.284852  0.279258  1
  O  O21  1  0.957240  0.555174  0.530345  1
