# generated using pymatgen
data_CeNd(NbS2)6
_symmetry_space_group_name_H-M   'P 1'
_cell_length_a   5.80377700
_cell_length_b   5.80377661
_cell_length_c   14.31364700
_cell_angle_alpha   90.00000000
_cell_angle_beta   90.00000000
_cell_angle_gamma   120.00001934
_symmetry_Int_Tables_number   1
_chemical_formula_structural   CeNd(NbS2)6
_chemical_formula_sum   'Ce1 Nd1 Nb6 S12'
_cell_volume   417.54400671
_cell_formula_units_Z   1
loop_
 _symmetry_equiv_pos_site_id
 _symmetry_equiv_pos_as_xyz
  1  'x, y, z'
loop_
 _atom_site_type_symbol
 _atom_site_label
 _atom_site_symmetry_multiplicity
 _atom_site_fract_x
 _atom_site_fract_y
 _atom_site_fract_z
 _atom_site_occupancy
  Ce  Ce0  1  0.000000  0.000000  0.000000  1
  Nd  Nd1  1  0.000000  0.000000  0.500000  1
  Nb  Nb2  1  0.333333  0.666667  0.250492  1
  Nb  Nb3  1  0.666667  0.333333  0.749508  1
  Nb  Nb4  1  0.666667  0.333333  0.250492  1
  Nb  Nb5  1  0.333333  0.666667  0.749508  1
  Nb  Nb6  1  0.000000  0.000000  0.250975  1
  Nb  Nb7  1  0.000000  0.000000  0.749025  1
  S  S8  1  0.338380  0.000000  0.140490  1
  S  S9  1  0.000000  0.338380  0.140490  1
  S  S10  1  0.661620  0.661620  0.140490  1
  S  S11  1  0.339869  0.339869  0.638911  1
  S  S12  1  0.660131  0.660131  0.361089  1
  S  S13  1  0.660131  0.000000  0.638911  1
  S  S14  1  0.000000  0.660131  0.638911  1
  S  S15  1  0.000000  0.661620  0.859510  1
  S  S16  1  0.338380  0.338380  0.859510  1
  S  S17  1  0.000000  0.339869  0.361089  1
  S  S18  1  0.339869  0.000000  0.361089  1
  S  S19  1  0.661620  0.000000  0.859510  1
