# generated using pymatgen
data_Er8Nb11Si16Os
_symmetry_space_group_name_H-M   'P 1'
_cell_length_a   7.01879364
_cell_length_b   7.01879395
_cell_length_c   12.94739749
_cell_angle_alpha   90.10349702
_cell_angle_beta   89.89650229
_cell_angle_gamma   89.73820943
_symmetry_Int_Tables_number   1
_chemical_formula_structural   Er8Nb11Si16Os
_chemical_formula_sum   'Er8 Nb11 Si16 Os1'
_cell_volume   637.82493161
_cell_formula_units_Z   1
loop_
 _symmetry_equiv_pos_site_id
 _symmetry_equiv_pos_as_xyz
  1  'x, y, z'
loop_
 _atom_site_type_symbol
 _atom_site_label
 _atom_site_symmetry_multiplicity
 _atom_site_fract_x
 _atom_site_fract_y
 _atom_site_fract_z
 _atom_site_occupancy
  Er  Er0  1  0.341757  0.003675  0.467857  1
  Er  Er1  1  0.496618  0.841958  0.718782  1
  Er  Er2  1  0.500168  0.158655  0.216354  1
  Er  Er3  1  0.841958  0.496618  0.281218  1
  Er  Er4  1  0.158655  0.500168  0.783646  1
  Er  Er5  1  0.657159  0.998318  0.968919  1
  Er  Er6  1  0.003675  0.341757  0.532143  1
  Er  Er7  1  0.998318  0.657159  0.031081  1
  Nb  Nb8  1  0.174331  0.829328  0.247308  1
  Nb  Nb9  1  0.829328  0.174331  0.752692  1
  Nb  Nb10  1  0.671735  0.671735  0.500000  1
  Nb  Nb11  1  0.149329  0.001472  0.874635  1
  Nb  Nb12  1  0.494522  0.657907  0.124003  1
  Nb  Nb13  1  0.504149  0.347747  0.625782  1
  Nb  Nb14  1  0.657907  0.494522  0.875997  1
  Nb  Nb15  1  0.347747  0.504149  0.374218  1
  Nb  Nb16  1  0.847889  0.994210  0.374239  1
  Nb  Nb17  1  0.001472  0.149329  0.125365  1
  Nb  Nb18  1  0.994210  0.847889  0.625761  1
  Si  Si19  1  0.203638  0.135575  0.683134  1
  Si  Si20  1  0.367922  0.699132  0.932956  1
  Si  Si21  1  0.635176  0.296060  0.432795  1
  Si  Si22  1  0.699132  0.367922  0.067044  1
  Si  Si23  1  0.296060  0.635176  0.567205  1
  Si  Si24  1  0.794742  0.865453  0.182470  1
  Si  Si25  1  0.135575  0.203638  0.316866  1
  Si  Si26  1  0.865453  0.794742  0.817530  1
  Si  Si27  1  0.291656  0.959388  0.060640  1
  Si  Si28  1  0.545775  0.795193  0.313706  1
  Si  Si29  1  0.449019  0.207923  0.818458  1
  Si  Si30  1  0.795193  0.545775  0.686294  1
  Si  Si31  1  0.207923  0.449019  0.181542  1
  Si  Si32  1  0.705636  0.046540  0.564647  1
  Si  Si33  1  0.959388  0.291656  0.939360  1
  Si  Si34  1  0.046540  0.705636  0.435353  1
  Os  Os35  1  0.330246  0.330246  0.000000  1
