# generated using pymatgen
data_La16Tb3DyIr12
_symmetry_space_group_name_H-M   'P 1'
_cell_length_a   11.39217400
_cell_length_b   11.39217400
_cell_length_c   6.55523900
_cell_angle_alpha   90.00000000
_cell_angle_beta   90.00000000
_cell_angle_gamma   90.00000000
_symmetry_Int_Tables_number   1
_chemical_formula_structural   La16Tb3DyIr12
_chemical_formula_sum   'La16 Tb3 Dy1 Ir12'
_cell_volume   850.74959227
_cell_formula_units_Z   1
loop_
 _symmetry_equiv_pos_site_id
 _symmetry_equiv_pos_as_xyz
  1  'x, y, z'
loop_
 _atom_site_type_symbol
 _atom_site_label
 _atom_site_symmetry_multiplicity
 _atom_site_fract_x
 _atom_site_fract_y
 _atom_site_fract_z
 _atom_site_occupancy
  La  La0  1  0.288299  0.088676  0.386544  1
  La  La1  1  0.288371  0.911326  0.886475  1
  La  La2  1  0.711629  0.088674  0.886475  1
  La  La3  1  0.711701  0.911324  0.386544  1
  La  La4  1  0.588664  0.788410  0.886500  1
  La  La5  1  0.588695  0.211587  0.386484  1
  La  La6  1  0.411305  0.788413  0.386484  1
  La  La7  1  0.411336  0.211590  0.886500  1
  La  La8  1  0.211587  0.411305  0.613516  1
  La  La9  1  0.211590  0.588664  0.113500  1
  La  La10  1  0.788410  0.411336  0.113500  1
  La  La11  1  0.788413  0.588695  0.613516  1
  La  La12  1  0.911326  0.711629  0.113525  1
  La  La13  1  0.911324  0.288299  0.613456  1
  La  La14  1  0.088676  0.711701  0.613456  1
  La  La15  1  0.088674  0.288371  0.113525  1
  Tb  Tb16  1  0.000000  0.000000  0.000000  1
  Tb  Tb17  1  0.500000  0.500000  0.000000  1
  Tb  Tb18  1  0.500000  0.500000  0.500000  1
  Dy  Dy19  1  0.000000  0.000000  0.500000  1
  Ir  Ir20  1  0.850870  0.149144  0.250296  1
  Ir  Ir21  1  0.850856  0.850870  0.749704  1
  Ir  Ir22  1  0.149144  0.149130  0.749704  1
  Ir  Ir23  1  0.149130  0.850856  0.250296  1
  Ir  Ir24  1  0.649325  0.350666  0.750006  1
  Ir  Ir25  1  0.649334  0.649325  0.249994  1
  Ir  Ir26  1  0.350666  0.350675  0.249994  1
  Ir  Ir27  1  0.350675  0.649334  0.750006  1
  Ir  Ir28  1  0.500000  0.000000  0.118011  1
  Ir  Ir29  1  0.500000  0.000000  0.618042  1
  Ir  Ir30  1  0.000000  0.500000  0.881989  1
  Ir  Ir31  1  0.000000  0.500000  0.381958  1
