# generated using pymatgen
data_EuCo4MoP3
_symmetry_space_group_name_H-M   'P 1'
_cell_length_a   3.73113600
_cell_length_b   10.58763300
_cell_length_c   12.05524000
_cell_angle_alpha   90.00000000
_cell_angle_beta   90.00000000
_cell_angle_gamma   90.00000000
_symmetry_Int_Tables_number   1
_chemical_formula_structural   EuCo4MoP3
_chemical_formula_sum   'Eu4 Co16 Mo4 P12'
_cell_volume   476.22897905
_cell_formula_units_Z   4
loop_
 _symmetry_equiv_pos_site_id
 _symmetry_equiv_pos_as_xyz
  1  'x, y, z'
loop_
 _atom_site_type_symbol
 _atom_site_label
 _atom_site_symmetry_multiplicity
 _atom_site_fract_x
 _atom_site_fract_y
 _atom_site_fract_z
 _atom_site_occupancy
  Eu  Eu0  1  0.250000  0.582549  0.704452  1
  Eu  Eu1  1  0.250000  0.917451  0.204452  1
  Eu  Eu2  1  0.750000  0.417451  0.295548  1
  Eu  Eu3  1  0.750000  0.082549  0.795548  1
  Co  Co4  1  0.250000  0.405557  0.490291  1
  Co  Co5  1  0.250000  0.094443  0.990291  1
  Co  Co6  1  0.750000  0.594443  0.509709  1
  Co  Co7  1  0.750000  0.905557  0.009709  1
  Co  Co8  1  0.250000  0.220516  0.174744  1
  Co  Co9  1  0.250000  0.279484  0.674744  1
  Co  Co10  1  0.750000  0.779484  0.825256  1
  Co  Co11  1  0.750000  0.720516  0.325256  1
  Co  Co12  1  0.250000  0.884925  0.699307  1
  Co  Co13  1  0.250000  0.615075  0.199307  1
  Co  Co14  1  0.750000  0.115075  0.300693  1
  Co  Co15  1  0.750000  0.384925  0.800693  1
  Co  Co16  1  0.250000  0.464942  0.935133  1
  Co  Co17  1  0.250000  0.035058  0.435133  1
  Co  Co18  1  0.750000  0.535058  0.064867  1
  Co  Co19  1  0.750000  0.964942  0.564867  1
  Mo  Mo20  1  0.250000  0.706516  0.988506  1
  Mo  Mo21  1  0.250000  0.793484  0.488506  1
  Mo  Mo22  1  0.750000  0.293484  0.011494  1
  Mo  Mo23  1  0.750000  0.206516  0.511494  1
  P  P24  1  0.250000  0.420474  0.114185  1
  P  P25  1  0.250000  0.079526  0.614185  1
  P  P26  1  0.750000  0.579526  0.885815  1
  P  P27  1  0.750000  0.920474  0.385815  1
  P  P28  1  0.250000  0.272636  0.862717  1
  P  P29  1  0.250000  0.227364  0.362717  1
  P  P30  1  0.750000  0.727364  0.137283  1
  P  P31  1  0.750000  0.772636  0.637283  1
  P  P32  1  0.250000  0.597995  0.393252  1
  P  P33  1  0.250000  0.902005  0.893252  1
  P  P34  1  0.750000  0.402005  0.606748  1
  P  P35  1  0.750000  0.097995  0.106748  1
