# generated using pymatgen
data_LiU8S17
_symmetry_space_group_name_H-M   'P 1'
_cell_length_a   7.82166815
_cell_length_b   7.82166894
_cell_length_c   10.38415476
_cell_angle_alpha   80.06239120
_cell_angle_beta   80.06239018
_cell_angle_gamma   64.08608260
_symmetry_Int_Tables_number   1
_chemical_formula_structural   LiU8S17
_chemical_formula_sum   'Li1 U8 S17'
_cell_volume   559.44208990
_cell_formula_units_Z   1
loop_
 _symmetry_equiv_pos_site_id
 _symmetry_equiv_pos_as_xyz
  1  'x, y, z'
loop_
 _atom_site_type_symbol
 _atom_site_label
 _atom_site_symmetry_multiplicity
 _atom_site_fract_x
 _atom_site_fract_y
 _atom_site_fract_z
 _atom_site_occupancy
  Li  Li0  1  0.000000  0.000000  0.000000  1
  U  U1  1  0.817547  0.300796  0.297434  1
  U  U2  1  0.300796  0.817547  0.297434  1
  U  U3  1  0.182453  0.699204  0.702566  1
  U  U4  1  0.699204  0.182453  0.702566  1
  U  U5  1  0.798626  0.798626  0.456659  1
  U  U6  1  0.201374  0.201374  0.543341  1
  U  U7  1  0.315766  0.315766  0.014771  1
  U  U8  1  0.684234  0.684234  0.985229  1
  S  S9  1  0.179798  0.566921  0.466300  1
  S  S10  1  0.566921  0.179798  0.466300  1
  S  S11  1  0.820202  0.433079  0.533700  1
  S  S12  1  0.433079  0.820202  0.533700  1
  S  S13  1  0.940765  0.330010  0.037372  1
  S  S14  1  0.330010  0.940765  0.037372  1
  S  S15  1  0.059235  0.669990  0.962628  1
  S  S16  1  0.669990  0.059235  0.962628  1
  S  S17  1  0.941414  0.941414  0.230082  1
  S  S18  1  0.058586  0.058586  0.769918  1
  S  S19  1  0.787725  0.787725  0.720249  1
  S  S20  1  0.212275  0.212275  0.279751  1
  S  S21  1  0.698844  0.698844  0.246044  1
  S  S22  1  0.301156  0.301156  0.753956  1
  S  S23  1  0.479480  0.479480  0.170823  1
  S  S24  1  0.520520  0.520520  0.829177  1
  S  S25  1  0.000000  0.000000  0.500000  1
