# generated using pymatgen
data_Dy11Th5(MgTc)4
_symmetry_space_group_name_H-M   'P 1'
_cell_length_a   9.75522108
_cell_length_b   9.80069867
_cell_length_c   9.80069852
_cell_angle_alpha   60.09475574
_cell_angle_beta   60.15337047
_cell_angle_gamma   60.15338023
_symmetry_Int_Tables_number   1
_chemical_formula_structural   Dy11Th5(MgTc)4
_chemical_formula_sum   'Dy11 Th5 Mg4 Tc4'
_cell_volume   664.58508651
_cell_formula_units_Z   1
loop_
 _symmetry_equiv_pos_site_id
 _symmetry_equiv_pos_as_xyz
  1  'x, y, z'
loop_
 _atom_site_type_symbol
 _atom_site_label
 _atom_site_symmetry_multiplicity
 _atom_site_fract_x
 _atom_site_fract_y
 _atom_site_fract_z
 _atom_site_occupancy
  Dy  Dy0  1  0.187740  0.812260  0.812260  1
  Dy  Dy1  1  0.190061  0.809174  0.187334  1
  Dy  Dy2  1  0.813432  0.187334  0.809174  1
  Dy  Dy3  1  0.190061  0.187334  0.809174  1
  Dy  Dy4  1  0.813432  0.809174  0.187334  1
  Dy  Dy5  1  0.934945  0.565055  0.565055  1
  Dy  Dy6  1  0.562707  0.937293  0.937293  1
  Dy  Dy7  1  0.561450  0.938128  0.561084  1
  Dy  Dy8  1  0.939338  0.561084  0.938128  1
  Dy  Dy9  1  0.561450  0.561084  0.938128  1
  Dy  Dy10  1  0.939338  0.938128  0.561084  1
  Th  Th11  1  0.342731  0.347248  0.347248  1
  Th  Th12  1  0.344785  0.345976  0.964454  1
  Th  Th13  1  0.344785  0.964454  0.345976  1
  Th  Th14  1  0.962773  0.347248  0.347248  1
  Th  Th15  1  0.814200  0.185800  0.185800  1
  Mg  Mg16  1  0.580067  0.580046  0.580046  1
  Mg  Mg17  1  0.579390  0.582032  0.259185  1
  Mg  Mg18  1  0.579390  0.259185  0.582032  1
  Mg  Mg19  1  0.259839  0.580046  0.580046  1
  Tc  Tc20  1  0.124700  0.145330  0.145330  1
  Tc  Tc21  1  0.144374  0.139267  0.571986  1
  Tc  Tc22  1  0.144374  0.571986  0.139267  1
  Tc  Tc23  1  0.584640  0.145330  0.145330  1
