# generated using pymatgen
data_Ba2Ag(PO4)2
_symmetry_space_group_name_H-M   'P 1'
_cell_length_a   6.78377807
_cell_length_b   6.78377850
_cell_length_c   6.97939018
_cell_angle_alpha   77.23801474
_cell_angle_beta   77.23801163
_cell_angle_gamma   46.73469876
_symmetry_Int_Tables_number   1
_chemical_formula_structural   Ba2Ag(PO4)2
_chemical_formula_sum   'Ba2 Ag1 P2 O8'
_cell_volume   227.01323745
_cell_formula_units_Z   1
loop_
 _symmetry_equiv_pos_site_id
 _symmetry_equiv_pos_as_xyz
  1  'x, y, z'
loop_
 _atom_site_type_symbol
 _atom_site_label
 _atom_site_symmetry_multiplicity
 _atom_site_fract_x
 _atom_site_fract_y
 _atom_site_fract_z
 _atom_site_occupancy
  Ba  Ba0  1  0.172597  0.172597  0.786922  1
  Ba  Ba1  1  0.827403  0.827403  0.213078  1
  Ag  Ag2  1  0.500000  0.500000  0.500000  1
  P  P3  1  0.140221  0.140221  0.292520  1
  P  P4  1  0.859779  0.859779  0.707480  1
  O  O5  1  0.099172  0.630616  0.569813  1
  O  O6  1  0.369384  0.900828  0.430187  1
  O  O7  1  0.900828  0.369384  0.430187  1
  O  O8  1  0.630616  0.099172  0.569813  1
  O  O9  1  0.256648  0.256648  0.148040  1
  O  O10  1  0.951559  0.951559  0.819432  1
  O  O11  1  0.048441  0.048441  0.180568  1
  O  O12  1  0.743352  0.743352  0.851960  1
