# generated using pymatgen
data_Sr6Fe2MoO12
_symmetry_space_group_name_H-M   'P 1'
_cell_length_a   8.87765422
_cell_length_b   8.87765494
_cell_length_c   6.95746924
_cell_angle_alpha   67.58425277
_cell_angle_beta   67.58425239
_cell_angle_gamma   36.86921916
_symmetry_Int_Tables_number   1
_chemical_formula_structural   Sr6Fe2MoO12
_chemical_formula_sum   'Sr6 Fe2 Mo1 O12'
_cell_volume   301.25001874
_cell_formula_units_Z   1
loop_
 _symmetry_equiv_pos_site_id
 _symmetry_equiv_pos_as_xyz
  1  'x, y, z'
loop_
 _atom_site_type_symbol
 _atom_site_label
 _atom_site_symmetry_multiplicity
 _atom_site_fract_x
 _atom_site_fract_y
 _atom_site_fract_z
 _atom_site_occupancy
  Sr  Sr0  1  0.873428  0.873428  0.715953  1
  Sr  Sr1  1  0.222354  0.222354  0.708780  1
  Sr  Sr2  1  0.548799  0.548799  0.702436  1
  Sr  Sr3  1  0.451201  0.451201  0.297564  1
  Sr  Sr4  1  0.777646  0.777646  0.291220  1
  Sr  Sr5  1  0.126572  0.126572  0.284047  1
  Fe  Fe6  1  0.668901  0.668901  0.998531  1
  Fe  Fe7  1  0.331099  0.331099  0.001469  1
  Mo  Mo8  1  0.000000  0.000000  0.000000  1
  O  O9  1  0.948128  0.948128  0.312019  1
  O  O10  1  0.282734  0.282734  0.324971  1
  O  O11  1  0.608944  0.608944  0.324601  1
  O  O12  1  0.391056  0.391056  0.675399  1
  O  O13  1  0.717266  0.717266  0.675029  1
  O  O14  1  0.051872  0.051872  0.687981  1
  O  O15  1  0.500000  0.000000  0.000000  1
  O  O16  1  0.836989  0.323571  0.000612  1
  O  O17  1  0.163011  0.676429  0.999388  1
  O  O18  1  0.000000  0.500000  0.000000  1
  O  O19  1  0.323571  0.836989  0.000612  1
  O  O20  1  0.676429  0.163011  0.999388  1
