# generated using pymatgen
data_Nd3Ho(Sn5Pt3)2
_symmetry_space_group_name_H-M   'P 1'
_cell_length_a   13.66998172
_cell_length_b   13.66998149
_cell_length_c   7.52441136
_cell_angle_alpha   90.25558203
_cell_angle_beta   89.74441705
_cell_angle_gamma   160.90768631
_symmetry_Int_Tables_number   1
_chemical_formula_structural   Nd3Ho(Sn5Pt3)2
_chemical_formula_sum   'Nd3 Ho1 Sn10 Pt6'
_cell_volume   459.90985381
_cell_formula_units_Z   1
loop_
 _symmetry_equiv_pos_site_id
 _symmetry_equiv_pos_as_xyz
  1  'x, y, z'
loop_
 _atom_site_type_symbol
 _atom_site_label
 _atom_site_symmetry_multiplicity
 _atom_site_fract_x
 _atom_site_fract_y
 _atom_site_fract_z
 _atom_site_occupancy
  Nd  Nd0  1  0.172877  0.827123  0.746926  1
  Nd  Nd1  1  0.827086  0.172914  0.246850  1
  Nd  Nd2  1  0.477213  0.522787  0.763186  1
  Ho  Ho3  1  0.523660  0.476340  0.260731  1
  Sn  Sn4  1  0.879974  0.120026  0.765799  1
  Sn  Sn5  1  0.120120  0.879880  0.265953  1
  Sn  Sn6  1  0.702023  0.297977  0.451419  1
  Sn  Sn7  1  0.297076  0.702924  0.950484  1
  Sn  Sn8  1  0.598662  0.401338  0.890939  1
  Sn  Sn9  1  0.401912  0.598088  0.391890  1
  Sn  Sn10  1  0.953263  0.046737  0.103014  1
  Sn  Sn11  1  0.047467  0.952533  0.604116  1
  Sn  Sn12  1  0.289534  0.710466  0.521696  1
  Sn  Sn13  1  0.710122  0.289878  0.021621  1
  Pt  Pt14  1  0.051249  0.948751  0.989472  1
  Pt  Pt15  1  0.950521  0.049479  0.475609  1
  Pt  Pt16  1  0.776213  0.223787  0.728282  1
  Pt  Pt17  1  0.223609  0.776391  0.228146  1
  Pt  Pt18  1  0.396303  0.603697  0.023578  1
  Pt  Pt19  1  0.601115  0.398885  0.514288  1
