# generated using pymatgen
data_Ca2Al4Au3
_symmetry_space_group_name_H-M   'P 1'
_cell_length_a   14.04062700
_cell_length_b   14.04062667
_cell_length_c   4.33951600
_cell_angle_alpha   90.00000000
_cell_angle_beta   90.00000000
_cell_angle_gamma   120.00000313
_symmetry_Int_Tables_number   1
_chemical_formula_structural   Ca2Al4Au3
_chemical_formula_sum   'Ca8 Al16 Au12'
_cell_volume   740.87494177
_cell_formula_units_Z   4
loop_
 _symmetry_equiv_pos_site_id
 _symmetry_equiv_pos_as_xyz
  1  'x, y, z'
loop_
 _atom_site_type_symbol
 _atom_site_label
 _atom_site_symmetry_multiplicity
 _atom_site_fract_x
 _atom_site_fract_y
 _atom_site_fract_z
 _atom_site_occupancy
  Ca  Ca0  1  0.449614  0.000000  0.000000  1
  Ca  Ca1  1  0.000000  0.449614  0.000000  1
  Ca  Ca2  1  0.550386  0.550386  0.000000  1
  Ca  Ca3  1  0.333333  0.666667  0.000000  1
  Ca  Ca4  1  0.666667  0.333333  0.000000  1
  Ca  Ca5  1  0.821945  0.000000  0.500000  1
  Ca  Ca6  1  0.000000  0.821945  0.500000  1
  Ca  Ca7  1  0.178055  0.178055  0.500000  1
  Al  Al8  1  0.184341  0.382784  0.000000  1
  Al  Al9  1  0.617216  0.801559  0.000000  1
  Al  Al10  1  0.382784  0.184341  0.000000  1
  Al  Al11  1  0.198441  0.815659  0.000000  1
  Al  Al12  1  0.801559  0.617216  0.000000  1
  Al  Al13  1  0.815659  0.198441  0.000000  1
  Al  Al14  1  0.280265  0.000000  0.500000  1
  Al  Al15  1  0.000000  0.280265  0.500000  1
  Al  Al16  1  0.719735  0.719735  0.500000  1
  Al  Al17  1  0.348295  0.467540  0.500000  1
  Al  Al18  1  0.532460  0.880756  0.500000  1
  Al  Al19  1  0.467540  0.348295  0.500000  1
  Al  Al20  1  0.119244  0.651705  0.500000  1
  Al  Al21  1  0.880756  0.532460  0.500000  1
  Al  Al22  1  0.651705  0.119244  0.500000  1
  Al  Al23  1  0.000000  0.000000  0.000000  1
  Au  Au24  1  0.174122  0.490114  0.500000  1
  Au  Au25  1  0.509886  0.684008  0.500000  1
  Au  Au26  1  0.490114  0.174122  0.500000  1
  Au  Au27  1  0.315992  0.825878  0.500000  1
  Au  Au28  1  0.684008  0.509886  0.500000  1
  Au  Au29  1  0.825878  0.315992  0.500000  1
  Au  Au30  1  0.182766  0.000000  0.000000  1
  Au  Au31  1  0.000000  0.182766  0.000000  1
  Au  Au32  1  0.817234  0.817234  0.000000  1
  Au  Au33  1  0.654890  0.000000  0.000000  1
  Au  Au34  1  0.000000  0.654890  0.000000  1
  Au  Au35  1  0.345110  0.345110  0.000000  1
