# generated using pymatgen
data_La5Yb5Ru4
_symmetry_space_group_name_H-M   'P 1'
_cell_length_a   8.85918965
_cell_length_b   8.80440805
_cell_length_c   7.37316231
_cell_angle_alpha   84.55836010
_cell_angle_beta   84.57170293
_cell_angle_gamma   44.24310493
_symmetry_Int_Tables_number   1
_chemical_formula_structural   La5Yb5Ru4
_chemical_formula_sum   'La5 Yb5 Ru4'
_cell_volume   399.15117653
_cell_formula_units_Z   1
loop_
 _symmetry_equiv_pos_site_id
 _symmetry_equiv_pos_as_xyz
  1  'x, y, z'
loop_
 _atom_site_type_symbol
 _atom_site_label
 _atom_site_symmetry_multiplicity
 _atom_site_fract_x
 _atom_site_fract_y
 _atom_site_fract_z
 _atom_site_occupancy
  La  La0  1  0.787159  0.640035  0.670078  1
  La  La1  1  0.633937  0.799679  0.166672  1
  La  La2  1  0.212148  0.363238  0.321658  1
  La  La3  1  0.572531  0.415823  0.766388  1
  La  La4  1  0.435066  0.566661  0.252867  1
  Yb  Yb5  1  0.017538  0.798540  0.909765  1
  Yb  Yb6  1  0.201423  0.977904  0.590964  1
  Yb  Yb7  1  0.984679  0.195053  0.094858  1
  Yb  Yb8  1  0.800854  0.015336  0.409344  1
  Yb  Yb9  1  0.348143  0.212641  0.815617  1
  Ru  Ru10  1  0.177746  0.592249  0.546837  1
  Ru  Ru11  1  0.411843  0.813924  0.947290  1
  Ru  Ru12  1  0.820587  0.412626  0.449661  1
  Ru  Ru13  1  0.596346  0.196293  0.058001  1
