# generated using pymatgen
data_Sr2Pt7
_symmetry_space_group_name_H-M   'P 1'
_cell_length_a   13.71438567
_cell_length_b   13.71438575
_cell_length_c   13.71438620
_cell_angle_alpha   23.26084582
_cell_angle_beta   23.26084496
_cell_angle_gamma   23.26084488
_symmetry_Int_Tables_number   1
_chemical_formula_structural   Sr2Pt7
_chemical_formula_sum   'Sr4 Pt14'
_cell_volume   353.17863930
_cell_formula_units_Z   2
loop_
 _symmetry_equiv_pos_site_id
 _symmetry_equiv_pos_as_xyz
  1  'x, y, z'
loop_
 _atom_site_type_symbol
 _atom_site_label
 _atom_site_symmetry_multiplicity
 _atom_site_fract_x
 _atom_site_fract_y
 _atom_site_fract_z
 _atom_site_occupancy
  Sr  Sr0  1  0.949024  0.949024  0.949024  1
  Sr  Sr1  1  0.050976  0.050976  0.050976  1
  Sr  Sr2  1  0.851223  0.851223  0.851223  1
  Sr  Sr3  1  0.148777  0.148777  0.148777  1
  Pt  Pt4  1  0.500000  0.500000  0.500000  1
  Pt  Pt5  1  0.722208  0.722208  0.722208  1
  Pt  Pt6  1  0.277792  0.277792  0.277792  1
  Pt  Pt7  1  0.612480  0.612480  0.612480  1
  Pt  Pt8  1  0.387520  0.387520  0.387520  1
  Pt  Pt9  1  0.500000  0.500000  0.000000  1
  Pt  Pt10  1  0.000000  0.500000  0.500000  1
  Pt  Pt11  1  0.500000  0.000000  0.500000  1
  Pt  Pt12  1  0.389634  0.890273  0.389634  1
  Pt  Pt13  1  0.389634  0.389634  0.890273  1
  Pt  Pt14  1  0.890273  0.389634  0.389634  1
  Pt  Pt15  1  0.610366  0.109727  0.610366  1
  Pt  Pt16  1  0.610366  0.610366  0.109727  1
  Pt  Pt17  1  0.109727  0.610366  0.610366  1
