# generated using pymatgen
data_Hf6Ta5Ga11Os7
_symmetry_space_group_name_H-M   'P 1'
_cell_length_a   8.87300197
_cell_length_b   8.87300201
_cell_length_c   8.83311650
_cell_angle_alpha   59.85051467
_cell_angle_beta   59.85051386
_cell_angle_gamma   59.99999389
_symmetry_Int_Tables_number   1
_chemical_formula_structural   Hf6Ta5Ga11Os7
_chemical_formula_sum   'Hf6 Ta5 Ga11 Os7'
_cell_volume   490.63114769
_cell_formula_units_Z   1
loop_
 _symmetry_equiv_pos_site_id
 _symmetry_equiv_pos_as_xyz
  1  'x, y, z'
loop_
 _atom_site_type_symbol
 _atom_site_label
 _atom_site_symmetry_multiplicity
 _atom_site_fract_x
 _atom_site_fract_y
 _atom_site_fract_z
 _atom_site_occupancy
  Hf  Hf0  1  0.702492  0.702492  0.300958  1
  Hf  Hf1  1  0.294057  0.702492  0.300958  1
  Hf  Hf2  1  0.702492  0.294057  0.300958  1
  Hf  Hf3  1  0.307114  0.307114  0.701578  1
  Hf  Hf4  1  0.684194  0.307114  0.701578  1
  Hf  Hf5  1  0.307114  0.684194  0.701578  1
  Ta  Ta6  1  0.878091  0.878091  0.365727  1
  Ta  Ta7  1  0.874437  0.371363  0.879762  1
  Ta  Ta8  1  0.371363  0.874437  0.879762  1
  Ta  Ta9  1  0.874437  0.874437  0.879762  1
  Ta  Ta10  1  0.126385  0.126385  0.620844  1
  Ga  Ga11  1  0.118951  0.642669  0.119429  1
  Ga  Ga12  1  0.642669  0.118951  0.119429  1
  Ga  Ga13  1  0.118951  0.118951  0.119429  1
  Ga  Ga14  1  0.652993  0.652993  0.041021  1
  Ga  Ga15  1  0.656314  0.033123  0.654251  1
  Ga  Ga16  1  0.033123  0.656314  0.654251  1
  Ga  Ga17  1  0.656314  0.656314  0.654251  1
  Ga  Ga18  1  0.337716  0.337716  0.986850  1
  Ga  Ga19  1  0.342456  0.975949  0.339141  1
  Ga  Ga20  1  0.975949  0.342456  0.339141  1
  Ga  Ga21  1  0.342456  0.342456  0.339141  1
  Os  Os22  1  0.005337  0.005337  0.983988  1
  Os  Os23  1  0.998448  0.998448  0.505493  1
  Os  Os24  1  0.497611  0.998448  0.505493  1
  Os  Os25  1  0.998448  0.497611  0.505493  1
  Os  Os26  1  0.501610  0.501610  0.999910  1
  Os  Os27  1  0.996869  0.501610  0.999910  1
  Os  Os28  1  0.501610  0.996869  0.999910  1
