# generated using pymatgen
data_TmPa(CoSi2)2
_symmetry_space_group_name_H-M   'P 1'
_cell_length_a   8.41167120
_cell_length_b   8.41167176
_cell_length_c   3.95952400
_cell_angle_alpha   90.00000000
_cell_angle_beta   90.00000000
_cell_angle_gamma   152.74247150
_symmetry_Int_Tables_number   1
_chemical_formula_structural   TmPa(CoSi2)2
_chemical_formula_sum   'Tm1 Pa1 Co2 Si4'
_cell_volume   128.31111195
_cell_formula_units_Z   1
loop_
 _symmetry_equiv_pos_site_id
 _symmetry_equiv_pos_as_xyz
  1  'x, y, z'
loop_
 _atom_site_type_symbol
 _atom_site_label
 _atom_site_symmetry_multiplicity
 _atom_site_fract_x
 _atom_site_fract_y
 _atom_site_fract_z
 _atom_site_occupancy
  Tm  Tm0  1  0.393637  0.606363  0.750000  1
  Pa  Pa1  1  0.608777  0.391223  0.250000  1
  Co  Co2  1  0.821897  0.178103  0.250000  1
  Co  Co3  1  0.174635  0.825365  0.750000  1
  Si  Si4  1  0.958788  0.041212  0.250000  1
  Si  Si5  1  0.039391  0.960609  0.750000  1
  Si  Si6  1  0.251933  0.748067  0.250000  1
  Si  Si7  1  0.750943  0.249057  0.750000  1
