# generated using pymatgen
data_Sc6Sn6IrPt3Rh2
_symmetry_space_group_name_H-M   'P 1'
_cell_length_a   7.57926100
_cell_length_b   7.57926162
_cell_length_c   7.00143500
_cell_angle_alpha   90.00000000
_cell_angle_beta   90.00000000
_cell_angle_gamma   120.00000164
_symmetry_Int_Tables_number   1
_chemical_formula_structural   Sc6Sn6IrPt3Rh2
_chemical_formula_sum   'Sc6 Sn6 Ir1 Pt3 Rh2'
_cell_volume   348.31441409
_cell_formula_units_Z   1
loop_
 _symmetry_equiv_pos_site_id
 _symmetry_equiv_pos_as_xyz
  1  'x, y, z'
loop_
 _atom_site_type_symbol
 _atom_site_label
 _atom_site_symmetry_multiplicity
 _atom_site_fract_x
 _atom_site_fract_y
 _atom_site_fract_z
 _atom_site_occupancy
  Sc  Sc0  1  0.402167  0.012083  0.246603  1
  Sc  Sc1  1  0.609917  0.597833  0.246603  1
  Sc  Sc2  1  0.987917  0.390083  0.246603  1
  Sc  Sc3  1  0.397577  0.003631  0.753431  1
  Sc  Sc4  1  0.606054  0.602423  0.753431  1
  Sc  Sc5  1  0.996369  0.393946  0.753431  1
  Sn  Sn6  1  0.274013  0.275007  0.999663  1
  Sn  Sn7  1  0.000994  0.725987  0.999663  1
  Sn  Sn8  1  0.004129  0.732047  0.499738  1
  Sn  Sn9  1  0.727918  0.995871  0.499738  1
  Sn  Sn10  1  0.267953  0.272082  0.499738  1
  Sn  Sn11  1  0.724993  0.999006  0.999663  1
  Ir  Ir12  1  0.666667  0.333333  0.994112  1
  Pt  Pt13  1  0.333333  0.666667  0.492069  1
  Pt  Pt14  1  0.333333  0.666667  0.007423  1
  Pt  Pt15  1  0.666667  0.333333  0.508691  1
  Rh  Rh16  1  0.000000  0.000000  0.754815  1
  Rh  Rh17  1  0.000000  0.000000  0.244587  1
