# generated using pymatgen
data_Tb4TmLu3Al4
_symmetry_space_group_name_H-M   'P 1'
_cell_length_a   5.08124800
_cell_length_b   6.53380267
_cell_length_c   9.38871500
_cell_angle_alpha   90.24073970
_cell_angle_beta   90.00000000
_cell_angle_gamma   90.00000000
_symmetry_Int_Tables_number   1
_chemical_formula_structural   Tb4TmLu3Al4
_chemical_formula_sum   'Tb4 Tm1 Lu3 Al4'
_cell_volume   311.70138266
_cell_formula_units_Z   1
loop_
 _symmetry_equiv_pos_site_id
 _symmetry_equiv_pos_as_xyz
  1  'x, y, z'
loop_
 _atom_site_type_symbol
 _atom_site_label
 _atom_site_symmetry_multiplicity
 _atom_site_fract_x
 _atom_site_fract_y
 _atom_site_fract_z
 _atom_site_occupancy
  Tb  Tb0  1  0.250000  0.811146  0.927930  1
  Tb  Tb1  1  0.250000  0.308665  0.571979  1
  Tb  Tb2  1  0.750000  0.189494  0.074084  1
  Tb  Tb3  1  0.750000  0.690928  0.426050  1
  Tm  Tm4  1  0.750000  0.527642  0.787874  1
  Lu  Lu5  1  0.250000  0.972651  0.287516  1
  Lu  Lu6  1  0.250000  0.473360  0.210807  1
  Lu  Lu7  1  0.750000  0.027237  0.712549  1
  Al  Al8  1  0.250000  0.292097  0.897552  1
  Al  Al9  1  0.250000  0.793238  0.602036  1
  Al  Al10  1  0.750000  0.707013  0.103390  1
  Al  Al11  1  0.750000  0.206528  0.398232  1
