# generated using pymatgen
data_Pt16Pb7
_symmetry_space_group_name_H-M   'P 1'
_cell_length_a   9.50277361
_cell_length_b   9.50277331
_cell_length_c   9.50277316
_cell_angle_alpha   131.77576341
_cell_angle_beta   131.77576841
_cell_angle_gamma   70.58341602
_symmetry_Int_Tables_number   1
_chemical_formula_structural   Pt16Pb7
_chemical_formula_sum   'Pt16 Pb7'
_cell_volume   467.57692369
_cell_formula_units_Z   1
loop_
 _symmetry_equiv_pos_site_id
 _symmetry_equiv_pos_as_xyz
  1  'x, y, z'
loop_
 _atom_site_type_symbol
 _atom_site_label
 _atom_site_symmetry_multiplicity
 _atom_site_fract_x
 _atom_site_fract_y
 _atom_site_fract_z
 _atom_site_occupancy
  Pt  Pt0  1  0.436627  0.191534  0.000000  1
  Pt  Pt1  1  0.686404  0.936639  0.495214  1
  Pt  Pt2  1  0.936639  0.686404  0.495214  1
  Pt  Pt3  1  0.191534  0.436627  0.000000  1
  Pt  Pt4  1  0.313596  0.808809  0.250234  1
  Pt  Pt5  1  0.937019  0.678034  0.000000  1
  Pt  Pt6  1  0.808466  0.808466  0.245093  1
  Pt  Pt7  1  0.063361  0.558575  0.749766  1
  Pt  Pt8  1  0.062981  0.062981  0.741015  1
  Pt  Pt9  1  0.678034  0.937019  0.000000  1
  Pt  Pt10  1  0.563373  0.563373  0.754907  1
  Pt  Pt11  1  0.808809  0.313596  0.250234  1
  Pt  Pt12  1  0.558575  0.063361  0.749766  1
  Pt  Pt13  1  0.191191  0.441425  0.504786  1
  Pt  Pt14  1  0.321966  0.321966  0.258985  1
  Pt  Pt15  1  0.441425  0.191191  0.504786  1
  Pb  Pb16  1  0.101324  0.101324  0.412703  1
  Pb  Pb17  1  0.688620  0.688620  0.587297  1
  Pb  Pb18  1  0.898676  0.311380  0.000000  1
  Pb  Pb19  1  0.750000  0.250000  0.500000  1
  Pb  Pb20  1  0.500000  0.500000  0.000000  1
  Pb  Pb21  1  0.311380  0.898676  0.000000  1
  Pb  Pb22  1  0.250000  0.750000  0.500000  1
