# generated using pymatgen
data_TbDy15Cd4(NiIr)2
_symmetry_space_group_name_H-M   'P 1'
_cell_length_a   9.58521384
_cell_length_b   9.58521386
_cell_length_c   9.63212400
_cell_angle_alpha   59.83796802
_cell_angle_beta   59.83796798
_cell_angle_gamma   59.61056230
_symmetry_Int_Tables_number   1
_chemical_formula_structural   TbDy15Cd4(NiIr)2
_chemical_formula_sum   'Tb1 Dy15 Cd4 Ni2 Ir2'
_cell_volume   622.37826516
_cell_formula_units_Z   1
loop_
 _symmetry_equiv_pos_site_id
 _symmetry_equiv_pos_as_xyz
  1  'x, y, z'
loop_
 _atom_site_type_symbol
 _atom_site_label
 _atom_site_symmetry_multiplicity
 _atom_site_fract_x
 _atom_site_fract_y
 _atom_site_fract_z
 _atom_site_occupancy
  Tb  Tb0  1  0.938828  0.938828  0.561172  1
  Dy  Dy1  1  0.350185  0.350185  0.344546  1
  Dy  Dy2  1  0.350185  0.350185  0.955085  1
  Dy  Dy3  1  0.353187  0.952240  0.347286  1
  Dy  Dy4  1  0.952240  0.353187  0.347286  1
  Dy  Dy5  1  0.809050  0.187712  0.190525  1
  Dy  Dy6  1  0.187712  0.809050  0.812714  1
  Dy  Dy7  1  0.187712  0.809050  0.190525  1
  Dy  Dy8  1  0.809050  0.187712  0.812714  1
  Dy  Dy9  1  0.189386  0.189386  0.810614  1
  Dy  Dy10  1  0.811202  0.811202  0.188798  1
  Dy  Dy11  1  0.937378  0.561014  0.565953  1
  Dy  Dy12  1  0.561014  0.937378  0.935655  1
  Dy  Dy13  1  0.561014  0.937378  0.565953  1
  Dy  Dy14  1  0.937378  0.561014  0.935655  1
  Dy  Dy15  1  0.565942  0.565942  0.934058  1
  Cd  Cd16  1  0.579964  0.579964  0.582788  1
  Cd  Cd17  1  0.579964  0.579964  0.257284  1
  Cd  Cd18  1  0.580005  0.255980  0.582007  1
  Cd  Cd19  1  0.255980  0.580005  0.582007  1
  Ni  Ni20  1  0.141655  0.574835  0.141754  1
  Ni  Ni21  1  0.574835  0.141655  0.141754  1
  Ir  Ir22  1  0.143066  0.143066  0.141094  1
  Ir  Ir23  1  0.143066  0.143066  0.572774  1
