# generated using pymatgen
data_Dy3Ho4Er5Os4
_symmetry_space_group_name_H-M   'P 1'
_cell_length_a   6.29079832
_cell_length_b   7.37764743
_cell_length_c   9.00373616
_cell_angle_alpha   90.00320725
_cell_angle_beta   90.02163417
_cell_angle_gamma   89.96820397
_symmetry_Int_Tables_number   1
_chemical_formula_structural   Dy3Ho4Er5Os4
_chemical_formula_sum   'Dy3 Ho4 Er5 Os4'
_cell_volume   417.87493400
_cell_formula_units_Z   1
loop_
 _symmetry_equiv_pos_site_id
 _symmetry_equiv_pos_as_xyz
  1  'x, y, z'
loop_
 _atom_site_type_symbol
 _atom_site_label
 _atom_site_symmetry_multiplicity
 _atom_site_fract_x
 _atom_site_fract_y
 _atom_site_fract_z
 _atom_site_occupancy
  Dy  Dy0  1  0.870273  0.538814  0.249976  1
  Dy  Dy1  1  0.629915  0.038793  0.249930  1
  Dy  Dy2  1  0.130123  0.461059  0.750060  1
  Ho  Ho3  1  0.332877  0.675682  0.062737  1
  Ho  Ho4  1  0.167589  0.174740  0.437373  1
  Ho  Ho5  1  0.666928  0.324543  0.562937  1
  Ho  Ho6  1  0.369702  0.960916  0.750055  1
  Er  Er7  1  0.832145  0.825059  0.936798  1
  Er  Er8  1  0.667000  0.324562  0.937090  1
  Er  Er9  1  0.832066  0.824985  0.563213  1
  Er  Er10  1  0.332912  0.675662  0.437209  1
  Er  Er11  1  0.167605  0.174686  0.062585  1
  Os  Os12  1  0.041717  0.882993  0.250021  1
  Os  Os13  1  0.458258  0.382947  0.249923  1
  Os  Os14  1  0.959547  0.116758  0.750143  1
  Os  Os15  1  0.541343  0.617801  0.749949  1
