# generated using pymatgen
data_HfNb5(GaRu2)6
_symmetry_space_group_name_H-M   'P 1'
_cell_length_a   4.40066400
_cell_length_b   6.23435700
_cell_length_c   13.18112400
_cell_angle_alpha   90.00011165
_cell_angle_beta   89.99979152
_cell_angle_gamma   90.00332998
_symmetry_Int_Tables_number   1
_chemical_formula_structural   HfNb5(GaRu2)6
_chemical_formula_sum   'Hf1 Nb5 Ga6 Ru12'
_cell_volume   361.62822823
_cell_formula_units_Z   1
loop_
 _symmetry_equiv_pos_site_id
 _symmetry_equiv_pos_as_xyz
  1  'x, y, z'
loop_
 _atom_site_type_symbol
 _atom_site_label
 _atom_site_symmetry_multiplicity
 _atom_site_fract_x
 _atom_site_fract_y
 _atom_site_fract_z
 _atom_site_occupancy
  Hf  Hf0  1  0.500177  0.499978  0.833334  1
  Nb  Nb1  1  0.999996  0.000008  0.999317  1
  Nb  Nb2  1  0.499808  0.499990  0.166220  1
  Nb  Nb3  1  0.999812  0.000017  0.333363  1
  Nb  Nb4  1  0.499999  0.499987  0.500439  1
  Nb  Nb5  1  0.000192  0.000011  0.667322  1
  Ga  Ga6  1  0.000002  0.499989  0.999725  1
  Ga  Ga7  1  0.499861  0.000023  0.166892  1
  Ga  Ga8  1  0.999829  0.499969  0.333341  1
  Ga  Ga9  1  0.499994  0.000032  0.499792  1
  Ga  Ga10  1  0.000156  0.499982  0.666956  1
  Ga  Ga11  1  0.500169  0.000009  0.833315  1
  Ru  Ru12  1  0.500171  0.247576  0.002323  1
  Ru  Ru13  1  0.499823  0.752428  0.002329  1
  Ru  Ru14  1  0.999666  0.250576  0.167333  1
  Ru  Ru15  1  0.000028  0.749422  0.167336  1
  Ru  Ru16  1  0.500021  0.249744  0.333373  1
  Ru  Ru17  1  0.499613  0.750242  0.333377  1
  Ru  Ru18  1  0.999822  0.250581  0.499339  1
  Ru  Ru19  1  0.000181  0.749413  0.499333  1
  Ru  Ru20  1  0.500335  0.247573  0.664349  1
  Ru  Ru21  1  0.499976  0.752435  0.664337  1
  Ru  Ru22  1  0.999974  0.245338  0.833279  1
  Ru  Ru23  1  0.000399  0.754672  0.833278  1
