# generated using pymatgen
data_Ho3Pa(Pd2Pb)2
_symmetry_space_group_name_H-M   'P 1'
_cell_length_a   7.94287843
_cell_length_b   7.94287843
_cell_length_c   3.60529300
_cell_angle_alpha   90.00000000
_cell_angle_beta   90.00000000
_cell_angle_gamma   91.46537145
_symmetry_Int_Tables_number   1
_chemical_formula_structural   Ho3Pa(Pd2Pb)2
_chemical_formula_sum   'Ho3 Pa1 Pd4 Pb2'
_cell_volume   227.38108937
_cell_formula_units_Z   1
loop_
 _symmetry_equiv_pos_site_id
 _symmetry_equiv_pos_as_xyz
  1  'x, y, z'
loop_
 _atom_site_type_symbol
 _atom_site_label
 _atom_site_symmetry_multiplicity
 _atom_site_fract_x
 _atom_site_fract_y
 _atom_site_fract_z
 _atom_site_occupancy
  Ho  Ho0  1  0.170256  0.330683  0.500000  1
  Ho  Ho1  1  0.830683  0.670256  0.500000  1
  Ho  Ho2  1  0.327350  0.827350  0.500000  1
  Pa  Pa3  1  0.669281  0.169281  0.500000  1
  Pd  Pd4  1  0.384336  0.131269  0.000000  1
  Pd  Pd5  1  0.119990  0.619990  0.000000  1
  Pd  Pd6  1  0.631269  0.884336  0.000000  1
  Pd  Pd7  1  0.864130  0.364130  0.000000  1
  Pb  Pb8  1  0.007184  0.995520  0.000000  1
  Pb  Pb9  1  0.495520  0.507184  0.000000  1
