# generated using pymatgen
data_Ho3Al3SnPt2
_symmetry_space_group_name_H-M   'P 1'
_cell_length_a   7.15698300
_cell_length_b   7.15698404
_cell_length_c   4.20402000
_cell_angle_alpha   90.00000000
_cell_angle_beta   90.00000000
_cell_angle_gamma   119.99999983
_symmetry_Int_Tables_number   1
_chemical_formula_structural   Ho3Al3SnPt2
_chemical_formula_sum   'Ho3 Al3 Sn1 Pt2'
_cell_volume   186.48995322
_cell_formula_units_Z   1
loop_
 _symmetry_equiv_pos_site_id
 _symmetry_equiv_pos_as_xyz
  1  'x, y, z'
loop_
 _atom_site_type_symbol
 _atom_site_label
 _atom_site_symmetry_multiplicity
 _atom_site_fract_x
 _atom_site_fract_y
 _atom_site_fract_z
 _atom_site_occupancy
  Ho  Ho0  1  0.595551  0.015566  0.500000  1
  Ho  Ho1  1  0.420014  0.404449  0.500000  1
  Ho  Ho2  1  0.984434  0.579986  0.500000  1
  Al  Al3  1  0.776975  0.757406  0.000000  1
  Al  Al4  1  0.980430  0.223025  0.000000  1
  Al  Al5  1  0.242594  0.019570  0.000000  1
  Sn  Sn6  1  0.333333  0.666667  0.000000  1
  Pt  Pt7  1  0.666667  0.333333  0.000000  1
  Pt  Pt8  1  0.000000  0.000000  0.500000  1
