# generated using pymatgen
data_Ho3Er(Si5Pt3)2
_symmetry_space_group_name_H-M   'P 1'
_cell_length_a   8.14034293
_cell_length_b   8.13986824
_cell_length_c   8.13986895
_cell_angle_alpha   136.27879193
_cell_angle_beta   104.39298612
_cell_angle_gamma   91.64468182
_symmetry_Int_Tables_number   1
_chemical_formula_structural   Ho3Er(Si5Pt3)2
_chemical_formula_sum   'Ho3 Er1 Si10 Pt6'
_cell_volume   343.14591887
_cell_formula_units_Z   1
loop_
 _symmetry_equiv_pos_site_id
 _symmetry_equiv_pos_as_xyz
  1  'x, y, z'
loop_
 _atom_site_type_symbol
 _atom_site_label
 _atom_site_symmetry_multiplicity
 _atom_site_fract_x
 _atom_site_fract_y
 _atom_site_fract_z
 _atom_site_occupancy
  Ho  Ho0  1  0.641785  0.370378  0.271407  1
  Ho  Ho1  1  0.358250  0.629634  0.728616  1
  Ho  Ho2  1  0.098890  0.870346  0.228543  1
  Er  Er3  1  0.901229  0.129677  0.771552  1
  Si  Si4  1  0.271816  0.521886  0.250024  1
  Si  Si5  1  0.728193  0.478235  0.750129  1
  Si  Si6  1  0.728193  0.978064  0.249958  1
  Si  Si7  1  0.271816  0.021792  0.749929  1
  Si  Si8  1  0.460550  0.112080  0.348469  1
  Si  Si9  1  0.539846  0.888286  0.651561  1
  Si  Si10  1  0.763379  0.612017  0.151362  1
  Si  Si11  1  0.236474  0.387793  0.848682  1
  Si  Si12  1  0.000071  0.250186  0.250172  1
  Si  Si13  1  0.000071  0.749898  0.749885  1
  Pt  Pt14  1  0.250574  0.137577  0.112998  1
  Pt  Pt15  1  0.749366  0.862601  0.886766  1
  Pt  Pt16  1  0.024244  0.637534  0.386710  1
  Pt  Pt17  1  0.975303  0.361934  0.613369  1
  Pt  Pt18  1  0.499975  0.249619  0.749512  1
  Pt  Pt19  1  0.499975  0.750464  0.250357  1
