# generated using pymatgen
data_Dy3HoReTcB12
_symmetry_space_group_name_H-M   'P 1'
_cell_length_a   3.68418200
_cell_length_b   9.16678521
_cell_length_c   11.55207101
_cell_angle_alpha   90.06359213
_cell_angle_beta   90.00000000
_cell_angle_gamma   90.00000000
_symmetry_Int_Tables_number   1
_chemical_formula_structural   Dy3HoReTcB12
_chemical_formula_sum   'Dy6 Ho2 Re2 Tc2 B24'
_cell_volume   390.13751572
_cell_formula_units_Z   2
loop_
 _symmetry_equiv_pos_site_id
 _symmetry_equiv_pos_as_xyz
  1  'x, y, z'
loop_
 _atom_site_type_symbol
 _atom_site_label
 _atom_site_symmetry_multiplicity
 _atom_site_fract_x
 _atom_site_fract_y
 _atom_site_fract_z
 _atom_site_occupancy
  Dy  Dy0  1  0.000000  0.324064  0.413992  1
  Dy  Dy1  1  0.000000  0.675936  0.586008  1
  Dy  Dy2  1  0.000000  0.823550  0.085954  1
  Dy  Dy3  1  0.000000  0.176450  0.914046  1
  Dy  Dy4  1  0.000000  0.942212  0.369776  1
  Dy  Dy5  1  0.000000  0.057788  0.630224  1
  Ho  Ho6  1  0.000000  0.443753  0.130546  1
  Ho  Ho7  1  0.000000  0.556247  0.869454  1
  Re  Re8  1  0.000000  0.138979  0.179212  1
  Re  Re9  1  0.000000  0.861021  0.820788  1
  Tc  Tc10  1  0.000000  0.638626  0.320590  1
  Tc  Tc11  1  0.000000  0.361374  0.679410  1
  B  B12  1  0.500000  0.553522  0.432800  1
  B  B13  1  0.500000  0.446478  0.567200  1
  B  B14  1  0.500000  0.053482  0.067036  1
  B  B15  1  0.500000  0.946518  0.932964  1
  B  B16  1  0.500000  0.748659  0.418556  1
  B  B17  1  0.500000  0.251341  0.581444  1
  B  B18  1  0.500000  0.249471  0.081360  1
  B  B19  1  0.500000  0.750529  0.918640  1
  B  B20  1  0.500000  0.791708  0.265471  1
  B  B21  1  0.500000  0.208292  0.734529  1
  B  B22  1  0.500000  0.292367  0.234519  1
  B  B23  1  0.500000  0.707633  0.765481  1
  B  B24  1  0.500000  0.631021  0.185759  1
  B  B25  1  0.500000  0.368979  0.814241  1
  B  B26  1  0.500000  0.131033  0.314321  1
  B  B27  1  0.500000  0.868967  0.685679  1
  B  B28  1  0.500000  0.982513  0.211753  1
  B  B29  1  0.500000  0.017487  0.788247  1
  B  B30  1  0.500000  0.482704  0.288124  1
  B  B31  1  0.500000  0.517296  0.711876  1
  B  B32  1  0.500000  0.600106  0.027893  1
  B  B33  1  0.500000  0.399894  0.972107  1
  B  B34  1  0.500000  0.100327  0.471830  1
  B  B35  1  0.500000  0.899673  0.528170  1
