# generated using pymatgen
data_Pr16In4CoIr3
_symmetry_space_group_name_H-M   'P 1'
_cell_length_a   10.05985836
_cell_length_b   10.01506297
_cell_length_c   10.05985900
_cell_angle_alpha   59.85193147
_cell_angle_beta   60.00000118
_cell_angle_gamma   59.85193681
_symmetry_Int_Tables_number   1
_chemical_formula_structural   Pr16In4CoIr3
_chemical_formula_sum   'Pr16 In4 Co1 Ir3'
_cell_volume   715.06720136
_cell_formula_units_Z   1
loop_
 _symmetry_equiv_pos_site_id
 _symmetry_equiv_pos_as_xyz
  1  'x, y, z'
loop_
 _atom_site_type_symbol
 _atom_site_label
 _atom_site_symmetry_multiplicity
 _atom_site_fract_x
 _atom_site_fract_y
 _atom_site_fract_z
 _atom_site_occupancy
  Pr  Pr0  1  0.292378  0.897696  0.904964  1
  Pr  Pr1  1  0.686097  0.689872  0.312016  1
  Pr  Pr2  1  0.904964  0.897696  0.292378  1
  Pr  Pr3  1  0.312016  0.689872  0.312016  1
  Pr  Pr4  1  0.690868  0.308853  0.309410  1
  Pr  Pr5  1  0.057727  0.446313  0.438233  1
  Pr  Pr6  1  0.442758  0.058855  0.055628  1
  Pr  Pr7  1  0.055628  0.058855  0.442758  1
  Pr  Pr8  1  0.309410  0.308853  0.690868  1
  Pr  Pr9  1  0.442758  0.058855  0.442758  1
  Pr  Pr10  1  0.904964  0.897696  0.904964  1
  Pr  Pr11  1  0.438233  0.446313  0.057727  1
  Pr  Pr12  1  0.312016  0.689872  0.686097  1
  Pr  Pr13  1  0.690868  0.308853  0.690868  1
  Pr  Pr14  1  0.057727  0.446313  0.057727  1
  Pr  Pr15  1  0.901488  0.295538  0.901488  1
  In  In16  1  0.669143  0.670264  0.991451  1
  In  In17  1  0.991451  0.670264  0.669143  1
  In  In18  1  0.669641  0.991076  0.669641  1
  In  In19  1  0.669143  0.670264  0.669143  1
  Co  Co20  1  0.109681  0.670957  0.109681  1
  Ir  Ir21  1  0.109139  0.108955  0.109139  1
  Ir  Ir22  1  0.109139  0.108955  0.672765  1
  Ir  Ir23  1  0.672765  0.108955  0.109139  1
