# generated using pymatgen
data_Nd3ZnCd3HgAu
_symmetry_space_group_name_H-M   'P 1'
_cell_length_a   4.17435400
_cell_length_b   7.89491802
_cell_length_c   7.89491700
_cell_angle_alpha   120.00000828
_cell_angle_beta   90.00000000
_cell_angle_gamma   90.00000000
_symmetry_Int_Tables_number   1
_chemical_formula_structural   Nd3ZnCd3HgAu
_chemical_formula_sum   'Nd3 Zn1 Cd3 Hg1 Au1'
_cell_volume   225.32794972
_cell_formula_units_Z   1
loop_
 _symmetry_equiv_pos_site_id
 _symmetry_equiv_pos_as_xyz
  1  'x, y, z'
loop_
 _atom_site_type_symbol
 _atom_site_label
 _atom_site_symmetry_multiplicity
 _atom_site_fract_x
 _atom_site_fract_y
 _atom_site_fract_z
 _atom_site_occupancy
  Nd  Nd0  1  0.000000  0.402171  0.414111  1
  Nd  Nd1  1  0.000000  0.011941  0.597829  1
  Nd  Nd2  1  0.000000  0.585889  0.988059  1
  Zn  Zn3  1  0.000000  0.000000  0.000000  1
  Cd  Cd4  1  0.500000  0.755986  0.757290  1
  Cd  Cd5  1  0.500000  0.001304  0.244014  1
  Cd  Cd6  1  0.500000  0.242710  0.998696  1
  Hg  Hg7  1  0.500000  0.666667  0.333333  1
  Au  Au8  1  0.500000  0.333333  0.666667  1
