# generated using pymatgen
data_Ba2GaPPt7
_symmetry_space_group_name_H-M   'P 1'
_cell_length_a   9.71441167
_cell_length_b   9.70185240
_cell_length_c   4.20361100
_cell_angle_alpha   90.00000000
_cell_angle_beta   90.00000000
_cell_angle_gamma   146.33555158
_symmetry_Int_Tables_number   1
_chemical_formula_structural   Ba2GaPPt7
_chemical_formula_sum   'Ba2 Ga1 P1 Pt7'
_cell_volume   219.61428272
_cell_formula_units_Z   1
loop_
 _symmetry_equiv_pos_site_id
 _symmetry_equiv_pos_as_xyz
  1  'x, y, z'
loop_
 _atom_site_type_symbol
 _atom_site_label
 _atom_site_symmetry_multiplicity
 _atom_site_fract_x
 _atom_site_fract_y
 _atom_site_fract_z
 _atom_site_occupancy
  Ba  Ba0  1  0.615361  0.377401  0.500000  1
  Ba  Ba1  1  0.378307  0.616034  0.500000  1
  Ga  Ga2  1  0.197778  0.790655  0.500000  1
  P  P3  1  0.210958  0.210134  0.000000  1
  Pt  Pt4  1  0.107652  0.884258  0.000000  1
  Pt  Pt5  1  0.894857  0.113857  0.000000  1
  Pt  Pt6  1  0.490397  0.996791  0.000000  1
  Pt  Pt7  1  0.990331  0.498865  0.000000  1
  Pt  Pt8  1  0.794126  0.194449  0.500000  1
  Pt  Pt9  1  0.006548  0.005729  0.500000  1
  Pt  Pt10  1  0.627287  0.625430  0.000000  1
