# generated using pymatgen
data_Ta9NbAl12Os7
_symmetry_space_group_name_H-M   'P 1'
_cell_length_a   8.70898092
_cell_length_b   8.70898124
_cell_length_c   8.70746620
_cell_angle_alpha   59.99424887
_cell_angle_beta   59.99424597
_cell_angle_gamma   60.00000367
_symmetry_Int_Tables_number   1
_chemical_formula_structural   Ta9NbAl12Os7
_chemical_formula_sum   'Ta9 Nb1 Al12 Os7'
_cell_volume   466.95361092
_cell_formula_units_Z   1
loop_
 _symmetry_equiv_pos_site_id
 _symmetry_equiv_pos_as_xyz
  1  'x, y, z'
loop_
 _atom_site_type_symbol
 _atom_site_label
 _atom_site_symmetry_multiplicity
 _atom_site_fract_x
 _atom_site_fract_y
 _atom_site_fract_z
 _atom_site_occupancy
  Ta  Ta0  1  0.679417  0.679417  0.320224  1
  Ta  Ta1  1  0.320943  0.679417  0.320224  1
  Ta  Ta2  1  0.679417  0.320943  0.320224  1
  Ta  Ta3  1  0.319377  0.319377  0.680584  1
  Ta  Ta4  1  0.680664  0.319377  0.680584  1
  Ta  Ta5  1  0.319377  0.680664  0.680584  1
  Ta  Ta6  1  0.879261  0.362434  0.879042  1
  Ta  Ta7  1  0.362434  0.879261  0.879042  1
  Ta  Ta8  1  0.879261  0.879261  0.879042  1
  Nb  Nb9  1  0.879225  0.879225  0.362324  1
  Al  Al10  1  0.121816  0.121816  0.634553  1
  Al  Al11  1  0.121947  0.634386  0.121722  1
  Al  Al12  1  0.634386  0.121947  0.121722  1
  Al  Al13  1  0.121947  0.121947  0.121722  1
  Al  Al14  1  0.658995  0.658995  0.023016  1
  Al  Al15  1  0.658810  0.023843  0.658540  1
  Al  Al16  1  0.023843  0.658810  0.658540  1
  Al  Al17  1  0.658810  0.658810  0.658540  1
  Al  Al18  1  0.338174  0.338174  0.985478  1
  Al  Al19  1  0.337985  0.985998  0.338033  1
  Al  Al20  1  0.985998  0.337985  0.338033  1
  Al  Al21  1  0.337985  0.337985  0.338033  1
  Os  Os22  1  0.000184  0.000184  0.999448  1
  Os  Os23  1  0.997631  0.997631  0.502734  1
  Os  Os24  1  0.502005  0.997631  0.502734  1
  Os  Os25  1  0.997631  0.502005  0.502734  1
  Os  Os26  1  0.502591  0.502591  0.997516  1
  Os  Os27  1  0.997302  0.502591  0.997516  1
  Os  Os28  1  0.502591  0.997302  0.997516  1
