# generated using pymatgen
data_Ca4Pr16(Ir3Ru)3
_symmetry_space_group_name_H-M   'P 1'
_cell_length_a   11.25932100
_cell_length_b   11.25932100
_cell_length_c   6.61151500
_cell_angle_alpha   90.00000000
_cell_angle_beta   90.00000000
_cell_angle_gamma   90.00000000
_symmetry_Int_Tables_number   1
_chemical_formula_structural   Ca4Pr16(Ir3Ru)3
_chemical_formula_sum   'Ca4 Pr16 Ir9 Ru3'
_cell_volume   838.15702506
_cell_formula_units_Z   1
loop_
 _symmetry_equiv_pos_site_id
 _symmetry_equiv_pos_as_xyz
  1  'x, y, z'
loop_
 _atom_site_type_symbol
 _atom_site_label
 _atom_site_symmetry_multiplicity
 _atom_site_fract_x
 _atom_site_fract_y
 _atom_site_fract_z
 _atom_site_occupancy
  Ca  Ca0  1  0.000000  0.000000  0.498762  1
  Ca  Ca1  1  0.000000  0.000000  0.999169  1
  Ca  Ca2  1  0.500000  0.500000  0.999169  1
  Ca  Ca3  1  0.500000  0.500000  0.498762  1
  Pr  Pr4  1  0.291457  0.087989  0.382236  1
  Pr  Pr5  1  0.291539  0.912379  0.882578  1
  Pr  Pr6  1  0.708461  0.087621  0.882578  1
  Pr  Pr7  1  0.708543  0.912011  0.382236  1
  Pr  Pr8  1  0.587621  0.791539  0.882578  1
  Pr  Pr9  1  0.587989  0.208543  0.382236  1
  Pr  Pr10  1  0.412011  0.791457  0.382236  1
  Pr  Pr11  1  0.412379  0.208461  0.882578  1
  Pr  Pr12  1  0.210012  0.411019  0.618965  1
  Pr  Pr13  1  0.209824  0.589165  0.116566  1
  Pr  Pr14  1  0.790176  0.410835  0.116566  1
  Pr  Pr15  1  0.789988  0.588981  0.618965  1
  Pr  Pr16  1  0.910835  0.709824  0.116566  1
  Pr  Pr17  1  0.911019  0.289988  0.618965  1
  Pr  Pr18  1  0.088981  0.710012  0.618965  1
  Pr  Pr19  1  0.089165  0.290176  0.116566  1
  Ir  Ir20  1  0.843183  0.156981  0.250264  1
  Ir  Ir21  1  0.843510  0.842678  0.748881  1
  Ir  Ir22  1  0.156490  0.157322  0.748881  1
  Ir  Ir23  1  0.156817  0.843019  0.250264  1
  Ir  Ir24  1  0.657322  0.343510  0.748881  1
  Ir  Ir25  1  0.656981  0.656817  0.250264  1
  Ir  Ir26  1  0.343019  0.343183  0.250264  1
  Ir  Ir27  1  0.342678  0.656490  0.748881  1
  Ir  Ir28  1  0.000000  0.500000  0.383398  1
  Ru  Ru29  1  0.500000  0.000000  0.117732  1
  Ru  Ru30  1  0.500000  0.000000  0.617919  1
  Ru  Ru31  1  0.000000  0.500000  0.887133  1
