# generated using pymatgen
data_Nd3Th(UTc3)2
_symmetry_space_group_name_H-M   'P 1'
_cell_length_a   5.88838700
_cell_length_b   5.88838612
_cell_length_c   8.24534900
_cell_angle_alpha   90.00000000
_cell_angle_beta   90.00000000
_cell_angle_gamma   119.99999933
_symmetry_Int_Tables_number   1
_chemical_formula_structural   Nd3Th(UTc3)2
_chemical_formula_sum   'Nd3 Th1 U2 Tc6'
_cell_volume   247.58954558
_cell_formula_units_Z   1
loop_
 _symmetry_equiv_pos_site_id
 _symmetry_equiv_pos_as_xyz
  1  'x, y, z'
loop_
 _atom_site_type_symbol
 _atom_site_label
 _atom_site_symmetry_multiplicity
 _atom_site_fract_x
 _atom_site_fract_y
 _atom_site_fract_z
 _atom_site_occupancy
  Nd  Nd0  1  0.333333  0.666667  0.438612  1
  Nd  Nd1  1  0.666667  0.333333  0.562209  1
  Nd  Nd2  1  0.666667  0.333333  0.937081  1
  Th  Th3  1  0.333333  0.666667  0.058564  1
  U  U4  1  0.000000  0.000000  0.499980  1
  U  U5  1  0.000000  0.000000  0.000075  1
  Tc  Tc6  1  0.838552  0.161448  0.249143  1
  Tc  Tc7  1  0.838552  0.677105  0.249143  1
  Tc  Tc8  1  0.322895  0.161448  0.249143  1
  Tc  Tc9  1  0.162184  0.837816  0.752017  1
  Tc  Tc10  1  0.162184  0.324367  0.752017  1
  Tc  Tc11  1  0.675633  0.837816  0.752017  1
