# generated using pymatgen
data_Pa4Hg2IrPt3
_symmetry_space_group_name_H-M   'P 1'
_cell_length_a   7.85060010
_cell_length_b   7.85060010
_cell_length_c   3.61713000
_cell_angle_alpha   90.00000000
_cell_angle_beta   90.00000000
_cell_angle_gamma   89.98162296
_symmetry_Int_Tables_number   1
_chemical_formula_structural   Pa4Hg2IrPt3
_chemical_formula_sum   'Pa4 Hg2 Ir1 Pt3'
_cell_volume   222.93066236
_cell_formula_units_Z   1
loop_
 _symmetry_equiv_pos_site_id
 _symmetry_equiv_pos_as_xyz
  1  'x, y, z'
loop_
 _atom_site_type_symbol
 _atom_site_label
 _atom_site_symmetry_multiplicity
 _atom_site_fract_x
 _atom_site_fract_y
 _atom_site_fract_z
 _atom_site_occupancy
  Pa  Pa0  1  0.334920  0.173110  0.500000  1
  Pa  Pa1  1  0.822514  0.322514  0.500000  1
  Pa  Pa2  1  0.170411  0.670411  0.500000  1
  Pa  Pa3  1  0.673110  0.834920  0.500000  1
  Hg  Hg4  1  0.000530  0.000687  0.000000  1
  Hg  Hg5  1  0.500687  0.500530  0.000000  1
  Ir  Ir6  1  0.630162  0.130162  0.000000  1
  Pt  Pt7  1  0.129757  0.369614  0.000000  1
  Pt  Pt8  1  0.869614  0.629757  0.000000  1
  Pt  Pt9  1  0.368296  0.868296  0.000000  1
