# generated using pymatgen
data_SmHo2Hf3(SnRh)6
_symmetry_space_group_name_H-M   'P 1'
_cell_length_a   7.48654482
_cell_length_b   7.47893558
_cell_length_c   7.53651000
_cell_angle_alpha   90.00000000
_cell_angle_beta   90.00000000
_cell_angle_gamma   119.98010354
_symmetry_Int_Tables_number   1
_chemical_formula_structural   SmHo2Hf3(SnRh)6
_chemical_formula_sum   'Sm1 Ho2 Hf3 Sn6 Rh6'
_cell_volume   365.51833725
_cell_formula_units_Z   1
loop_
 _symmetry_equiv_pos_site_id
 _symmetry_equiv_pos_as_xyz
  1  'x, y, z'
loop_
 _atom_site_type_symbol
 _atom_site_label
 _atom_site_symmetry_multiplicity
 _atom_site_fract_x
 _atom_site_fract_y
 _atom_site_fract_z
 _atom_site_occupancy
  Sm  Sm0  1  0.999794  0.407039  0.750000  1
  Ho  Ho1  1  0.594387  0.594307  0.750000  1
  Ho  Ho2  1  0.405830  0.000431  0.750000  1
  Hf  Hf3  1  0.998626  0.392662  0.250000  1
  Hf  Hf4  1  0.606965  0.605652  0.250000  1
  Hf  Hf5  1  0.394394  0.001409  0.250000  1
  Sn  Sn6  1  0.266953  0.266811  0.492901  1
  Sn  Sn7  1  0.001015  0.734902  0.491395  1
  Sn  Sn8  1  0.001015  0.734902  0.008605  1
  Sn  Sn9  1  0.732153  0.997942  0.493025  1
  Sn  Sn10  1  0.732153  0.997942  0.006975  1
  Sn  Sn11  1  0.266953  0.266811  0.007099  1
  Rh  Rh12  1  0.334256  0.667403  0.458434  1
  Rh  Rh13  1  0.665650  0.333098  0.460912  1
  Rh  Rh14  1  0.334256  0.667403  0.041566  1
  Rh  Rh15  1  0.999985  0.997574  0.750000  1
  Rh  Rh16  1  0.999964  0.000616  0.250000  1
  Rh  Rh17  1  0.665650  0.333098  0.039088  1
