# generated using pymatgen
data_Ho12Co2TcNi2Hg
_symmetry_space_group_name_H-M   'P 1'
_cell_length_a   8.27701997
_cell_length_b   8.27702154
_cell_length_c   8.27702000
_cell_angle_alpha   112.66629370
_cell_angle_beta   109.82650640
_cell_angle_gamma   105.98964366
_symmetry_Int_Tables_number   1
_chemical_formula_structural   Ho12Co2TcNi2Hg
_chemical_formula_sum   'Ho12 Co2 Tc1 Ni2 Hg1'
_cell_volume   435.03108565
_cell_formula_units_Z   1
loop_
 _symmetry_equiv_pos_site_id
 _symmetry_equiv_pos_as_xyz
  1  'x, y, z'
loop_
 _atom_site_type_symbol
 _atom_site_label
 _atom_site_symmetry_multiplicity
 _atom_site_fract_x
 _atom_site_fract_y
 _atom_site_fract_z
 _atom_site_occupancy
  Ho  Ho0  1  0.960673  0.270412  0.690261  1
  Ho  Ho1  1  0.039327  0.729588  0.309739  1
  Ho  Ho2  1  0.671744  0.861558  0.189812  1
  Ho  Ho3  1  0.328256  0.518068  0.189812  1
  Ho  Ho4  1  0.328256  0.138442  0.810188  1
  Ho  Ho5  1  0.671744  0.481932  0.810188  1
  Ho  Ho6  1  0.580152  0.270412  0.309739  1
  Ho  Ho7  1  0.419848  0.729588  0.690261  1
  Ho  Ho8  1  0.178060  0.771162  0.949221  1
  Ho  Ho9  1  0.821940  0.771162  0.593103  1
  Ho  Ho10  1  0.178060  0.228838  0.406897  1
  Ho  Ho11  1  0.821940  0.228838  0.050779  1
  Co  Co12  1  0.659205  0.500000  0.159205  1
  Co  Co13  1  0.340795  0.500000  0.840795  1
  Tc  Tc14  1  0.000000  0.500000  0.500000  1
  Ni  Ni15  1  0.117425  0.117425  0.000000  1
  Ni  Ni16  1  0.882575  0.882575  0.000000  1
  Hg  Hg17  1  0.500000  0.000000  0.500000  1
