# generated using pymatgen
data_PrNdDy2(Zn5Sn)2
_symmetry_space_group_name_H-M   'P 1'
_cell_length_a   8.47339248
_cell_length_b   8.47339069
_cell_length_c   9.05093233
_cell_angle_alpha   89.94476877
_cell_angle_beta   90.05523274
_cell_angle_gamma   149.72147238
_symmetry_Int_Tables_number   1
_chemical_formula_structural   PrNdDy2(Zn5Sn)2
_chemical_formula_sum   'Pr1 Nd1 Dy2 Zn10 Sn2'
_cell_volume   327.65285669
_cell_formula_units_Z   1
loop_
 _symmetry_equiv_pos_site_id
 _symmetry_equiv_pos_as_xyz
  1  'x, y, z'
loop_
 _atom_site_type_symbol
 _atom_site_label
 _atom_site_symmetry_multiplicity
 _atom_site_fract_x
 _atom_site_fract_y
 _atom_site_fract_z
 _atom_site_occupancy
  Pr  Pr0  1  0.000000  0.000000  0.500000  1
  Nd  Nd1  1  0.000000  0.000000  0.000000  1
  Dy  Dy2  1  0.204654  0.795346  0.249955  1
  Dy  Dy3  1  0.795346  0.204654  0.750045  1
  Zn  Zn4  1  0.812277  0.187723  0.390654  1
  Zn  Zn5  1  0.187723  0.812277  0.609346  1
  Zn  Zn6  1  0.812395  0.187605  0.109372  1
  Zn  Zn7  1  0.187605  0.812395  0.890628  1
  Zn  Zn8  1  0.657767  0.342233  0.482017  1
  Zn  Zn9  1  0.342233  0.657767  0.517983  1
  Zn  Zn10  1  0.657692  0.342308  0.017924  1
  Zn  Zn11  1  0.342308  0.657692  0.982076  1
  Zn  Zn12  1  0.393492  0.606508  0.249949  1
  Zn  Zn13  1  0.606508  0.393492  0.750051  1
  Sn  Sn14  1  0.556349  0.443651  0.249529  1
  Sn  Sn15  1  0.443651  0.556349  0.750471  1
