# generated using pymatgen
data_Dy2Ho2MnOsC4
_symmetry_space_group_name_H-M   'P 1'
_cell_length_a   5.05637200
_cell_length_b   6.40628047
_cell_length_c   9.69052914
_cell_angle_alpha   90.47839052
_cell_angle_beta   90.00000000
_cell_angle_gamma   90.00000000
_symmetry_Int_Tables_number   1
_chemical_formula_structural   Dy2Ho2MnOsC4
_chemical_formula_sum   'Dy4 Ho4 Mn2 Os2 C8'
_cell_volume   313.88988422
_cell_formula_units_Z   2
loop_
 _symmetry_equiv_pos_site_id
 _symmetry_equiv_pos_as_xyz
  1  'x, y, z'
loop_
 _atom_site_type_symbol
 _atom_site_label
 _atom_site_symmetry_multiplicity
 _atom_site_fract_x
 _atom_site_fract_y
 _atom_site_fract_z
 _atom_site_occupancy
  Dy  Dy0  1  0.250000  0.525565  0.214612  1
  Dy  Dy1  1  0.750000  0.474435  0.785388  1
  Dy  Dy2  1  0.750000  0.974682  0.713356  1
  Dy  Dy3  1  0.250000  0.025318  0.286644  1
  Ho  Ho4  1  0.250000  0.683049  0.557154  1
  Ho  Ho5  1  0.750000  0.316951  0.442846  1
  Ho  Ho6  1  0.750000  0.821245  0.052341  1
  Ho  Ho7  1  0.250000  0.178755  0.947659  1
  Mn  Mn8  1  0.250000  0.728169  0.861283  1
  Mn  Mn9  1  0.750000  0.271831  0.138717  1
  Os  Os10  1  0.750000  0.773625  0.360566  1
  Os  Os11  1  0.250000  0.226375  0.639434  1
  C  C12  1  0.250000  0.469226  0.764968  1
  C  C13  1  0.750000  0.530774  0.235032  1
  C  C14  1  0.750000  0.045837  0.254578  1
  C  C15  1  0.250000  0.954163  0.745422  1
  C  C16  1  0.250000  0.814334  0.038866  1
  C  C17  1  0.750000  0.185666  0.961134  1
  C  C18  1  0.750000  0.676587  0.549241  1
  C  C19  1  0.250000  0.323413  0.450759  1
