# generated using pymatgen
data_LiNd3In3NiHg
_symmetry_space_group_name_H-M   'P 1'
_cell_length_a   7.99293900
_cell_length_b   7.99293992
_cell_length_c   3.92956800
_cell_angle_alpha   90.00000000
_cell_angle_beta   90.00000000
_cell_angle_gamma   120.00000033
_symmetry_Int_Tables_number   1
_chemical_formula_structural   LiNd3In3NiHg
_chemical_formula_sum   'Li1 Nd3 In3 Ni1 Hg1'
_cell_volume   217.41449043
_cell_formula_units_Z   1
loop_
 _symmetry_equiv_pos_site_id
 _symmetry_equiv_pos_as_xyz
  1  'x, y, z'
loop_
 _atom_site_type_symbol
 _atom_site_label
 _atom_site_symmetry_multiplicity
 _atom_site_fract_x
 _atom_site_fract_y
 _atom_site_fract_z
 _atom_site_occupancy
  Li  Li0  1  0.000000  0.000000  0.500000  1
  Nd  Nd1  1  0.400089  0.426495  0.500000  1
  Nd  Nd2  1  0.573505  0.973594  0.500000  1
  Nd  Nd3  1  0.026406  0.599911  0.500000  1
  In  In4  1  0.748723  0.753831  0.000000  1
  In  In5  1  0.246169  0.994892  0.000000  1
  In  In6  1  0.005108  0.251277  0.000000  1
  Ni  Ni7  1  0.333333  0.666667  0.000000  1
  Hg  Hg8  1  0.666667  0.333333  0.000000  1
