# generated using pymatgen
data_Tm8Lu12Si15Au
_symmetry_space_group_name_H-M   'P 1'
_cell_length_a   7.26662920
_cell_length_b   7.54866578
_cell_length_c   14.35041451
_cell_angle_alpha   89.81655878
_cell_angle_beta   89.43573956
_cell_angle_gamma   90.06697417
_symmetry_Int_Tables_number   1
_chemical_formula_structural   Tm8Lu12Si15Au
_chemical_formula_sum   'Tm8 Lu12 Si15 Au1'
_cell_volume   787.12561018
_cell_formula_units_Z   1
loop_
 _symmetry_equiv_pos_site_id
 _symmetry_equiv_pos_as_xyz
  1  'x, y, z'
loop_
 _atom_site_type_symbol
 _atom_site_label
 _atom_site_symmetry_multiplicity
 _atom_site_fract_x
 _atom_site_fract_y
 _atom_site_fract_z
 _atom_site_occupancy
  Tm  Tm0  1  0.016776  0.178878  0.097949  1
  Tm  Tm1  1  0.983147  0.821796  0.903771  1
  Tm  Tm2  1  0.483153  0.679744  0.903734  1
  Tm  Tm3  1  0.985864  0.825560  0.598017  1
  Tm  Tm4  1  0.515261  0.319706  0.096801  1
  Tm  Tm5  1  0.013636  0.176435  0.399490  1
  Tm  Tm6  1  0.511876  0.320479  0.400394  1
  Tm  Tm7  1  0.487768  0.680260  0.598831  1
  Lu  Lu8  1  0.163762  0.509791  0.749867  1
  Lu  Lu9  1  0.837628  0.491278  0.251349  1
  Lu  Lu10  1  0.337691  0.006609  0.249982  1
  Lu  Lu11  1  0.663621  0.989668  0.749844  1
  Lu  Lu12  1  0.335763  0.177949  0.623317  1
  Lu  Lu13  1  0.666269  0.822519  0.375496  1
  Lu  Lu14  1  0.170500  0.672995  0.374894  1
  Lu  Lu15  1  0.671869  0.822835  0.123988  1
  Lu  Lu16  1  0.830859  0.325836  0.623751  1
  Lu  Lu17  1  0.327891  0.178196  0.877389  1
  Lu  Lu18  1  0.828246  0.320753  0.877870  1
  Lu  Lu19  1  0.170330  0.677843  0.123670  1
  Si  Si20  1  0.034951  0.109727  0.752171  1
  Si  Si21  1  0.966823  0.892741  0.249084  1
  Si  Si22  1  0.467285  0.605972  0.248020  1
  Si  Si23  1  0.535305  0.393061  0.752058  1
  Si  Si24  1  0.281283  0.873170  0.751512  1
  Si  Si25  1  0.717131  0.130245  0.248468  1
  Si  Si26  1  0.218243  0.366663  0.246900  1
  Si  Si27  1  0.783053  0.630082  0.753857  1
  Si  Si28  1  0.833582  0.530837  0.458754  1
  Si  Si29  1  0.335641  0.966895  0.459691  1
  Si  Si30  1  0.842545  0.531823  0.039064  1
  Si  Si31  1  0.662829  0.033554  0.538042  1
  Si  Si32  1  0.155697  0.468098  0.961896  1
  Si  Si33  1  0.656018  0.029815  0.960574  1
  Si  Si34  1  0.343798  0.968187  0.039584  1
  Au  Au35  1  0.163906  0.470001  0.539920  1
