# generated using pymatgen
data_Tb6Dy4Sn5Bi
_symmetry_space_group_name_H-M   'P 1'
_cell_length_a   9.04413100
_cell_length_b   9.04128583
_cell_length_c   6.54209500
_cell_angle_alpha   90.00000000
_cell_angle_beta   90.00000000
_cell_angle_gamma   120.01040663
_symmetry_Int_Tables_number   1
_chemical_formula_structural   Tb6Dy4Sn5Bi
_chemical_formula_sum   'Tb6 Dy4 Sn5 Bi1'
_cell_volume   463.23244522
_cell_formula_units_Z   1
loop_
 _symmetry_equiv_pos_site_id
 _symmetry_equiv_pos_as_xyz
  1  'x, y, z'
loop_
 _atom_site_type_symbol
 _atom_site_label
 _atom_site_symmetry_multiplicity
 _atom_site_fract_x
 _atom_site_fract_y
 _atom_site_fract_z
 _atom_site_occupancy
  Tb  Tb0  1  0.994876  0.757526  0.750000  1
  Tb  Tb1  1  0.000320  0.239309  0.250000  1
  Tb  Tb2  1  0.761010  0.760691  0.250000  1
  Tb  Tb3  1  0.764326  0.000000  0.750000  1
  Tb  Tb4  1  0.237350  0.242474  0.750000  1
  Tb  Tb5  1  0.237985  0.000000  0.250000  1
  Dy  Dy6  1  0.332633  0.662893  0.498601  1
  Dy  Dy7  1  0.669741  0.337107  0.001399  1
  Dy  Dy8  1  0.669741  0.337107  0.498601  1
  Dy  Dy9  1  0.332633  0.662893  0.001399  1
  Sn  Sn10  1  0.395343  0.394207  0.250000  1
  Sn  Sn11  1  0.001136  0.605793  0.250000  1
  Sn  Sn12  1  0.999633  0.395671  0.750000  1
  Sn  Sn13  1  0.603961  0.604329  0.750000  1
  Sn  Sn14  1  0.605293  0.000000  0.250000  1
  Bi  Bi15  1  0.394018  0.000000  0.750000  1
