# generated using pymatgen
data_TaTiNb5Co6
_symmetry_space_group_name_H-M   'P 1'
_cell_length_a   9.09266736
_cell_length_b   9.09266737
_cell_length_c   9.09266722
_cell_angle_alpha   31.66984463
_cell_angle_beta   31.66984340
_cell_angle_gamma   31.66984659
_symmetry_Int_Tables_number   1
_chemical_formula_structural   TaTiNb5Co6
_chemical_formula_sum   'Ta1 Ti1 Nb5 Co6'
_cell_volume   184.01857169
_cell_formula_units_Z   1
loop_
 _symmetry_equiv_pos_site_id
 _symmetry_equiv_pos_as_xyz
  1  'x, y, z'
loop_
 _atom_site_type_symbol
 _atom_site_label
 _atom_site_symmetry_multiplicity
 _atom_site_fract_x
 _atom_site_fract_y
 _atom_site_fract_z
 _atom_site_occupancy
  Ta  Ta0  1  0.832738  0.832738  0.832738  1
  Ti  Ti1  1  0.000167  0.000167  0.000167  1
  Nb  Nb2  1  0.167136  0.167136  0.167136  1
  Nb  Nb3  1  0.654694  0.654694  0.654694  1
  Nb  Nb4  1  0.345033  0.345033  0.345033  1
  Nb  Nb5  1  0.550412  0.550412  0.550412  1
  Nb  Nb6  1  0.449689  0.449689  0.449689  1
  Co  Co7  1  0.908431  0.416084  0.908431  1
  Co  Co8  1  0.908431  0.908431  0.416084  1
  Co  Co9  1  0.416084  0.908431  0.908431  1
  Co  Co10  1  0.091277  0.584632  0.091277  1
  Co  Co11  1  0.091277  0.091277  0.584632  1
  Co  Co12  1  0.584632  0.091277  0.091277  1
