# generated using pymatgen
data_NdDy(SeO3)3
_symmetry_space_group_name_H-M   'P 1'
_cell_length_a   7.24188528
_cell_length_b   8.28387577
_cell_length_c   9.21552609
_cell_angle_alpha   70.88758219
_cell_angle_beta   70.15287463
_cell_angle_gamma   66.07785021
_symmetry_Int_Tables_number   1
_chemical_formula_structural   NdDy(SeO3)3
_chemical_formula_sum   'Nd2 Dy2 Se6 O18'
_cell_volume   463.61883887
_cell_formula_units_Z   2
loop_
 _symmetry_equiv_pos_site_id
 _symmetry_equiv_pos_as_xyz
  1  'x, y, z'
loop_
 _atom_site_type_symbol
 _atom_site_label
 _atom_site_symmetry_multiplicity
 _atom_site_fract_x
 _atom_site_fract_y
 _atom_site_fract_z
 _atom_site_occupancy
  Nd  Nd0  1  0.332272  0.731909  0.591270  1
  Nd  Nd1  1  0.667728  0.268091  0.408730  1
  Dy  Dy2  1  0.739792  0.735707  0.803076  1
  Dy  Dy3  1  0.260208  0.264293  0.196924  1
  Se  Se4  1  0.423619  0.780616  0.194870  1
  Se  Se5  1  0.576381  0.219384  0.805130  1
  Se  Se6  1  0.149481  0.748833  0.968486  1
  Se  Se7  1  0.850519  0.251167  0.031514  1
  Se  Se8  1  0.887755  0.754146  0.421729  1
  Se  Se9  1  0.112245  0.245854  0.578271  1
  O  O10  1  0.642368  0.792695  0.050272  1
  O  O11  1  0.357632  0.207305  0.949728  1
  O  O12  1  0.362507  0.947465  0.296382  1
  O  O13  1  0.637493  0.052535  0.703618  1
  O  O14  1  0.511650  0.599864  0.346089  1
  O  O15  1  0.488350  0.400136  0.653911  1
  O  O16  1  0.171589  0.563445  0.120276  1
  O  O17  1  0.828411  0.436555  0.879724  1
  O  O18  1  0.403875  0.712807  0.852509  1
  O  O19  1  0.596125  0.287193  0.147491  1
  O  O20  1  0.341920  0.246590  0.433014  1
  O  O21  1  0.658080  0.753410  0.566986  1
  O  O22  1  0.974346  0.292075  0.437764  1
  O  O23  1  0.025654  0.707925  0.562236  1
  O  O24  1  0.148256  0.024093  0.658902  1
  O  O25  1  0.851744  0.975907  0.341098  1
  O  O26  1  0.940568  0.300235  0.159776  1
  O  O27  1  0.059432  0.699765  0.840224  1
