# generated using pymatgen
data_Zr2Ta4C5
_symmetry_space_group_name_H-M   'P 1'
_cell_length_a   5.58652722
_cell_length_b   5.58652707
_cell_length_c   5.52875714
_cell_angle_alpha   81.02118718
_cell_angle_beta   81.02118073
_cell_angle_gamma   120.54228600
_symmetry_Int_Tables_number   1
_chemical_formula_structural   Zr2Ta4C5
_chemical_formula_sum   'Zr2 Ta4 C5'
_cell_volume   141.05652097
_cell_formula_units_Z   1
loop_
 _symmetry_equiv_pos_site_id
 _symmetry_equiv_pos_as_xyz
  1  'x, y, z'
loop_
 _atom_site_type_symbol
 _atom_site_label
 _atom_site_symmetry_multiplicity
 _atom_site_fract_x
 _atom_site_fract_y
 _atom_site_fract_z
 _atom_site_occupancy
  Zr  Zr0  1  0.746397  0.746397  0.745173  1
  Zr  Zr1  1  0.253603  0.253603  0.254827  1
  Ta  Ta2  1  0.088993  0.440951  0.744805  1
  Ta  Ta3  1  0.559049  0.911007  0.255195  1
  Ta  Ta4  1  0.911007  0.559049  0.255195  1
  Ta  Ta5  1  0.440951  0.088993  0.744805  1
  C  C6  1  0.500000  0.500000  0.500000  1
  C  C7  1  0.673168  0.326832  0.000000  1
  C  C8  1  0.326832  0.673168  0.000000  1
  C  C9  1  0.826570  0.173430  0.500000  1
  C  C10  1  0.173430  0.826570  0.500000  1
