# generated using pymatgen
data_Li3(DyZn7)2
_symmetry_space_group_name_H-M   'P 1'
_cell_length_a   8.93164700
_cell_length_b   8.93164708
_cell_length_c   8.70814600
_cell_angle_alpha   90.00000000
_cell_angle_beta   90.00000000
_cell_angle_gamma   120.00000342
_symmetry_Int_Tables_number   1
_chemical_formula_structural   Li3(DyZn7)2
_chemical_formula_sum   'Li6 Dy4 Zn28'
_cell_volume   601.61606263
_cell_formula_units_Z   2
loop_
 _symmetry_equiv_pos_site_id
 _symmetry_equiv_pos_as_xyz
  1  'x, y, z'
loop_
 _atom_site_type_symbol
 _atom_site_label
 _atom_site_symmetry_multiplicity
 _atom_site_fract_x
 _atom_site_fract_y
 _atom_site_fract_z
 _atom_site_occupancy
  Li  Li0  1  0.500000  0.500000  0.500000  1
  Li  Li1  1  0.500000  0.000000  0.500000  1
  Li  Li2  1  0.000000  0.500000  0.500000  1
  Li  Li3  1  0.500000  0.500000  0.000000  1
  Li  Li4  1  0.500000  0.000000  0.000000  1
  Li  Li5  1  0.000000  0.500000  0.000000  1
  Dy  Dy6  1  0.000000  0.000000  0.250000  1
  Dy  Dy7  1  0.000000  0.000000  0.750000  1
  Dy  Dy8  1  0.333333  0.666667  0.750000  1
  Dy  Dy9  1  0.666667  0.333333  0.250000  1
  Zn  Zn10  1  0.333333  0.666667  0.402687  1
  Zn  Zn11  1  0.666667  0.333333  0.597313  1
  Zn  Zn12  1  0.666667  0.333333  0.902687  1
  Zn  Zn13  1  0.333333  0.666667  0.097313  1
  Zn  Zn14  1  0.333811  0.367904  0.250000  1
  Zn  Zn15  1  0.632096  0.965907  0.250000  1
  Zn  Zn16  1  0.034093  0.666189  0.250000  1
  Zn  Zn17  1  0.632096  0.666189  0.250000  1
  Zn  Zn18  1  0.034093  0.367904  0.250000  1
  Zn  Zn19  1  0.333811  0.965907  0.250000  1
  Zn  Zn20  1  0.666189  0.632096  0.750000  1
  Zn  Zn21  1  0.367904  0.034093  0.750000  1
  Zn  Zn22  1  0.965907  0.333811  0.750000  1
  Zn  Zn23  1  0.367904  0.333811  0.750000  1
  Zn  Zn24  1  0.965907  0.632096  0.750000  1
  Zn  Zn25  1  0.666189  0.034093  0.750000  1
  Zn  Zn26  1  0.163827  0.836173  0.517240  1
  Zn  Zn27  1  0.163827  0.327652  0.517240  1
  Zn  Zn28  1  0.672348  0.836173  0.517240  1
  Zn  Zn29  1  0.836173  0.163827  0.482760  1
  Zn  Zn30  1  0.836173  0.672348  0.482760  1
  Zn  Zn31  1  0.327652  0.163827  0.482760  1
  Zn  Zn32  1  0.836173  0.163827  0.017240  1
  Zn  Zn33  1  0.836173  0.672348  0.017240  1
  Zn  Zn34  1  0.327652  0.163827  0.017240  1
  Zn  Zn35  1  0.163827  0.836173  0.982760  1
  Zn  Zn36  1  0.163827  0.327652  0.982760  1
  Zn  Zn37  1  0.672348  0.836173  0.982760  1
