# generated using pymatgen
data_La2Sm4OsBr10
_symmetry_space_group_name_H-M   'P 1'
_cell_length_a   7.67290779
_cell_length_b   9.64092208
_cell_length_c   9.48567258
_cell_angle_alpha   107.69147680
_cell_angle_beta   95.20255508
_cell_angle_gamma   106.69971551
_symmetry_Int_Tables_number   1
_chemical_formula_structural   La2Sm4OsBr10
_chemical_formula_sum   'La2 Sm4 Os1 Br10'
_cell_volume   628.01169603
_cell_formula_units_Z   1
loop_
 _symmetry_equiv_pos_site_id
 _symmetry_equiv_pos_as_xyz
  1  'x, y, z'
loop_
 _atom_site_type_symbol
 _atom_site_label
 _atom_site_symmetry_multiplicity
 _atom_site_fract_x
 _atom_site_fract_y
 _atom_site_fract_z
 _atom_site_occupancy
  La  La0  1  0.626733  0.549342  0.264352  1
  La  La1  1  0.373267  0.450658  0.735648  1
  Sm  Sm2  1  0.527499  0.196374  0.402291  1
  Sm  Sm3  1  0.472501  0.803626  0.597709  1
  Sm  Sm4  1  0.133631  0.358635  0.318152  1
  Sm  Sm5  1  0.866369  0.641365  0.681848  1
  Os  Os6  1  0.500000  0.500000  0.500000  1
  Br  Br7  1  0.153440  0.051566  0.231289  1
  Br  Br8  1  0.846560  0.948434  0.768711  1
  Br  Br9  1  0.243976  0.413941  0.050283  1
  Br  Br10  1  0.756024  0.586059  0.949717  1
  Br  Br11  1  0.714573  0.241828  0.157183  1
  Br  Br12  1  0.285427  0.758172  0.842817  1
  Br  Br13  1  0.051787  0.672665  0.420157  1
  Br  Br14  1  0.948213  0.327335  0.579843  1
  Br  Br15  1  0.415811  0.126603  0.666653  1
  Br  Br16  1  0.584189  0.873397  0.333347  1
