# generated using pymatgen
data_TmFe2(PRh)3
_symmetry_space_group_name_H-M   'P 1'
_cell_length_a   3.79856300
_cell_length_b   10.54670600
_cell_length_c   12.27129400
_cell_angle_alpha   90.00000000
_cell_angle_beta   90.00000000
_cell_angle_gamma   90.00000000
_symmetry_Int_Tables_number   1
_chemical_formula_structural   TmFe2(PRh)3
_chemical_formula_sum   'Tm4 Fe8 P12 Rh12'
_cell_volume   491.61659519
_cell_formula_units_Z   4
loop_
 _symmetry_equiv_pos_site_id
 _symmetry_equiv_pos_as_xyz
  1  'x, y, z'
loop_
 _atom_site_type_symbol
 _atom_site_label
 _atom_site_symmetry_multiplicity
 _atom_site_fract_x
 _atom_site_fract_y
 _atom_site_fract_z
 _atom_site_occupancy
  Tm  Tm0  1  0.250000  0.579676  0.710508  1
  Tm  Tm1  1  0.250000  0.920324  0.210508  1
  Tm  Tm2  1  0.750000  0.420324  0.289492  1
  Tm  Tm3  1  0.750000  0.079676  0.789492  1
  Fe  Fe4  1  0.250000  0.877524  0.698220  1
  Fe  Fe5  1  0.250000  0.622476  0.198220  1
  Fe  Fe6  1  0.750000  0.122476  0.301780  1
  Fe  Fe7  1  0.750000  0.377524  0.801780  1
  Fe  Fe8  1  0.250000  0.459609  0.934378  1
  Fe  Fe9  1  0.250000  0.040391  0.434378  1
  Fe  Fe10  1  0.750000  0.540391  0.065622  1
  Fe  Fe11  1  0.750000  0.959609  0.565622  1
  P  P12  1  0.250000  0.439461  0.112115  1
  P  P13  1  0.250000  0.060539  0.612115  1
  P  P14  1  0.750000  0.560539  0.887885  1
  P  P15  1  0.750000  0.939461  0.387885  1
  P  P16  1  0.250000  0.272411  0.864383  1
  P  P17  1  0.250000  0.227589  0.364383  1
  P  P18  1  0.750000  0.727589  0.135617  1
  P  P19  1  0.750000  0.772411  0.635617  1
  P  P20  1  0.250000  0.600298  0.379979  1
  P  P21  1  0.250000  0.899702  0.879979  1
  P  P22  1  0.750000  0.399702  0.620021  1
  P  P23  1  0.750000  0.100298  0.120021  1
  Rh  Rh24  1  0.250000  0.713997  0.990203  1
  Rh  Rh25  1  0.250000  0.786003  0.490203  1
  Rh  Rh26  1  0.750000  0.286003  0.009797  1
  Rh  Rh27  1  0.750000  0.213997  0.509797  1
  Rh  Rh28  1  0.250000  0.407996  0.477985  1
  Rh  Rh29  1  0.250000  0.092004  0.977985  1
  Rh  Rh30  1  0.750000  0.592004  0.522015  1
  Rh  Rh31  1  0.750000  0.907996  0.022015  1
  Rh  Rh32  1  0.250000  0.231535  0.174793  1
  Rh  Rh33  1  0.250000  0.268465  0.674793  1
  Rh  Rh34  1  0.750000  0.768465  0.825207  1
  Rh  Rh35  1  0.750000  0.731535  0.325207  1
