# generated using pymatgen
data_Ho10SiBi3Ir2
_symmetry_space_group_name_H-M   'P 1'
_cell_length_a   7.88699951
_cell_length_b   8.90361414
_cell_length_c   12.23896878
_cell_angle_alpha   90.09657674
_cell_angle_beta   89.97507047
_cell_angle_gamma   90.21812079
_symmetry_Int_Tables_number   1
_chemical_formula_structural   Ho10SiBi3Ir2
_chemical_formula_sum   'Ho20 Si2 Bi6 Ir4'
_cell_volume   859.44713352
_cell_formula_units_Z   2
loop_
 _symmetry_equiv_pos_site_id
 _symmetry_equiv_pos_as_xyz
  1  'x, y, z'
loop_
 _atom_site_type_symbol
 _atom_site_label
 _atom_site_symmetry_multiplicity
 _atom_site_fract_x
 _atom_site_fract_y
 _atom_site_fract_z
 _atom_site_occupancy
  Ho  Ho0  1  0.826767  0.735768  0.794478  1
  Ho  Ho1  1  0.173233  0.264232  0.205522  1
  Ho  Ho2  1  0.345959  0.261928  0.716596  1
  Ho  Ho3  1  0.654041  0.738072  0.283404  1
  Ho  Ho4  1  0.382600  0.736694  0.700322  1
  Ho  Ho5  1  0.617400  0.263306  0.299678  1
  Ho  Ho6  1  0.857838  0.261626  0.806997  1
  Ho  Ho7  1  0.142162  0.738374  0.193003  1
  Ho  Ho8  1  0.944737  0.751941  0.500804  1
  Ho  Ho9  1  0.055263  0.248059  0.499196  1
  Ho  Ho10  1  0.455931  0.271928  0.997517  1
  Ho  Ho11  1  0.544069  0.728072  0.002483  1
  Ho  Ho12  1  0.676805  0.043521  0.566247  1
  Ho  Ho13  1  0.323195  0.956479  0.433753  1
  Ho  Ho14  1  0.178033  0.960985  0.934261  1
  Ho  Ho15  1  0.328907  0.541733  0.423311  1
  Ho  Ho16  1  0.821967  0.039015  0.065739  1
  Ho  Ho17  1  0.671093  0.458267  0.576689  1
  Ho  Ho18  1  0.816276  0.457153  0.064314  1
  Ho  Ho19  1  0.183724  0.542847  0.935686  1
  Si  Si20  1  0.561984  0.494087  0.829329  1
  Si  Si21  1  0.438016  0.505913  0.170671  1
  Bi  Bi22  1  0.067925  0.509383  0.671686  1
  Bi  Bi23  1  0.432575  0.993073  0.168174  1
  Bi  Bi24  1  0.932075  0.490617  0.328314  1
  Bi  Bi25  1  0.567425  0.006927  0.831826  1
  Bi  Bi26  1  0.931329  0.009086  0.323544  1
  Bi  Bi27  1  0.068671  0.990914  0.676456  1
  Ir  Ir28  1  0.574563  0.748889  0.508998  1
  Ir  Ir29  1  0.425437  0.251111  0.491002  1
  Ir  Ir30  1  0.069624  0.252140  0.988290  1
  Ir  Ir31  1  0.930376  0.747860  0.011710  1
