# generated using pymatgen
data_Ta5NbCo15Si7Ni
_symmetry_space_group_name_H-M   'P 1'
_cell_length_a   7.90827123
_cell_length_b   7.90842247
_cell_length_c   7.91094300
_cell_angle_alpha   59.98945225
_cell_angle_beta   59.98881935
_cell_angle_gamma   60.00391475
_symmetry_Int_Tables_number   1
_chemical_formula_structural   Ta5NbCo15Si7Ni
_chemical_formula_sum   'Ta5 Nb1 Co15 Si7 Ni1'
_cell_volume   349.80513574
_cell_formula_units_Z   1
loop_
 _symmetry_equiv_pos_site_id
 _symmetry_equiv_pos_as_xyz
  1  'x, y, z'
loop_
 _atom_site_type_symbol
 _atom_site_label
 _atom_site_symmetry_multiplicity
 _atom_site_fract_x
 _atom_site_fract_y
 _atom_site_fract_z
 _atom_site_occupancy
  Ta  Ta0  1  0.798486  0.796719  0.202397  1
  Ta  Ta1  1  0.796682  0.199404  0.796883  1
  Ta  Ta2  1  0.202728  0.796128  0.203123  1
  Ta  Ta3  1  0.796682  0.199404  0.207031  1
  Ta  Ta4  1  0.202728  0.796128  0.798021  1
  Nb  Nb5  1  0.206065  0.198448  0.797743  1
  Co  Co6  1  0.164164  0.167056  0.503237  1
  Co  Co7  1  0.504524  0.167023  0.164227  1
  Co  Co8  1  0.164164  0.167056  0.165544  1
  Co  Co9  1  0.497983  0.834165  0.833926  1
  Co  Co10  1  0.833797  0.835252  0.833958  1
  Co  Co11  1  0.833797  0.835252  0.496992  1
  Co  Co12  1  0.165662  0.502510  0.165914  1
  Co  Co13  1  0.619384  0.144791  0.617912  1
  Co  Co14  1  0.381987  0.381418  0.855956  1
  Co  Co15  1  0.855969  0.381167  0.381432  1
  Co  Co16  1  0.381987  0.381418  0.380639  1
  Co  Co17  1  0.145150  0.618974  0.617938  1
  Co  Co18  1  0.618391  0.618289  0.618245  1
  Co  Co19  1  0.618391  0.618289  0.145075  1
  Co  Co20  1  0.380866  0.857882  0.380626  1
  Si  Si21  1  0.499466  0.500731  0.499901  1
  Si  Si22  1  0.499509  0.998979  0.499500  1
  Si  Si23  1  0.999476  0.500701  0.999425  1
  Si  Si24  1  0.001707  0.998675  0.499809  1
  Si  Si25  1  0.499509  0.998979  0.002013  1
  Si  Si26  1  0.999476  0.500701  0.500399  1
  Si  Si27  1  0.499969  0.500536  0.999748  1
  Ni  Ni28  1  0.831301  0.503924  0.832387  1
