# generated using pymatgen
data_CaLu2Ga2Co9B4
_symmetry_space_group_name_H-M   'P 1'
_cell_length_a   5.10687400
_cell_length_b   5.10686430
_cell_length_c   9.54495600
_cell_angle_alpha   90.00024418
_cell_angle_beta   89.99952285
_cell_angle_gamma   120.00004985
_symmetry_Int_Tables_number   1
_chemical_formula_structural   CaLu2Ga2Co9B4
_chemical_formula_sum   'Ca1 Lu2 Ga2 Co9 B4'
_cell_volume   215.58264966
_cell_formula_units_Z   1
loop_
 _symmetry_equiv_pos_site_id
 _symmetry_equiv_pos_as_xyz
  1  'x, y, z'
loop_
 _atom_site_type_symbol
 _atom_site_label
 _atom_site_symmetry_multiplicity
 _atom_site_fract_x
 _atom_site_fract_y
 _atom_site_fract_z
 _atom_site_occupancy
  Ca  Ca0  1  0.000020  0.000000  0.999965  1
  Lu  Lu1  1  0.999999  0.000000  0.338955  1
  Lu  Lu2  1  0.000005  0.000000  0.661099  1
  Ga  Ga3  1  0.333356  0.666726  0.999959  1
  Ga  Ga4  1  0.666629  0.333274  0.999959  1
  Co  Co5  1  0.499987  0.000000  0.500000  1
  Co  Co6  1  0.499988  0.499999  0.500008  1
  Co  Co7  1  0.999990  0.500001  0.500008  1
  Co  Co8  1  0.499997  0.000000  0.210239  1
  Co  Co9  1  0.499989  0.499997  0.210231  1
  Co  Co10  1  0.999992  0.500003  0.210231  1
  Co  Co11  1  0.499990  0.000000  0.789737  1
  Co  Co12  1  0.499996  0.500001  0.789726  1
  Co  Co13  1  0.999995  0.499999  0.789726  1
  B  B14  1  0.333291  0.666601  0.350825  1
  B  B15  1  0.666690  0.333399  0.350825  1
  B  B16  1  0.666694  0.333401  0.649254  1
  B  B17  1  0.333292  0.666599  0.649254  1
