# generated using pymatgen
data_Ho3Tm7(InBi)3
_symmetry_space_group_name_H-M   'P 1'
_cell_length_a   6.50169300
_cell_length_b   8.97116677
_cell_length_c   8.97212900
_cell_angle_alpha   119.99644665
_cell_angle_beta   90.00026961
_cell_angle_gamma   89.99944946
_symmetry_Int_Tables_number   1
_chemical_formula_structural   Ho3Tm7(InBi)3
_chemical_formula_sum   'Ho3 Tm7 In3 Bi3'
_cell_volume   453.22836205
_cell_formula_units_Z   1
loop_
 _symmetry_equiv_pos_site_id
 _symmetry_equiv_pos_as_xyz
  1  'x, y, z'
loop_
 _atom_site_type_symbol
 _atom_site_label
 _atom_site_symmetry_multiplicity
 _atom_site_fract_x
 _atom_site_fract_y
 _atom_site_fract_z
 _atom_site_occupancy
  Ho  Ho0  1  0.750001  0.236349  0.000000  1
  Ho  Ho1  1  0.749996  0.763434  0.763523  1
  Ho  Ho2  1  0.749996  0.999911  0.236477  1
  Tm  Tm3  1  0.492232  0.333339  0.666657  1
  Tm  Tm4  1  0.492232  0.666682  0.333343  1
  Tm  Tm5  1  0.007771  0.666678  0.333345  1
  Tm  Tm6  1  0.007771  0.333333  0.666655  1
  Tm  Tm7  1  0.250004  0.762166  0.000000  1
  Tm  Tm8  1  0.249995  0.238047  0.237953  1
  Tm  Tm9  1  0.249995  0.000094  0.762047  1
  In  In10  1  0.250001  0.393624  0.000000  1
  In  In11  1  0.250002  0.606494  0.606471  1
  In  In12  1  0.250002  0.000021  0.393529  1
  Bi  Bi13  1  0.750001  0.603410  0.000000  1
  Bi  Bi14  1  0.749999  0.396439  0.396459  1
  Bi  Bi15  1  0.749999  0.999980  0.603541  1
