# generated using pymatgen
data_Nd5U3Sb20
_symmetry_space_group_name_H-M   'P 1'
_cell_length_a   4.23781900
_cell_length_b   13.44030824
_cell_length_c   14.82604906
_cell_angle_alpha   78.31658533
_cell_angle_beta   90.00000000
_cell_angle_gamma   90.00000000
_symmetry_Int_Tables_number   1
_chemical_formula_structural   Nd5U3Sb20
_chemical_formula_sum   'Nd5 U3 Sb20'
_cell_volume   826.96018889
_cell_formula_units_Z   1
loop_
 _symmetry_equiv_pos_site_id
 _symmetry_equiv_pos_as_xyz
  1  'x, y, z'
loop_
 _atom_site_type_symbol
 _atom_site_label
 _atom_site_symmetry_multiplicity
 _atom_site_fract_x
 _atom_site_fract_y
 _atom_site_fract_z
 _atom_site_occupancy
  Nd  Nd0  1  0.750000  0.334686  0.140308  1
  Nd  Nd1  1  0.250000  0.951650  0.359736  1
  Nd  Nd2  1  0.250000  0.665598  0.859372  1
  Nd  Nd3  1  0.250000  0.668949  0.573372  1
  Nd  Nd4  1  0.750000  0.048368  0.641708  1
  U  U5  1  0.750000  0.332674  0.426010  1
  U  U6  1  0.250000  0.389071  0.769579  1
  U  U7  1  0.750000  0.608376  0.228165  1
  Sb  Sb8  1  0.750000  0.855175  0.828365  1
  Sb  Sb9  1  0.250000  0.860155  0.680025  1
  Sb  Sb10  1  0.250000  0.155062  0.481872  1
  Sb  Sb11  1  0.750000  0.280177  0.927238  1
  Sb  Sb12  1  0.250000  0.144865  0.778315  1
  Sb  Sb13  1  0.750000  0.567948  0.445583  1
  Sb  Sb14  1  0.750000  0.143242  0.320134  1
  Sb  Sb15  1  0.250000  0.712216  0.341765  1
  Sb  Sb16  1  0.750000  0.286449  0.655737  1
  Sb  Sb17  1  0.750000  0.853893  0.221679  1
  Sb  Sb18  1  0.250000  0.422814  0.973743  1
  Sb  Sb19  1  0.250000  0.427080  0.549897  1
  Sb  Sb20  1  0.750000  0.565884  0.736325  1
  Sb  Sb21  1  0.250000  0.428821  0.271548  1
  Sb  Sb22  1  0.750000  0.857039  0.520092  1
  Sb  Sb23  1  0.750000  0.032823  0.911319  1
  Sb  Sb24  1  0.250000  0.719308  0.071499  1
  Sb  Sb25  1  0.250000  0.966595  0.089370  1
  Sb  Sb26  1  0.250000  0.145252  0.172290  1
  Sb  Sb27  1  0.750000  0.575829  0.024957  1
