# generated using pymatgen
data_Y6Ho7Th3(CdIr)4
_symmetry_space_group_name_H-M   'P 1'
_cell_length_a   9.72891884
_cell_length_b   9.71431861
_cell_length_c   9.71431900
_cell_angle_alpha   59.99999527
_cell_angle_beta   60.04962575
_cell_angle_gamma   60.04962975
_symmetry_Int_Tables_number   1
_chemical_formula_structural   Y6Ho7Th3(CdIr)4
_chemical_formula_sum   'Y6 Ho7 Th3 Cd4 Ir4'
_cell_volume   649.68021102
_cell_formula_units_Z   1
loop_
 _symmetry_equiv_pos_site_id
 _symmetry_equiv_pos_as_xyz
  1  'x, y, z'
loop_
 _atom_site_type_symbol
 _atom_site_label
 _atom_site_symmetry_multiplicity
 _atom_site_fract_x
 _atom_site_fract_y
 _atom_site_fract_z
 _atom_site_occupancy
  Y  Y0  1  0.936812  0.562983  0.562983  1
  Y  Y1  1  0.564300  0.935640  0.935640  1
  Y  Y2  1  0.564300  0.935640  0.564420  1
  Y  Y3  1  0.936812  0.562983  0.937222  1
  Y  Y4  1  0.564300  0.564420  0.935640  1
  Y  Y5  1  0.936812  0.937222  0.562983  1
  Ho  Ho6  1  0.949086  0.350305  0.350305  1
  Ho  Ho7  1  0.811785  0.189103  0.189103  1
  Ho  Ho8  1  0.187553  0.812758  0.812758  1
  Ho  Ho9  1  0.187553  0.812758  0.186930  1
  Ho  Ho10  1  0.811785  0.189103  0.810009  1
  Ho  Ho11  1  0.187553  0.186930  0.812758  1
  Ho  Ho12  1  0.811785  0.810009  0.189103  1
  Th  Th13  1  0.347563  0.350134  0.350134  1
  Th  Th14  1  0.347563  0.350134  0.952169  1
  Th  Th15  1  0.347563  0.952169  0.350134  1
  Cd  Cd16  1  0.585365  0.580813  0.580813  1
  Cd  Cd17  1  0.585365  0.580813  0.253009  1
  Cd  Cd18  1  0.585365  0.253009  0.580813  1
  Cd  Cd19  1  0.250444  0.583186  0.583186  1
  Ir  Ir20  1  0.142946  0.141956  0.141956  1
  Ir  Ir21  1  0.142946  0.141956  0.573143  1
  Ir  Ir22  1  0.142946  0.573143  0.141956  1
  Ir  Ir23  1  0.571504  0.142832  0.142832  1
