# generated using pymatgen
data_Er2P7Ru12
_symmetry_space_group_name_H-M   'P 1'
_cell_length_a   9.39829200
_cell_length_b   9.39829096
_cell_length_c   3.95551000
_cell_angle_alpha   90.00000000
_cell_angle_beta   90.00000000
_cell_angle_gamma   119.99999662
_symmetry_Int_Tables_number   1
_chemical_formula_structural   Er2P7Ru12
_chemical_formula_sum   'Er2 P7 Ru12'
_cell_volume   302.57354502
_cell_formula_units_Z   1
loop_
 _symmetry_equiv_pos_site_id
 _symmetry_equiv_pos_as_xyz
  1  'x, y, z'
loop_
 _atom_site_type_symbol
 _atom_site_label
 _atom_site_symmetry_multiplicity
 _atom_site_fract_x
 _atom_site_fract_y
 _atom_site_fract_z
 _atom_site_occupancy
  Er  Er0  1  0.666667  0.333333  0.500000  1
  Er  Er1  1  0.333333  0.666667  0.000000  1
  P  P2  1  0.599510  0.718145  0.500000  1
  P  P3  1  0.000000  0.000000  0.000000  1
  P  P4  1  0.281855  0.881365  0.500000  1
  P  P5  1  0.118635  0.400490  0.500000  1
  P  P6  1  0.884319  0.574878  0.000000  1
  P  P7  1  0.425122  0.309441  0.000000  1
  P  P8  1  0.690559  0.115681  0.000000  1
  Ru  Ru9  1  0.555843  0.948516  0.500000  1
  Ru  Ru10  1  0.392674  0.444157  0.500000  1
  Ru  Ru11  1  0.914443  0.122934  0.500000  1
  Ru  Ru12  1  0.208492  0.085557  0.500000  1
  Ru  Ru13  1  0.877066  0.791508  0.500000  1
  Ru  Ru14  1  0.727923  0.891996  0.000000  1
  Ru  Ru15  1  0.108004  0.835926  0.000000  1
  Ru  Ru16  1  0.164074  0.272077  0.000000  1
  Ru  Ru17  1  0.425161  0.066061  0.000000  1
  Ru  Ru18  1  0.933939  0.359102  0.000000  1
  Ru  Ru19  1  0.640898  0.574839  0.000000  1
  Ru  Ru20  1  0.051484  0.607326  0.500000  1
