# generated using pymatgen
data_Zr8FeOs2Rh
_symmetry_space_group_name_H-M   'P 1'
_cell_length_a   8.77777477
_cell_length_b   8.77777476
_cell_length_c   8.78905600
_cell_angle_alpha   59.95747665
_cell_angle_beta   59.95747669
_cell_angle_gamma   59.80172264
_symmetry_Int_Tables_number   1
_chemical_formula_structural   Zr8FeOs2Rh
_chemical_formula_sum   'Zr16 Fe2 Os4 Rh2'
_cell_volume   477.81797806
_cell_formula_units_Z   2
loop_
 _symmetry_equiv_pos_site_id
 _symmetry_equiv_pos_as_xyz
  1  'x, y, z'
loop_
 _atom_site_type_symbol
 _atom_site_label
 _atom_site_symmetry_multiplicity
 _atom_site_fract_x
 _atom_site_fract_y
 _atom_site_fract_z
 _atom_site_occupancy
  Zr  Zr0  1  0.048741  0.656793  0.647233  1
  Zr  Zr1  1  0.656793  0.048741  0.647233  1
  Zr  Zr2  1  0.646238  0.646238  0.071566  1
  Zr  Zr3  1  0.646238  0.646238  0.635959  1
  Zr  Zr4  1  0.803629  0.803629  0.196371  1
  Zr  Zr5  1  0.217654  0.217654  0.782346  1
  Zr  Zr6  1  0.796786  0.198120  0.790990  1
  Zr  Zr7  1  0.198120  0.796786  0.214105  1
  Zr  Zr8  1  0.198120  0.796786  0.790990  1
  Zr  Zr9  1  0.796786  0.198120  0.214105  1
  Zr  Zr10  1  0.435265  0.435265  0.064735  1
  Zr  Zr11  1  0.066050  0.066050  0.433950  1
  Zr  Zr12  1  0.438079  0.065475  0.431633  1
  Zr  Zr13  1  0.065475  0.438079  0.064813  1
  Zr  Zr14  1  0.065475  0.438079  0.431633  1
  Zr  Zr15  1  0.438079  0.065475  0.064813  1
  Fe  Fe16  1  0.857555  0.857555  0.419785  1
  Fe  Fe17  1  0.857555  0.857555  0.865106  1
  Os  Os18  1  0.743309  0.416576  0.420058  1
  Os  Os19  1  0.416576  0.743309  0.420058  1
  Os  Os20  1  0.416838  0.416838  0.746922  1
  Os  Os21  1  0.416838  0.416838  0.419402  1
  Rh  Rh22  1  0.419032  0.854771  0.863099  1
  Rh  Rh23  1  0.854771  0.419032  0.863099  1
