# generated using pymatgen
data_Ca8Pr9Sm3Sn16
_symmetry_space_group_name_H-M   'P 1'
_cell_length_a   8.04146011
_cell_length_b   8.54601726
_cell_length_c   16.11980887
_cell_angle_alpha   90.01372649
_cell_angle_beta   89.99723790
_cell_angle_gamma   89.99297934
_symmetry_Int_Tables_number   1
_chemical_formula_structural   Ca8Pr9Sm3Sn16
_chemical_formula_sum   'Ca8 Pr9 Sm3 Sn16'
_cell_volume   1107.79282898
_cell_formula_units_Z   1
loop_
 _symmetry_equiv_pos_site_id
 _symmetry_equiv_pos_as_xyz
  1  'x, y, z'
loop_
 _atom_site_type_symbol
 _atom_site_label
 _atom_site_symmetry_multiplicity
 _atom_site_fract_x
 _atom_site_fract_y
 _atom_site_fract_z
 _atom_site_occupancy
  Ca  Ca0  1  0.169426  0.328494  0.123818  1
  Ca  Ca1  1  0.668134  0.172256  0.123946  1
  Ca  Ca2  1  0.168650  0.328018  0.376967  1
  Ca  Ca3  1  0.329994  0.828578  0.622765  1
  Ca  Ca4  1  0.162316  0.498662  0.748735  1
  Ca  Ca5  1  0.660927  0.001402  0.748496  1
  Ca  Ca6  1  0.839781  0.498641  0.249513  1
  Ca  Ca7  1  0.337798  0.002486  0.249859  1
  Pr  Pr8  1  0.832965  0.673909  0.875993  1
  Pr  Pr9  1  0.491219  0.314134  0.904724  1
  Pr  Pr10  1  0.993248  0.184856  0.595708  1
  Pr  Pr11  1  0.506854  0.685913  0.403787  1
  Pr  Pr12  1  0.009923  0.813500  0.097369  1
  Pr  Pr13  1  0.508070  0.685147  0.096960  1
  Pr  Pr14  1  0.008711  0.813996  0.403811  1
  Pr  Pr15  1  0.490334  0.315542  0.594943  1
  Pr  Pr16  1  0.992577  0.183903  0.904142  1
  Sm  Sm17  1  0.331420  0.827483  0.876280  1
  Sm  Sm18  1  0.832055  0.671771  0.623988  1
  Sm  Sm19  1  0.666691  0.173345  0.375495  1
  Sn  Sn20  1  0.328179  0.034211  0.038408  1
  Sn  Sn21  1  0.825971  0.463561  0.461657  1
  Sn  Sn22  1  0.673153  0.963470  0.537454  1
  Sn  Sn23  1  0.172694  0.534805  0.961217  1
  Sn  Sn24  1  0.669545  0.965021  0.961638  1
  Sn  Sn25  1  0.168931  0.534735  0.538892  1
  Sn  Sn26  1  0.329866  0.035146  0.460538  1
  Sn  Sn27  1  0.828457  0.464586  0.038895  1
  Sn  Sn28  1  0.530557  0.603820  0.750086  1
  Sn  Sn29  1  0.032603  0.894774  0.749772  1
  Sn  Sn30  1  0.468368  0.396395  0.251688  1
  Sn  Sn31  1  0.966179  0.103391  0.251320  1
  Sn  Sn32  1  0.290184  0.141667  0.750273  1
  Sn  Sn33  1  0.788994  0.360553  0.749699  1
  Sn  Sn34  1  0.712090  0.859987  0.250830  1
  Sn  Sn35  1  0.213132  0.641843  0.250333  1
