# generated using pymatgen
data_Pr4ErSn3
_symmetry_space_group_name_H-M   'P 1'
_cell_length_a   9.29004500
_cell_length_b   9.29004564
_cell_length_c   6.81356000
_cell_angle_alpha   90.00000000
_cell_angle_beta   90.00000000
_cell_angle_gamma   119.99999416
_symmetry_Int_Tables_number   1
_chemical_formula_structural   Pr4ErSn3
_chemical_formula_sum   'Pr8 Er2 Sn6'
_cell_volume   509.26098672
_cell_formula_units_Z   2
loop_
 _symmetry_equiv_pos_site_id
 _symmetry_equiv_pos_as_xyz
  1  'x, y, z'
loop_
 _atom_site_type_symbol
 _atom_site_label
 _atom_site_symmetry_multiplicity
 _atom_site_fract_x
 _atom_site_fract_y
 _atom_site_fract_z
 _atom_site_occupancy
  Pr  Pr0  1  0.333333  0.666667  0.000000  1
  Pr  Pr1  1  0.666667  0.333333  0.000000  1
  Pr  Pr2  1  0.755769  0.755769  0.252430  1
  Pr  Pr3  1  0.244231  0.000000  0.252430  1
  Pr  Pr4  1  0.000000  0.244231  0.252430  1
  Pr  Pr5  1  0.244231  0.244231  0.747570  1
  Pr  Pr6  1  0.755769  0.000000  0.747570  1
  Pr  Pr7  1  0.000000  0.755769  0.747570  1
  Er  Er8  1  0.666667  0.333333  0.500000  1
  Er  Er9  1  0.333333  0.666667  0.500000  1
  Sn  Sn10  1  0.395732  0.395732  0.259492  1
  Sn  Sn11  1  0.604268  0.000000  0.259492  1
  Sn  Sn12  1  0.000000  0.604268  0.259492  1
  Sn  Sn13  1  0.604268  0.604268  0.740508  1
  Sn  Sn14  1  0.395732  0.000000  0.740508  1
  Sn  Sn15  1  0.000000  0.395732  0.740508  1
