# generated using pymatgen
data_Pa6Co6Bi3Sb5
_symmetry_space_group_name_H-M   'P 1'
_cell_length_a   8.16993131
_cell_length_b   8.16993127
_cell_length_c   8.16993202
_cell_angle_alpha   109.46697118
_cell_angle_beta   109.46697222
_cell_angle_gamma   109.46696407
_symmetry_Int_Tables_number   1
_chemical_formula_structural   Pa6Co6Bi3Sb5
_chemical_formula_sum   'Pa6 Co6 Bi3 Sb5'
_cell_volume   419.85729396
_cell_formula_units_Z   1
loop_
 _symmetry_equiv_pos_site_id
 _symmetry_equiv_pos_as_xyz
  1  'x, y, z'
loop_
 _atom_site_type_symbol
 _atom_site_label
 _atom_site_symmetry_multiplicity
 _atom_site_fract_x
 _atom_site_fract_y
 _atom_site_fract_z
 _atom_site_occupancy
  Pa  Pa0  1  0.882671  0.246304  0.130403  1
  Pa  Pa1  1  0.617943  0.748846  0.372257  1
  Pa  Pa2  1  0.246304  0.130403  0.882671  1
  Pa  Pa3  1  0.748846  0.372257  0.617943  1
  Pa  Pa4  1  0.130403  0.882671  0.246304  1
  Pa  Pa5  1  0.372257  0.617943  0.748846  1
  Co  Co6  1  0.367913  0.252699  0.618101  1
  Co  Co7  1  0.124551  0.753750  0.884821  1
  Co  Co8  1  0.252699  0.618101  0.367913  1
  Co  Co9  1  0.753750  0.884821  0.124551  1
  Co  Co10  1  0.618101  0.367913  0.252699  1
  Co  Co11  1  0.884821  0.124551  0.753750  1
  Bi  Bi12  1  0.670399  0.499814  0.001407  1
  Bi  Bi13  1  0.499814  0.001407  0.670399  1
  Bi  Bi14  1  0.001407  0.670399  0.499814  1
  Sb  Sb15  1  0.832061  0.832061  0.832061  1
  Sb  Sb16  1  0.500231  0.997849  0.160188  1
  Sb  Sb17  1  0.160188  0.500231  0.997849  1
  Sb  Sb18  1  0.997849  0.160188  0.500231  1
  Sb  Sb19  1  0.337793  0.337793  0.337793  1
