# generated using pymatgen
data_Ho8TiNb10Si16Rh
_symmetry_space_group_name_H-M   'P 1'
_cell_length_a   7.04772816
_cell_length_b   7.04207974
_cell_length_c   12.96856851
_cell_angle_alpha   90.18734047
_cell_angle_beta   89.82416012
_cell_angle_gamma   89.61333498
_symmetry_Int_Tables_number   1
_chemical_formula_structural   Ho8TiNb10Si16Rh
_chemical_formula_sum   'Ho8 Ti1 Nb10 Si16 Rh1'
_cell_volume   643.61749023
_cell_formula_units_Z   1
loop_
 _symmetry_equiv_pos_site_id
 _symmetry_equiv_pos_as_xyz
  1  'x, y, z'
loop_
 _atom_site_type_symbol
 _atom_site_label
 _atom_site_symmetry_multiplicity
 _atom_site_fract_x
 _atom_site_fract_y
 _atom_site_fract_z
 _atom_site_occupancy
  Ho  Ho0  1  0.342418  0.002438  0.467378  1
  Ho  Ho1  1  0.496094  0.843393  0.718765  1
  Ho  Ho2  1  0.501346  0.157989  0.216496  1
  Ho  Ho3  1  0.842492  0.495589  0.281185  1
  Ho  Ho4  1  0.157884  0.500842  0.783860  1
  Ho  Ho5  1  0.656735  0.997977  0.967775  1
  Ho  Ho6  1  0.002909  0.341082  0.532220  1
  Ho  Ho7  1  0.998199  0.657177  0.031944  1
  Ti  Ti8  1  0.992920  0.848560  0.626263  1
  Nb  Nb9  1  0.174179  0.827563  0.247609  1
  Nb  Nb10  1  0.827363  0.175127  0.752330  1
  Nb  Nb11  1  0.671375  0.671116  0.499997  1
  Nb  Nb12  1  0.147475  0.003369  0.874730  1
  Nb  Nb13  1  0.495754  0.657713  0.123777  1
  Nb  Nb14  1  0.504350  0.347907  0.625167  1
  Nb  Nb15  1  0.658044  0.495012  0.876274  1
  Nb  Nb16  1  0.348911  0.504661  0.375306  1
  Nb  Nb17  1  0.848631  0.992599  0.374384  1
  Nb  Nb18  1  0.003188  0.149219  0.125125  1
  Si  Si19  1  0.202908  0.133366  0.683027  1
  Si  Si20  1  0.368875  0.703179  0.932683  1
  Si  Si21  1  0.635298  0.294830  0.432377  1
  Si  Si22  1  0.702607  0.368480  0.067139  1
  Si  Si23  1  0.294212  0.636460  0.568059  1
  Si  Si24  1  0.795336  0.865438  0.182690  1
  Si  Si25  1  0.135933  0.203337  0.316713  1
  Si  Si26  1  0.865725  0.796223  0.816130  1
  Si  Si27  1  0.289947  0.954206  0.061002  1
  Si  Si28  1  0.545974  0.794170  0.313227  1
  Si  Si29  1  0.447641  0.209838  0.816936  1
  Si  Si30  1  0.794984  0.547945  0.685845  1
  Si  Si31  1  0.209599  0.448395  0.182864  1
  Si  Si32  1  0.707951  0.045859  0.565083  1
  Si  Si33  1  0.954184  0.290970  0.939072  1
  Si  Si34  1  0.046583  0.706522  0.436701  1
  Rh  Rh35  1  0.331980  0.331452  0.999870  1
