# generated using pymatgen
data_TbNd4SmRuBr10
_symmetry_space_group_name_H-M   'P 1'
_cell_length_a   7.58910444
_cell_length_b   9.51436429
_cell_length_c   9.49275692
_cell_angle_alpha   108.81339934
_cell_angle_beta   95.99577511
_cell_angle_gamma   105.89748912
_symmetry_Int_Tables_number   1
_chemical_formula_structural   TbNd4SmRuBr10
_chemical_formula_sum   'Tb1 Nd4 Sm1 Ru1 Br10'
_cell_volume   609.84206193
_cell_formula_units_Z   1
loop_
 _symmetry_equiv_pos_site_id
 _symmetry_equiv_pos_as_xyz
  1  'x, y, z'
loop_
 _atom_site_type_symbol
 _atom_site_label
 _atom_site_symmetry_multiplicity
 _atom_site_fract_x
 _atom_site_fract_y
 _atom_site_fract_z
 _atom_site_occupancy
  Tb  Tb0  1  0.635922  0.863737  0.819487  1
  Nd  Nd1  1  0.125090  0.044275  0.752733  1
  Nd  Nd2  1  0.872195  0.954410  0.246270  1
  Nd  Nd3  1  0.973908  0.296603  0.094980  1
  Nd  Nd4  1  0.024441  0.702946  0.903786  1
  Sm  Sm5  1  0.367407  0.137637  0.182232  1
  Ru  Ru6  1  0.999343  0.999712  0.999961  1
  Br  Br7  1  0.550118  0.170166  0.916245  1
  Br  Br8  1  0.450882  0.825456  0.078331  1
  Br  Br9  1  0.360146  0.451629  0.272651  1
  Br  Br10  1  0.637246  0.553118  0.727536  1
  Br  Br11  1  0.253978  0.084437  0.452796  1
  Br  Br12  1  0.742437  0.913945  0.550233  1
  Br  Br13  1  0.787258  0.257952  0.350647  1
  Br  Br14  1  0.219511  0.743960  0.652246  1
  Br  Br15  1  0.088811  0.365824  0.827176  1
  Br  Br16  1  0.911307  0.634194  0.172692  1
