# generated using pymatgen
data_Tb2Mn2Fe5Ni5P7
_symmetry_space_group_name_H-M   'P 1'
_cell_length_a   9.05122215
_cell_length_b   9.10756468
_cell_length_c   3.65073700
_cell_angle_alpha   90.00000000
_cell_angle_beta   90.00000000
_cell_angle_gamma   119.89361033
_symmetry_Int_Tables_number   1
_chemical_formula_structural   Tb2Mn2Fe5Ni5P7
_chemical_formula_sum   'Tb2 Mn2 Fe5 Ni5 P7'
_cell_volume   260.90671496
_cell_formula_units_Z   1
loop_
 _symmetry_equiv_pos_site_id
 _symmetry_equiv_pos_as_xyz
  1  'x, y, z'
loop_
 _atom_site_type_symbol
 _atom_site_label
 _atom_site_symmetry_multiplicity
 _atom_site_fract_x
 _atom_site_fract_y
 _atom_site_fract_z
 _atom_site_occupancy
  Tb  Tb0  1  0.670970  0.336090  0.000000  1
  Tb  Tb1  1  0.330618  0.666139  0.500000  1
  Mn  Mn2  1  0.782694  0.899449  0.500000  1
  Mn  Mn3  1  0.115304  0.212198  0.500000  1
  Fe  Fe4  1  0.277024  0.120763  0.000000  1
  Fe  Fe5  1  0.841330  0.724114  0.000000  1
  Fe  Fe6  1  0.882386  0.153634  0.000000  1
  Fe  Fe7  1  0.952432  0.387240  0.500000  1
  Fe  Fe8  1  0.096618  0.877437  0.500000  1
  Ni  Ni9  1  0.061671  0.632115  0.000000  1
  Ni  Ni10  1  0.565403  0.939102  0.000000  1
  Ni  Ni11  1  0.368411  0.433985  0.000000  1
  Ni  Ni12  1  0.438748  0.050384  0.500000  1
  Ni  Ni13  1  0.611642  0.561347  0.500000  1
  P  P14  1  0.293730  0.890356  0.000000  1
  P  P15  1  0.591324  0.703635  0.000000  1
  P  P16  1  0.104680  0.408062  0.000000  1
  P  P17  1  0.401424  0.283822  0.500000  1
  P  P18  1  0.888774  0.600681  0.500000  1
  P  P19  1  0.722845  0.122922  0.500000  1
  P  P20  1  0.001972  0.996524  0.000000  1
