# generated using pymatgen
data_Pa2Mn3Ge
_symmetry_space_group_name_H-M   'P 1'
_cell_length_a   5.01158515
_cell_length_b   5.01158499
_cell_length_c   5.01158500
_cell_angle_alpha   64.26750670
_cell_angle_beta   64.26750757
_cell_angle_gamma   64.26750515
_symmetry_Int_Tables_number   1
_chemical_formula_structural   Pa2Mn3Ge
_chemical_formula_sum   'Pa2 Mn3 Ge1'
_cell_volume   97.35073206
_cell_formula_units_Z   1
loop_
 _symmetry_equiv_pos_site_id
 _symmetry_equiv_pos_as_xyz
  1  'x, y, z'
loop_
 _atom_site_type_symbol
 _atom_site_label
 _atom_site_symmetry_multiplicity
 _atom_site_fract_x
 _atom_site_fract_y
 _atom_site_fract_z
 _atom_site_occupancy
  Pa  Pa0  1  0.620296  0.620296  0.620296  1
  Pa  Pa1  1  0.379704  0.379704  0.379704  1
  Mn  Mn2  1  0.000000  0.500000  0.000000  1
  Mn  Mn3  1  0.500000  0.000000  0.000000  1
  Mn  Mn4  1  0.000000  0.000000  0.500000  1
  Ge  Ge5  1  0.000000  0.000000  0.000000  1
