# generated using pymatgen
data_Sc10InSb5P2
_symmetry_space_group_name_H-M   'P 1'
_cell_length_a   8.58045134
_cell_length_b   8.58045090
_cell_length_c   6.12215200
_cell_angle_alpha   90.00000000
_cell_angle_beta   90.00000000
_cell_angle_gamma   120.04116327
_symmetry_Int_Tables_number   1
_chemical_formula_structural   Sc10InSb5P2
_chemical_formula_sum   'Sc10 In1 Sb5 P2'
_cell_volume   390.18870467
_cell_formula_units_Z   1
loop_
 _symmetry_equiv_pos_site_id
 _symmetry_equiv_pos_as_xyz
  1  'x, y, z'
loop_
 _atom_site_type_symbol
 _atom_site_label
 _atom_site_symmetry_multiplicity
 _atom_site_fract_x
 _atom_site_fract_y
 _atom_site_fract_z
 _atom_site_occupancy
  Sc  Sc0  1  0.667800  0.333252  0.999648  1
  Sc  Sc1  1  0.333252  0.667800  0.999648  1
  Sc  Sc2  1  0.333252  0.667800  0.500352  1
  Sc  Sc3  1  0.667800  0.333252  0.500352  1
  Sc  Sc4  1  0.756729  0.756729  0.750000  1
  Sc  Sc5  1  0.247327  0.999422  0.750000  1
  Sc  Sc6  1  0.999422  0.247327  0.750000  1
  Sc  Sc7  1  0.242926  0.242926  0.250000  1
  Sc  Sc8  1  0.754599  0.999432  0.250000  1
  Sc  Sc9  1  0.999432  0.754599  0.250000  1
  In  In10  1  0.397074  0.397074  0.750000  1
  Sb  Sb11  1  0.602859  0.999417  0.750000  1
  Sb  Sb12  1  0.999417  0.602859  0.750000  1
  Sb  Sb13  1  0.598493  0.598493  0.250000  1
  Sb  Sb14  1  0.397191  0.000606  0.250000  1
  Sb  Sb15  1  0.000606  0.397191  0.250000  1
  P  P16  1  0.000910  0.000910  0.999183  1
  P  P17  1  0.000910  0.000910  0.500817  1
