# generated using pymatgen
data_K2CoAs2O7
_symmetry_space_group_name_H-M   'P 1'
_cell_length_a   5.89244300
_cell_length_b   8.35893800
_cell_length_c   8.35908100
_cell_angle_alpha   90.00034278
_cell_angle_beta   89.99910528
_cell_angle_gamma   90.00038817
_symmetry_Int_Tables_number   1
_chemical_formula_structural   K2CoAs2O7
_chemical_formula_sum   'K4 Co2 As4 O14'
_cell_volume   411.72290495
_cell_formula_units_Z   2
loop_
 _symmetry_equiv_pos_site_id
 _symmetry_equiv_pos_as_xyz
  1  'x, y, z'
loop_
 _atom_site_type_symbol
 _atom_site_label
 _atom_site_symmetry_multiplicity
 _atom_site_fract_x
 _atom_site_fract_y
 _atom_site_fract_z
 _atom_site_occupancy
  K  K0  1  0.510376  0.163559  0.663558  1
  K  K1  1  0.489564  0.336431  0.163578  1
  K  K2  1  0.510495  0.836422  0.336415  1
  K  K3  1  0.489564  0.663579  0.836438  1
  Co  Co4  1  0.999987  0.499985  0.500021  1
  Co  Co5  1  0.000003  0.000027  0.999976  1
  As  As6  1  0.958540  0.641670  0.141665  1
  As  As7  1  0.041570  0.141640  0.358319  1
  As  As8  1  0.958326  0.358341  0.858342  1
  As  As9  1  0.041587  0.858308  0.641650  1
  O  O10  1  0.160954  0.999915  0.499926  1
  O  O11  1  0.839046  0.500013  0.000021  1
  O  O12  1  0.756805  0.140677  0.359335  1
  O  O13  1  0.243169  0.359313  0.859317  1
  O  O14  1  0.756819  0.859332  0.640676  1
  O  O15  1  0.243203  0.640657  0.140652  1
  O  O16  1  0.176620  0.313982  0.419258  1
  O  O17  1  0.823324  0.186011  0.919206  1
  O  O18  1  0.176596  0.685955  0.580853  1
  O  O19  1  0.823457  0.814036  0.080799  1
  O  O20  1  0.823453  0.580818  0.314026  1
  O  O21  1  0.176622  0.919256  0.813985  1
  O  O22  1  0.823326  0.419222  0.686013  1
  O  O23  1  0.176595  0.080856  0.185970  1
