# generated using pymatgen
data_Er5Si12Ir19
_symmetry_space_group_name_H-M   'P 1'
_cell_length_a   12.81661200
_cell_length_b   12.81661200
_cell_length_c   3.97503900
_cell_angle_alpha   90.00000000
_cell_angle_beta   90.00000000
_cell_angle_gamma   120.00000517
_symmetry_Int_Tables_number   1
_chemical_formula_structural   Er5Si12Ir19
_chemical_formula_sum   'Er5 Si12 Ir19'
_cell_volume   565.48159843
_cell_formula_units_Z   1
loop_
 _symmetry_equiv_pos_site_id
 _symmetry_equiv_pos_as_xyz
  1  'x, y, z'
loop_
 _atom_site_type_symbol
 _atom_site_label
 _atom_site_symmetry_multiplicity
 _atom_site_fract_x
 _atom_site_fract_y
 _atom_site_fract_z
 _atom_site_occupancy
  Er  Er0  1  0.666667  0.333333  0.000000  1
  Er  Er1  1  0.333333  0.666667  0.000000  1
  Er  Er2  1  0.814934  0.814934  0.500000  1
  Er  Er3  1  0.185066  0.000000  0.500000  1
  Er  Er4  1  0.000000  0.185066  0.500000  1
  Si  Si5  1  0.687962  0.169118  0.500000  1
  Si  Si6  1  0.830882  0.518843  0.500000  1
  Si  Si7  1  0.481157  0.312038  0.500000  1
  Si  Si8  1  0.169118  0.687962  0.500000  1
  Si  Si9  1  0.518843  0.830882  0.500000  1
  Si  Si10  1  0.312038  0.481157  0.500000  1
  Si  Si11  1  0.632329  0.632329  0.000000  1
  Si  Si12  1  0.367671  0.000000  0.000000  1
  Si  Si13  1  0.000000  0.367671  0.000000  1
  Si  Si14  1  0.180938  0.180938  0.000000  1
  Si  Si15  1  0.819062  0.000000  0.000000  1
  Si  Si16  1  0.000000  0.819062  0.000000  1
  Ir  Ir17  1  0.806256  0.182615  0.000000  1
  Ir  Ir18  1  0.817385  0.623641  0.000000  1
  Ir  Ir19  1  0.376359  0.193744  0.000000  1
  Ir  Ir20  1  0.182615  0.806256  0.000000  1
  Ir  Ir21  1  0.623641  0.817385  0.000000  1
  Ir  Ir22  1  0.193744  0.376359  0.000000  1
  Ir  Ir23  1  0.447225  0.447225  0.000000  1
  Ir  Ir24  1  0.552775  0.000000  0.000000  1
  Ir  Ir25  1  0.000000  0.552775  0.000000  1
  Ir  Ir26  1  0.282447  0.282447  0.500000  1
  Ir  Ir27  1  0.717553  0.000000  0.500000  1
  Ir  Ir28  1  0.000000  0.717553  0.500000  1
  Ir  Ir29  1  0.873348  0.361477  0.500000  1
  Ir  Ir30  1  0.638523  0.511873  0.500000  1
  Ir  Ir31  1  0.488127  0.126652  0.500000  1
  Ir  Ir32  1  0.361477  0.873348  0.500000  1
  Ir  Ir33  1  0.511873  0.638523  0.500000  1
  Ir  Ir34  1  0.126652  0.488127  0.500000  1
  Ir  Ir35  1  0.000000  0.000000  0.000000  1
