# generated using pymatgen
data_LiTm2(ScSn2)2
_symmetry_space_group_name_H-M   'P 1'
_cell_length_a   7.39881100
_cell_length_b   7.91438900
_cell_length_c   14.97117400
_cell_angle_alpha   90.00000000
_cell_angle_beta   90.00000000
_cell_angle_gamma   90.00000000
_symmetry_Int_Tables_number   1
_chemical_formula_structural   LiTm2(ScSn2)2
_chemical_formula_sum   'Li4 Tm8 Sc8 Sn16'
_cell_volume   876.66805982
_cell_formula_units_Z   4
loop_
 _symmetry_equiv_pos_site_id
 _symmetry_equiv_pos_as_xyz
  1  'x, y, z'
loop_
 _atom_site_type_symbol
 _atom_site_label
 _atom_site_symmetry_multiplicity
 _atom_site_fract_x
 _atom_site_fract_y
 _atom_site_fract_z
 _atom_site_occupancy
  Li  Li0  1  0.164407  0.498245  0.750000  1
  Li  Li1  1  0.835593  0.501755  0.250000  1
  Li  Li2  1  0.335593  0.998245  0.250000  1
  Li  Li3  1  0.664407  0.001755  0.750000  1
  Tm  Tm4  1  0.995099  0.181700  0.092108  1
  Tm  Tm5  1  0.004901  0.818300  0.907892  1
  Tm  Tm6  1  0.504901  0.681700  0.907892  1
  Tm  Tm7  1  0.004901  0.818300  0.592108  1
  Tm  Tm8  1  0.495099  0.318300  0.092108  1
  Tm  Tm9  1  0.995099  0.181700  0.407892  1
  Tm  Tm10  1  0.495099  0.318300  0.407892  1
  Tm  Tm11  1  0.504901  0.681700  0.592108  1
  Sc  Sc12  1  0.334959  0.161841  0.626668  1
  Sc  Sc13  1  0.665041  0.838159  0.373332  1
  Sc  Sc14  1  0.165041  0.661841  0.373332  1
  Sc  Sc15  1  0.665041  0.838159  0.126668  1
  Sc  Sc16  1  0.834959  0.338159  0.626668  1
  Sc  Sc17  1  0.334959  0.161841  0.873332  1
  Sc  Sc18  1  0.834959  0.338159  0.873332  1
  Sc  Sc19  1  0.165041  0.661841  0.126668  1
  Sn  Sn20  1  0.024737  0.113061  0.750000  1
  Sn  Sn21  1  0.975263  0.886939  0.250000  1
  Sn  Sn22  1  0.475263  0.613061  0.250000  1
  Sn  Sn23  1  0.524737  0.386939  0.750000  1
  Sn  Sn24  1  0.304273  0.851530  0.750000  1
  Sn  Sn25  1  0.695727  0.148470  0.250000  1
  Sn  Sn26  1  0.195727  0.351530  0.250000  1
  Sn  Sn27  1  0.804273  0.648470  0.750000  1
  Sn  Sn28  1  0.181135  0.457969  0.541876  1
  Sn  Sn29  1  0.818865  0.542031  0.458124  1
  Sn  Sn30  1  0.318865  0.957969  0.458124  1
  Sn  Sn31  1  0.818865  0.542031  0.041876  1
  Sn  Sn32  1  0.681135  0.042031  0.541876  1
  Sn  Sn33  1  0.181135  0.457969  0.958124  1
  Sn  Sn34  1  0.681135  0.042031  0.958124  1
  Sn  Sn35  1  0.318865  0.957969  0.041876  1
