# generated using pymatgen
data_Ta3WF20
_symmetry_space_group_name_H-M   'P 1'
_cell_length_a   8.92125654
_cell_length_b   8.92125676
_cell_length_c   5.29227409
_cell_angle_alpha   86.60365192
_cell_angle_beta   86.60364704
_cell_angle_gamma   112.32980744
_symmetry_Int_Tables_number   1
_chemical_formula_structural   Ta3WF20
_chemical_formula_sum   'Ta3 W1 F20'
_cell_volume   387.40891881
_cell_formula_units_Z   1
loop_
 _symmetry_equiv_pos_site_id
 _symmetry_equiv_pos_as_xyz
  1  'x, y, z'
loop_
 _atom_site_type_symbol
 _atom_site_label
 _atom_site_symmetry_multiplicity
 _atom_site_fract_x
 _atom_site_fract_y
 _atom_site_fract_z
 _atom_site_occupancy
  Ta  Ta0  1  0.744541  0.741604  0.249003  1
  Ta  Ta1  1  0.258396  0.255459  0.750997  1
  Ta  Ta2  1  0.199645  0.800355  0.500000  1
  W  W3  1  0.803668  0.196332  0.500000  1
  F  F4  1  0.269505  0.455511  0.848888  1
  F  F5  1  0.331089  0.331807  0.407359  1
  F  F6  1  0.458153  0.268794  0.850794  1
  F  F7  1  0.028377  0.217826  0.623909  1
  F  F8  1  0.668193  0.668911  0.592641  1
  F  F9  1  0.544489  0.730495  0.151112  1
  F  F10  1  0.866583  0.867776  0.954598  1
  F  F11  1  0.974408  0.785442  0.379370  1
  F  F12  1  0.167014  0.600963  0.376089  1
  F  F13  1  0.920395  0.288753  0.185034  1
  F  F14  1  0.599856  0.169444  0.377518  1
  F  F15  1  0.830556  0.400144  0.622482  1
  F  F16  1  0.782174  0.971623  0.376091  1
  F  F17  1  0.711247  0.079605  0.814966  1
  F  F18  1  0.214558  0.025592  0.620630  1
  F  F19  1  0.399037  0.832986  0.623911  1
  F  F20  1  0.132224  0.133417  0.045402  1
  F  F21  1  0.731206  0.541847  0.149206  1
  F  F22  1  0.286986  0.922302  0.185040  1
  F  F23  1  0.077698  0.713014  0.814960  1
