# generated using pymatgen
data_Al4PdPt6Rh
_symmetry_space_group_name_H-M   'P 1'
_cell_length_a   4.11319000
_cell_length_b   5.46985850
_cell_length_c   7.89302384
_cell_angle_alpha   90.48213553
_cell_angle_beta   90.00000000
_cell_angle_gamma   90.00000000
_symmetry_Int_Tables_number   1
_chemical_formula_structural   Al4PdPt6Rh
_chemical_formula_sum   'Al4 Pd1 Pt6 Rh1'
_cell_volume   177.57544058
_cell_formula_units_Z   1
loop_
 _symmetry_equiv_pos_site_id
 _symmetry_equiv_pos_as_xyz
  1  'x, y, z'
loop_
 _atom_site_type_symbol
 _atom_site_label
 _atom_site_symmetry_multiplicity
 _atom_site_fract_x
 _atom_site_fract_y
 _atom_site_fract_z
 _atom_site_occupancy
  Al  Al0  1  0.750000  0.801733  0.894599  1
  Al  Al1  1  0.250000  0.190577  0.102013  1
  Al  Al2  1  0.750000  0.316458  0.604396  1
  Al  Al3  1  0.250000  0.690149  0.401401  1
  Pd  Pd4  1  0.750000  0.460246  0.285641  1
  Pt  Pt5  1  0.750000  0.960166  0.212751  1
  Pt  Pt6  1  0.250000  0.039536  0.786107  1
  Pt  Pt7  1  0.750000  0.333250  0.930706  1
  Pt  Pt8  1  0.250000  0.662911  0.068732  1
  Pt  Pt9  1  0.750000  0.835679  0.567755  1
  Pt  Pt10  1  0.250000  0.169834  0.432639  1
  Rh  Rh11  1  0.250000  0.539460  0.713260  1
