# generated using pymatgen
data_La3Pr4Nd(CdPd)2
_symmetry_space_group_name_H-M   'P 1'
_cell_length_a   10.12664644
_cell_length_b   10.14703073
_cell_length_c   10.14846312
_cell_angle_alpha   59.86247937
_cell_angle_beta   60.06173264
_cell_angle_gamma   60.07578814
_symmetry_Int_Tables_number   1
_chemical_formula_structural   La3Pr4Nd(CdPd)2
_chemical_formula_sum   'La6 Pr8 Nd2 Cd4 Pd4'
_cell_volume   737.37115143
_cell_formula_units_Z   2
loop_
 _symmetry_equiv_pos_site_id
 _symmetry_equiv_pos_as_xyz
  1  'x, y, z'
loop_
 _atom_site_type_symbol
 _atom_site_label
 _atom_site_symmetry_multiplicity
 _atom_site_fract_x
 _atom_site_fract_y
 _atom_site_fract_z
 _atom_site_occupancy
  La  La0  1  0.350500  0.351586  0.351324  1
  La  La1  1  0.351586  0.350500  0.946589  1
  La  La2  1  0.351324  0.946589  0.350500  1
  La  La3  1  0.946589  0.351324  0.351586  1
  La  La4  1  0.807463  0.192537  0.192537  1
  La  La5  1  0.192537  0.807463  0.807463  1
  Pr  Pr6  1  0.193144  0.193144  0.806856  1
  Pr  Pr7  1  0.806856  0.806856  0.193144  1
  Pr  Pr8  1  0.934621  0.565379  0.565379  1
  Pr  Pr9  1  0.565379  0.934621  0.934621  1
  Pr  Pr10  1  0.565319  0.934681  0.565319  1
  Pr  Pr11  1  0.934681  0.565319  0.934681  1
  Pr  Pr12  1  0.565302  0.565302  0.934698  1
  Pr  Pr13  1  0.934698  0.934698  0.565302  1
  Nd  Nd14  1  0.193160  0.806840  0.193160  1
  Nd  Nd15  1  0.806840  0.193160  0.806840  1
  Cd  Cd16  1  0.580780  0.579653  0.579833  1
  Cd  Cd17  1  0.579653  0.580780  0.259732  1
  Cd  Cd18  1  0.579833  0.259732  0.580780  1
  Cd  Cd19  1  0.259732  0.579833  0.579653  1
  Pd  Pd20  1  0.142613  0.143385  0.143899  1
  Pd  Pd21  1  0.143385  0.142613  0.570104  1
  Pd  Pd22  1  0.143899  0.570104  0.142613  1
  Pd  Pd23  1  0.570104  0.143899  0.143385  1
