# generated using pymatgen
data_CaSc2(H6Rh)2
_symmetry_space_group_name_H-M   'P 1'
_cell_length_a   4.54878000
_cell_length_b   4.54878083
_cell_length_c   7.99887300
_cell_angle_alpha   90.00000000
_cell_angle_beta   90.00000000
_cell_angle_gamma   119.99999393
_symmetry_Int_Tables_number   1
_chemical_formula_structural   CaSc2(H6Rh)2
_chemical_formula_sum   'Ca1 Sc2 H12 Rh2'
_cell_volume   143.33406082
_cell_formula_units_Z   1
loop_
 _symmetry_equiv_pos_site_id
 _symmetry_equiv_pos_as_xyz
  1  'x, y, z'
loop_
 _atom_site_type_symbol
 _atom_site_label
 _atom_site_symmetry_multiplicity
 _atom_site_fract_x
 _atom_site_fract_y
 _atom_site_fract_z
 _atom_site_occupancy
  Ca  Ca0  1  0.000000  0.000000  0.000000  1
  Sc  Sc1  1  0.666667  0.333333  0.369115  1
  Sc  Sc2  1  0.333333  0.666667  0.630885  1
  H  H3  1  0.162550  0.837450  0.393581  1
  H  H4  1  0.674901  0.837450  0.393581  1
  H  H5  1  0.162550  0.325099  0.393581  1
  H  H6  1  0.837450  0.162550  0.606419  1
  H  H7  1  0.325099  0.162550  0.606419  1
  H  H8  1  0.837450  0.674901  0.606419  1
  H  H9  1  0.489675  0.979349  0.855860  1
  H  H10  1  0.489675  0.510325  0.855860  1
  H  H11  1  0.020651  0.510325  0.855860  1
  H  H12  1  0.510325  0.020651  0.144140  1
  H  H13  1  0.510325  0.489675  0.144140  1
  H  H14  1  0.979349  0.489675  0.144140  1
  Rh  Rh15  1  0.666667  0.333333  0.737507  1
  Rh  Rh16  1  0.333333  0.666667  0.262493  1
