# generated using pymatgen
data_Hf4Ga3RhN
_symmetry_space_group_name_H-M   'P 1'
_cell_length_a   7.91037700
_cell_length_b   7.91037774
_cell_length_c   5.41571000
_cell_angle_alpha   90.00000000
_cell_angle_beta   90.00000000
_cell_angle_gamma   120.00000109
_symmetry_Int_Tables_number   1
_chemical_formula_structural   Hf4Ga3RhN
_chemical_formula_sum   'Hf8 Ga6 Rh2 N2'
_cell_volume   293.48129869
_cell_formula_units_Z   2
loop_
 _symmetry_equiv_pos_site_id
 _symmetry_equiv_pos_as_xyz
  1  'x, y, z'
loop_
 _atom_site_type_symbol
 _atom_site_label
 _atom_site_symmetry_multiplicity
 _atom_site_fract_x
 _atom_site_fract_y
 _atom_site_fract_z
 _atom_site_occupancy
  Hf  Hf0  1  0.230295  0.000000  0.248667  1
  Hf  Hf1  1  0.769705  0.000000  0.751333  1
  Hf  Hf2  1  0.000000  0.230295  0.248667  1
  Hf  Hf3  1  0.000000  0.769705  0.751333  1
  Hf  Hf4  1  0.769705  0.769705  0.248667  1
  Hf  Hf5  1  0.230295  0.230295  0.751333  1
  Hf  Hf6  1  0.666667  0.333333  0.500000  1
  Hf  Hf7  1  0.333333  0.666667  0.500000  1
  Ga  Ga8  1  0.592011  0.000000  0.235299  1
  Ga  Ga9  1  0.407989  0.000000  0.764701  1
  Ga  Ga10  1  0.000000  0.592011  0.235299  1
  Ga  Ga11  1  0.000000  0.407989  0.764701  1
  Ga  Ga12  1  0.407989  0.407989  0.235299  1
  Ga  Ga13  1  0.592011  0.592011  0.764701  1
  Rh  Rh14  1  0.333333  0.666667  0.000000  1
  Rh  Rh15  1  0.666667  0.333333  0.000000  1
  N  N16  1  0.000000  0.000000  0.000000  1
  N  N17  1  0.000000  0.000000  0.500000  1
