# generated using pymatgen
data_Te16Os
_symmetry_space_group_name_H-M   'P 1'
_cell_length_a   7.80162562
_cell_length_b   7.80162530
_cell_length_c   14.02842630
_cell_angle_alpha   54.58770688
_cell_angle_beta   54.58770844
_cell_angle_gamma   64.63501009
_symmetry_Int_Tables_number   1
_chemical_formula_structural   Te16Os
_chemical_formula_sum   'Te16 Os1'
_cell_volume   561.61023079
_cell_formula_units_Z   1
loop_
 _symmetry_equiv_pos_site_id
 _symmetry_equiv_pos_as_xyz
  1  'x, y, z'
loop_
 _atom_site_type_symbol
 _atom_site_label
 _atom_site_symmetry_multiplicity
 _atom_site_fract_x
 _atom_site_fract_y
 _atom_site_fract_z
 _atom_site_occupancy
  Te  Te0  1  0.811089  0.811089  0.897998  1
  Te  Te1  1  0.352838  0.352838  0.875034  1
  Te  Te2  1  0.664365  0.159186  0.123390  1
  Te  Te3  1  0.159186  0.664365  0.123390  1
  Te  Te4  1  0.028866  0.028866  0.328549  1
  Te  Te5  1  0.442514  0.442514  0.395412  1
  Te  Te6  1  0.551517  0.027443  0.617155  1
  Te  Te7  1  0.027443  0.551517  0.617155  1
  Te  Te8  1  0.239678  0.239678  0.376408  1
  Te  Te9  1  0.734716  0.734716  0.342637  1
  Te  Te10  1  0.330172  0.757106  0.636994  1
  Te  Te11  1  0.757106  0.330172  0.636994  1
  Te  Te12  1  0.040716  0.040716  0.924244  1
  Te  Te13  1  0.599250  0.599250  0.885263  1
  Te  Te14  1  0.408308  0.907747  0.120502  1
  Te  Te15  1  0.907747  0.408308  0.120502  1
  Os  Os16  1  0.755787  0.755787  0.512773  1
