# generated using pymatgen
data_Zr4MnCoRe6
_symmetry_space_group_name_H-M   'P 1'
_cell_length_a   5.21889400
_cell_length_b   5.21889332
_cell_length_c   8.63568800
_cell_angle_alpha   90.00000000
_cell_angle_beta   90.00000000
_cell_angle_gamma   120.00000430
_symmetry_Int_Tables_number   1
_chemical_formula_structural   Zr4MnCoRe6
_chemical_formula_sum   'Zr4 Mn1 Co1 Re6'
_cell_volume   203.69691507
_cell_formula_units_Z   1
loop_
 _symmetry_equiv_pos_site_id
 _symmetry_equiv_pos_as_xyz
  1  'x, y, z'
loop_
 _atom_site_type_symbol
 _atom_site_label
 _atom_site_symmetry_multiplicity
 _atom_site_fract_x
 _atom_site_fract_y
 _atom_site_fract_z
 _atom_site_occupancy
  Zr  Zr0  1  0.333333  0.666667  0.435905  1
  Zr  Zr1  1  0.666667  0.333333  0.564095  1
  Zr  Zr2  1  0.666667  0.333333  0.932655  1
  Zr  Zr3  1  0.333333  0.666667  0.067345  1
  Mn  Mn4  1  0.000000  0.000000  0.000000  1
  Co  Co5  1  0.000000  0.000000  0.500000  1
  Re  Re6  1  0.831847  0.168153  0.250998  1
  Re  Re7  1  0.831847  0.663694  0.250998  1
  Re  Re8  1  0.336306  0.168153  0.250998  1
  Re  Re9  1  0.168153  0.831847  0.749002  1
  Re  Re10  1  0.168153  0.336306  0.749002  1
  Re  Re11  1  0.663694  0.831847  0.749002  1
