# generated using pymatgen
data_La7Er13(SiPt)8
_symmetry_space_group_name_H-M   'P 1'
_cell_length_a   7.80760042
_cell_length_b   7.84554532
_cell_length_c   14.13715500
_cell_angle_alpha   90.04465766
_cell_angle_beta   89.75321410
_cell_angle_gamma   90.11199255
_symmetry_Int_Tables_number   1
_chemical_formula_structural   La7Er13(SiPt)8
_chemical_formula_sum   'La7 Er13 Si8 Pt8'
_cell_volume   865.95983048
_cell_formula_units_Z   1
loop_
 _symmetry_equiv_pos_site_id
 _symmetry_equiv_pos_as_xyz
  1  'x, y, z'
loop_
 _atom_site_type_symbol
 _atom_site_label
 _atom_site_symmetry_multiplicity
 _atom_site_fract_x
 _atom_site_fract_y
 _atom_site_fract_z
 _atom_site_occupancy
  La  La0  1  0.997693  0.352259  0.535909  1
  La  La1  1  0.649189  0.998607  0.968028  1
  La  La2  1  0.144588  0.499314  0.786248  1
  La  La3  1  0.853458  0.503761  0.283113  1
  La  La4  1  0.501575  0.145225  0.212600  1
  La  La5  1  0.500629  0.852665  0.716172  1
  La  La6  1  0.352630  0.997452  0.464034  1
  Er  Er7  1  0.347176  0.501546  0.375547  1
  Er  Er8  1  0.847334  0.997793  0.371258  1
  Er  Er9  1  0.002200  0.153156  0.125199  1
  Er  Er10  1  0.998558  0.846549  0.627984  1
  Er  Er11  1  0.654291  0.501313  0.879892  1
  Er  Er12  1  0.500340  0.347383  0.623196  1
  Er  Er13  1  0.499198  0.650362  0.122861  1
  Er  Er14  1  0.149731  0.000216  0.875346  1
  Er  Er15  1  0.006306  0.641945  0.037677  1
  Er  Er16  1  0.673274  0.673023  0.499877  1
  Er  Er17  1  0.825196  0.172931  0.751989  1
  Er  Er18  1  0.171258  0.826376  0.245664  1
  Er  Er19  1  0.323422  0.331237  0.999282  1
  Si  Si20  1  0.861987  0.793183  0.822831  1
  Si  Si21  1  0.139415  0.206542  0.318007  1
  Si  Si22  1  0.799402  0.858684  0.175407  1
  Si  Si23  1  0.294368  0.638083  0.569302  1
  Si  Si24  1  0.712118  0.366920  0.070209  1
  Si  Si25  1  0.636682  0.292897  0.429703  1
  Si  Si26  1  0.355533  0.704479  0.932725  1
  Si  Si27  1  0.204973  0.137054  0.681269  1
  Pt  Pt28  1  0.047547  0.708036  0.440761  1
  Pt  Pt29  1  0.955038  0.300010  0.941746  1
  Pt  Pt30  1  0.709167  0.047697  0.559658  1
  Pt  Pt31  1  0.203176  0.454458  0.188276  1
  Pt  Pt32  1  0.790359  0.549018  0.691526  1
  Pt  Pt33  1  0.452869  0.208683  0.810162  1
  Pt  Pt34  1  0.548560  0.792151  0.307478  1
  Pt  Pt35  1  0.290757  0.948993  0.059067  1
