# generated using pymatgen
data_Dy9Ho3CuSi8Ni3
_symmetry_space_group_name_H-M   'P 1'
_cell_length_a   4.12729100
_cell_length_b   11.25186800
_cell_length_c   11.25432920
_cell_angle_alpha   90.01112902
_cell_angle_beta   90.00000000
_cell_angle_gamma   90.00000000
_symmetry_Int_Tables_number   1
_chemical_formula_structural   Dy9Ho3CuSi8Ni3
_chemical_formula_sum   'Dy9 Ho3 Cu1 Si8 Ni3'
_cell_volume   522.64803910
_cell_formula_units_Z   1
loop_
 _symmetry_equiv_pos_site_id
 _symmetry_equiv_pos_as_xyz
  1  'x, y, z'
loop_
 _atom_site_type_symbol
 _atom_site_label
 _atom_site_symmetry_multiplicity
 _atom_site_fract_x
 _atom_site_fract_y
 _atom_site_fract_z
 _atom_site_occupancy
  Dy  Dy0  1  0.750000  0.563416  0.617231  1
  Dy  Dy1  1  0.250000  0.119813  0.558175  1
  Dy  Dy2  1  0.250000  0.375821  0.059019  1
  Dy  Dy3  1  0.750000  0.874375  0.440825  1
  Dy  Dy4  1  0.750000  0.624962  0.940938  1
  Dy  Dy5  1  0.250000  0.804767  0.713971  1
  Dy  Dy6  1  0.250000  0.696984  0.213191  1
  Dy  Dy7  1  0.750000  0.194739  0.286906  1
  Dy  Dy8  1  0.750000  0.303339  0.790789  1
  Ho  Ho9  1  0.250000  0.060497  0.882066  1
  Ho  Ho10  1  0.250000  0.442259  0.379089  1
  Ho  Ho11  1  0.750000  0.940542  0.116661  1
  Cu  Cu12  1  0.250000  0.364458  0.630395  1
  Si  Si13  1  0.250000  0.813813  0.974927  1
  Si  Si14  1  0.250000  0.685897  0.475334  1
  Si  Si15  1  0.750000  0.187159  0.025806  1
  Si  Si16  1  0.750000  0.312105  0.523566  1
  Si  Si17  1  0.250000  0.496420  0.804768  1
  Si  Si18  1  0.250000  0.004781  0.303216  1
  Si  Si19  1  0.750000  0.506519  0.195675  1
  Si  Si20  1  0.750000  0.994081  0.697350  1
  Ni  Ni21  1  0.250000  0.133684  0.129356  1
  Ni  Ni22  1  0.750000  0.633404  0.369874  1
  Ni  Ni23  1  0.750000  0.866167  0.870871  1
