# generated using pymatgen
data_DyCo2MoP3Rh2
_symmetry_space_group_name_H-M   'P 1'
_cell_length_a   3.81562000
_cell_length_b   10.64828900
_cell_length_c   12.25851600
_cell_angle_alpha   90.00000000
_cell_angle_beta   90.00000000
_cell_angle_gamma   90.00000000
_symmetry_Int_Tables_number   1
_chemical_formula_structural   DyCo2MoP3Rh2
_chemical_formula_sum   'Dy4 Co8 Mo4 P12 Rh8'
_cell_volume   498.06135339
_cell_formula_units_Z   4
loop_
 _symmetry_equiv_pos_site_id
 _symmetry_equiv_pos_as_xyz
  1  'x, y, z'
loop_
 _atom_site_type_symbol
 _atom_site_label
 _atom_site_symmetry_multiplicity
 _atom_site_fract_x
 _atom_site_fract_y
 _atom_site_fract_z
 _atom_site_occupancy
  Dy  Dy0  1  0.250000  0.581960  0.708692  1
  Dy  Dy1  1  0.250000  0.918040  0.208692  1
  Dy  Dy2  1  0.750000  0.418040  0.291308  1
  Dy  Dy3  1  0.750000  0.081960  0.791308  1
  Co  Co4  1  0.250000  0.886464  0.695607  1
  Co  Co5  1  0.250000  0.613536  0.195607  1
  Co  Co6  1  0.750000  0.113536  0.304393  1
  Co  Co7  1  0.750000  0.386464  0.804393  1
  Co  Co8  1  0.250000  0.464981  0.934522  1
  Co  Co9  1  0.250000  0.035019  0.434522  1
  Co  Co10  1  0.750000  0.535019  0.065478  1
  Co  Co11  1  0.750000  0.964981  0.565478  1
  Mo  Mo12  1  0.250000  0.705881  0.986603  1
  Mo  Mo13  1  0.250000  0.794119  0.486603  1
  Mo  Mo14  1  0.750000  0.294119  0.013397  1
  Mo  Mo15  1  0.750000  0.205881  0.513397  1
  P  P16  1  0.250000  0.428660  0.112026  1
  P  P17  1  0.250000  0.071340  0.612026  1
  P  P18  1  0.750000  0.571340  0.887974  1
  P  P19  1  0.750000  0.928660  0.387974  1
  P  P20  1  0.250000  0.273213  0.869946  1
  P  P21  1  0.250000  0.226787  0.369946  1
  P  P22  1  0.750000  0.726787  0.130054  1
  P  P23  1  0.750000  0.773213  0.630054  1
  P  P24  1  0.250000  0.600411  0.384713  1
  P  P25  1  0.250000  0.899589  0.884713  1
  P  P26  1  0.750000  0.399589  0.615287  1
  P  P27  1  0.750000  0.100411  0.115287  1
  Rh  Rh28  1  0.250000  0.405312  0.483005  1
  Rh  Rh29  1  0.250000  0.094688  0.983005  1
  Rh  Rh30  1  0.750000  0.594688  0.516995  1
  Rh  Rh31  1  0.750000  0.905312  0.016995  1
  Rh  Rh32  1  0.250000  0.225629  0.181530  1
  Rh  Rh33  1  0.250000  0.274371  0.681530  1
  Rh  Rh34  1  0.750000  0.774371  0.818470  1
  Rh  Rh35  1  0.750000  0.725629  0.318470  1
