# generated using pymatgen
data_Li4Tb(ThSi2)2
_symmetry_space_group_name_H-M   'P 1'
_cell_length_a   4.36378516
_cell_length_b   6.79106606
_cell_length_c   8.22624636
_cell_angle_alpha   114.37884433
_cell_angle_beta   105.38094140
_cell_angle_gamma   89.99999477
_symmetry_Int_Tables_number   1
_chemical_formula_structural   Li4Tb(ThSi2)2
_chemical_formula_sum   'Li4 Tb1 Th2 Si4'
_cell_volume   212.42318077
_cell_formula_units_Z   1
loop_
 _symmetry_equiv_pos_site_id
 _symmetry_equiv_pos_as_xyz
  1  'x, y, z'
loop_
 _atom_site_type_symbol
 _atom_site_label
 _atom_site_symmetry_multiplicity
 _atom_site_fract_x
 _atom_site_fract_y
 _atom_site_fract_z
 _atom_site_occupancy
  Li  Li0  1  0.672276  0.987275  0.344551  1
  Li  Li1  1  0.329734  0.020843  0.659468  1
  Li  Li2  1  0.329734  0.638627  0.659468  1
  Li  Li3  1  0.672276  0.357276  0.344551  1
  Tb  Tb4  1  0.871253  0.371253  0.742506  1
  Th  Th5  1  0.998760  0.998760  0.997520  1
  Th  Th6  1  0.127602  0.627602  0.255204  1
  Si  Si7  1  0.499972  0.679113  0.999944  1
  Si  Si8  1  0.499972  0.320831  0.999944  1
  Si  Si9  1  0.784529  0.784529  0.569060  1
  Si  Si10  1  0.213890  0.213890  0.427782  1
