# generated using pymatgen
data_Zr8FeCo15(SiP5)2
_symmetry_space_group_name_H-M   'P 1'
_cell_length_a   12.19713612
_cell_length_b   12.17798304
_cell_length_c   3.66798800
_cell_angle_alpha   90.00000000
_cell_angle_beta   90.00000000
_cell_angle_gamma   120.09558851
_symmetry_Int_Tables_number   1
_chemical_formula_structural   Zr8FeCo15(SiP5)2
_chemical_formula_sum   'Zr8 Fe1 Co15 Si2 P10'
_cell_volume   471.38162452
_cell_formula_units_Z   1
loop_
 _symmetry_equiv_pos_site_id
 _symmetry_equiv_pos_as_xyz
  1  'x, y, z'
loop_
 _atom_site_type_symbol
 _atom_site_label
 _atom_site_symmetry_multiplicity
 _atom_site_fract_x
 _atom_site_fract_y
 _atom_site_fract_z
 _atom_site_occupancy
  Zr  Zr0  1  0.442057  0.443331  0.000000  1
  Zr  Zr1  1  0.557617  0.000676  0.000000  1
  Zr  Zr2  1  0.999311  0.554536  0.000000  1
  Zr  Zr3  1  0.665868  0.333491  0.000000  1
  Zr  Zr4  1  0.332884  0.665719  0.000000  1
  Zr  Zr5  1  0.825376  0.824744  0.500000  1
  Zr  Zr6  1  0.174701  0.999809  0.500000  1
  Zr  Zr7  1  0.000775  0.177756  0.500000  1
  Fe  Fe8  1  0.193749  0.371675  0.000000  1
  Co  Co9  1  0.174623  0.802468  0.000000  1
  Co  Co10  1  0.825256  0.628328  0.000000  1
  Co  Co11  1  0.808485  0.179109  0.000000  1
  Co  Co12  1  0.371778  0.196211  0.000000  1
  Co  Co13  1  0.123830  0.479253  0.500000  1
  Co  Co14  1  0.354959  0.872982  0.500000  1
  Co  Co15  1  0.517653  0.644635  0.500000  1
  Co  Co16  1  0.645081  0.518309  0.500000  1
  Co  Co17  1  0.872578  0.354369  0.500000  1
  Co  Co18  1  0.482359  0.127070  0.500000  1
  Co  Co19  1  0.000271  0.000176  0.000000  1
  Co  Co20  1  0.724537  0.002421  0.500000  1
  Co  Co21  1  0.000085  0.722097  0.500000  1
  Co  Co22  1  0.629146  0.825711  0.000000  1
  Co  Co23  1  0.277155  0.276414  0.500000  1
  Si  Si24  1  0.655134  0.654998  0.000000  1
  Si  Si25  1  0.344758  0.999508  0.000000  1
  P  P26  1  0.002346  0.346048  0.000000  1
  P  P27  1  0.480661  0.307021  0.500000  1
  P  P28  1  0.692779  0.174502  0.500000  1
  P  P29  1  0.825652  0.518489  0.500000  1
  P  P30  1  0.519035  0.825779  0.500000  1
  P  P31  1  0.173939  0.691621  0.500000  1
  P  P32  1  0.825278  0.000404  0.000000  1
  P  P33  1  0.000354  0.824420  0.000000  1
  P  P34  1  0.304469  0.478862  0.500000  1
  P  P35  1  0.175461  0.177060  0.000000  1
