# generated using pymatgen
data_Ho5Tm5(RuRh)2
_symmetry_space_group_name_H-M   'P 1'
_cell_length_a   6.33073271
_cell_length_b   7.22252668
_cell_length_c   8.41349079
_cell_angle_alpha   96.82752071
_cell_angle_beta   112.01225944
_cell_angle_gamma   89.98861073
_symmetry_Int_Tables_number   1
_chemical_formula_structural   Ho5Tm5(RuRh)2
_chemical_formula_sum   'Ho5 Tm5 Ru2 Rh2'
_cell_volume   353.71386222
_cell_formula_units_Z   1
loop_
 _symmetry_equiv_pos_site_id
 _symmetry_equiv_pos_as_xyz
  1  'x, y, z'
loop_
 _atom_site_type_symbol
 _atom_site_label
 _atom_site_symmetry_multiplicity
 _atom_site_fract_x
 _atom_site_fract_y
 _atom_site_fract_z
 _atom_site_occupancy
  Ho  Ho0  1  0.791463  0.081682  0.811832  1
  Ho  Ho1  1  0.979255  0.418357  0.188319  1
  Ho  Ho2  1  0.210957  0.914647  0.185411  1
  Ho  Ho3  1  0.024766  0.585105  0.814292  1
  Ho  Ho4  1  0.207450  0.183724  0.564861  1
  Tm  Tm5  1  0.642233  0.317137  0.434471  1
  Tm  Tm6  1  0.791950  0.812825  0.436680  1
  Tm  Tm7  1  0.355703  0.686471  0.563258  1
  Tm  Tm8  1  0.419995  0.250152  0.000564  1
  Tm  Tm9  1  0.577759  0.750129  0.000058  1
  Ru  Ru10  1  0.398071  0.574935  0.220637  1
  Ru  Ru11  1  0.177512  0.924685  0.779448  1
  Rh  Rh12  1  0.601670  0.424289  0.779193  1
  Rh  Rh13  1  0.821212  0.075861  0.220977  1
