# generated using pymatgen
data_Ho3ZnCd3AgAu
_symmetry_space_group_name_H-M   'P 1'
_cell_length_a   7.85970200
_cell_length_b   7.85970148
_cell_length_c   3.81461100
_cell_angle_alpha   90.00000000
_cell_angle_beta   90.00000000
_cell_angle_gamma   120.00000218
_symmetry_Int_Tables_number   1
_chemical_formula_structural   Ho3ZnCd3AgAu
_chemical_formula_sum   'Ho3 Zn1 Cd3 Ag1 Au1'
_cell_volume   204.07650621
_cell_formula_units_Z   1
loop_
 _symmetry_equiv_pos_site_id
 _symmetry_equiv_pos_as_xyz
  1  'x, y, z'
loop_
 _atom_site_type_symbol
 _atom_site_label
 _atom_site_symmetry_multiplicity
 _atom_site_fract_x
 _atom_site_fract_y
 _atom_site_fract_z
 _atom_site_occupancy
  Ho  Ho0  1  0.595132  0.007596  0.000000  1
  Ho  Ho1  1  0.992404  0.587536  0.000000  1
  Ho  Ho2  1  0.412464  0.404868  0.000000  1
  Zn  Zn3  1  0.000000  0.000000  0.000000  1
  Cd  Cd4  1  0.255261  0.996135  0.500000  1
  Cd  Cd5  1  0.003865  0.259126  0.500000  1
  Cd  Cd6  1  0.740874  0.744739  0.500000  1
  Ag  Ag7  1  0.333333  0.666667  0.500000  1
  Au  Au8  1  0.666667  0.333333  0.500000  1
