# generated using pymatgen
data_Er2Th2CdTc
_symmetry_space_group_name_H-M   'P 1'
_cell_length_a   9.73278984
_cell_length_b   9.73278974
_cell_length_c   9.80435300
_cell_angle_alpha   59.75647519
_cell_angle_beta   59.75647555
_cell_angle_gamma   60.48704328
_symmetry_Int_Tables_number   1
_chemical_formula_structural   Er2Th2CdTc
_chemical_formula_sum   'Er8 Th8 Cd4 Tc4'
_cell_volume   656.64599704
_cell_formula_units_Z   4
loop_
 _symmetry_equiv_pos_site_id
 _symmetry_equiv_pos_as_xyz
  1  'x, y, z'
loop_
 _atom_site_type_symbol
 _atom_site_label
 _atom_site_symmetry_multiplicity
 _atom_site_fract_x
 _atom_site_fract_y
 _atom_site_fract_z
 _atom_site_occupancy
  Er  Er0  1  0.195375  0.195375  0.804625  1
  Er  Er1  1  0.804625  0.804625  0.195375  1
  Er  Er2  1  0.934695  0.565305  0.565305  1
  Er  Er3  1  0.565305  0.934695  0.934695  1
  Er  Er4  1  0.565305  0.934695  0.565305  1
  Er  Er5  1  0.934695  0.565305  0.934695  1
  Er  Er6  1  0.561798  0.561798  0.938202  1
  Er  Er7  1  0.938202  0.938202  0.561798  1
  Th  Th8  1  0.346080  0.346080  0.351646  1
  Th  Th9  1  0.346080  0.346080  0.956194  1
  Th  Th10  1  0.351646  0.956194  0.346080  1
  Th  Th11  1  0.956194  0.351646  0.346080  1
  Th  Th12  1  0.812349  0.187651  0.187651  1
  Th  Th13  1  0.187651  0.812349  0.812349  1
  Th  Th14  1  0.187651  0.812349  0.187651  1
  Th  Th15  1  0.812349  0.187651  0.812349  1
  Cd  Cd16  1  0.583468  0.583468  0.579915  1
  Cd  Cd17  1  0.583468  0.583468  0.253147  1
  Cd  Cd18  1  0.579915  0.253147  0.583468  1
  Cd  Cd19  1  0.253147  0.579915  0.583468  1
  Tc  Tc20  1  0.132207  0.132207  0.151493  1
  Tc  Tc21  1  0.132207  0.132207  0.584093  1
  Tc  Tc22  1  0.151493  0.584093  0.132207  1
  Tc  Tc23  1  0.584093  0.151493  0.132207  1
