# generated using pymatgen
data_Nd12AlSi4Sn
_symmetry_space_group_name_H-M   'P 1'
_cell_length_a   8.79478521
_cell_length_b   8.79496195
_cell_length_c   8.79478414
_cell_angle_alpha   112.68770198
_cell_angle_beta   110.16715698
_cell_angle_gamma   105.63562013
_symmetry_Int_Tables_number   1
_chemical_formula_structural   Nd12AlSi4Sn
_chemical_formula_sum   'Nd12 Al1 Si4 Sn1'
_cell_volume   521.66481220
_cell_formula_units_Z   1
loop_
 _symmetry_equiv_pos_site_id
 _symmetry_equiv_pos_as_xyz
  1  'x, y, z'
loop_
 _atom_site_type_symbol
 _atom_site_label
 _atom_site_symmetry_multiplicity
 _atom_site_fract_x
 _atom_site_fract_y
 _atom_site_fract_z
 _atom_site_occupancy
  Nd  Nd0  1  0.437991  0.234993  0.203012  1
  Nd  Nd1  1  0.562009  0.765007  0.796988  1
  Nd  Nd2  1  0.031981  0.234993  0.797001  1
  Nd  Nd3  1  0.968019  0.765007  0.202999  1
  Nd  Nd4  1  0.184733  0.274919  0.459656  1
  Nd  Nd5  1  0.815267  0.725081  0.540344  1
  Nd  Nd6  1  0.184735  0.725081  0.909814  1
  Nd  Nd7  1  0.815265  0.274919  0.090186  1
  Nd  Nd8  1  0.319766  0.613685  0.293918  1
  Nd  Nd9  1  0.680234  0.386315  0.706082  1
  Nd  Nd10  1  0.319739  0.025812  0.706073  1
  Nd  Nd11  1  0.680261  0.974188  0.293927  1
  Al  Al12  1  0.000000  0.000000  0.000000  1
  Si  Si13  1  0.375585  0.000000  0.375585  1
  Si  Si14  1  0.624415  0.000000  0.624415  1
  Si  Si15  1  0.111702  0.611695  0.499994  1
  Si  Si16  1  0.888298  0.388305  0.500006  1
  Sn  Sn17  1  0.500000  0.500000  0.000000  1
