# generated using pymatgen
data_SrTm9Tl7InPt4
_symmetry_space_group_name_H-M   'P 1'
_cell_length_a   3.57905800
_cell_length_b   8.21918863
_cell_length_c   18.31890300
_cell_angle_alpha   89.90359831
_cell_angle_beta   90.00000000
_cell_angle_gamma   90.00000000
_symmetry_Int_Tables_number   1
_chemical_formula_structural   SrTm9Tl7InPt4
_chemical_formula_sum   'Sr1 Tm9 Tl7 In1 Pt4'
_cell_volume   538.88554275
_cell_formula_units_Z   1
loop_
 _symmetry_equiv_pos_site_id
 _symmetry_equiv_pos_as_xyz
  1  'x, y, z'
loop_
 _atom_site_type_symbol
 _atom_site_label
 _atom_site_symmetry_multiplicity
 _atom_site_fract_x
 _atom_site_fract_y
 _atom_site_fract_z
 _atom_site_occupancy
  Sr  Sr0  1  0.000000  0.999787  0.000083  1
  Tm  Tm1  1  0.000000  0.115334  0.412673  1
  Tm  Tm2  1  0.000000  0.885633  0.586631  1
  Tm  Tm3  1  0.000000  0.382154  0.910307  1
  Tm  Tm4  1  0.000000  0.617423  0.089699  1
  Tm  Tm5  1  0.000000  0.243921  0.222533  1
  Tm  Tm6  1  0.000000  0.755538  0.778223  1
  Tm  Tm7  1  0.000000  0.256181  0.719361  1
  Tm  Tm8  1  0.000000  0.742192  0.280485  1
  Tm  Tm9  1  0.000000  0.502798  0.499820  1
  Tl  Tl10  1  0.500000  0.425301  0.355199  1
  Tl  Tl11  1  0.500000  0.577951  0.645336  1
  Tl  Tl12  1  0.500000  0.078763  0.849481  1
  Tl  Tl13  1  0.500000  0.921484  0.150834  1
  Tl  Tl14  1  0.500000  0.303089  0.066462  1
  Tl  Tl15  1  0.500000  0.696181  0.933689  1
  Tl  Tl16  1  0.500000  0.208206  0.563011  1
  In  In17  1  0.500000  0.794619  0.435093  1
  Pt  Pt18  1  0.500000  0.021788  0.305401  1
  Pt  Pt19  1  0.500000  0.973382  0.695880  1
  Pt  Pt20  1  0.500000  0.474728  0.800897  1
  Pt  Pt21  1  0.500000  0.523549  0.198902  1
