# generated using pymatgen
data_Zr3Nb3Re5Si6Mo
_symmetry_space_group_name_H-M   'P 1'
_cell_length_a   7.71166160
_cell_length_b   7.72999787
_cell_length_c   7.71200296
_cell_angle_alpha   126.31022375
_cell_angle_beta   127.64822849
_cell_angle_gamma   78.23445350
_symmetry_Int_Tables_number   1
_chemical_formula_structural   Zr3Nb3Re5Si6Mo
_chemical_formula_sum   'Zr3 Nb3 Re5 Si6 Mo1'
_cell_volume   284.20511125
_cell_formula_units_Z   1
loop_
 _symmetry_equiv_pos_site_id
 _symmetry_equiv_pos_as_xyz
  1  'x, y, z'
loop_
 _atom_site_type_symbol
 _atom_site_label
 _atom_site_symmetry_multiplicity
 _atom_site_fract_x
 _atom_site_fract_y
 _atom_site_fract_z
 _atom_site_occupancy
  Zr  Zr0  1  0.548424  0.091067  0.042233  1
  Zr  Zr1  1  0.452504  0.493516  0.542149  1
  Zr  Zr2  1  0.949405  0.494477  0.044289  1
  Nb  Nb3  1  0.051797  0.094063  0.544618  1
  Nb  Nb4  1  0.747652  0.902034  0.652498  1
  Nb  Nb5  1  0.252545  0.902969  0.151982  1
  Re  Re6  1  0.000467  0.241212  0.244164  1
  Re  Re7  1  0.120009  0.753482  0.621666  1
  Re  Re8  1  0.879145  0.499292  0.629793  1
  Re  Re9  1  0.632057  0.754814  0.133836  1
  Re  Re10  1  0.368360  0.499118  0.120457  1
  Si  Si11  1  0.747358  0.497815  0.249729  1
  Si  Si12  1  0.251591  0.501317  0.749482  1
  Si  Si13  1  0.331413  0.830040  0.491659  1
  Si  Si14  1  0.670526  0.157269  0.495878  1
  Si  Si15  1  0.839733  0.832823  0.000723  1
  Si  Si16  1  0.161003  0.157733  0.988900  1
  Mo  Mo17  1  0.496008  0.239160  0.738142  1
