# generated using pymatgen
data_Tb11Dy(ErRh3)2
_symmetry_space_group_name_H-M   'P 1'
_cell_length_a   9.82915404
_cell_length_b   9.82922134
_cell_length_c   6.18687601
_cell_angle_alpha   89.99331312
_cell_angle_beta   90.00313338
_cell_angle_gamma   120.00930730
_symmetry_Int_Tables_number   1
_chemical_formula_structural   Tb11Dy(ErRh3)2
_chemical_formula_sum   'Tb11 Dy1 Er2 Rh6'
_cell_volume   517.60273048
_cell_formula_units_Z   1
loop_
 _symmetry_equiv_pos_site_id
 _symmetry_equiv_pos_as_xyz
  1  'x, y, z'
loop_
 _atom_site_type_symbol
 _atom_site_label
 _atom_site_symmetry_multiplicity
 _atom_site_fract_x
 _atom_site_fract_y
 _atom_site_fract_z
 _atom_site_occupancy
  Tb  Tb0  1  0.752073  0.875963  0.991751  1
  Tb  Tb1  1  0.875976  0.124014  0.491741  1
  Tb  Tb2  1  0.540982  0.459009  0.797784  1
  Tb  Tb3  1  0.081964  0.541035  0.297652  1
  Tb  Tb4  1  0.458954  0.918035  0.297659  1
  Tb  Tb5  1  0.540905  0.081921  0.797745  1
  Tb  Tb6  1  0.918075  0.459093  0.797739  1
  Tb  Tb7  1  0.459004  0.540987  0.297740  1
  Tb  Tb8  1  0.124031  0.247930  0.991756  1
  Tb  Tb9  1  0.876060  0.752004  0.491755  1
  Tb  Tb10  1  0.247998  0.123935  0.491757  1
  Dy  Dy11  1  0.124028  0.875965  0.991571  1
  Er  Er12  1  0.666648  0.333361  0.283673  1
  Er  Er13  1  0.333266  0.666735  0.783716  1
  Rh  Rh14  1  0.190215  0.809779  0.563542  1
  Rh  Rh15  1  0.380395  0.190062  0.063259  1
  Rh  Rh16  1  0.809938  0.619624  0.063270  1
  Rh  Rh17  1  0.190256  0.380527  0.563289  1
  Rh  Rh18  1  0.619483  0.809755  0.563288  1
  Rh  Rh19  1  0.809751  0.190266  0.063319  1
