# generated using pymatgen
data_Tb3Tc(P3Ir4)2
_symmetry_space_group_name_H-M   'P 1'
_cell_length_a   3.97636600
_cell_length_b   11.16971200
_cell_length_c   12.82404100
_cell_angle_alpha   90.00000000
_cell_angle_beta   90.00000000
_cell_angle_gamma   90.00000000
_symmetry_Int_Tables_number   1
_chemical_formula_structural   Tb3Tc(P3Ir4)2
_chemical_formula_sum   'Tb6 Tc2 P12 Ir16'
_cell_volume   569.57802446
_cell_formula_units_Z   2
loop_
 _symmetry_equiv_pos_site_id
 _symmetry_equiv_pos_as_xyz
  1  'x, y, z'
loop_
 _atom_site_type_symbol
 _atom_site_label
 _atom_site_symmetry_multiplicity
 _atom_site_fract_x
 _atom_site_fract_y
 _atom_site_fract_z
 _atom_site_occupancy
  Tb  Tb0  1  0.000000  0.500000  0.520578  1
  Tb  Tb1  1  0.500000  0.000000  0.479422  1
  Tb  Tb2  1  0.500000  0.819084  0.205639  1
  Tb  Tb3  1  0.500000  0.180916  0.205639  1
  Tb  Tb4  1  0.000000  0.680916  0.794361  1
  Tb  Tb5  1  0.000000  0.319084  0.794361  1
  Tc  Tc6  1  0.500000  0.500000  0.162545  1
  Tc  Tc7  1  0.000000  0.000000  0.837455  1
  P  P8  1  0.500000  0.500000  0.876576  1
  P  P9  1  0.000000  0.000000  0.123424  1
  P  P10  1  0.500000  0.500000  0.348556  1
  P  P11  1  0.000000  0.000000  0.651444  1
  P  P12  1  0.500000  0.315658  0.617904  1
  P  P13  1  0.500000  0.684342  0.617904  1
  P  P14  1  0.000000  0.184342  0.382096  1
  P  P15  1  0.000000  0.815658  0.382096  1
  P  P16  1  0.500000  0.843794  0.886659  1
  P  P17  1  0.500000  0.156206  0.886659  1
  P  P18  1  0.000000  0.656206  0.113341  1
  P  P19  1  0.000000  0.343794  0.113341  1
  Ir  Ir20  1  0.500000  0.500000  0.700026  1
  Ir  Ir21  1  0.000000  0.000000  0.299974  1
  Ir  Ir22  1  0.000000  0.500000  0.997374  1
  Ir  Ir23  1  0.500000  0.000000  0.002626  1
  Ir  Ir24  1  0.500000  0.332023  0.982762  1
  Ir  Ir25  1  0.500000  0.667977  0.982762  1
  Ir  Ir26  1  0.000000  0.167977  0.017238  1
  Ir  Ir27  1  0.000000  0.832023  0.017238  1
  Ir  Ir28  1  0.500000  0.296222  0.431175  1
  Ir  Ir29  1  0.500000  0.703778  0.431175  1
  Ir  Ir30  1  0.000000  0.203778  0.568825  1
  Ir  Ir31  1  0.000000  0.796222  0.568825  1
  Ir  Ir32  1  0.500000  0.872942  0.711038  1
  Ir  Ir33  1  0.500000  0.127058  0.711038  1
  Ir  Ir34  1  0.000000  0.627058  0.288962  1
  Ir  Ir35  1  0.000000  0.372942  0.288962  1
