# generated using pymatgen
data_Sr3Yb(Sn2Pd)4
_symmetry_space_group_name_H-M   'P 1'
_cell_length_a   9.00313567
_cell_length_b   9.00313482
_cell_length_c   9.80503400
_cell_angle_alpha   90.00000000
_cell_angle_beta   90.00000000
_cell_angle_gamma   148.92481249
_symmetry_Int_Tables_number   1
_chemical_formula_structural   Sr3Yb(Sn2Pd)4
_chemical_formula_sum   'Sr3 Yb1 Sn8 Pd4'
_cell_volume   410.22589624
_cell_formula_units_Z   1
loop_
 _symmetry_equiv_pos_site_id
 _symmetry_equiv_pos_as_xyz
  1  'x, y, z'
loop_
 _atom_site_type_symbol
 _atom_site_label
 _atom_site_symmetry_multiplicity
 _atom_site_fract_x
 _atom_site_fract_y
 _atom_site_fract_z
 _atom_site_occupancy
  Sr  Sr0  1  0.500175  0.499825  0.498788  1
  Sr  Sr1  1  0.500175  0.499825  0.001212  1
  Sr  Sr2  1  0.700566  0.299434  0.750000  1
  Yb  Yb3  1  0.298769  0.701231  0.250000  1
  Sn  Sn4  1  0.907117  0.092883  0.750000  1
  Sn  Sn5  1  0.923549  0.076451  0.250000  1
  Sn  Sn6  1  0.091498  0.908502  0.250000  1
  Sn  Sn7  1  0.072648  0.927352  0.750000  1
  Sn  Sn8  1  0.697218  0.302782  0.402027  1
  Sn  Sn9  1  0.304788  0.695212  0.591977  1
  Sn  Sn10  1  0.304788  0.695212  0.908023  1
  Sn  Sn11  1  0.697218  0.302782  0.097973  1
  Pd  Pd12  1  0.151181  0.848819  0.503571  1
  Pd  Pd13  1  0.849566  0.150434  0.007266  1
  Pd  Pd14  1  0.151181  0.848819  0.996429  1
  Pd  Pd15  1  0.849566  0.150434  0.492734  1
