# generated using pymatgen
data_CeTh3(NbN3)4
_symmetry_space_group_name_H-M   'P 1'
_cell_length_a   5.73146015
_cell_length_b   5.86598423
_cell_length_c   8.02239000
_cell_angle_alpha   90.00000000
_cell_angle_beta   90.00000000
_cell_angle_gamma   89.53125251
_symmetry_Int_Tables_number   1
_chemical_formula_structural   CeTh3(NbN3)4
_chemical_formula_sum   'Ce1 Th3 Nb4 N12'
_cell_volume   269.70897907
_cell_formula_units_Z   1
loop_
 _symmetry_equiv_pos_site_id
 _symmetry_equiv_pos_as_xyz
  1  'x, y, z'
loop_
 _atom_site_type_symbol
 _atom_site_label
 _atom_site_symmetry_multiplicity
 _atom_site_fract_x
 _atom_site_fract_y
 _atom_site_fract_z
 _atom_site_occupancy
  Ce  Ce0  1  0.489064  0.540122  0.250000  1
  Th  Th1  1  0.985210  0.058374  0.250000  1
  Th  Th2  1  0.481696  0.438665  0.750000  1
  Th  Th3  1  0.995904  0.955376  0.750000  1
  Nb  Nb4  1  0.975880  0.511115  0.004417  1
  Nb  Nb5  1  0.478216  0.983883  0.502677  1
  Nb  Nb6  1  0.975880  0.511115  0.495583  1
  Nb  Nb7  1  0.478216  0.983883  0.997323  1
  N  N8  1  0.414035  0.963143  0.250000  1
  N  N9  1  0.113200  0.462660  0.250000  1
  N  N10  1  0.604662  0.041603  0.750000  1
  N  N11  1  0.912757  0.526266  0.750000  1
  N  N12  1  0.817518  0.810126  0.044518  1
  N  N13  1  0.708601  0.310509  0.443180  1
  N  N14  1  0.209233  0.194506  0.550042  1
  N  N15  1  0.312288  0.696755  0.949704  1
  N  N16  1  0.209233  0.194506  0.949958  1
  N  N17  1  0.312288  0.696755  0.550296  1
  N  N18  1  0.817518  0.810126  0.455482  1
  N  N19  1  0.708601  0.310509  0.056820  1
