# generated using pymatgen
data_La15Pr5(IrPt2)4
_symmetry_space_group_name_H-M   'P 1'
_cell_length_a   11.58440413
_cell_length_b   11.60190098
_cell_length_c   6.65057530
_cell_angle_alpha   89.93166408
_cell_angle_beta   89.97791328
_cell_angle_gamma   90.06575445
_symmetry_Int_Tables_number   1
_chemical_formula_structural   La15Pr5(IrPt2)4
_chemical_formula_sum   'La15 Pr5 Ir4 Pt8'
_cell_volume   893.84340860
_cell_formula_units_Z   1
loop_
 _symmetry_equiv_pos_site_id
 _symmetry_equiv_pos_as_xyz
  1  'x, y, z'
loop_
 _atom_site_type_symbol
 _atom_site_label
 _atom_site_symmetry_multiplicity
 _atom_site_fract_x
 _atom_site_fract_y
 _atom_site_fract_z
 _atom_site_occupancy
  La  La0  1  0.295014  0.090117  0.376084  1
  La  La1  1  0.295215  0.910371  0.876084  1
  La  La2  1  0.704739  0.089732  0.876602  1
  La  La3  1  0.704883  0.910382  0.376256  1
  La  La4  1  0.589555  0.795180  0.876487  1
  La  La5  1  0.589679  0.204766  0.376506  1
  La  La6  1  0.410319  0.795270  0.376366  1
  La  La7  1  0.409923  0.204978  0.876848  1
  La  La8  1  0.204452  0.409797  0.623672  1
  La  La9  1  0.204293  0.588850  0.123606  1
  La  La10  1  0.796200  0.410211  0.123523  1
  La  La11  1  0.795122  0.589901  0.623527  1
  La  La12  1  0.910350  0.704778  0.123338  1
  La  La13  1  0.911087  0.295289  0.623497  1
  La  La14  1  0.089484  0.704950  0.623700  1
  Pr  Pr15  1  0.089665  0.294049  0.124321  1
  Pr  Pr16  1  0.000037  0.000242  0.499595  1
  Pr  Pr17  1  0.000072  0.000452  0.000202  1
  Pr  Pr18  1  0.499902  0.499883  0.000135  1
  Pr  Pr19  1  0.500066  0.499949  0.500222  1
  Ir  Ir20  1  0.499942  0.000007  0.114829  1
  Ir  Ir21  1  0.500065  0.000005  0.615013  1
  Ir  Ir22  1  0.999980  0.500350  0.884662  1
  Ir  Ir23  1  0.999783  0.500498  0.385732  1
  Pt  Pt24  1  0.846191  0.154262  0.249792  1
  Pt  Pt25  1  0.845835  0.846080  0.750050  1
  Pt  Pt26  1  0.154088  0.153882  0.749549  1
  Pt  Pt27  1  0.154179  0.846000  0.249989  1
  Pt  Pt28  1  0.654180  0.345804  0.750057  1
  Pt  Pt29  1  0.654026  0.654196  0.249857  1
  Pt  Pt30  1  0.345826  0.345691  0.249926  1
  Pt  Pt31  1  0.345847  0.654078  0.749971  1
