# generated using pymatgen
data_Er2AlB2Ir3Rh2
_symmetry_space_group_name_H-M   'P 1'
_cell_length_a   9.53182104
_cell_length_b   9.52709514
_cell_length_c   3.14243200
_cell_angle_alpha   90.00000000
_cell_angle_beta   90.00000000
_cell_angle_gamma   89.98496167
_symmetry_Int_Tables_number   1
_chemical_formula_structural   Er2AlB2Ir3Rh2
_chemical_formula_sum   'Er4 Al2 B4 Ir6 Rh4'
_cell_volume   285.36601835
_cell_formula_units_Z   2
loop_
 _symmetry_equiv_pos_site_id
 _symmetry_equiv_pos_as_xyz
  1  'x, y, z'
loop_
 _atom_site_type_symbol
 _atom_site_label
 _atom_site_symmetry_multiplicity
 _atom_site_fract_x
 _atom_site_fract_y
 _atom_site_fract_z
 _atom_site_occupancy
  Er  Er0  1  0.175295  0.676202  0.000000  1
  Er  Er1  1  0.323872  0.174738  0.000000  1
  Er  Er2  1  0.674682  0.824935  0.000000  1
  Er  Er3  1  0.826223  0.324695  0.000000  1
  Al  Al4  1  0.000316  0.000269  0.000000  1
  Al  Al5  1  0.499997  0.499543  0.000000  1
  B  B6  1  0.123938  0.378818  0.000000  1
  B  B7  1  0.378385  0.875935  0.000000  1
  B  B8  1  0.622907  0.123082  0.000000  1
  B  B9  1  0.876817  0.623269  0.000000  1
  Ir  Ir10  1  0.281484  0.430346  0.500000  1
  Ir  Ir11  1  0.430662  0.718373  0.500000  1
  Ir  Ir12  1  0.569077  0.281570  0.500000  1
  Ir  Ir13  1  0.718333  0.568406  0.500000  1
  Ir  Ir14  1  0.781233  0.069121  0.500000  1
  Ir  Ir15  1  0.930103  0.781843  0.500000  1
  Rh  Rh16  1  0.000674  0.500099  0.500000  1
  Rh  Rh17  1  0.069547  0.218381  0.500000  1
  Rh  Rh18  1  0.217759  0.930241  0.500000  1
  Rh  Rh19  1  0.498697  0.000132  0.500000  1
