# generated using pymatgen
data_PrSm3(WN3)4
_symmetry_space_group_name_H-M   'P 1'
_cell_length_a   7.41273195
_cell_length_b   7.41273064
_cell_length_c   6.36532197
_cell_angle_alpha   74.88597494
_cell_angle_beta   74.88598273
_cell_angle_gamma   83.37443336
_symmetry_Int_Tables_number   1
_chemical_formula_structural   PrSm3(WN3)4
_chemical_formula_sum   'Pr1 Sm3 W4 N12'
_cell_volume   325.56461355
_cell_formula_units_Z   1
loop_
 _symmetry_equiv_pos_site_id
 _symmetry_equiv_pos_as_xyz
  1  'x, y, z'
loop_
 _atom_site_type_symbol
 _atom_site_label
 _atom_site_symmetry_multiplicity
 _atom_site_fract_x
 _atom_site_fract_y
 _atom_site_fract_z
 _atom_site_occupancy
  Pr  Pr0  1  0.699142  0.300858  0.750000  1
  Sm  Sm1  1  0.092858  0.907142  0.750000  1
  Sm  Sm2  1  0.298016  0.701984  0.250000  1
  Sm  Sm3  1  0.910395  0.089605  0.250000  1
  W  W4  1  0.379086  0.201973  0.239845  1
  W  W5  1  0.619931  0.798614  0.761928  1
  W  W6  1  0.798027  0.620914  0.260155  1
  W  W7  1  0.201386  0.380069  0.738072  1
  N  N8  1  0.618231  0.116927  0.158624  1
  N  N9  1  0.357172  0.351067  0.457834  1
  N  N10  1  0.005207  0.218747  0.847352  1
  N  N11  1  0.381767  0.886574  0.846430  1
  N  N12  1  0.781253  0.994793  0.652648  1
  N  N13  1  0.113426  0.618233  0.653570  1
  N  N14  1  0.883073  0.381769  0.341376  1
  N  N15  1  0.642863  0.653073  0.539656  1
  N  N16  1  0.648933  0.642828  0.042166  1
  N  N17  1  0.346927  0.357137  0.960344  1
  N  N18  1  0.999324  0.777017  0.152866  1
  N  N19  1  0.222983  0.000676  0.347134  1
