# generated using pymatgen
data_Ho3ErZrPt15
_symmetry_space_group_name_H-M   'P 1'
_cell_length_a   4.10516800
_cell_length_b   4.10516800
_cell_length_c   20.46007200
_cell_angle_alpha   90.00000000
_cell_angle_beta   90.00000000
_cell_angle_gamma   90.00000000
_symmetry_Int_Tables_number   1
_chemical_formula_structural   Ho3ErZrPt15
_chemical_formula_sum   'Ho3 Er1 Zr1 Pt15'
_cell_volume   344.80140552
_cell_formula_units_Z   1
loop_
 _symmetry_equiv_pos_site_id
 _symmetry_equiv_pos_as_xyz
  1  'x, y, z'
loop_
 _atom_site_type_symbol
 _atom_site_label
 _atom_site_symmetry_multiplicity
 _atom_site_fract_x
 _atom_site_fract_y
 _atom_site_fract_z
 _atom_site_occupancy
  Ho  Ho0  1  0.000000  0.000000  0.399788  1
  Ho  Ho1  1  0.000000  0.000000  0.600215  1
  Ho  Ho2  1  0.000000  0.000000  0.800447  1
  Er  Er3  1  0.000000  0.000000  0.199577  1
  Zr  Zr4  1  0.000000  0.000000  0.000015  1
  Pt  Pt5  1  0.500000  0.500000  0.000031  1
  Pt  Pt6  1  0.500000  0.500000  0.197677  1
  Pt  Pt7  1  0.500000  0.500000  0.399444  1
  Pt  Pt8  1  0.500000  0.500000  0.600530  1
  Pt  Pt9  1  0.500000  0.500000  0.802323  1
  Pt  Pt10  1  0.500000  0.000000  0.096314  1
  Pt  Pt11  1  0.500000  0.000000  0.298708  1
  Pt  Pt12  1  0.500000  0.000000  0.499987  1
  Pt  Pt13  1  0.500000  0.000000  0.701154  1
  Pt  Pt14  1  0.500000  0.000000  0.903813  1
  Pt  Pt15  1  0.000000  0.500000  0.096314  1
  Pt  Pt16  1  0.000000  0.500000  0.298708  1
  Pt  Pt17  1  0.000000  0.500000  0.499987  1
  Pt  Pt18  1  0.000000  0.500000  0.701154  1
  Pt  Pt19  1  0.000000  0.500000  0.903813  1
