# generated using pymatgen
data_MgSc4Sn(B2Ir5)2
_symmetry_space_group_name_H-M   'P 1'
_cell_length_a   9.53506800
_cell_length_b   9.53506800
_cell_length_c   3.10589900
_cell_angle_alpha   90.00000000
_cell_angle_beta   90.00000000
_cell_angle_gamma   90.00000000
_symmetry_Int_Tables_number   1
_chemical_formula_structural   MgSc4Sn(B2Ir5)2
_chemical_formula_sum   'Mg1 Sc4 Sn1 B4 Ir10'
_cell_volume   282.38063993
_cell_formula_units_Z   1
loop_
 _symmetry_equiv_pos_site_id
 _symmetry_equiv_pos_as_xyz
  1  'x, y, z'
loop_
 _atom_site_type_symbol
 _atom_site_label
 _atom_site_symmetry_multiplicity
 _atom_site_fract_x
 _atom_site_fract_y
 _atom_site_fract_z
 _atom_site_occupancy
  Mg  Mg0  1  0.000000  0.000000  0.000000  1
  Sc  Sc1  1  0.680126  0.172491  0.000000  1
  Sc  Sc2  1  0.319874  0.827509  0.000000  1
  Sc  Sc3  1  0.172491  0.319874  0.000000  1
  Sc  Sc4  1  0.827509  0.680126  0.000000  1
  Sn  Sn5  1  0.500000  0.500000  0.000000  1
  B  B6  1  0.118829  0.627000  0.000000  1
  B  B7  1  0.881171  0.373000  0.000000  1
  B  B8  1  0.627000  0.881171  0.000000  1
  B  B9  1  0.373000  0.118829  0.000000  1
  Ir  Ir10  1  0.219974  0.070166  0.500000  1
  Ir  Ir11  1  0.780026  0.929834  0.500000  1
  Ir  Ir12  1  0.070166  0.780026  0.500000  1
  Ir  Ir13  1  0.723157  0.428825  0.500000  1
  Ir  Ir14  1  0.929834  0.219974  0.500000  1
  Ir  Ir15  1  0.276843  0.571175  0.500000  1
  Ir  Ir16  1  0.571175  0.723157  0.500000  1
  Ir  Ir17  1  0.428825  0.276843  0.500000  1
  Ir  Ir18  1  0.500000  0.000000  0.500000  1
  Ir  Ir19  1  0.000000  0.500000  0.500000  1
