# generated using pymatgen
data_Sm6MgMn(Co4P3)4
_symmetry_space_group_name_H-M   'P 1'
_cell_length_a   3.74259800
_cell_length_b   10.64221600
_cell_length_c   12.35843000
_cell_angle_alpha   90.00000000
_cell_angle_beta   90.00000000
_cell_angle_gamma   90.00000000
_symmetry_Int_Tables_number   1
_chemical_formula_structural   Sm6MgMn(Co4P3)4
_chemical_formula_sum   'Sm6 Mg1 Mn1 Co16 P12'
_cell_volume   492.23053651
_cell_formula_units_Z   1
loop_
 _symmetry_equiv_pos_site_id
 _symmetry_equiv_pos_as_xyz
  1  'x, y, z'
loop_
 _atom_site_type_symbol
 _atom_site_label
 _atom_site_symmetry_multiplicity
 _atom_site_fract_x
 _atom_site_fract_y
 _atom_site_fract_z
 _atom_site_occupancy
  Sm  Sm0  1  0.000000  0.500000  0.525183  1
  Sm  Sm1  1  0.500000  0.000000  0.478086  1
  Sm  Sm2  1  0.500000  0.820561  0.206574  1
  Sm  Sm3  1  0.500000  0.179439  0.206574  1
  Sm  Sm4  1  0.000000  0.681872  0.794658  1
  Sm  Sm5  1  0.000000  0.318128  0.794658  1
  Mg  Mg6  1  0.500000  0.500000  0.151917  1
  Mn  Mn7  1  0.000000  0.000000  0.838648  1
  Co  Co8  1  0.500000  0.500000  0.705044  1
  Co  Co9  1  0.000000  0.000000  0.295716  1
  Co  Co10  1  0.000000  0.500000  0.986617  1
  Co  Co11  1  0.500000  0.000000  0.011611  1
  Co  Co12  1  0.500000  0.329076  0.993212  1
  Co  Co13  1  0.500000  0.670924  0.993212  1
  Co  Co14  1  0.000000  0.162954  0.001433  1
  Co  Co15  1  0.000000  0.837046  0.001433  1
  Co  Co16  1  0.500000  0.295111  0.433152  1
  Co  Co17  1  0.500000  0.704889  0.433152  1
  Co  Co18  1  0.000000  0.202181  0.571553  1
  Co  Co19  1  0.000000  0.797819  0.571553  1
  Co  Co20  1  0.500000  0.881425  0.709674  1
  Co  Co21  1  0.500000  0.118575  0.709674  1
  Co  Co22  1  0.000000  0.621743  0.294465  1
  Co  Co23  1  0.000000  0.378257  0.294465  1
  P  P24  1  0.500000  0.500000  0.885483  1
  P  P25  1  0.000000  0.000000  0.114343  1
  P  P26  1  0.500000  0.500000  0.351031  1
  P  P27  1  0.000000  0.000000  0.655491  1
  P  P28  1  0.500000  0.307530  0.616019  1
  P  P29  1  0.500000  0.692470  0.616019  1
  P  P30  1  0.000000  0.191530  0.386907  1
  P  P31  1  0.000000  0.808470  0.386907  1
  P  P32  1  0.500000  0.849763  0.891550  1
  P  P33  1  0.500000  0.150237  0.891550  1
  P  P34  1  0.000000  0.661597  0.101218  1
  P  P35  1  0.000000  0.338403  0.101218  1
