# generated using pymatgen
data_Hf4Ni6Pt5Rh
_symmetry_space_group_name_H-M   'P 1'
_cell_length_a   5.51116956
_cell_length_b   5.49960303
_cell_length_c   8.95131900
_cell_angle_alpha   90.00000000
_cell_angle_beta   90.00000000
_cell_angle_gamma   119.58991116
_symmetry_Int_Tables_number   1
_chemical_formula_structural   Hf4Ni6Pt5Rh
_chemical_formula_sum   'Hf4 Ni6 Pt5 Rh1'
_cell_volume   235.92427944
_cell_formula_units_Z   1
loop_
 _symmetry_equiv_pos_site_id
 _symmetry_equiv_pos_as_xyz
  1  'x, y, z'
loop_
 _atom_site_type_symbol
 _atom_site_label
 _atom_site_symmetry_multiplicity
 _atom_site_fract_x
 _atom_site_fract_y
 _atom_site_fract_z
 _atom_site_occupancy
  Hf  Hf0  1  0.002070  0.999156  0.495963  1
  Hf  Hf1  1  0.673229  0.334545  0.750000  1
  Hf  Hf2  1  0.324936  0.669790  0.250000  1
  Hf  Hf3  1  0.002070  0.999156  0.004037  1
  Ni  Ni4  1  0.170652  0.347513  0.750000  1
  Ni  Ni5  1  0.999880  0.499065  0.000083  1
  Ni  Ni6  1  0.826153  0.650724  0.250000  1
  Ni  Ni7  1  0.500363  0.000467  0.500395  1
  Ni  Ni8  1  0.500363  0.000467  0.999605  1
  Ni  Ni9  1  0.999880  0.499065  0.499917  1
  Pt  Pt10  1  0.498886  0.498415  0.000658  1
  Pt  Pt11  1  0.827239  0.175172  0.250000  1
  Pt  Pt12  1  0.498886  0.498415  0.499342  1
  Pt  Pt13  1  0.171671  0.825561  0.750000  1
  Pt  Pt14  1  0.661676  0.838703  0.750000  1
  Rh  Rh15  1  0.342046  0.163786  0.250000  1
