# generated using pymatgen
data_Tb2Y18Ir7Au5
_symmetry_space_group_name_H-M   'P 1'
_cell_length_a   11.24628811
_cell_length_b   11.24628793
_cell_length_c   6.35932800
_cell_angle_alpha   89.97068012
_cell_angle_beta   89.97067892
_cell_angle_gamma   89.73209065
_symmetry_Int_Tables_number   1
_chemical_formula_structural   Tb2Y18Ir7Au5
_chemical_formula_sum   'Tb2 Y18 Ir7 Au5'
_cell_volume   804.31240724
_cell_formula_units_Z   1
loop_
 _symmetry_equiv_pos_site_id
 _symmetry_equiv_pos_as_xyz
  1  'x, y, z'
loop_
 _atom_site_type_symbol
 _atom_site_label
 _atom_site_symmetry_multiplicity
 _atom_site_fract_x
 _atom_site_fract_y
 _atom_site_fract_z
 _atom_site_occupancy
  Tb  Tb0  1  0.495523  0.502445  0.000890  1
  Tb  Tb1  1  0.497555  0.504477  0.499110  1
  Y  Y2  1  0.300238  0.091510  0.365317  1
  Y  Y3  1  0.301951  0.906986  0.865104  1
  Y  Y4  1  0.698125  0.081513  0.859964  1
  Y  Y5  1  0.697833  0.905408  0.362618  1
  Y  Y6  1  0.581576  0.785697  0.877500  1
  Y  Y7  1  0.577180  0.206210  0.363139  1
  Y  Y8  1  0.417014  0.789665  0.377572  1
  Y  Y9  1  0.410993  0.207632  0.876757  1
  Y  Y10  1  0.214303  0.418424  0.622500  1
  Y  Y11  1  0.210335  0.582986  0.122428  1
  Y  Y12  1  0.793790  0.422820  0.136861  1
  Y  Y13  1  0.792368  0.589007  0.623243  1
  Y  Y14  1  0.908490  0.699762  0.134683  1
  Y  Y15  1  0.918487  0.301875  0.640036  1
  Y  Y16  1  0.093014  0.698049  0.634896  1
  Y  Y17  1  0.094592  0.302167  0.137382  1
  Y  Y18  1  0.998799  0.000287  0.499571  1
  Y  Y19  1  0.999713  0.001201  0.000429  1
  Ir  Ir20  1  0.653073  0.650990  0.250847  1
  Ir  Ir21  1  0.349010  0.346927  0.249153  1
  Ir  Ir22  1  0.345651  0.654349  0.750000  1
  Ir  Ir23  1  0.499735  0.999546  0.112668  1
  Ir  Ir24  1  0.499391  0.000645  0.614119  1
  Ir  Ir25  1  0.999355  0.500609  0.885881  1
  Ir  Ir26  1  0.000454  0.500265  0.387332  1
  Au  Au27  1  0.841601  0.158399  0.250000  1
  Au  Au28  1  0.843356  0.845584  0.750756  1
  Au  Au29  1  0.154416  0.156644  0.749244  1
  Au  Au30  1  0.155919  0.844081  0.250000  1
  Au  Au31  1  0.656158  0.343842  0.750000  1
