# generated using pymatgen
data_Dy4Si10TcOs5
_symmetry_space_group_name_H-M   'P 1'
_cell_length_a   8.24750200
_cell_length_b   8.27788620
_cell_length_c   5.66242335
_cell_angle_alpha   70.00180931
_cell_angle_beta   70.00074254
_cell_angle_gamma   94.90358615
_symmetry_Int_Tables_number   1
_chemical_formula_structural   Dy4Si10TcOs5
_chemical_formula_sum   'Dy4 Si10 Tc1 Os5'
_cell_volume   332.27600294
_cell_formula_units_Z   1
loop_
 _symmetry_equiv_pos_site_id
 _symmetry_equiv_pos_as_xyz
  1  'x, y, z'
loop_
 _atom_site_type_symbol
 _atom_site_label
 _atom_site_symmetry_multiplicity
 _atom_site_fract_x
 _atom_site_fract_y
 _atom_site_fract_z
 _atom_site_occupancy
  Dy  Dy0  1  0.870947  0.598332  0.765426  1
  Dy  Dy1  1  0.400718  0.132115  0.733712  1
  Dy  Dy2  1  0.130721  0.400636  0.234610  1
  Dy  Dy3  1  0.598982  0.868045  0.266074  1
  Si  Si4  1  0.076013  0.267055  0.828320  1
  Si  Si5  1  0.733482  0.925206  0.670799  1
  Si  Si6  1  0.925488  0.737223  0.168496  1
  Si  Si7  1  0.262272  0.074081  0.331825  1
  Si  Si8  1  0.206542  0.792173  0.750855  1
  Si  Si9  1  0.792123  0.207538  0.250882  1
  Si  Si10  1  0.501260  0.498701  0.752170  1
  Si  Si11  1  0.501123  0.498444  0.248106  1
  Si  Si12  1  0.791846  0.207589  0.749007  1
  Si  Si13  1  0.206231  0.792640  0.250698  1
  Tc  Tc14  1  0.263961  0.556780  0.589664  1
  Os  Os15  1  0.444872  0.738756  0.908789  1
  Os  Os16  1  0.744338  0.448494  0.403405  1
  Os  Os17  1  0.552507  0.254803  0.096224  1
  Os  Os18  1  0.998639  0.000522  0.749943  1
  Os  Os19  1  0.997936  0.000868  0.250995  1
