# generated using pymatgen
data_PuAl2ZnSi
_symmetry_space_group_name_H-M   'P 1'
_cell_length_a   4.12543262
_cell_length_b   4.12543232
_cell_length_c   6.11654793
_cell_angle_alpha   70.29146999
_cell_angle_beta   70.29146589
_cell_angle_gamma   89.99997516
_symmetry_Int_Tables_number   1
_chemical_formula_structural   PuAl2ZnSi
_chemical_formula_sum   'Pu1 Al2 Zn1 Si1'
_cell_volume   91.49705796
_cell_formula_units_Z   1
loop_
 _symmetry_equiv_pos_site_id
 _symmetry_equiv_pos_as_xyz
  1  'x, y, z'
loop_
 _atom_site_type_symbol
 _atom_site_label
 _atom_site_symmetry_multiplicity
 _atom_site_fract_x
 _atom_site_fract_y
 _atom_site_fract_z
 _atom_site_occupancy
  Pu  Pu0  1  0.991500  0.991500  0.017001  1
  Al  Al1  1  0.749587  0.249587  0.500826  1
  Al  Al2  1  0.249587  0.749587  0.500826  1
  Zn  Zn3  1  0.614919  0.614919  0.770160  1
  Si  Si4  1  0.394406  0.394406  0.211188  1
