# generated using pymatgen
data_LiTm8Si16W11
_symmetry_space_group_name_H-M   'P 1'
_cell_length_a   6.71544781
_cell_length_b   6.89578073
_cell_length_c   12.91055059
_cell_angle_alpha   89.81007451
_cell_angle_beta   89.83362012
_cell_angle_gamma   89.91371884
_symmetry_Int_Tables_number   1
_chemical_formula_structural   LiTm8Si16W11
_chemical_formula_sum   'Li1 Tm8 Si16 W11'
_cell_volume   597.85860224
_cell_formula_units_Z   1
loop_
 _symmetry_equiv_pos_site_id
 _symmetry_equiv_pos_as_xyz
  1  'x, y, z'
loop_
 _atom_site_type_symbol
 _atom_site_label
 _atom_site_symmetry_multiplicity
 _atom_site_fract_x
 _atom_site_fract_y
 _atom_site_fract_z
 _atom_site_occupancy
  Li  Li0  1  0.168813  0.661564  0.122902  1
  Tm  Tm1  1  0.999434  0.168858  0.093945  1
  Tm  Tm2  1  0.005278  0.830934  0.907438  1
  Tm  Tm3  1  0.502410  0.667539  0.908198  1
  Tm  Tm4  1  0.004407  0.831385  0.593181  1
  Tm  Tm5  1  0.502042  0.325580  0.094673  1
  Tm  Tm6  1  0.998860  0.169477  0.406377  1
  Tm  Tm7  1  0.497138  0.331325  0.404985  1
  Tm  Tm8  1  0.503282  0.668307  0.594353  1
  Si  Si9  1  0.031981  0.125649  0.749977  1
  Si  Si10  1  0.968186  0.871876  0.245471  1
  Si  Si11  1  0.463463  0.626017  0.248807  1
  Si  Si12  1  0.531708  0.371238  0.749859  1
  Si  Si13  1  0.302805  0.865253  0.750372  1
  Si  Si14  1  0.700468  0.134617  0.251814  1
  Si  Si15  1  0.201761  0.370065  0.247388  1
  Si  Si16  1  0.800098  0.636153  0.751287  1
  Si  Si17  1  0.163022  0.460062  0.544187  1
  Si  Si18  1  0.834451  0.543230  0.456236  1
  Si  Si19  1  0.340947  0.957601  0.456904  1
  Si  Si20  1  0.832620  0.543213  0.044366  1
  Si  Si21  1  0.663780  0.041799  0.546237  1
  Si  Si22  1  0.158760  0.459825  0.951454  1
  Si  Si23  1  0.660818  0.040880  0.955617  1
  Si  Si24  1  0.340360  0.955080  0.046041  1
  W  W25  1  0.161629  0.496131  0.748745  1
  W  W26  1  0.837342  0.504171  0.252625  1
  W  W27  1  0.335653  0.996090  0.251719  1
  W  W28  1  0.665718  0.998384  0.751109  1
  W  W29  1  0.329834  0.162477  0.623401  1
  W  W30  1  0.670381  0.837634  0.375739  1
  W  W31  1  0.163985  0.672168  0.372883  1
  W  W32  1  0.671823  0.836359  0.127492  1
  W  W33  1  0.830826  0.338108  0.625002  1
  W  W34  1  0.329351  0.164998  0.874517  1
  W  W35  1  0.826569  0.335952  0.874701  1
