# generated using pymatgen
data_Tb17Dy3Ir7Ru5
_symmetry_space_group_name_H-M   'P 1'
_cell_length_a   10.88843418
_cell_length_b   10.88806145
_cell_length_c   6.42187901
_cell_angle_alpha   89.96773695
_cell_angle_beta   89.97421302
_cell_angle_gamma   90.00386980
_symmetry_Int_Tables_number   1
_chemical_formula_structural   Tb17Dy3Ir7Ru5
_chemical_formula_sum   'Tb17 Dy3 Ir7 Ru5'
_cell_volume   761.33886212
_cell_formula_units_Z   1
loop_
 _symmetry_equiv_pos_site_id
 _symmetry_equiv_pos_as_xyz
  1  'x, y, z'
loop_
 _atom_site_type_symbol
 _atom_site_label
 _atom_site_symmetry_multiplicity
 _atom_site_fract_x
 _atom_site_fract_y
 _atom_site_fract_z
 _atom_site_occupancy
  Tb  Tb0  1  0.293433  0.086688  0.379103  1
  Tb  Tb1  1  0.292814  0.913227  0.879255  1
  Tb  Tb2  1  0.707449  0.087091  0.879610  1
  Tb  Tb3  1  0.706997  0.913552  0.378365  1
  Tb  Tb4  1  0.586749  0.793461  0.879223  1
  Tb  Tb5  1  0.587593  0.206797  0.379407  1
  Tb  Tb6  1  0.413192  0.793313  0.379282  1
  Tb  Tb7  1  0.413078  0.206452  0.878629  1
  Tb  Tb8  1  0.206562  0.413253  0.620783  1
  Tb  Tb9  1  0.206665  0.586825  0.120723  1
  Tb  Tb10  1  0.793213  0.412397  0.120599  1
  Tb  Tb11  1  0.793526  0.586911  0.621367  1
  Tb  Tb12  1  0.913329  0.706628  0.120838  1
  Tb  Tb13  1  0.912895  0.292614  0.620457  1
  Tb  Tb14  1  0.086792  0.707151  0.620807  1
  Tb  Tb15  1  0.086439  0.292931  0.121566  1
  Tb  Tb16  1  0.999503  0.001064  0.499366  1
  Dy  Dy17  1  0.998988  0.000452  0.000538  1
  Dy  Dy18  1  0.500159  0.500073  0.000148  1
  Dy  Dy19  1  0.499926  0.499835  0.499870  1
  Ir  Ir20  1  0.847007  0.846685  0.750050  1
  Ir  Ir21  1  0.153291  0.153012  0.750471  1
  Ir  Ir22  1  0.152987  0.847021  0.249728  1
  Ir  Ir23  1  0.651801  0.348217  0.749992  1
  Ir  Ir24  1  0.652754  0.652475  0.249779  1
  Ir  Ir25  1  0.347538  0.347241  0.250227  1
  Ir  Ir26  1  0.347646  0.652341  0.750000  1
  Ru  Ru27  1  0.847861  0.152106  0.249833  1
  Ru  Ru28  1  0.500180  0.000154  0.123337  1
  Ru  Ru29  1  0.499836  0.000047  0.623396  1
  Ru  Ru30  1  0.999953  0.500168  0.876612  1
  Ru  Ru31  1  0.999842  0.499820  0.376638  1
