# generated using pymatgen
data_Ho3Er5Hg4
_symmetry_space_group_name_H-M   'P 1'
_cell_length_a   7.01113508
_cell_length_b   5.06670800
_cell_length_c   9.20196710
_cell_angle_alpha   90.00000000
_cell_angle_beta   90.01704327
_cell_angle_gamma   90.00000000
_symmetry_Int_Tables_number   1
_chemical_formula_structural   Ho3Er5Hg4
_chemical_formula_sum   'Ho3 Er5 Hg4'
_cell_volume   326.88490615
_cell_formula_units_Z   1
loop_
 _symmetry_equiv_pos_site_id
 _symmetry_equiv_pos_as_xyz
  1  'x, y, z'
loop_
 _atom_site_type_symbol
 _atom_site_label
 _atom_site_symmetry_multiplicity
 _atom_site_fract_x
 _atom_site_fract_y
 _atom_site_fract_z
 _atom_site_occupancy
  Ho  Ho0  1  0.330749  0.250000  0.074071  1
  Ho  Ho1  1  0.016588  0.750000  0.194166  1
  Ho  Ho2  1  0.516945  0.750000  0.306024  1
  Er  Er3  1  0.830949  0.250000  0.425970  1
  Er  Er4  1  0.168963  0.750000  0.574553  1
  Er  Er5  1  0.483262  0.250000  0.694062  1
  Er  Er6  1  0.983033  0.250000  0.805796  1
  Er  Er7  1  0.669348  0.750000  0.925297  1
  Hg  Hg8  1  0.763431  0.250000  0.102064  1
  Hg  Hg9  1  0.262697  0.250000  0.398455  1
  Hg  Hg10  1  0.737105  0.750000  0.602357  1
  Hg  Hg11  1  0.236927  0.750000  0.897183  1
