# generated using pymatgen
data_Dy4Co19P12Os
_symmetry_space_group_name_H-M   'P 1'
_cell_length_a   3.66514800
_cell_length_b   10.30069860
_cell_length_c   11.73251200
_cell_angle_alpha   89.87135641
_cell_angle_beta   90.00000000
_cell_angle_gamma   90.00000000
_symmetry_Int_Tables_number   1
_chemical_formula_structural   Dy4Co19P12Os
_chemical_formula_sum   'Dy4 Co19 P12 Os1'
_cell_volume   442.94327132
_cell_formula_units_Z   1
loop_
 _symmetry_equiv_pos_site_id
 _symmetry_equiv_pos_as_xyz
  1  'x, y, z'
loop_
 _atom_site_type_symbol
 _atom_site_label
 _atom_site_symmetry_multiplicity
 _atom_site_fract_x
 _atom_site_fract_y
 _atom_site_fract_z
 _atom_site_occupancy
  Dy  Dy0  1  0.250000  0.916244  0.202344  1
  Dy  Dy1  1  0.750000  0.083555  0.797477  1
  Dy  Dy2  1  0.750000  0.414306  0.295496  1
  Dy  Dy3  1  0.250000  0.581650  0.702152  1
  Co  Co4  1  0.750000  0.215757  0.509225  1
  Co  Co5  1  0.750000  0.283665  0.008458  1
  Co  Co6  1  0.250000  0.716834  0.991928  1
  Co  Co7  1  0.250000  0.093391  0.988467  1
  Co  Co8  1  0.750000  0.906834  0.011499  1
  Co  Co9  1  0.750000  0.591906  0.510554  1
  Co  Co10  1  0.250000  0.406513  0.487737  1
  Co  Co11  1  0.250000  0.279585  0.677380  1
  Co  Co12  1  0.750000  0.721528  0.323225  1
  Co  Co13  1  0.750000  0.777427  0.823310  1
  Co  Co14  1  0.250000  0.221570  0.176105  1
  Co  Co15  1  0.250000  0.616705  0.198660  1
  Co  Co16  1  0.750000  0.383719  0.801814  1
  Co  Co17  1  0.750000  0.117093  0.300593  1
  Co  Co18  1  0.250000  0.886119  0.701556  1
  Co  Co19  1  0.250000  0.035296  0.432766  1
  Co  Co20  1  0.750000  0.966546  0.568253  1
  Co  Co21  1  0.750000  0.532046  0.068533  1
  Co  Co22  1  0.250000  0.467986  0.932143  1
  P  P23  1  0.250000  0.083331  0.612986  1
  P  P24  1  0.750000  0.921326  0.385989  1
  P  P25  1  0.750000  0.580724  0.888301  1
  P  P26  1  0.250000  0.418435  0.111743  1
  P  P27  1  0.250000  0.229993  0.369068  1
  P  P28  1  0.750000  0.770538  0.633422  1
  P  P29  1  0.750000  0.728826  0.129151  1
  P  P30  1  0.250000  0.271323  0.870326  1
  P  P31  1  0.250000  0.898965  0.892954  1
  P  P32  1  0.750000  0.101946  0.108147  1
  P  P33  1  0.750000  0.397148  0.608997  1
  P  P34  1  0.250000  0.595092  0.388562  1
  Os  Os35  1  0.250000  0.786080  0.490676  1
