# generated using pymatgen
data_TbYb3Ni13C4
_symmetry_space_group_name_H-M   'P 1'
_cell_length_a   8.28918712
_cell_length_b   8.28918716
_cell_length_c   3.84734900
_cell_angle_alpha   90.00000000
_cell_angle_beta   90.00000000
_cell_angle_gamma   90.73276954
_symmetry_Int_Tables_number   1
_chemical_formula_structural   TbYb3Ni13C4
_chemical_formula_sum   'Tb1 Yb3 Ni13 C4'
_cell_volume   264.33212916
_cell_formula_units_Z   1
loop_
 _symmetry_equiv_pos_site_id
 _symmetry_equiv_pos_as_xyz
  1  'x, y, z'
loop_
 _atom_site_type_symbol
 _atom_site_label
 _atom_site_symmetry_multiplicity
 _atom_site_fract_x
 _atom_site_fract_y
 _atom_site_fract_z
 _atom_site_occupancy
  Tb  Tb0  1  0.348320  0.348320  0.500000  1
  Yb  Yb1  1  0.808858  0.191781  0.500000  1
  Yb  Yb2  1  0.191781  0.808858  0.500000  1
  Yb  Yb3  1  0.654111  0.654111  0.500000  1
  Ni  Ni4  1  0.501071  0.000612  0.500000  1
  Ni  Ni5  1  0.000612  0.501071  0.500000  1
  Ni  Ni6  1  0.000250  0.000250  0.000000  1
  Ni  Ni7  1  0.427468  0.783544  0.000000  1
  Ni  Ni8  1  0.571463  0.213917  0.000000  1
  Ni  Ni9  1  0.213917  0.571463  0.000000  1
  Ni  Ni10  1  0.783544  0.427468  0.000000  1
  Ni  Ni11  1  0.712209  0.927245  0.000000  1
  Ni  Ni12  1  0.289715  0.073344  0.000000  1
  Ni  Ni13  1  0.073344  0.289715  0.000000  1
  Ni  Ni14  1  0.927245  0.712209  0.000000  1
  Ni  Ni15  1  0.880058  0.880058  0.500000  1
  Ni  Ni16  1  0.118264  0.118264  0.500000  1
  C  C17  1  0.442548  0.556943  0.000000  1
  C  C18  1  0.556943  0.442548  0.000000  1
  C  C19  1  0.500634  0.997645  0.000000  1
  C  C20  1  0.997645  0.500634  0.000000  1
