# generated using pymatgen
data_TbPr8Ho11Sn16
_symmetry_space_group_name_H-M   'P 1'
_cell_length_a   8.09564377
_cell_length_b   8.28649782
_cell_length_c   15.56480900
_cell_angle_alpha   90.15045652
_cell_angle_beta   90.04739708
_cell_angle_gamma   90.11335395
_symmetry_Int_Tables_number   1
_chemical_formula_structural   TbPr8Ho11Sn16
_chemical_formula_sum   'Tb1 Pr8 Ho11 Sn16'
_cell_volume   1044.15196069
_cell_formula_units_Z   1
loop_
 _symmetry_equiv_pos_site_id
 _symmetry_equiv_pos_as_xyz
  1  'x, y, z'
loop_
 _atom_site_type_symbol
 _atom_site_label
 _atom_site_symmetry_multiplicity
 _atom_site_fract_x
 _atom_site_fract_y
 _atom_site_fract_z
 _atom_site_occupancy
  Tb  Tb0  1  0.848182  0.665143  0.876522  1
  Pr  Pr1  1  0.508438  0.324879  0.903096  1
  Pr  Pr2  1  0.007728  0.175488  0.595149  1
  Pr  Pr3  1  0.492706  0.675807  0.404407  1
  Pr  Pr4  1  0.992424  0.823066  0.097133  1
  Pr  Pr5  1  0.492567  0.674756  0.097147  1
  Pr  Pr6  1  0.992347  0.824505  0.403728  1
  Pr  Pr7  1  0.506792  0.323243  0.595325  1
  Pr  Pr8  1  0.006941  0.177002  0.903835  1
  Ho  Ho9  1  0.347209  0.835184  0.874159  1
  Ho  Ho10  1  0.847484  0.664711  0.624272  1
  Ho  Ho11  1  0.652757  0.163798  0.375692  1
  Ho  Ho12  1  0.152395  0.335818  0.124754  1
  Ho  Ho13  1  0.651470  0.164359  0.126535  1
  Ho  Ho14  1  0.152565  0.335176  0.375474  1
  Ho  Ho15  1  0.347329  0.836767  0.623298  1
  Ho  Ho16  1  0.181648  0.500952  0.749973  1
  Ho  Ho17  1  0.681625  0.999539  0.749211  1
  Ho  Ho18  1  0.818344  0.499027  0.250690  1
  Ho  Ho19  1  0.318052  0.000237  0.250195  1
  Sn  Sn20  1  0.316781  0.041376  0.041611  1
  Sn  Sn21  1  0.817051  0.458127  0.458262  1
  Sn  Sn22  1  0.685536  0.957454  0.541409  1
  Sn  Sn23  1  0.188585  0.542173  0.958565  1
  Sn  Sn24  1  0.680415  0.960412  0.958843  1
  Sn  Sn25  1  0.182842  0.541982  0.541691  1
  Sn  Sn26  1  0.315520  0.041933  0.457218  1
  Sn  Sn27  1  0.814254  0.456366  0.043301  1
  Sn  Sn28  1  0.545440  0.625534  0.747834  1
  Sn  Sn29  1  0.045873  0.876179  0.749245  1
  Sn  Sn30  1  0.453957  0.375431  0.251644  1
  Sn  Sn31  1  0.954842  0.124709  0.250119  1
  Sn  Sn32  1  0.315474  0.144254  0.749146  1
  Sn  Sn33  1  0.815877  0.355818  0.748991  1
  Sn  Sn34  1  0.684174  0.855329  0.250997  1
  Sn  Sn35  1  0.184381  0.643466  0.250528  1
