# generated using pymatgen
data_Dy3HoFeOs7
_symmetry_space_group_name_H-M   'P 1'
_cell_length_a   5.27388257
_cell_length_b   5.30870599
_cell_length_c   8.85640313
_cell_angle_alpha   89.99993322
_cell_angle_beta   90.01860054
_cell_angle_gamma   120.21911007
_symmetry_Int_Tables_number   1
_chemical_formula_structural   Dy3HoFeOs7
_chemical_formula_sum   'Dy3 Ho1 Fe1 Os7'
_cell_volume   214.26142430
_cell_formula_units_Z   1
loop_
 _symmetry_equiv_pos_site_id
 _symmetry_equiv_pos_as_xyz
  1  'x, y, z'
loop_
 _atom_site_type_symbol
 _atom_site_label
 _atom_site_symmetry_multiplicity
 _atom_site_fract_x
 _atom_site_fract_y
 _atom_site_fract_z
 _atom_site_occupancy
  Dy  Dy0  1  0.337762  0.668894  0.436602  1
  Dy  Dy1  1  0.666376  0.333199  0.565490  1
  Dy  Dy2  1  0.666151  0.333085  0.934530  1
  Ho  Ho3  1  0.337558  0.668789  0.063517  1
  Fe  Fe4  1  0.664796  0.832397  0.750374  1
  Os  Os5  1  0.006458  0.003251  0.501214  1
  Os  Os6  1  0.006136  0.003089  0.998846  1
  Os  Os7  1  0.825913  0.173338  0.249624  1
  Os  Os8  1  0.825884  0.652513  0.249623  1
  Os  Os9  1  0.331860  0.165929  0.249686  1
  Os  Os10  1  0.165558  0.822915  0.750247  1
  Os  Os11  1  0.165548  0.342602  0.750247  1
