# generated using pymatgen
data_Ac2BeZn25
_symmetry_space_group_name_H-M   'P 1'
_cell_length_a   8.68434715
_cell_length_b   8.68434672
_cell_length_c   8.68434600
_cell_angle_alpha   59.99999513
_cell_angle_beta   59.99999676
_cell_angle_gamma   59.99999621
_symmetry_Int_Tables_number   1
_chemical_formula_structural   Ac2BeZn25
_chemical_formula_sum   'Ac2 Be1 Zn25'
_cell_volume   463.12306550
_cell_formula_units_Z   1
loop_
 _symmetry_equiv_pos_site_id
 _symmetry_equiv_pos_as_xyz
  1  'x, y, z'
loop_
 _atom_site_type_symbol
 _atom_site_label
 _atom_site_symmetry_multiplicity
 _atom_site_fract_x
 _atom_site_fract_y
 _atom_site_fract_z
 _atom_site_occupancy
  Ac  Ac0  1  0.250000  0.250000  0.250000  1
  Ac  Ac1  1  0.750000  0.750000  0.750000  1
  Be  Be2  1  0.000000  0.000000  0.000000  1
  Zn  Zn3  1  0.500000  0.500000  0.500000  1
  Zn  Zn4  1  0.806354  0.553177  0.193646  1
  Zn  Zn5  1  0.193646  0.446823  0.806354  1
  Zn  Zn6  1  0.553177  0.806354  0.446823  1
  Zn  Zn7  1  0.446823  0.193646  0.553177  1
  Zn  Zn8  1  0.289015  0.939643  0.710985  1
  Zn  Zn9  1  0.710985  0.060357  0.289015  1
  Zn  Zn10  1  0.939643  0.289015  0.060357  1
  Zn  Zn11  1  0.060357  0.710985  0.939643  1
  Zn  Zn12  1  0.193646  0.806354  0.553177  1
  Zn  Zn13  1  0.806354  0.193646  0.446823  1
  Zn  Zn14  1  0.446823  0.553177  0.806354  1
  Zn  Zn15  1  0.553177  0.446823  0.193646  1
  Zn  Zn16  1  0.710985  0.289015  0.939643  1
  Zn  Zn17  1  0.289015  0.710985  0.060357  1
  Zn  Zn18  1  0.060357  0.939643  0.289015  1
  Zn  Zn19  1  0.939643  0.060357  0.710985  1
  Zn  Zn20  1  0.553177  0.193646  0.806354  1
  Zn  Zn21  1  0.446823  0.806354  0.193646  1
  Zn  Zn22  1  0.806354  0.446823  0.553177  1
  Zn  Zn23  1  0.193646  0.553177  0.446823  1
  Zn  Zn24  1  0.939643  0.710985  0.289015  1
  Zn  Zn25  1  0.060357  0.289015  0.710985  1
  Zn  Zn26  1  0.289015  0.060357  0.939643  1
  Zn  Zn27  1  0.710985  0.939643  0.060357  1
