# generated using pymatgen
data_Th2As2PSe
_symmetry_space_group_name_H-M   'P 1'
_cell_length_a   4.06614800
_cell_length_b   4.06614800
_cell_length_c   8.57901700
_cell_angle_alpha   90.00000000
_cell_angle_beta   90.00000000
_cell_angle_gamma   90.00000000
_symmetry_Int_Tables_number   1
_chemical_formula_structural   Th2As2PSe
_chemical_formula_sum   'Th2 As2 P1 Se1'
_cell_volume   141.84168852
_cell_formula_units_Z   1
loop_
 _symmetry_equiv_pos_site_id
 _symmetry_equiv_pos_as_xyz
  1  'x, y, z'
loop_
 _atom_site_type_symbol
 _atom_site_label
 _atom_site_symmetry_multiplicity
 _atom_site_fract_x
 _atom_site_fract_y
 _atom_site_fract_z
 _atom_site_occupancy
  Th  Th0  1  0.000000  0.500000  0.716818  1
  Th  Th1  1  0.500000  0.000000  0.283079  1
  As  As2  1  0.000000  0.000000  0.998314  1
  As  As3  1  0.500000  0.500000  0.998314  1
  P  P4  1  0.000000  0.500000  0.368570  1
  Se  Se5  1  0.500000  0.000000  0.634906  1
