# generated using pymatgen
data_Tm4Lu8CdNi4Sn
_symmetry_space_group_name_H-M   'P 1'
_cell_length_a   8.24285552
_cell_length_b   8.24763663
_cell_length_c   8.24185895
_cell_angle_alpha   106.57677231
_cell_angle_beta   109.40263360
_cell_angle_gamma   112.53503744
_symmetry_Int_Tables_number   1
_chemical_formula_structural   Tm4Lu8CdNi4Sn
_chemical_formula_sum   'Tm4 Lu8 Cd1 Ni4 Sn1'
_cell_volume   429.91839521
_cell_formula_units_Z   1
loop_
 _symmetry_equiv_pos_site_id
 _symmetry_equiv_pos_as_xyz
  1  'x, y, z'
loop_
 _atom_site_type_symbol
 _atom_site_label
 _atom_site_symmetry_multiplicity
 _atom_site_fract_x
 _atom_site_fract_y
 _atom_site_fract_z
 _atom_site_occupancy
  Tm  Tm0  1  0.610151  0.792742  0.817595  1
  Tm  Tm1  1  0.975420  0.792809  0.182536  1
  Tm  Tm2  1  0.024551  0.207202  0.817431  1
  Tm  Tm3  1  0.389834  0.207269  0.182370  1
  Lu  Lu4  1  0.705406  0.269915  0.975089  1
  Lu  Lu5  1  0.294574  0.730134  0.024931  1
  Lu  Lu6  1  0.705481  0.730388  0.435631  1
  Lu  Lu7  1  0.294533  0.269553  0.564311  1
  Lu  Lu8  1  0.806138  0.130280  0.324230  1
  Lu  Lu9  1  0.805966  0.481979  0.675678  1
  Lu  Lu10  1  0.193890  0.869728  0.675803  1
  Lu  Lu11  1  0.194061  0.518032  0.324358  1
  Cd  Cd12  1  0.499963  0.500024  0.999951  1
  Ni  Ni13  1  0.853648  0.500011  0.353825  1
  Ni  Ni14  1  0.146401  0.499980  0.646211  1
  Ni  Ni15  1  0.999853  0.126926  0.126817  1
  Ni  Ni16  1  0.000112  0.873074  0.873184  1
  Sn  Sn17  1  0.500016  0.999954  0.500047  1
