# generated using pymatgen
data_Dy5Ho7(TmRh3)2
_symmetry_space_group_name_H-M   'P 1'
_cell_length_a   9.74536800
_cell_length_b   9.74657780
_cell_length_c   6.16096000
_cell_angle_alpha   90.00243927
_cell_angle_beta   89.99981882
_cell_angle_gamma   119.99566694
_symmetry_Int_Tables_number   1
_chemical_formula_structural   Dy5Ho7(TmRh3)2
_chemical_formula_sum   'Dy5 Ho7 Tm2 Rh6'
_cell_volume   506.81373810
_cell_formula_units_Z   1
loop_
 _symmetry_equiv_pos_site_id
 _symmetry_equiv_pos_as_xyz
  1  'x, y, z'
loop_
 _atom_site_type_symbol
 _atom_site_label
 _atom_site_symmetry_multiplicity
 _atom_site_fract_x
 _atom_site_fract_y
 _atom_site_fract_z
 _atom_site_occupancy
  Dy  Dy0  1  0.123854  0.876028  0.253428  1
  Dy  Dy1  1  0.752176  0.876021  0.253414  1
  Dy  Dy2  1  0.123933  0.247874  0.253424  1
  Dy  Dy3  1  0.876059  0.123816  0.753420  1
  Dy  Dy4  1  0.247762  0.123817  0.753419  1
  Ho  Ho5  1  0.876025  0.752069  0.753674  1
  Ho  Ho6  1  0.540921  0.459256  0.447549  1
  Ho  Ho7  1  0.918327  0.459239  0.447548  1
  Ho  Ho8  1  0.540849  0.081680  0.447458  1
  Ho  Ho9  1  0.459262  0.540888  0.947475  1
  Ho  Ho10  1  0.081629  0.540880  0.947470  1
  Ho  Ho11  1  0.459169  0.918338  0.947384  1
  Tm  Tm12  1  0.333331  0.666662  0.456772  1
  Tm  Tm13  1  0.666697  0.333398  0.956737  1
  Rh  Rh14  1  0.809283  0.190745  0.180765  1
  Rh  Rh15  1  0.381455  0.190739  0.180752  1
  Rh  Rh16  1  0.809329  0.618661  0.180527  1
  Rh  Rh17  1  0.190504  0.809215  0.680787  1
  Rh  Rh18  1  0.618718  0.809227  0.680791  1
  Rh  Rh19  1  0.190717  0.381448  0.680750  1
