# generated using pymatgen
data_Ac11Tb(Si7Br3)2
_symmetry_space_group_name_H-M   'P 1'
_cell_length_a   4.26321800
_cell_length_b   12.29882900
_cell_length_c   17.45471900
_cell_angle_alpha   90.00000000
_cell_angle_beta   90.00000000
_cell_angle_gamma   90.00000000
_symmetry_Int_Tables_number   1
_chemical_formula_structural   Ac11Tb(Si7Br3)2
_chemical_formula_sum   'Ac11 Tb1 Si14 Br6'
_cell_volume   915.19611043
_cell_formula_units_Z   1
loop_
 _symmetry_equiv_pos_site_id
 _symmetry_equiv_pos_as_xyz
  1  'x, y, z'
loop_
 _atom_site_type_symbol
 _atom_site_label
 _atom_site_symmetry_multiplicity
 _atom_site_fract_x
 _atom_site_fract_y
 _atom_site_fract_z
 _atom_site_occupancy
  Ac  Ac0  1  0.500000  0.344593  0.500000  1
  Ac  Ac1  1  0.000000  0.654829  0.000000  1
  Ac  Ac2  1  0.500000  0.361283  0.752031  1
  Ac  Ac3  1  0.000000  0.640352  0.741115  1
  Ac  Ac4  1  0.500000  0.361283  0.247969  1
  Ac  Ac5  1  0.000000  0.640352  0.258885  1
  Ac  Ac6  1  0.500000  0.066691  0.879778  1
  Ac  Ac7  1  0.000000  0.930224  0.618787  1
  Ac  Ac8  1  0.500000  0.066691  0.120222  1
  Ac  Ac9  1  0.000000  0.930224  0.381213  1
  Ac  Ac10  1  0.500000  0.359644  0.000000  1
  Tb  Tb11  1  0.000000  0.643202  0.500000  1
  Si  Si12  1  0.000000  0.156976  0.000000  1
  Si  Si13  1  0.500000  0.838484  0.500000  1
  Si  Si14  1  0.500000  0.561631  0.876138  1
  Si  Si15  1  0.000000  0.445335  0.617076  1
  Si  Si16  1  0.500000  0.561631  0.123862  1
  Si  Si17  1  0.000000  0.445335  0.382924  1
  Si  Si18  1  0.000000  0.258245  0.876357  1
  Si  Si19  1  0.500000  0.738164  0.617980  1
  Si  Si20  1  0.000000  0.258245  0.123643  1
  Si  Si21  1  0.500000  0.738164  0.382020  1
  Si  Si22  1  0.000000  0.457581  0.874188  1
  Si  Si23  1  0.500000  0.544755  0.617004  1
  Si  Si24  1  0.500000  0.544755  0.382996  1
  Si  Si25  1  0.000000  0.457581  0.125812  1
  Br  Br26  1  0.500000  0.106023  0.691811  1
  Br  Br27  1  0.000000  0.891720  0.806129  1
  Br  Br28  1  0.000000  0.135438  0.500000  1
  Br  Br29  1  0.500000  0.862823  0.000000  1
  Br  Br30  1  0.500000  0.106023  0.308189  1
  Br  Br31  1  0.000000  0.891720  0.193871  1
