# generated using pymatgen
data_Tb4Dy5LuIn8(PtAu)2
_symmetry_space_group_name_H-M   'P 1'
_cell_length_a   3.65623500
_cell_length_b   8.16627955
_cell_length_c   18.41495565
_cell_angle_alpha   90.17047272
_cell_angle_beta   90.00000000
_cell_angle_gamma   90.00000000
_symmetry_Int_Tables_number   1
_chemical_formula_structural   Tb4Dy5LuIn8(PtAu)2
_chemical_formula_sum   'Tb4 Dy5 Lu1 In8 Pt2 Au2'
_cell_volume   549.82831265
_cell_formula_units_Z   1
loop_
 _symmetry_equiv_pos_site_id
 _symmetry_equiv_pos_as_xyz
  1  'x, y, z'
loop_
 _atom_site_type_symbol
 _atom_site_label
 _atom_site_symmetry_multiplicity
 _atom_site_fract_x
 _atom_site_fract_y
 _atom_site_fract_z
 _atom_site_occupancy
  Tb  Tb0  1  0.000000  0.119281  0.418488  1
  Tb  Tb1  1  0.000000  0.879820  0.580192  1
  Tb  Tb2  1  0.000000  0.000288  0.000421  1
  Tb  Tb3  1  0.000000  0.499866  0.499825  1
  Dy  Dy4  1  0.000000  0.383109  0.917065  1
  Dy  Dy5  1  0.000000  0.617528  0.083964  1
  Dy  Dy6  1  0.000000  0.255124  0.216747  1
  Dy  Dy7  1  0.000000  0.745616  0.784001  1
  Dy  Dy8  1  0.000000  0.267771  0.721838  1
  Lu  Lu9  1  0.000000  0.732428  0.277168  1
  In  In10  1  0.500000  0.425027  0.351276  1
  In  In11  1  0.500000  0.577056  0.648438  1
  In  In12  1  0.500000  0.076920  0.852869  1
  In  In13  1  0.500000  0.921963  0.147586  1
  In  In14  1  0.500000  0.293803  0.066186  1
  In  In15  1  0.500000  0.707214  0.934553  1
  In  In16  1  0.500000  0.210322  0.568547  1
  In  In17  1  0.500000  0.788628  0.429764  1
  Pt  Pt18  1  0.500000  0.470982  0.804911  1
  Pt  Pt19  1  0.500000  0.533234  0.197013  1
  Au  Au20  1  0.500000  0.024843  0.300516  1
  Au  Au21  1  0.500000  0.969178  0.698631  1
