# generated using pymatgen
data_Ce2Cr2FeCo9P7
_symmetry_space_group_name_H-M   'P 1'
_cell_length_a   9.02803285
_cell_length_b   9.03186342
_cell_length_c   3.67431300
_cell_angle_alpha   90.00000000
_cell_angle_beta   90.00000000
_cell_angle_gamma   120.15513717
_symmetry_Int_Tables_number   1
_chemical_formula_structural   Ce2Cr2FeCo9P7
_chemical_formula_sum   'Ce2 Cr2 Fe1 Co9 P7'
_cell_volume   259.05753652
_cell_formula_units_Z   1
loop_
 _symmetry_equiv_pos_site_id
 _symmetry_equiv_pos_as_xyz
  1  'x, y, z'
loop_
 _atom_site_type_symbol
 _atom_site_label
 _atom_site_symmetry_multiplicity
 _atom_site_fract_x
 _atom_site_fract_y
 _atom_site_fract_z
 _atom_site_occupancy
  Ce  Ce0  1  0.998627  0.997684  0.000000  1
  Ce  Ce1  1  0.333491  0.666430  0.500000  1
  Cr  Cr2  1  0.883843  0.428651  0.500000  1
  Cr  Cr3  1  0.551960  0.120528  0.500000  1
  Fe  Fe4  1  0.569050  0.453300  0.500000  1
  Co  Co5  1  0.098979  0.395355  0.000000  1
  Co  Co6  1  0.294858  0.899320  0.000000  1
  Co  Co7  1  0.603178  0.706300  0.000000  1
  Co  Co8  1  0.820158  0.608522  0.000000  1
  Co  Co9  1  0.790173  0.179372  0.000000  1
  Co  Co10  1  0.390268  0.211004  0.000000  1
  Co  Co11  1  0.047839  0.766829  0.500000  1
  Co  Co12  1  0.718951  0.952528  0.500000  1
  Co  Co13  1  0.233388  0.282913  0.500000  1
  P  P14  1  0.069533  0.628974  0.000000  1
  P  P15  1  0.558684  0.930265  0.000000  1
  P  P16  1  0.369957  0.440723  0.000000  1
  P  P17  1  0.771687  0.730368  0.500000  1
  P  P18  1  0.959422  0.226340  0.500000  1
  P  P19  1  0.269782  0.042479  0.500000  1
  P  P20  1  0.666174  0.332113  0.000000  1
