# generated using pymatgen
data_Ba2TbAlSe5
_symmetry_space_group_name_H-M   'P 1'
_cell_length_a   7.40810701
_cell_length_b   8.79627677
_cell_length_c   9.55222051
_cell_angle_alpha   103.53535037
_cell_angle_beta   102.93612971
_cell_angle_gamma   107.43185400
_symmetry_Int_Tables_number   1
_chemical_formula_structural   Ba2TbAlSe5
_chemical_formula_sum   'Ba4 Tb2 Al2 Se10'
_cell_volume   547.61242384
_cell_formula_units_Z   2
loop_
 _symmetry_equiv_pos_site_id
 _symmetry_equiv_pos_as_xyz
  1  'x, y, z'
loop_
 _atom_site_type_symbol
 _atom_site_label
 _atom_site_symmetry_multiplicity
 _atom_site_fract_x
 _atom_site_fract_y
 _atom_site_fract_z
 _atom_site_occupancy
  Ba  Ba0  1  0.633244  0.977593  0.289962  1
  Ba  Ba1  1  0.366756  0.022407  0.710038  1
  Ba  Ba2  1  0.341722  0.510272  0.706457  1
  Ba  Ba3  1  0.658278  0.489728  0.293543  1
  Tb  Tb4  1  0.998016  0.729566  0.998411  1
  Tb  Tb5  1  0.001984  0.270434  0.001589  1
  Al  Al6  1  0.806125  0.872537  0.690217  1
  Al  Al7  1  0.193875  0.127463  0.309783  1
  Se  Se8  1  0.987224  0.686750  0.685862  1
  Se  Se9  1  0.012776  0.313250  0.314138  1
  Se  Se10  1  0.983280  0.149670  0.688833  1
  Se  Se11  1  0.016720  0.850330  0.311167  1
  Se  Se12  1  0.713189  0.907838  0.923666  1
  Se  Se13  1  0.286811  0.092162  0.076334  1
  Se  Se14  1  0.706608  0.411467  0.946099  1
  Se  Se15  1  0.293392  0.588533  0.053901  1
  Se  Se16  1  0.494928  0.743715  0.495304  1
  Se  Se17  1  0.505072  0.256285  0.504696  1
