# generated using pymatgen
data_PdAu19
_symmetry_space_group_name_H-M   'P 1'
_cell_length_a   4.82350500
_cell_length_b   5.06401599
_cell_length_c   14.76253353
_cell_angle_alpha   90.05736955
_cell_angle_beta   90.00000000
_cell_angle_gamma   90.00000000
_symmetry_Int_Tables_number   1
_chemical_formula_structural   PdAu19
_chemical_formula_sum   'Pd1 Au19'
_cell_volume   360.59398709
_cell_formula_units_Z   1
loop_
 _symmetry_equiv_pos_site_id
 _symmetry_equiv_pos_as_xyz
  1  'x, y, z'
loop_
 _atom_site_type_symbol
 _atom_site_label
 _atom_site_symmetry_multiplicity
 _atom_site_fract_x
 _atom_site_fract_y
 _atom_site_fract_z
 _atom_site_occupancy
  Pd  Pd0  1  0.250000  0.170156  0.999946  1
  Au  Au1  1  0.250000  0.666741  0.902596  1
  Au  Au2  1  0.250000  0.167186  0.600729  1
  Au  Au3  1  0.750000  0.833089  0.399998  1
  Au  Au4  1  0.750000  0.331076  0.097385  1
  Au  Au5  1  0.250000  0.174174  0.196692  1
  Au  Au6  1  0.250000  0.172440  0.398724  1
  Au  Au7  1  0.750000  0.325593  0.701253  1
  Au  Au8  1  0.750000  0.330645  0.499939  1
  Au  Au9  1  0.250000  0.669060  0.500115  1
  Au  Au10  1  0.750000  0.828087  0.600628  1
  Au  Au11  1  0.250000  0.671476  0.098103  1
  Au  Au12  1  0.750000  0.833738  0.199447  1
  Au  Au13  1  0.250000  0.166136  0.803072  1
  Au  Au14  1  0.750000  0.824981  0.800776  1
  Au  Au15  1  0.750000  0.325990  0.901852  1
  Au  Au16  1  0.250000  0.674024  0.298695  1
  Au  Au17  1  0.250000  0.665704  0.701642  1
  Au  Au18  1  0.750000  0.835709  0.000031  1
  Au  Au19  1  0.750000  0.333991  0.298375  1
