# generated using pymatgen
data_YTeClO3
_symmetry_space_group_name_H-M   'P 1'
_cell_length_a   7.26262400
_cell_length_b   7.59997001
_cell_length_c   8.61596737
_cell_angle_alpha   75.41958595
_cell_angle_beta   90.00000000
_cell_angle_gamma   90.00000000
_symmetry_Int_Tables_number   1
_chemical_formula_structural   YTeClO3
_chemical_formula_sum   'Y4 Te4 Cl4 O12'
_cell_volume   460.24913931
_cell_formula_units_Z   4
loop_
 _symmetry_equiv_pos_site_id
 _symmetry_equiv_pos_as_xyz
  1  'x, y, z'
loop_
 _atom_site_type_symbol
 _atom_site_label
 _atom_site_symmetry_multiplicity
 _atom_site_fract_x
 _atom_site_fract_y
 _atom_site_fract_z
 _atom_site_occupancy
  Y  Y0  1  0.750596  0.295983  0.338252  1
  Y  Y1  1  0.250596  0.204017  0.661748  1
  Y  Y2  1  0.249404  0.704017  0.661748  1
  Y  Y3  1  0.749404  0.795983  0.338252  1
  Te  Te4  1  0.218578  0.560448  0.290507  1
  Te  Te5  1  0.718578  0.939552  0.709493  1
  Te  Te6  1  0.781422  0.439552  0.709493  1
  Te  Te7  1  0.281422  0.060448  0.290507  1
  Cl  Cl8  1  0.701188  0.612804  0.104294  1
  Cl  Cl9  1  0.201188  0.887196  0.895706  1
  Cl  Cl10  1  0.298812  0.387196  0.895706  1
  Cl  Cl11  1  0.798812  0.112804  0.104294  1
  O  O12  1  0.286271  0.495403  0.515586  1
  O  O13  1  0.786271  0.004597  0.484414  1
  O  O14  1  0.713729  0.504597  0.484414  1
  O  O15  1  0.213729  0.995403  0.515586  1
  O  O16  1  0.053682  0.743965  0.319218  1
  O  O17  1  0.553682  0.756035  0.680782  1
  O  O18  1  0.946318  0.256035  0.680782  1
  O  O19  1  0.446318  0.243965  0.319218  1
  O  O20  1  0.054596  0.360264  0.314470  1
  O  O21  1  0.554596  0.139736  0.685530  1
  O  O22  1  0.945404  0.639736  0.685530  1
  O  O23  1  0.445404  0.860264  0.314470  1
