# generated using pymatgen
data_Er6MnAl24Ru2Rh5
_symmetry_space_group_name_H-M   'P 1'
_cell_length_a   8.75974500
_cell_length_b   8.77861613
_cell_length_c   9.48301890
_cell_angle_alpha   90.10990218
_cell_angle_beta   90.00000000
_cell_angle_gamma   119.92891116
_symmetry_Int_Tables_number   1
_chemical_formula_structural   Er6MnAl24Ru2Rh5
_chemical_formula_sum   'Er6 Mn1 Al24 Ru2 Rh5'
_cell_volume   631.98149658
_cell_formula_units_Z   1
loop_
 _symmetry_equiv_pos_site_id
 _symmetry_equiv_pos_as_xyz
  1  'x, y, z'
loop_
 _atom_site_type_symbol
 _atom_site_label
 _atom_site_symmetry_multiplicity
 _atom_site_fract_x
 _atom_site_fract_y
 _atom_site_fract_z
 _atom_site_occupancy
  Er  Er0  1  0.192913  0.385825  0.250655  1
  Er  Er1  1  0.807087  0.614175  0.749345  1
  Er  Er2  1  0.612929  0.808206  0.250893  1
  Er  Er3  1  0.387071  0.191794  0.749107  1
  Er  Er4  1  0.195277  0.808206  0.250893  1
  Er  Er5  1  0.804723  0.191794  0.749107  1
  Mn  Mn6  1  0.000000  0.000000  0.000000  1
  Al  Al7  1  0.333235  0.666471  0.026246  1
  Al  Al8  1  0.666765  0.333529  0.973754  1
  Al  Al9  1  0.665931  0.331861  0.526526  1
  Al  Al10  1  0.334069  0.668139  0.473474  1
  Al  Al11  1  0.162692  0.325385  0.577577  1
  Al  Al12  1  0.837308  0.674615  0.422423  1
  Al  Al13  1  0.673774  0.838004  0.577008  1
  Al  Al14  1  0.840058  0.680114  0.077495  1
  Al  Al15  1  0.326226  0.161996  0.422992  1
  Al  Al16  1  0.159942  0.319886  0.922505  1
  Al  Al17  1  0.164231  0.838004  0.577008  1
  Al  Al18  1  0.320415  0.160889  0.076581  1
  Al  Al19  1  0.835769  0.161996  0.422992  1
  Al  Al20  1  0.679585  0.839111  0.923419  1
  Al  Al21  1  0.840474  0.160889  0.076581  1
  Al  Al22  1  0.159526  0.839111  0.923419  1
  Al  Al23  1  0.562914  0.125829  0.250539  1
  Al  Al24  1  0.437086  0.874171  0.749461  1
  Al  Al25  1  0.875949  0.438602  0.249428  1
  Al  Al26  1  0.124051  0.561398  0.750572  1
  Al  Al27  1  0.562652  0.438602  0.249428  1
  Al  Al28  1  0.437348  0.561398  0.750572  1
  Al  Al29  1  0.000477  0.000955  0.245339  1
  Al  Al30  1  0.999523  0.999045  0.754661  1
  Ru  Ru31  1  0.500000  0.000000  0.500000  1
  Ru  Ru32  1  0.000000  0.000000  0.500000  1
  Rh  Rh33  1  0.500000  0.000000  0.000000  1
  Rh  Rh34  1  0.000000  0.500000  0.000000  1
  Rh  Rh35  1  0.500000  0.500000  0.000000  1
  Rh  Rh36  1  0.000000  0.500000  0.500000  1
  Rh  Rh37  1  0.500000  0.500000  0.500000  1
