# generated using pymatgen
data_Tb3Y5Tc3B24Os
_symmetry_space_group_name_H-M   'P 1'
_cell_length_a   3.68557500
_cell_length_b   9.17871224
_cell_length_c   11.57022604
_cell_angle_alpha   89.95637128
_cell_angle_beta   90.00000000
_cell_angle_gamma   90.00000000
_symmetry_Int_Tables_number   1
_chemical_formula_structural   Tb3Y5Tc3B24Os
_chemical_formula_sum   'Tb3 Y5 Tc3 B24 Os1'
_cell_volume   391.40712334
_cell_formula_units_Z   1
loop_
 _symmetry_equiv_pos_site_id
 _symmetry_equiv_pos_as_xyz
  1  'x, y, z'
loop_
 _atom_site_type_symbol
 _atom_site_label
 _atom_site_symmetry_multiplicity
 _atom_site_fract_x
 _atom_site_fract_y
 _atom_site_fract_z
 _atom_site_occupancy
  Tb  Tb0  1  0.000000  0.323816  0.413904  1
  Tb  Tb1  1  0.000000  0.675323  0.584526  1
  Tb  Tb2  1  0.000000  0.823278  0.087117  1
  Y  Y3  1  0.000000  0.177866  0.914505  1
  Y  Y4  1  0.000000  0.942579  0.370152  1
  Y  Y5  1  0.000000  0.058238  0.629980  1
  Y  Y6  1  0.000000  0.442818  0.130038  1
  Y  Y7  1  0.000000  0.556922  0.869551  1
  Tc  Tc8  1  0.000000  0.638352  0.320608  1
  Tc  Tc9  1  0.000000  0.361606  0.679985  1
  Tc  Tc10  1  0.000000  0.137857  0.178169  1
  B  B11  1  0.500000  0.553224  0.432614  1
  B  B12  1  0.500000  0.446678  0.567146  1
  B  B13  1  0.500000  0.053158  0.067141  1
  B  B14  1  0.500000  0.946187  0.932653  1
  B  B15  1  0.500000  0.748118  0.418457  1
  B  B16  1  0.500000  0.251561  0.581609  1
  B  B17  1  0.500000  0.248639  0.081518  1
  B  B18  1  0.500000  0.751779  0.918115  1
  B  B19  1  0.500000  0.791330  0.265667  1
  B  B20  1  0.500000  0.208841  0.734882  1
  B  B21  1  0.500000  0.291258  0.234543  1
  B  B22  1  0.500000  0.709525  0.765457  1
  B  B23  1  0.500000  0.631176  0.185909  1
  B  B24  1  0.500000  0.368733  0.814598  1
  B  B25  1  0.500000  0.130750  0.313762  1
  B  B26  1  0.500000  0.868867  0.686109  1
  B  B27  1  0.500000  0.982283  0.211736  1
  B  B28  1  0.500000  0.016610  0.788320  1
  B  B29  1  0.500000  0.482539  0.288092  1
  B  B30  1  0.500000  0.517154  0.711693  1
  B  B31  1  0.500000  0.602346  0.028264  1
  B  B32  1  0.500000  0.398562  0.971510  1
  B  B33  1  0.500000  0.102144  0.471669  1
  B  B34  1  0.500000  0.897973  0.528810  1
  Os  Os35  1  0.000000  0.861909  0.821190  1
