# generated using pymatgen
data_TbNd6TmSb20
_symmetry_space_group_name_H-M   'P 1'
_cell_length_a   4.27528400
_cell_length_b   13.47365605
_cell_length_c   15.09265387
_cell_angle_alpha   77.93033935
_cell_angle_beta   90.00000000
_cell_angle_gamma   90.00000000
_symmetry_Int_Tables_number   1
_chemical_formula_structural   TbNd6TmSb20
_chemical_formula_sum   'Tb1 Nd6 Tm1 Sb20'
_cell_volume   850.17408562
_cell_formula_units_Z   1
loop_
 _symmetry_equiv_pos_site_id
 _symmetry_equiv_pos_as_xyz
  1  'x, y, z'
loop_
 _atom_site_type_symbol
 _atom_site_label
 _atom_site_symmetry_multiplicity
 _atom_site_fract_x
 _atom_site_fract_y
 _atom_site_fract_z
 _atom_site_occupancy
  Tb  Tb0  1  0.750000  0.603668  0.227413  1
  Nd  Nd1  1  0.750000  0.335536  0.142418  1
  Nd  Nd2  1  0.250000  0.949629  0.361072  1
  Nd  Nd3  1  0.250000  0.664186  0.856799  1
  Nd  Nd4  1  0.250000  0.667867  0.576540  1
  Nd  Nd5  1  0.750000  0.050678  0.639049  1
  Nd  Nd6  1  0.750000  0.331943  0.424225  1
  Tm  Tm7  1  0.250000  0.396984  0.772441  1
  Sb  Sb8  1  0.750000  0.850856  0.820119  1
  Sb  Sb9  1  0.250000  0.862043  0.675286  1
  Sb  Sb10  1  0.250000  0.142953  0.478171  1
  Sb  Sb11  1  0.750000  0.284807  0.933619  1
  Sb  Sb12  1  0.250000  0.147715  0.781354  1
  Sb  Sb13  1  0.750000  0.574534  0.441804  1
  Sb  Sb14  1  0.750000  0.138174  0.324734  1
  Sb  Sb15  1  0.250000  0.706239  0.350573  1
  Sb  Sb16  1  0.750000  0.294056  0.650403  1
  Sb  Sb17  1  0.750000  0.853475  0.218952  1
  Sb  Sb18  1  0.250000  0.420381  0.971819  1
  Sb  Sb19  1  0.250000  0.425604  0.559442  1
  Sb  Sb20  1  0.750000  0.570415  0.736913  1
  Sb  Sb21  1  0.250000  0.426946  0.263708  1
  Sb  Sb22  1  0.750000  0.857092  0.521920  1
  Sb  Sb23  1  0.750000  0.031593  0.891362  1
  Sb  Sb24  1  0.250000  0.715356  0.064757  1
  Sb  Sb25  1  0.250000  0.968598  0.108572  1
  Sb  Sb26  1  0.250000  0.149099  0.179862  1
  Sb  Sb27  1  0.750000  0.579571  0.026673  1
