# generated using pymatgen
data_K4Hf3Ti5S16
_symmetry_space_group_name_H-M   'P 1'
_cell_length_a   6.06880537
_cell_length_b   7.01312123
_cell_length_c   15.24444200
_cell_angle_alpha   89.99932191
_cell_angle_beta   90.02006219
_cell_angle_gamma   90.01464051
_symmetry_Int_Tables_number   1
_chemical_formula_structural   K4Hf3Ti5S16
_chemical_formula_sum   'K4 Hf3 Ti5 S16'
_cell_volume   648.82271730
_cell_formula_units_Z   1
loop_
 _symmetry_equiv_pos_site_id
 _symmetry_equiv_pos_as_xyz
  1  'x, y, z'
loop_
 _atom_site_type_symbol
 _atom_site_label
 _atom_site_symmetry_multiplicity
 _atom_site_fract_x
 _atom_site_fract_y
 _atom_site_fract_z
 _atom_site_occupancy
  K  K0  1  0.344547  0.999867  0.998974  1
  K  K1  1  0.655453  0.500133  0.501026  1
  K  K2  1  0.015851  0.000585  0.502188  1
  K  K3  1  0.984149  0.499415  0.997812  1
  Hf  Hf4  1  0.500000  0.250000  0.250000  1
  Hf  Hf5  1  0.500000  0.750000  0.750000  1
  Hf  Hf6  1  0.500000  0.750000  0.250000  1
  Ti  Ti7  1  0.000661  0.000137  0.249142  1
  Ti  Ti8  1  0.001511  0.006810  0.751351  1
  Ti  Ti9  1  0.999339  0.499863  0.250858  1
  Ti  Ti10  1  0.998489  0.493190  0.748649  1
  Ti  Ti11  1  0.500000  0.250000  0.750000  1
  S  S12  1  0.841621  0.249332  0.345413  1
  S  S13  1  0.843199  0.750150  0.655642  1
  S  S14  1  0.158321  0.749425  0.154627  1
  S  S15  1  0.167565  0.251645  0.843630  1
  S  S16  1  0.158379  0.250668  0.154587  1
  S  S17  1  0.156801  0.749850  0.844358  1
  S  S18  1  0.841679  0.750575  0.345373  1
  S  S19  1  0.832435  0.248355  0.656370  1
  S  S20  1  0.678290  0.000050  0.152532  1
  S  S21  1  0.674835  0.006605  0.845080  1
  S  S22  1  0.321710  0.499950  0.347468  1
  S  S23  1  0.325165  0.493395  0.654920  1
  S  S24  1  0.329180  0.999975  0.346638  1
  S  S25  1  0.333308  0.007630  0.656072  1
  S  S26  1  0.670820  0.500025  0.153362  1
  S  S27  1  0.666692  0.492370  0.843928  1
