# generated using pymatgen
data_TbEr(BIr)8
_symmetry_space_group_name_H-M   'P 1'
_cell_length_a   7.63653900
_cell_length_b   7.63653900
_cell_length_c   3.99542000
_cell_angle_alpha   90.00000000
_cell_angle_beta   90.00000000
_cell_angle_gamma   90.00000000
_symmetry_Int_Tables_number   1
_chemical_formula_structural   TbEr(BIr)8
_chemical_formula_sum   'Tb1 Er1 B8 Ir8'
_cell_volume   232.99982098
_cell_formula_units_Z   1
loop_
 _symmetry_equiv_pos_site_id
 _symmetry_equiv_pos_as_xyz
  1  'x, y, z'
loop_
 _atom_site_type_symbol
 _atom_site_label
 _atom_site_symmetry_multiplicity
 _atom_site_fract_x
 _atom_site_fract_y
 _atom_site_fract_z
 _atom_site_occupancy
  Tb  Tb0  1  0.000000  0.000000  0.500000  1
  Er  Er1  1  0.500000  0.500000  0.000000  1
  B  B2  1  0.842300  0.278310  0.888441  1
  B  B3  1  0.157700  0.721690  0.888441  1
  B  B4  1  0.278310  0.157700  0.111559  1
  B  B5  1  0.721690  0.842300  0.111559  1
  B  B6  1  0.777726  0.657752  0.387983  1
  B  B7  1  0.222274  0.342248  0.387983  1
  B  B8  1  0.342248  0.777726  0.612017  1
  B  B9  1  0.657752  0.222274  0.612017  1
  Ir  Ir10  1  0.890401  0.659444  0.886863  1
  Ir  Ir11  1  0.109599  0.340556  0.886863  1
  Ir  Ir12  1  0.340556  0.890401  0.113137  1
  Ir  Ir13  1  0.659444  0.109599  0.113137  1
  Ir  Ir14  1  0.839253  0.390990  0.386442  1
  Ir  Ir15  1  0.160747  0.609010  0.386442  1
  Ir  Ir16  1  0.390990  0.160747  0.613558  1
  Ir  Ir17  1  0.609010  0.839253  0.613558  1
