# generated using pymatgen
data_La9Pr7Cd4(OsRu)2
_symmetry_space_group_name_H-M   'P 1'
_cell_length_a   10.08082865
_cell_length_b   10.08083054
_cell_length_c   10.08992701
_cell_angle_alpha   59.96636796
_cell_angle_beta   59.96639423
_cell_angle_gamma   60.40200667
_symmetry_Int_Tables_number   1
_chemical_formula_structural   La9Pr7Cd4(OsRu)2
_chemical_formula_sum   'La9 Pr7 Cd4 Os2 Ru2'
_cell_volume   726.85110503
_cell_formula_units_Z   1
loop_
 _symmetry_equiv_pos_site_id
 _symmetry_equiv_pos_as_xyz
  1  'x, y, z'
loop_
 _atom_site_type_symbol
 _atom_site_label
 _atom_site_symmetry_multiplicity
 _atom_site_fract_x
 _atom_site_fract_y
 _atom_site_fract_z
 _atom_site_occupancy
  La  La0  1  0.345258  0.345258  0.345224  1
  La  La1  1  0.344851  0.344851  0.961950  1
  La  La2  1  0.344937  0.964410  0.343757  1
  La  La3  1  0.964410  0.344937  0.343757  1
  La  La4  1  0.808915  0.188492  0.189906  1
  La  La5  1  0.189271  0.808626  0.814059  1
  La  La6  1  0.188491  0.808915  0.189906  1
  La  La7  1  0.808626  0.189272  0.814060  1
  La  La8  1  0.189777  0.189777  0.810601  1
  Pr  Pr9  1  0.807821  0.807821  0.193882  1
  Pr  Pr10  1  0.935518  0.562434  0.565162  1
  Pr  Pr11  1  0.562036  0.937595  0.938844  1
  Pr  Pr12  1  0.562434  0.935518  0.565162  1
  Pr  Pr13  1  0.937595  0.562036  0.938844  1
  Pr  Pr14  1  0.563090  0.563089  0.936793  1
  Pr  Pr15  1  0.940528  0.940528  0.560913  1
  Cd  Cd16  1  0.579950  0.579950  0.577757  1
  Cd  Cd17  1  0.580058  0.580058  0.261472  1
  Cd  Cd18  1  0.579495  0.261218  0.579392  1
  Cd  Cd19  1  0.261218  0.579494  0.579392  1
  Os  Os20  1  0.136579  0.136579  0.138756  1
  Os  Os21  1  0.135138  0.135138  0.588195  1
  Ru  Ru22  1  0.144303  0.589699  0.131107  1
  Ru  Ru23  1  0.589699  0.144303  0.131107  1
