# generated using pymatgen
data_YbPr2Pa(Pt2Pb)2
_symmetry_space_group_name_H-M   'P 1'
_cell_length_a   8.05165111
_cell_length_b   8.05165064
_cell_length_c   7.39631600
_cell_angle_alpha   90.00000000
_cell_angle_beta   90.00000000
_cell_angle_gamma   92.62623597
_symmetry_Int_Tables_number   1
_chemical_formula_structural   YbPr2Pa(Pt2Pb)2
_chemical_formula_sum   'Yb2 Pr4 Pa2 Pt8 Pb4'
_cell_volume   478.99275657
_cell_formula_units_Z   2
loop_
 _symmetry_equiv_pos_site_id
 _symmetry_equiv_pos_as_xyz
  1  'x, y, z'
loop_
 _atom_site_type_symbol
 _atom_site_label
 _atom_site_symmetry_multiplicity
 _atom_site_fract_x
 _atom_site_fract_y
 _atom_site_fract_z
 _atom_site_occupancy
  Yb  Yb0  1  0.833860  0.166140  0.500000  1
  Yb  Yb1  1  0.166140  0.833860  0.500000  1
  Pr  Pr2  1  0.665994  0.665994  0.000000  1
  Pr  Pr3  1  0.334006  0.334006  0.000000  1
  Pr  Pr4  1  0.827054  0.172946  0.000000  1
  Pr  Pr5  1  0.172946  0.827054  0.000000  1
  Pa  Pa6  1  0.325006  0.325006  0.500000  1
  Pa  Pa7  1  0.674994  0.674994  0.500000  1
  Pt  Pt8  1  0.868190  0.868190  0.735148  1
  Pt  Pt9  1  0.131810  0.131810  0.735148  1
  Pt  Pt10  1  0.624517  0.375483  0.716876  1
  Pt  Pt11  1  0.624517  0.375483  0.283124  1
  Pt  Pt12  1  0.375483  0.624517  0.283124  1
  Pt  Pt13  1  0.131810  0.131810  0.264852  1
  Pt  Pt14  1  0.868190  0.868190  0.264852  1
  Pt  Pt15  1  0.375483  0.624517  0.716876  1
  Pb  Pb16  1  0.500000  0.000000  0.743027  1
  Pb  Pb17  1  0.500000  0.000000  0.256973  1
  Pb  Pb18  1  0.000000  0.500000  0.743027  1
  Pb  Pb19  1  0.000000  0.500000  0.256973  1
