# generated using pymatgen
data_Er3LuSiI6
_symmetry_space_group_name_H-M   'P 1'
_cell_length_a   4.17804000
_cell_length_b   13.80716241
_cell_length_c   14.58935101
_cell_angle_alpha   89.86600676
_cell_angle_beta   90.00000000
_cell_angle_gamma   90.00000000
_symmetry_Int_Tables_number   1
_chemical_formula_structural   Er3LuSiI6
_chemical_formula_sum   'Er6 Lu2 Si2 I12'
_cell_volume   841.61179307
_cell_formula_units_Z   2
loop_
 _symmetry_equiv_pos_site_id
 _symmetry_equiv_pos_as_xyz
  1  'x, y, z'
loop_
 _atom_site_type_symbol
 _atom_site_label
 _atom_site_symmetry_multiplicity
 _atom_site_fract_x
 _atom_site_fract_y
 _atom_site_fract_z
 _atom_site_occupancy
  Er  Er0  1  0.500000  0.114438  0.347394  1
  Er  Er1  1  0.500000  0.885562  0.652606  1
  Er  Er2  1  0.500000  0.614160  0.152301  1
  Er  Er3  1  0.500000  0.385840  0.847699  1
  Er  Er4  1  0.000000  0.109963  0.574100  1
  Er  Er5  1  0.000000  0.890037  0.425900  1
  Lu  Lu6  1  0.000000  0.608157  0.927131  1
  Lu  Lu7  1  0.000000  0.391843  0.072869  1
  Si  Si8  1  0.500000  0.000000  0.500000  1
  Si  Si9  1  0.500000  0.500000  0.000000  1
  I  I10  1  0.500000  0.250332  0.161697  1
  I  I11  1  0.500000  0.749668  0.838303  1
  I  I12  1  0.500000  0.746898  0.336596  1
  I  I13  1  0.500000  0.253102  0.663404  1
  I  I14  1  0.000000  0.259835  0.414687  1
  I  I15  1  0.000000  0.740165  0.585313  1
  I  I16  1  0.000000  0.758972  0.083175  1
  I  I17  1  0.000000  0.241028  0.916825  1
  I  I18  1  0.000000  0.000348  0.238792  1
  I  I19  1  0.000000  0.999652  0.761208  1
  I  I20  1  0.000000  0.498238  0.259312  1
  I  I21  1  0.000000  0.501762  0.740688  1
