# generated using pymatgen
data_DyLu3CdPt
_symmetry_space_group_name_H-M   'P 1'
_cell_length_a   9.53687473
_cell_length_b   9.52358977
_cell_length_c   9.52358928
_cell_angle_alpha   60.09231227
_cell_angle_beta   59.95384371
_cell_angle_gamma   59.95384605
_symmetry_Int_Tables_number   1
_chemical_formula_structural   DyLu3CdPt
_chemical_formula_sum   'Dy4 Lu12 Cd4 Pt4'
_cell_volume   611.63275004
_cell_formula_units_Z   4
loop_
 _symmetry_equiv_pos_site_id
 _symmetry_equiv_pos_as_xyz
  1  'x, y, z'
loop_
 _atom_site_type_symbol
 _atom_site_label
 _atom_site_symmetry_multiplicity
 _atom_site_fract_x
 _atom_site_fract_y
 _atom_site_fract_z
 _atom_site_occupancy
  Dy  Dy0  1  0.564818  0.935182  0.564818  1
  Dy  Dy1  1  0.935182  0.564817  0.935182  1
  Dy  Dy2  1  0.564818  0.564818  0.935182  1
  Dy  Dy3  1  0.935182  0.935182  0.564817  1
  Lu  Lu4  1  0.353041  0.352165  0.352165  1
  Lu  Lu5  1  0.352165  0.353041  0.942630  1
  Lu  Lu6  1  0.352165  0.942630  0.353041  1
  Lu  Lu7  1  0.942630  0.352165  0.352165  1
  Lu  Lu8  1  0.810949  0.189051  0.189051  1
  Lu  Lu9  1  0.189051  0.810949  0.810949  1
  Lu  Lu10  1  0.188740  0.811260  0.188740  1
  Lu  Lu11  1  0.811260  0.188740  0.811260  1
  Lu  Lu12  1  0.188740  0.188740  0.811260  1
  Lu  Lu13  1  0.811260  0.811260  0.188740  1
  Lu  Lu14  1  0.939033  0.560967  0.560967  1
  Lu  Lu15  1  0.560967  0.939033  0.939033  1
  Cd  Cd16  1  0.583281  0.580875  0.580875  1
  Cd  Cd17  1  0.580875  0.583281  0.254969  1
  Cd  Cd18  1  0.580875  0.254969  0.583281  1
  Cd  Cd19  1  0.254969  0.580875  0.580875  1
  Pt  Pt20  1  0.144594  0.142559  0.142559  1
  Pt  Pt21  1  0.142559  0.144594  0.570288  1
  Pt  Pt22  1  0.142559  0.570288  0.144594  1
  Pt  Pt23  1  0.570288  0.142559  0.142559  1
