# generated using pymatgen
data_Er6FeCo15(P6Os)2
_symmetry_space_group_name_H-M   'P 1'
_cell_length_a   3.70402200
_cell_length_b   10.49943200
_cell_length_c   12.16878800
_cell_angle_alpha   90.00000000
_cell_angle_beta   90.00000000
_cell_angle_gamma   90.00000000
_symmetry_Int_Tables_number   1
_chemical_formula_structural   Er6FeCo15(P6Os)2
_chemical_formula_sum   'Er6 Fe1 Co15 P12 Os2'
_cell_volume   473.24571216
_cell_formula_units_Z   1
loop_
 _symmetry_equiv_pos_site_id
 _symmetry_equiv_pos_as_xyz
  1  'x, y, z'
loop_
 _atom_site_type_symbol
 _atom_site_label
 _atom_site_symmetry_multiplicity
 _atom_site_fract_x
 _atom_site_fract_y
 _atom_site_fract_z
 _atom_site_occupancy
  Er  Er0  1  0.750000  0.250000  0.475134  1
  Er  Er1  1  0.250000  0.750000  0.525588  1
  Er  Er2  1  0.250000  0.932401  0.793556  1
  Er  Er3  1  0.250000  0.567599  0.793556  1
  Er  Er4  1  0.750000  0.068604  0.205379  1
  Er  Er5  1  0.750000  0.431396  0.205379  1
  Fe  Fe6  1  0.750000  0.250000  0.011972  1
  Co  Co7  1  0.250000  0.250000  0.297905  1
  Co  Co8  1  0.750000  0.750000  0.702393  1
  Co  Co9  1  0.250000  0.750000  0.986635  1
  Co  Co10  1  0.250000  0.418951  0.009877  1
  Co  Co11  1  0.250000  0.081049  0.009877  1
  Co  Co12  1  0.750000  0.583269  0.989941  1
  Co  Co13  1  0.750000  0.916731  0.989941  1
  Co  Co14  1  0.250000  0.452995  0.568747  1
  Co  Co15  1  0.250000  0.047005  0.568747  1
  Co  Co16  1  0.750000  0.547094  0.430870  1
  Co  Co17  1  0.750000  0.952906  0.430870  1
  Co  Co18  1  0.250000  0.871144  0.291659  1
  Co  Co19  1  0.250000  0.628856  0.291659  1
  Co  Co20  1  0.750000  0.128614  0.708467  1
  Co  Co21  1  0.750000  0.371386  0.708467  1
  P  P22  1  0.250000  0.250000  0.118473  1
  P  P23  1  0.750000  0.750000  0.879822  1
  P  P24  1  0.250000  0.250000  0.649518  1
  P  P25  1  0.750000  0.750000  0.351667  1
  P  P26  1  0.250000  0.437730  0.383313  1
  P  P27  1  0.250000  0.062270  0.383313  1
  P  P28  1  0.750000  0.562365  0.616664  1
  P  P29  1  0.750000  0.937635  0.616664  1
  P  P30  1  0.250000  0.903764  0.107338  1
  P  P31  1  0.250000  0.596236  0.107338  1
  P  P32  1  0.750000  0.095907  0.893583  1
  P  P33  1  0.750000  0.404093  0.893583  1
  Os  Os34  1  0.250000  0.250000  0.842497  1
  Os  Os35  1  0.750000  0.750000  0.159610  1
