# generated using pymatgen
data_Dy7Er5Os3Rh
_symmetry_space_group_name_H-M   'P 1'
_cell_length_a   6.35208974
_cell_length_b   7.33375065
_cell_length_c   9.04182552
_cell_angle_alpha   90.01399085
_cell_angle_beta   89.80985091
_cell_angle_gamma   90.21935358
_symmetry_Int_Tables_number   1
_chemical_formula_structural   Dy7Er5Os3Rh
_chemical_formula_sum   'Dy7 Er5 Os3 Rh1'
_cell_volume   421.20478934
_cell_formula_units_Z   1
loop_
 _symmetry_equiv_pos_site_id
 _symmetry_equiv_pos_as_xyz
  1  'x, y, z'
loop_
 _atom_site_type_symbol
 _atom_site_label
 _atom_site_symmetry_multiplicity
 _atom_site_fract_x
 _atom_site_fract_y
 _atom_site_fract_z
 _atom_site_occupancy
  Dy  Dy0  1  0.825881  0.824270  0.566285  1
  Dy  Dy1  1  0.333548  0.672629  0.438334  1
  Dy  Dy2  1  0.170195  0.177639  0.061844  1
  Dy  Dy3  1  0.869834  0.538283  0.249003  1
  Dy  Dy4  1  0.630889  0.040079  0.249819  1
  Dy  Dy5  1  0.128056  0.462164  0.750352  1
  Dy  Dy6  1  0.369331  0.962211  0.750541  1
  Er  Er7  1  0.334405  0.671634  0.060984  1
  Er  Er8  1  0.170498  0.177220  0.438601  1
  Er  Er9  1  0.669964  0.324590  0.564145  1
  Er  Er10  1  0.826210  0.824790  0.933415  1
  Er  Er11  1  0.669989  0.324640  0.936056  1
  Os  Os12  1  0.460325  0.383446  0.249952  1
  Os  Os13  1  0.960157  0.115838  0.749004  1
  Os  Os14  1  0.538372  0.616068  0.751684  1
  Rh  Rh15  1  0.042345  0.884499  0.249980  1
