# generated using pymatgen
data_Lu3Sn3HgIrRh
_symmetry_space_group_name_H-M   'P 1'
_cell_length_a   7.65844200
_cell_length_b   7.65844208
_cell_length_c   3.82895200
_cell_angle_alpha   90.00000000
_cell_angle_beta   90.00000000
_cell_angle_gamma   119.99999100
_symmetry_Int_Tables_number   1
_chemical_formula_structural   Lu3Sn3HgIrRh
_chemical_formula_sum   'Lu3 Sn3 Hg1 Ir1 Rh1'
_cell_volume   194.48739225
_cell_formula_units_Z   1
loop_
 _symmetry_equiv_pos_site_id
 _symmetry_equiv_pos_as_xyz
  1  'x, y, z'
loop_
 _atom_site_type_symbol
 _atom_site_label
 _atom_site_symmetry_multiplicity
 _atom_site_fract_x
 _atom_site_fract_y
 _atom_site_fract_z
 _atom_site_occupancy
  Lu  Lu0  1  0.973922  0.386030  0.500000  1
  Lu  Lu1  1  0.613970  0.587893  0.500000  1
  Lu  Lu2  1  0.412107  0.026078  0.500000  1
  Sn  Sn3  1  0.995732  0.741585  0.000000  1
  Sn  Sn4  1  0.258415  0.254148  0.000000  1
  Sn  Sn5  1  0.745852  0.004268  0.000000  1
  Hg  Hg6  1  0.333333  0.666667  0.000000  1
  Ir  Ir7  1  0.666667  0.333333  0.000000  1
  Rh  Rh8  1  0.000000  0.000000  0.500000  1
