# generated using pymatgen
data_Dy5HfSc2(Co4P3)4
_symmetry_space_group_name_H-M   'P 1'
_cell_length_a   12.23021599
_cell_length_b   12.24230947
_cell_length_c   3.70755400
_cell_angle_alpha   90.00000000
_cell_angle_beta   90.00000000
_cell_angle_gamma   120.03270909
_symmetry_Int_Tables_number   1
_chemical_formula_structural   Dy5HfSc2(Co4P3)4
_chemical_formula_sum   'Dy5 Hf1 Sc2 Co16 P12'
_cell_volume   480.58737792
_cell_formula_units_Z   1
loop_
 _symmetry_equiv_pos_site_id
 _symmetry_equiv_pos_as_xyz
  1  'x, y, z'
loop_
 _atom_site_type_symbol
 _atom_site_label
 _atom_site_symmetry_multiplicity
 _atom_site_fract_x
 _atom_site_fract_y
 _atom_site_fract_z
 _atom_site_occupancy
  Dy  Dy0  1  0.666592  0.333563  0.000000  1
  Dy  Dy1  1  0.333408  0.666972  0.000000  1
  Dy  Dy2  1  0.183330  0.183933  0.500000  1
  Dy  Dy3  1  0.816670  0.000603  0.500000  1
  Dy  Dy4  1  0.000000  0.816944  0.500000  1
  Hf  Hf5  1  0.000000  0.440772  0.000000  1
  Sc  Sc6  1  0.559351  0.559358  0.000000  1
  Sc  Sc7  1  0.440649  0.000007  0.000000  1
  Co  Co8  1  0.821781  0.195202  0.000000  1
  Co  Co9  1  0.804582  0.625649  0.000000  1
  Co  Co10  1  0.373962  0.178626  0.000000  1
  Co  Co11  1  0.195418  0.821067  0.000000  1
  Co  Co12  1  0.626038  0.804665  0.000000  1
  Co  Co13  1  0.178219  0.373421  0.000000  1
  Co  Co14  1  0.644762  0.124962  0.500000  1
  Co  Co15  1  0.875859  0.519901  0.500000  1
  Co  Co16  1  0.479160  0.355137  0.500000  1
  Co  Co17  1  0.124141  0.644041  0.500000  1
  Co  Co18  1  0.520840  0.875977  0.500000  1
  Co  Co19  1  0.355238  0.480200  0.500000  1
  Co  Co20  1  0.721364  0.721068  0.500000  1
  Co  Co21  1  0.278636  0.999704  0.500000  1
  Co  Co22  1  0.000000  0.278783  0.500000  1
  Co  Co23  1  0.000000  0.999485  0.000000  1
  P  P24  1  0.354657  0.354137  0.000000  1
  P  P25  1  0.645343  0.999480  0.000000  1
  P  P26  1  0.000000  0.647704  0.000000  1
  P  P27  1  0.828416  0.307177  0.500000  1
  P  P28  1  0.691905  0.521339  0.500000  1
  P  P29  1  0.478389  0.170765  0.500000  1
  P  P30  1  0.308095  0.829434  0.500000  1
  P  P31  1  0.521611  0.692376  0.500000  1
  P  P32  1  0.171584  0.478761  0.500000  1
  P  P33  1  0.820440  0.820407  0.000000  1
  P  P34  1  0.179560  0.999967  0.000000  1
  P  P35  1  0.000000  0.178412  0.000000  1
