# generated using pymatgen
data_Dy3Ho2(FeB3)2
_symmetry_space_group_name_H-M   'P 1'
_cell_length_a   5.40905217
_cell_length_b   5.40905227
_cell_length_c   8.25184707
_cell_angle_alpha   70.86786544
_cell_angle_beta   70.86786963
_cell_angle_gamma   59.99998989
_symmetry_Int_Tables_number   1
_chemical_formula_structural   Dy3Ho2(FeB3)2
_chemical_formula_sum   'Dy3 Ho2 Fe2 B6'
_cell_volume   193.53412289
_cell_formula_units_Z   1
loop_
 _symmetry_equiv_pos_site_id
 _symmetry_equiv_pos_as_xyz
  1  'x, y, z'
loop_
 _atom_site_type_symbol
 _atom_site_label
 _atom_site_symmetry_multiplicity
 _atom_site_fract_x
 _atom_site_fract_y
 _atom_site_fract_z
 _atom_site_occupancy
  Dy  Dy0  1  0.000000  0.000000  0.000000  1
  Dy  Dy1  1  0.251426  0.251426  0.245722  1
  Dy  Dy2  1  0.748574  0.748574  0.754278  1
  Ho  Ho3  1  0.416696  0.416696  0.749911  1
  Ho  Ho4  1  0.583304  0.583304  0.250089  1
  Fe  Fe5  1  0.117763  0.117763  0.646711  1
  Fe  Fe6  1  0.882237  0.882237  0.353289  1
  B  B7  1  0.167998  0.832002  0.500000  1
  B  B8  1  0.832002  0.500000  0.500000  1
  B  B9  1  0.500000  0.167998  0.500000  1
  B  B10  1  0.167998  0.500000  0.500000  1
  B  B11  1  0.500000  0.832002  0.500000  1
  B  B12  1  0.832002  0.167998  0.500000  1
