# generated using pymatgen
data_Tm8Lu12SnBi11
_symmetry_space_group_name_H-M   'P 1'
_cell_length_a   8.12365011
_cell_length_b   9.38954800
_cell_length_c   11.85215472
_cell_angle_alpha   90.00000000
_cell_angle_beta   89.81930880
_cell_angle_gamma   90.00000000
_symmetry_Int_Tables_number   1
_chemical_formula_structural   Tm8Lu12SnBi11
_chemical_formula_sum   'Tm8 Lu12 Sn1 Bi11'
_cell_volume   904.04708204
_cell_formula_units_Z   1
loop_
 _symmetry_equiv_pos_site_id
 _symmetry_equiv_pos_as_xyz
  1  'x, y, z'
loop_
 _atom_site_type_symbol
 _atom_site_label
 _atom_site_symmetry_multiplicity
 _atom_site_fract_x
 _atom_site_fract_y
 _atom_site_fract_z
 _atom_site_occupancy
  Tm  Tm0  1  0.354825  0.250000  0.286252  1
  Tm  Tm1  1  0.645685  0.750000  0.717510  1
  Tm  Tm2  1  0.145726  0.750000  0.782895  1
  Tm  Tm3  1  0.855269  0.250000  0.216908  1
  Tm  Tm4  1  0.189977  0.250000  0.779733  1
  Tm  Tm5  1  0.811701  0.750000  0.217713  1
  Tm  Tm6  1  0.312001  0.750000  0.281787  1
  Tm  Tm7  1  0.684510  0.250000  0.715779  1
  Lu  Lu8  1  0.030046  0.250000  0.510651  1
  Lu  Lu9  1  0.976371  0.750000  0.489268  1
  Lu  Lu10  1  0.475745  0.750000  0.010697  1
  Lu  Lu11  1  0.524517  0.250000  0.989395  1
  Lu  Lu12  1  0.193407  0.066429  0.059777  1
  Lu  Lu13  1  0.806567  0.933410  0.940505  1
  Lu  Lu14  1  0.306755  0.938038  0.559624  1
  Lu  Lu15  1  0.806567  0.566590  0.940505  1
  Lu  Lu16  1  0.690169  0.069096  0.441734  1
  Lu  Lu17  1  0.193407  0.433571  0.059777  1
  Lu  Lu18  1  0.690169  0.430904  0.441734  1
  Lu  Lu19  1  0.306755  0.561962  0.559624  1
  Sn  Sn20  1  0.406295  0.250000  0.542324  1
  Bi  Bi21  1  0.594542  0.750000  0.457053  1
  Bi  Bi22  1  0.094909  0.750000  0.042859  1
  Bi  Bi23  1  0.905555  0.250000  0.956359  1
  Bi  Bi24  1  0.065525  0.003114  0.325584  1
  Bi  Bi25  1  0.933772  0.996554  0.673921  1
  Bi  Bi26  1  0.433889  0.996210  0.826412  1
  Bi  Bi27  1  0.933772  0.503446  0.673921  1
  Bi  Bi28  1  0.566078  0.003849  0.173853  1
  Bi  Bi29  1  0.065525  0.496886  0.325584  1
  Bi  Bi30  1  0.566078  0.496151  0.173853  1
  Bi  Bi31  1  0.433889  0.503790  0.826412  1
