# generated using pymatgen
data_YbCe(B4Os)2
_symmetry_space_group_name_H-M   'P 1'
_cell_length_a   3.58925600
_cell_length_b   5.98622275
_cell_length_c   11.57263132
_cell_angle_alpha   90.10987116
_cell_angle_beta   90.00000000
_cell_angle_gamma   90.00000000
_symmetry_Int_Tables_number   1
_chemical_formula_structural   YbCe(B4Os)2
_chemical_formula_sum   'Yb2 Ce2 B16 Os4'
_cell_volume   248.65009377
_cell_formula_units_Z   2
loop_
 _symmetry_equiv_pos_site_id
 _symmetry_equiv_pos_as_xyz
  1  'x, y, z'
loop_
 _atom_site_type_symbol
 _atom_site_label
 _atom_site_symmetry_multiplicity
 _atom_site_fract_x
 _atom_site_fract_y
 _atom_site_fract_z
 _atom_site_occupancy
  Yb  Yb0  1  0.000000  0.627706  0.852757  1
  Yb  Yb1  1  0.000000  0.372294  0.147243  1
  Ce  Ce2  1  0.000000  0.128562  0.653179  1
  Ce  Ce3  1  0.000000  0.871438  0.346821  1
  B  B4  1  0.500000  0.474693  0.691607  1
  B  B5  1  0.500000  0.525307  0.308393  1
  B  B6  1  0.500000  0.975358  0.810628  1
  B  B7  1  0.500000  0.024642  0.189372  1
  B  B8  1  0.500000  0.287555  0.816368  1
  B  B9  1  0.500000  0.712445  0.183632  1
  B  B10  1  0.500000  0.785181  0.686582  1
  B  B11  1  0.500000  0.214819  0.313418  1
  B  B12  1  0.500000  0.362533  0.970009  1
  B  B13  1  0.500000  0.637467  0.029991  1
  B  B14  1  0.500000  0.862655  0.531063  1
  B  B15  1  0.500000  0.137345  0.468937  1
  B  B16  1  0.500000  0.389511  0.546852  1
  B  B17  1  0.500000  0.610489  0.453148  1
  B  B18  1  0.500000  0.885866  0.954349  1
  B  B19  1  0.500000  0.114134  0.045651  1
  Os  Os20  1  0.000000  0.138034  0.908219  1
  Os  Os21  1  0.000000  0.861966  0.091781  1
  Os  Os22  1  0.000000  0.641304  0.593200  1
  Os  Os23  1  0.000000  0.358696  0.406800  1
