# generated using pymatgen
data_Pr3MgCd2Pb2Au
_symmetry_space_group_name_H-M   'P 1'
_cell_length_a   7.66043100
_cell_length_b   7.75188736
_cell_length_c   4.74360000
_cell_angle_alpha   90.00000000
_cell_angle_beta   90.00000000
_cell_angle_gamma   119.61048419
_symmetry_Int_Tables_number   1
_chemical_formula_structural   Pr3MgCd2Pb2Au
_chemical_formula_sum   'Pr3 Mg1 Cd2 Pb2 Au1'
_cell_volume   244.90103389
_cell_formula_units_Z   1
loop_
 _symmetry_equiv_pos_site_id
 _symmetry_equiv_pos_as_xyz
  1  'x, y, z'
loop_
 _atom_site_type_symbol
 _atom_site_label
 _atom_site_symmetry_multiplicity
 _atom_site_fract_x
 _atom_site_fract_y
 _atom_site_fract_z
 _atom_site_occupancy
  Pr  Pr0  1  0.602143  0.000000  0.000000  1
  Pr  Pr1  1  0.995896  0.591828  0.000000  1
  Pr  Pr2  1  0.404068  0.408172  0.000000  1
  Mg  Mg3  1  0.220390  0.000000  0.500000  1
  Cd  Cd4  1  0.001911  0.234702  0.500000  1
  Cd  Cd5  1  0.767209  0.765298  0.500000  1
  Pb  Pb6  1  0.332333  0.673632  0.500000  1
  Pb  Pb7  1  0.658702  0.326368  0.500000  1
  Au  Au8  1  0.017347  0.000000  0.000000  1
