# generated using pymatgen
data_VIrRh5W
_symmetry_space_group_name_H-M   'P 1'
_cell_length_a   5.48105000
_cell_length_b   5.49716647
_cell_length_c   4.36801600
_cell_angle_alpha   90.00000000
_cell_angle_beta   90.00000000
_cell_angle_gamma   119.90308893
_symmetry_Int_Tables_number   1
_chemical_formula_structural   VIrRh5W
_chemical_formula_sum   'V1 Ir1 Rh5 W1'
_cell_volume   114.08821442
_cell_formula_units_Z   1
loop_
 _symmetry_equiv_pos_site_id
 _symmetry_equiv_pos_as_xyz
  1  'x, y, z'
loop_
 _atom_site_type_symbol
 _atom_site_label
 _atom_site_symmetry_multiplicity
 _atom_site_fract_x
 _atom_site_fract_y
 _atom_site_fract_z
 _atom_site_occupancy
  V  V0  1  0.331775  0.663551  0.750000  1
  Ir  Ir1  1  0.167557  0.335114  0.250000  1
  Rh  Rh2  1  0.665440  0.833902  0.250000  1
  Rh  Rh3  1  0.168462  0.833902  0.250000  1
  Rh  Rh4  1  0.833620  0.667241  0.750000  1
  Rh  Rh5  1  0.331814  0.165329  0.750000  1
  Rh  Rh6  1  0.833514  0.165329  0.750000  1
  W  W7  1  0.667817  0.335633  0.250000  1
