# generated using pymatgen
data_Dy2Al8GeIr3
_symmetry_space_group_name_H-M   'P 1'
_cell_length_a   7.56344027
_cell_length_b   7.56344039
_cell_length_c   9.44159300
_cell_angle_alpha   90.00000000
_cell_angle_beta   90.00000000
_cell_angle_gamma   119.79658315
_symmetry_Int_Tables_number   1
_chemical_formula_structural   Dy2Al8GeIr3
_chemical_formula_sum   'Dy4 Al16 Ge2 Ir6'
_cell_volume   468.70677749
_cell_formula_units_Z   2
loop_
 _symmetry_equiv_pos_site_id
 _symmetry_equiv_pos_as_xyz
  1  'x, y, z'
loop_
 _atom_site_type_symbol
 _atom_site_label
 _atom_site_symmetry_multiplicity
 _atom_site_fract_x
 _atom_site_fract_y
 _atom_site_fract_z
 _atom_site_occupancy
  Dy  Dy0  1  0.995381  0.675128  0.750000  1
  Dy  Dy1  1  0.004619  0.324872  0.250000  1
  Dy  Dy2  1  0.675128  0.995381  0.750000  1
  Dy  Dy3  1  0.324872  0.004619  0.250000  1
  Al  Al4  1  0.000469  0.337178  0.574005  1
  Al  Al5  1  0.999531  0.662822  0.425995  1
  Al  Al6  1  0.999531  0.662822  0.074005  1
  Al  Al7  1  0.337178  0.000469  0.925995  1
  Al  Al8  1  0.000469  0.337178  0.925995  1
  Al  Al9  1  0.662822  0.999531  0.074005  1
  Al  Al10  1  0.662822  0.999531  0.425995  1
  Al  Al11  1  0.337178  0.000469  0.574005  1
  Al  Al12  1  0.335579  0.335579  0.058534  1
  Al  Al13  1  0.664421  0.664421  0.941466  1
  Al  Al14  1  0.664421  0.664421  0.558534  1
  Al  Al15  1  0.335579  0.335579  0.441466  1
  Al  Al16  1  0.335861  0.552305  0.750000  1
  Al  Al17  1  0.664139  0.447695  0.250000  1
  Al  Al18  1  0.552305  0.335861  0.750000  1
  Al  Al19  1  0.447695  0.664139  0.250000  1
  Ge  Ge20  1  0.133627  0.133627  0.750000  1
  Ge  Ge21  1  0.866373  0.866373  0.250000  1
  Ir  Ir22  1  0.670942  0.329058  0.500000  1
  Ir  Ir23  1  0.329058  0.670942  0.500000  1
  Ir  Ir24  1  0.329058  0.670942  0.000000  1
  Ir  Ir25  1  0.670942  0.329058  0.000000  1
  Ir  Ir26  1  0.000000  0.000000  0.500000  1
  Ir  Ir27  1  0.000000  0.000000  0.000000  1
