# generated using pymatgen
data_Pr3NdY4(SiO5)4
_symmetry_space_group_name_H-M   'P 1'
_cell_length_a   8.15885586
_cell_length_b   8.15209818
_cell_length_c   10.82876432
_cell_angle_alpha   61.10952531
_cell_angle_beta   61.10853581
_cell_angle_gamma   50.30439670
_symmetry_Int_Tables_number   1
_chemical_formula_structural   Pr3NdY4(SiO5)4
_chemical_formula_sum   'Pr3 Nd1 Y4 Si4 O20'
_cell_volume   468.64351384
_cell_formula_units_Z   1
loop_
 _symmetry_equiv_pos_site_id
 _symmetry_equiv_pos_as_xyz
  1  'x, y, z'
loop_
 _atom_site_type_symbol
 _atom_site_label
 _atom_site_symmetry_multiplicity
 _atom_site_fract_x
 _atom_site_fract_y
 _atom_site_fract_z
 _atom_site_occupancy
  Pr  Pr0  1  0.708708  0.216818  0.464219  1
  Pr  Pr1  1  0.217006  0.708921  0.964556  1
  Pr  Pr2  1  0.291300  0.783145  0.535635  1
  Nd  Nd3  1  0.781817  0.292313  0.034892  1
  Y  Y4  1  0.236995  0.477315  0.336764  1
  Y  Y5  1  0.522723  0.762960  0.162979  1
  Y  Y6  1  0.763477  0.522192  0.663379  1
  Y  Y7  1  0.477882  0.236493  0.836962  1
  Si  Si8  1  0.728403  0.903870  0.306393  1
  Si  Si9  1  0.096511  0.271638  0.192879  1
  Si  Si10  1  0.271150  0.097055  0.693583  1
  Si  Si11  1  0.903334  0.727807  0.807152  1
  O  O12  1  0.423303  0.610236  0.108755  1
  O  O13  1  0.388080  0.578484  0.390814  1
  O  O14  1  0.579572  0.387092  0.891566  1
  O  O15  1  0.611925  0.421548  0.609380  1
  O  O16  1  0.866970  0.724751  0.432239  1
  O  O17  1  0.276072  0.132728  0.067331  1
  O  O18  1  0.132980  0.275500  0.567522  1
  O  O19  1  0.724515  0.866978  0.932631  1
  O  O20  1  0.566036  0.842815  0.316998  1
  O  O21  1  0.156303  0.434880  0.182759  1
  O  O22  1  0.434293  0.157107  0.682953  1
  O  O23  1  0.842767  0.564489  0.818435  1
  O  O24  1  0.158460  0.588135  0.822878  1
  O  O25  1  0.411434  0.841717  0.677632  1
  O  O26  1  0.841923  0.410782  0.176343  1
  O  O27  1  0.587979  0.158975  0.322592  1
  O  O28  1  0.908340  0.905177  0.645957  1
  O  O29  1  0.093343  0.092565  0.854620  1
  O  O30  1  0.091394  0.094524  0.354157  1
  O  O31  1  0.905005  0.910989  0.145043  1
