# generated using pymatgen
data_Y19ErTl2Cd4RuPt
_symmetry_space_group_name_H-M   'P 1'
_cell_length_a   9.68917200
_cell_length_b   9.68917905
_cell_length_c   9.86413400
_cell_angle_alpha   90.00015375
_cell_angle_beta   89.99989356
_cell_angle_gamma   120.00008517
_symmetry_Int_Tables_number   1
_chemical_formula_structural   Y19ErTl2Cd4RuPt
_chemical_formula_sum   'Y19 Er1 Tl2 Cd4 Ru1 Pt1'
_cell_volume   801.97876554
_cell_formula_units_Z   1
loop_
 _symmetry_equiv_pos_site_id
 _symmetry_equiv_pos_as_xyz
  1  'x, y, z'
loop_
 _atom_site_type_symbol
 _atom_site_label
 _atom_site_symmetry_multiplicity
 _atom_site_fract_x
 _atom_site_fract_y
 _atom_site_fract_z
 _atom_site_occupancy
  Y  Y0  1  0.001508  0.000756  0.998663  1
  Y  Y1  1  0.208367  0.792379  0.441938  1
  Y  Y2  1  0.208369  0.415990  0.441938  1
  Y  Y3  1  0.583652  0.791827  0.442080  1
  Y  Y4  1  0.790137  0.209554  0.560903  1
  Y  Y5  1  0.790138  0.580583  0.560903  1
  Y  Y6  1  0.418995  0.209497  0.560611  1
  Y  Y7  1  0.789669  0.209978  0.938964  1
  Y  Y8  1  0.789668  0.579690  0.938965  1
  Y  Y9  1  0.419806  0.209902  0.939246  1
  Y  Y10  1  0.208814  0.791909  0.058021  1
  Y  Y11  1  0.208815  0.416907  0.058020  1
  Y  Y12  1  0.582737  0.791368  0.057871  1
  Y  Y13  1  0.540108  0.455918  0.249977  1
  Y  Y14  1  0.540108  0.084188  0.249979  1
  Y  Y15  1  0.915485  0.457743  0.249998  1
  Y  Y16  1  0.458790  0.541518  0.749962  1
  Y  Y17  1  0.458790  0.917269  0.749961  1
  Y  Y18  1  0.082189  0.541095  0.749974  1
  Er  Er19  1  0.001783  0.000892  0.501786  1
  Tl  Tl20  1  0.884859  0.118283  0.250897  1
  Tl  Tl21  1  0.884859  0.766578  0.250896  1
  Cd  Cd22  1  0.232505  0.116253  0.250916  1
  Cd  Cd23  1  0.113286  0.885705  0.749242  1
  Cd  Cd24  1  0.113286  0.227579  0.749242  1
  Cd  Cd25  1  0.772567  0.886283  0.749126  1
  Ru  Ru26  1  0.667740  0.333870  0.749656  1
  Pt  Pt27  1  0.332969  0.666485  0.250265  1
