# generated using pymatgen
data_Pr2Si5AsPd21
_symmetry_space_group_name_H-M   'P 1'
_cell_length_a   8.74777763
_cell_length_b   8.74777729
_cell_length_c   8.70716200
_cell_angle_alpha   60.15346829
_cell_angle_beta   60.15346958
_cell_angle_gamma   59.69304401
_symmetry_Int_Tables_number   1
_chemical_formula_structural   Pr2Si5AsPd21
_chemical_formula_sum   'Pr2 Si5 As1 Pd21'
_cell_volume   471.12741883
_cell_formula_units_Z   1
loop_
 _symmetry_equiv_pos_site_id
 _symmetry_equiv_pos_as_xyz
  1  'x, y, z'
loop_
 _atom_site_type_symbol
 _atom_site_label
 _atom_site_symmetry_multiplicity
 _atom_site_fract_x
 _atom_site_fract_y
 _atom_site_fract_z
 _atom_site_occupancy
  Pr  Pr0  1  0.750359  0.750359  0.749641  1
  Pr  Pr1  1  0.250359  0.250359  0.249641  1
  Si  Si2  1  0.264074  0.736308  0.263692  1
  Si  Si3  1  0.736308  0.264074  0.263692  1
  Si  Si4  1  0.264058  0.264058  0.735942  1
  Si  Si5  1  0.736308  0.264074  0.735926  1
  Si  Si6  1  0.264074  0.736308  0.735926  1
  As  As7  1  0.736723  0.736723  0.263277  1
  Pd  Pd8  1  0.001005  0.001005  0.998995  1
  Pd  Pd9  1  0.611807  0.611807  0.156086  1
  Pd  Pd10  1  0.613581  0.156936  0.614742  1
  Pd  Pd11  1  0.156936  0.613581  0.614742  1
  Pd  Pd12  1  0.611807  0.611807  0.620302  1
  Pd  Pd13  1  0.385258  0.385258  0.843064  1
  Pd  Pd14  1  0.379698  0.843914  0.388193  1
  Pd  Pd15  1  0.843914  0.379698  0.388193  1
  Pd  Pd16  1  0.385258  0.385258  0.386419  1
  Pd  Pd17  1  0.000488  0.000488  0.344112  1
  Pd  Pd18  1  0.653854  0.006302  0.346146  1
  Pd  Pd19  1  0.006302  0.653854  0.346146  1
  Pd  Pd20  1  0.655888  0.345089  0.999512  1
  Pd  Pd21  1  0.999554  0.343549  0.000446  1
  Pd  Pd22  1  0.999554  0.343549  0.656451  1
  Pd  Pd23  1  0.345089  0.655888  0.999512  1
  Pd  Pd24  1  0.343549  0.999554  0.656451  1
  Pd  Pd25  1  0.343549  0.999554  0.000446  1
  Pd  Pd26  1  0.000488  0.000488  0.654911  1
  Pd  Pd27  1  0.006302  0.653854  0.993698  1
  Pd  Pd28  1  0.653854  0.006302  0.993698  1
