# generated using pymatgen
data_YTh2(AgSn)3
_symmetry_space_group_name_H-M   'P 1'
_cell_length_a   4.74752100
_cell_length_b   4.74752093
_cell_length_c   11.70896400
_cell_angle_alpha   90.00000000
_cell_angle_beta   90.00000000
_cell_angle_gamma   119.99999351
_symmetry_Int_Tables_number   1
_chemical_formula_structural   YTh2(AgSn)3
_chemical_formula_sum   'Y1 Th2 Ag3 Sn3'
_cell_volume   228.55088821
_cell_formula_units_Z   1
loop_
 _symmetry_equiv_pos_site_id
 _symmetry_equiv_pos_as_xyz
  1  'x, y, z'
loop_
 _atom_site_type_symbol
 _atom_site_label
 _atom_site_symmetry_multiplicity
 _atom_site_fract_x
 _atom_site_fract_y
 _atom_site_fract_z
 _atom_site_occupancy
  Y  Y0  1  0.000000  0.000000  0.160317  1
  Th  Th1  1  0.000000  0.000000  0.830408  1
  Th  Th2  1  0.000000  0.000000  0.487681  1
  Ag  Ag3  1  0.666667  0.333333  0.038709  1
  Ag  Ag4  1  0.333333  0.666667  0.624218  1
  Ag  Ag5  1  0.333333  0.666667  0.357384  1
  Sn  Sn6  1  0.666667  0.333333  0.674323  1
  Sn  Sn7  1  0.666667  0.333333  0.301072  1
  Sn  Sn8  1  0.333333  0.666667  0.981887  1
