# generated using pymatgen
data_Hf7Ta(Rh2N)2
_symmetry_space_group_name_H-M   'P 1'
_cell_length_a   8.72581925
_cell_length_b   8.67678068
_cell_length_c   8.67677900
_cell_angle_alpha   59.59127374
_cell_angle_beta   59.81286719
_cell_angle_gamma   59.81286800
_symmetry_Int_Tables_number   1
_chemical_formula_structural   Hf7Ta(Rh2N)2
_chemical_formula_sum   'Hf14 Ta2 Rh8 N4'
_cell_volume   461.76631553
_cell_formula_units_Z   2
loop_
 _symmetry_equiv_pos_site_id
 _symmetry_equiv_pos_as_xyz
  1  'x, y, z'
loop_
 _atom_site_type_symbol
 _atom_site_label
 _atom_site_symmetry_multiplicity
 _atom_site_fract_x
 _atom_site_fract_y
 _atom_site_fract_z
 _atom_site_occupancy
  Hf  Hf0  1  0.625000  0.125000  0.625000  1
  Hf  Hf1  1  0.625000  0.625000  0.125000  1
  Hf  Hf2  1  0.815642  0.815872  0.185054  1
  Hf  Hf3  1  0.183432  0.185054  0.815872  1
  Hf  Hf4  1  0.815642  0.185054  0.815872  1
  Hf  Hf5  1  0.183432  0.815872  0.185054  1
  Hf  Hf6  1  0.185793  0.814207  0.814207  1
  Hf  Hf7  1  0.817415  0.182585  0.182585  1
  Hf  Hf8  1  0.434358  0.434128  0.064946  1
  Hf  Hf9  1  0.066568  0.064946  0.434128  1
  Hf  Hf10  1  0.434358  0.064946  0.434128  1
  Hf  Hf11  1  0.066568  0.434128  0.064946  1
  Hf  Hf12  1  0.064207  0.435793  0.435793  1
  Hf  Hf13  1  0.432585  0.067415  0.067415  1
  Ta  Ta14  1  0.125000  0.625000  0.625000  1
  Ta  Ta15  1  0.625000  0.625000  0.625000  1
  Rh  Rh16  1  0.768929  0.413193  0.413193  1
  Rh  Rh17  1  0.409801  0.762976  0.417422  1
  Rh  Rh18  1  0.409801  0.417422  0.762976  1
  Rh  Rh19  1  0.404687  0.413193  0.413193  1
  Rh  Rh20  1  0.481071  0.836807  0.836807  1
  Rh  Rh21  1  0.840199  0.487024  0.832578  1
  Rh  Rh22  1  0.840199  0.832578  0.487024  1
  Rh  Rh23  1  0.845313  0.836807  0.836807  1
  N  N24  1  0.625000  0.125000  0.125000  1
  N  N25  1  0.125000  0.625000  0.125000  1
  N  N26  1  0.125000  0.125000  0.625000  1
  N  N27  1  0.125000  0.125000  0.125000  1
