# generated using pymatgen
data_Cs2VFeP6(HO10)2
_symmetry_space_group_name_H-M   'P 1'
_cell_length_a   8.84975305
_cell_length_b   9.19477312
_cell_length_c   12.28562700
_cell_angle_alpha   69.04856361
_cell_angle_beta   89.99397892
_cell_angle_gamma   90.00321219
_symmetry_Int_Tables_number   1
_chemical_formula_structural   Cs2VFeP6(HO10)2
_chemical_formula_sum   'Cs4 V2 Fe2 P12 H4 O40'
_cell_volume   933.60324319
_cell_formula_units_Z   2
loop_
 _symmetry_equiv_pos_site_id
 _symmetry_equiv_pos_as_xyz
  1  'x, y, z'
loop_
 _atom_site_type_symbol
 _atom_site_label
 _atom_site_symmetry_multiplicity
 _atom_site_fract_x
 _atom_site_fract_y
 _atom_site_fract_z
 _atom_site_occupancy
  Cs  Cs0  1  0.563134  0.249913  0.500039  1
  Cs  Cs1  1  0.063792  0.249912  0.000016  1
  Cs  Cs2  1  0.436251  0.750086  0.499988  1
  Cs  Cs3  1  0.936892  0.750069  0.999928  1
  V  V4  1  0.250027  0.500022  0.250031  1
  V  V5  1  0.250009  0.000090  0.750011  1
  Fe  Fe6  1  0.749896  0.500063  0.750024  1
  Fe  Fe7  1  0.749946  0.999969  0.249992  1
  P  P8  1  0.124152  0.249912  0.500005  1
  P  P9  1  0.624108  0.249973  0.999979  1
  P  P10  1  0.875900  0.750042  0.500029  1
  P  P11  1  0.375867  0.750052  0.000015  1
  P  P12  1  0.939109  0.200604  0.707432  1
  P  P13  1  0.439764  0.199849  0.207743  1
  P  P14  1  0.939118  0.299267  0.292554  1
  P  P15  1  0.439704  0.300158  0.792234  1
  P  P16  1  0.060169  0.800113  0.292243  1
  P  P17  1  0.560865  0.799446  0.792577  1
  P  P18  1  0.060274  0.699886  0.707768  1
  P  P19  1  0.560931  0.700677  0.207444  1
  H  H20  1  0.249897  0.999844  0.250057  1
  H  H21  1  0.750055  0.000042  0.749956  1
  H  H22  1  0.750048  0.499968  0.249999  1
  H  H23  1  0.249966  0.500069  0.749974  1
  O  O24  1  0.013890  0.195993  0.417693  1
  O  O25  1  0.514612  0.195875  0.917806  1
  O  O26  1  0.013963  0.303914  0.582326  1
  O  O27  1  0.514708  0.304135  0.082140  1
  O  O28  1  0.985409  0.804154  0.582159  1
  O  O29  1  0.486159  0.803973  0.082333  1
  O  O30  1  0.985353  0.695890  0.417860  1
  O  O31  1  0.486046  0.696075  0.917666  1
  O  O32  1  0.817537  0.102558  0.676847  1
  O  O33  1  0.317636  0.102739  0.176823  1
  O  O34  1  0.817354  0.397195  0.323084  1
  O  O35  1  0.317553  0.397226  0.823171  1
  O  O36  1  0.182344  0.897235  0.323144  1
  O  O37  1  0.682510  0.897410  0.823145  1
  O  O38  1  0.182486  0.602828  0.676813  1
  O  O39  1  0.682713  0.602817  0.176922  1
  O  O40  1  0.878864  0.317573  0.757791  1
  O  O41  1  0.378546  0.316112  0.258471  1
  O  O42  1  0.879067  0.182283  0.242139  1
  O  O43  1  0.378495  0.183955  0.741464  1
  O  O44  1  0.121420  0.683872  0.241511  1
  O  O45  1  0.621061  0.682515  0.742138  1
  O  O46  1  0.121506  0.816069  0.758526  1
  O  O47  1  0.620932  0.817657  0.257863  1
  O  O48  1  0.213110  0.391830  0.428530  1
  O  O49  1  0.713633  0.391405  0.926636  1
  O  O50  1  0.213084  0.108039  0.571444  1
  O  O51  1  0.713670  0.108619  0.073264  1
  O  O52  1  0.786386  0.608606  0.573364  1
  O  O53  1  0.286933  0.608120  0.071493  1
  O  O54  1  0.786334  0.891395  0.426736  1
  O  O55  1  0.286908  0.891916  0.928602  1
  O  O56  1  0.064329  0.397906  0.213227  1
  O  O57  1  0.565308  0.397564  0.713686  1
  O  O58  1  0.064310  0.102058  0.786811  1
  O  O59  1  0.565394  0.102548  0.286288  1
  O  O60  1  0.934642  0.602478  0.786313  1
  O  O61  1  0.435698  0.602038  0.286792  1
  O  O62  1  0.934558  0.897423  0.213726  1
  O  O63  1  0.435668  0.897976  0.713219  1
