# generated using pymatgen
data_Ba6CdNi4O15
_symmetry_space_group_name_H-M   'P 1'
_cell_length_a   7.25550346
_cell_length_b   7.25560953
_cell_length_c   7.25552507
_cell_angle_alpha   87.41732917
_cell_angle_beta   87.41561461
_cell_angle_gamma   87.41638107
_symmetry_Int_Tables_number   1
_chemical_formula_structural   Ba6CdNi4O15
_chemical_formula_sum   'Ba6 Cd1 Ni4 O15'
_cell_volume   380.82251852
_cell_formula_units_Z   1
loop_
 _symmetry_equiv_pos_site_id
 _symmetry_equiv_pos_as_xyz
  1  'x, y, z'
loop_
 _atom_site_type_symbol
 _atom_site_label
 _atom_site_symmetry_multiplicity
 _atom_site_fract_x
 _atom_site_fract_y
 _atom_site_fract_z
 _atom_site_occupancy
  Ba  Ba0  1  0.337719  0.662274  0.999995  1
  Ba  Ba1  1  0.999996  0.337720  0.662273  1
  Ba  Ba2  1  0.662275  0.999995  0.337719  1
  Ba  Ba3  1  0.147171  0.852833  0.500001  1
  Ba  Ba4  1  0.500002  0.147171  0.852835  1
  Ba  Ba5  1  0.852833  0.500003  0.147172  1
  Cd  Cd6  1  0.500000  0.499999  0.500000  1
  Ni  Ni7  1  0.283367  0.283360  0.283366  1
  Ni  Ni8  1  0.716650  0.716652  0.716657  1
  Ni  Ni9  1  0.092883  0.092884  0.092881  1
  Ni  Ni10  1  0.907110  0.907110  0.907108  1
  O  O11  1  0.143364  0.000002  0.856645  1
  O  O12  1  0.856645  0.143363  0.000002  1
  O  O13  1  0.000003  0.856647  0.143362  1
  O  O14  1  0.033149  0.188528  0.326452  1
  O  O15  1  0.326454  0.033151  0.188526  1
  O  O16  1  0.188525  0.326455  0.033147  1
  O  O17  1  0.811476  0.966846  0.673545  1
  O  O18  1  0.673547  0.811475  0.966844  1
  O  O19  1  0.966846  0.673547  0.811474  1
  O  O20  1  0.358567  0.213839  0.520648  1
  O  O21  1  0.520645  0.358567  0.213840  1
  O  O22  1  0.213839  0.520646  0.358570  1
  O  O23  1  0.786156  0.641424  0.479356  1
  O  O24  1  0.479356  0.786155  0.641425  1
  O  O25  1  0.641424  0.479354  0.786157  1
