# generated using pymatgen
data_Sr4GaGe5Au2
_symmetry_space_group_name_H-M   'P 1'
_cell_length_a   8.90288253
_cell_length_b   8.79200613
_cell_length_c   6.39142082
_cell_angle_alpha   69.75578990
_cell_angle_beta   67.90199872
_cell_angle_gamma   42.34220514
_symmetry_Int_Tables_number   1
_chemical_formula_structural   Sr4GaGe5Au2
_chemical_formula_sum   'Sr4 Ga1 Ge5 Au2'
_cell_volume   310.35921429
_cell_formula_units_Z   1
loop_
 _symmetry_equiv_pos_site_id
 _symmetry_equiv_pos_as_xyz
  1  'x, y, z'
loop_
 _atom_site_type_symbol
 _atom_site_label
 _atom_site_symmetry_multiplicity
 _atom_site_fract_x
 _atom_site_fract_y
 _atom_site_fract_z
 _atom_site_occupancy
  Sr  Sr0  1  0.252029  0.749960  0.250040  1
  Sr  Sr1  1  0.248979  0.248979  0.251022  1
  Sr  Sr2  1  0.748978  0.748979  0.751022  1
  Sr  Sr3  1  0.749959  0.252029  0.747971  1
  Ga  Ga4  1  0.835055  0.835056  0.164944  1
  Ge  Ge5  1  0.831363  0.332305  0.168636  1
  Ge  Ge6  1  0.671993  0.161126  0.328006  1
  Ge  Ge7  1  0.332305  0.831364  0.667695  1
  Ge  Ge8  1  0.161126  0.671994  0.838874  1
  Ge  Ge9  1  0.164951  0.164951  0.835049  1
  Au  Au10  1  0.668155  0.668156  0.331844  1
  Au  Au11  1  0.335104  0.335104  0.664896  1
