# generated using pymatgen
data_Ho2ErTm2P12Ru19
_symmetry_space_group_name_H-M   'P 1'
_cell_length_a   12.51491200
_cell_length_b   12.51531325
_cell_length_c   3.96930600
_cell_angle_alpha   90.00000000
_cell_angle_beta   90.00000000
_cell_angle_gamma   120.00106411
_symmetry_Int_Tables_number   1
_chemical_formula_structural   Ho2ErTm2P12Ru19
_chemical_formula_sum   'Ho2 Er1 Tm2 P12 Ru19'
_cell_volume   538.40623430
_cell_formula_units_Z   1
loop_
 _symmetry_equiv_pos_site_id
 _symmetry_equiv_pos_as_xyz
  1  'x, y, z'
loop_
 _atom_site_type_symbol
 _atom_site_label
 _atom_site_symmetry_multiplicity
 _atom_site_fract_x
 _atom_site_fract_y
 _atom_site_fract_z
 _atom_site_occupancy
  Ho  Ho0  1  0.183475  0.183473  0.500000  1
  Ho  Ho1  1  0.816525  0.999998  0.500000  1
  Er  Er2  1  0.000000  0.816533  0.500000  1
  Tm  Tm3  1  0.333341  0.666669  0.000000  1
  Tm  Tm4  1  0.666659  0.333327  0.000000  1
  P  P5  1  0.816041  0.815980  0.000000  1
  P  P6  1  0.183959  0.999939  0.000000  1
  P  P7  1  0.000000  0.184032  0.000000  1
  P  P8  1  0.171363  0.478346  0.500000  1
  P  P9  1  0.521657  0.693015  0.500000  1
  P  P10  1  0.307002  0.828644  0.500000  1
  P  P11  1  0.692998  0.521642  0.500000  1
  P  P12  1  0.828637  0.306983  0.500000  1
  P  P13  1  0.478343  0.171358  0.500000  1
  P  P14  1  0.372086  0.372086  0.000000  1
  P  P15  1  0.627914  0.000000  0.000000  1
  P  P16  1  0.000000  0.627961  0.000000  1
  Ru  Ru17  1  0.554364  0.554364  0.000000  1
  Ru  Ru18  1  0.445636  0.000000  0.000000  1
  Ru  Ru19  1  0.000000  0.445642  0.000000  1
  Ru  Ru20  1  0.717132  0.717072  0.500000  1
  Ru  Ru21  1  0.282868  0.999940  0.500000  1
  Ru  Ru22  1  0.000000  0.282973  0.500000  1
  Ru  Ru23  1  0.184825  0.377227  0.000000  1
  Ru  Ru24  1  0.622774  0.807608  0.000000  1
  Ru  Ru25  1  0.192256  0.815148  0.000000  1
  Ru  Ru26  1  0.807744  0.622893  0.000000  1
  Ru  Ru27  1  0.815175  0.192402  0.000000  1
  Ru  Ru28  1  0.377226  0.184834  0.000000  1
  Ru  Ru29  1  0.365567  0.492095  0.500000  1
  Ru  Ru30  1  0.507906  0.873469  0.500000  1
  Ru  Ru31  1  0.126503  0.634450  0.500000  1
  Ru  Ru32  1  0.873497  0.507948  0.500000  1
  Ru  Ru33  1  0.634433  0.126529  0.500000  1
  Ru  Ru34  1  0.492094  0.365564  0.500000  1
  Ru  Ru35  1  0.000000  0.999855  0.000000  1
