# generated using pymatgen
data_HoErTcB8Ru
_symmetry_space_group_name_H-M   'P 1'
_cell_length_a   3.56780000
_cell_length_b   5.95302481
_cell_length_c   11.51424346
_cell_angle_alpha   90.16196243
_cell_angle_beta   90.00000000
_cell_angle_gamma   90.00000000
_symmetry_Int_Tables_number   1
_chemical_formula_structural   HoErTcB8Ru
_chemical_formula_sum   'Ho2 Er2 Tc2 B16 Ru2'
_cell_volume   244.55236459
_cell_formula_units_Z   2
loop_
 _symmetry_equiv_pos_site_id
 _symmetry_equiv_pos_as_xyz
  1  'x, y, z'
loop_
 _atom_site_type_symbol
 _atom_site_label
 _atom_site_symmetry_multiplicity
 _atom_site_fract_x
 _atom_site_fract_y
 _atom_site_fract_z
 _atom_site_occupancy
  Ho  Ho0  1  0.000000  0.628874  0.351370  1
  Ho  Ho1  1  0.000000  0.371126  0.648630  1
  Er  Er2  1  0.000000  0.129116  0.150831  1
  Er  Er3  1  0.000000  0.870884  0.849169  1
  Tc  Tc4  1  0.000000  0.633544  0.088404  1
  Tc  Tc5  1  0.000000  0.366456  0.911596  1
  B  B6  1  0.500000  0.790437  0.185416  1
  B  B7  1  0.500000  0.209563  0.814584  1
  B  B8  1  0.500000  0.290175  0.314889  1
  B  B9  1  0.500000  0.709825  0.685111  1
  B  B10  1  0.500000  0.865344  0.031028  1
  B  B11  1  0.500000  0.134656  0.968972  1
  B  B12  1  0.500000  0.364202  0.469391  1
  B  B13  1  0.500000  0.635798  0.530609  1
  B  B14  1  0.500000  0.887576  0.452910  1
  B  B15  1  0.500000  0.112424  0.547090  1
  B  B16  1  0.500000  0.387067  0.047388  1
  B  B17  1  0.500000  0.612933  0.952612  1
  B  B18  1  0.500000  0.977139  0.307975  1
  B  B19  1  0.500000  0.022861  0.692025  1
  B  B20  1  0.500000  0.478315  0.192895  1
  B  B21  1  0.500000  0.521685  0.807105  1
  Ru  Ru22  1  0.000000  0.140907  0.407555  1
  Ru  Ru23  1  0.000000  0.859093  0.592445  1
