# generated using pymatgen
data_CsGeF5
_symmetry_space_group_name_H-M   'P 1'
_cell_length_a   6.72045300
_cell_length_b   5.35366615
_cell_length_c   14.58976505
_cell_angle_alpha   83.09356166
_cell_angle_beta   90.00000000
_cell_angle_gamma   90.00000000
_symmetry_Int_Tables_number   1
_chemical_formula_structural   CsGeF5
_chemical_formula_sum   'Cs4 Ge4 F20'
_cell_volume   521.11710760
_cell_formula_units_Z   4
loop_
 _symmetry_equiv_pos_site_id
 _symmetry_equiv_pos_as_xyz
  1  'x, y, z'
loop_
 _atom_site_type_symbol
 _atom_site_label
 _atom_site_symmetry_multiplicity
 _atom_site_fract_x
 _atom_site_fract_y
 _atom_site_fract_z
 _atom_site_occupancy
  Cs  Cs0  1  0.121980  0.407981  0.654872  1
  Cs  Cs1  1  0.378020  0.407981  0.154872  1
  Cs  Cs2  1  0.621980  0.592019  0.845128  1
  Cs  Cs3  1  0.878020  0.592019  0.345128  1
  Ge  Ge4  1  0.121991  0.968979  0.909763  1
  Ge  Ge5  1  0.621991  0.031021  0.590237  1
  Ge  Ge6  1  0.878009  0.031021  0.090237  1
  Ge  Ge7  1  0.378009  0.968979  0.409763  1
  F  F8  1  0.083983  0.196465  0.005971  1
  F  F9  1  0.583983  0.803535  0.494029  1
  F  F10  1  0.416017  0.196465  0.505971  1
  F  F11  1  0.916017  0.803535  0.994029  1
  F  F12  1  0.693710  0.192983  0.016933  1
  F  F13  1  0.695535  0.829818  0.149843  1
  F  F14  1  0.304465  0.170182  0.850157  1
  F  F15  1  0.578665  0.131946  0.346822  1
  F  F16  1  0.078665  0.868054  0.153178  1
  F  F17  1  0.112681  0.722017  0.837387  1
  F  F18  1  0.387319  0.722017  0.337387  1
  F  F19  1  0.195535  0.170182  0.350157  1
  F  F20  1  0.193710  0.807017  0.483067  1
  F  F21  1  0.306290  0.807017  0.983067  1
  F  F22  1  0.887319  0.277983  0.162613  1
  F  F23  1  0.421335  0.868054  0.653178  1
  F  F24  1  0.921335  0.131946  0.846822  1
  F  F25  1  0.806290  0.192983  0.516933  1
  F  F26  1  0.612681  0.277983  0.662613  1
  F  F27  1  0.804465  0.829818  0.649843  1
