# generated using pymatgen
data_Y3Ga7Ag3Au
_symmetry_space_group_name_H-M   'P 1'
_cell_length_a   4.35971292
_cell_length_b   8.37538449
_cell_length_c   8.39128752
_cell_angle_alpha   70.95402885
_cell_angle_beta   74.94321599
_cell_angle_gamma   74.91395084
_symmetry_Int_Tables_number   1
_chemical_formula_structural   Y3Ga7Ag3Au
_chemical_formula_sum   'Y3 Ga7 Ag3 Au1'
_cell_volume   274.46724810
_cell_formula_units_Z   1
loop_
 _symmetry_equiv_pos_site_id
 _symmetry_equiv_pos_as_xyz
  1  'x, y, z'
loop_
 _atom_site_type_symbol
 _atom_site_label
 _atom_site_symmetry_multiplicity
 _atom_site_fract_x
 _atom_site_fract_y
 _atom_site_fract_z
 _atom_site_occupancy
  Y  Y0  1  0.996933  0.002377  0.003758  1
  Y  Y1  1  0.299242  0.692058  0.709457  1
  Y  Y2  1  0.702518  0.295707  0.299256  1
  Ga  Ga3  1  0.657001  0.714420  0.971578  1
  Ga  Ga4  1  0.339829  0.028783  0.291559  1
  Ga  Ga5  1  0.659695  0.970427  0.710183  1
  Ga  Ga6  1  0.142169  0.579864  0.135798  1
  Ga  Ga7  1  0.859459  0.420119  0.860963  1
  Ga  Ga8  1  0.143989  0.135095  0.576928  1
  Ga  Ga9  1  0.855193  0.862512  0.427102  1
  Ag  Ag10  1  0.506819  0.305213  0.681148  1
  Ag  Ag11  1  0.499536  0.696601  0.304327  1
  Ag  Ag12  1  0.998460  0.504810  0.498270  1
  Au  Au13  1  0.339156  0.292013  0.029674  1
