# generated using pymatgen
data_Er2TmBC3
_symmetry_space_group_name_H-M   'P 1'
_cell_length_a   3.58981970
_cell_length_b   3.58982111
_cell_length_c   15.83557100
_cell_angle_alpha   90.00000000
_cell_angle_beta   90.00000000
_cell_angle_gamma   90.45065182
_symmetry_Int_Tables_number   1
_chemical_formula_structural   Er2TmBC3
_chemical_formula_sum   'Er4 Tm2 B2 C6'
_cell_volume   204.06369079
_cell_formula_units_Z   2
loop_
 _symmetry_equiv_pos_site_id
 _symmetry_equiv_pos_as_xyz
  1  'x, y, z'
loop_
 _atom_site_type_symbol
 _atom_site_label
 _atom_site_symmetry_multiplicity
 _atom_site_fract_x
 _atom_site_fract_y
 _atom_site_fract_z
 _atom_site_occupancy
  Er  Er0  1  0.584309  0.415691  0.102772  1
  Er  Er1  1  0.584309  0.415691  0.397228  1
  Er  Er2  1  0.415691  0.584309  0.602772  1
  Er  Er3  1  0.415691  0.584309  0.897228  1
  Tm  Tm4  1  0.089536  0.910465  0.250000  1
  Tm  Tm5  1  0.910465  0.089536  0.750000  1
  B  B6  1  0.000000  0.000000  0.000000  1
  B  B7  1  0.000000  0.000000  0.500000  1
  C  C8  1  0.096270  0.903731  0.086970  1
  C  C9  1  0.595561  0.404440  0.250000  1
  C  C10  1  0.096270  0.903731  0.413029  1
  C  C11  1  0.903731  0.096270  0.586970  1
  C  C12  1  0.404440  0.595561  0.750000  1
  C  C13  1  0.903731  0.096270  0.913030  1
