# generated using pymatgen
data_TbNd5TaMoO14
_symmetry_space_group_name_H-M   'P 1'
_cell_length_a   6.67671863
_cell_length_b   6.61494402
_cell_length_c   7.69112533
_cell_angle_alpha   89.80284965
_cell_angle_beta   90.25196669
_cell_angle_gamma   108.91495843
_symmetry_Int_Tables_number   1
_chemical_formula_structural   TbNd5TaMoO14
_chemical_formula_sum   'Tb1 Nd5 Ta1 Mo1 O14'
_cell_volume   321.34047891
_cell_formula_units_Z   1
loop_
 _symmetry_equiv_pos_site_id
 _symmetry_equiv_pos_as_xyz
  1  'x, y, z'
loop_
 _atom_site_type_symbol
 _atom_site_label
 _atom_site_symmetry_multiplicity
 _atom_site_fract_x
 _atom_site_fract_y
 _atom_site_fract_z
 _atom_site_occupancy
  Tb  Tb0  1  0.002908  0.535676  0.248592  1
  Nd  Nd1  1  0.522416  0.519442  0.498679  1
  Nd  Nd2  1  0.531200  0.525088  0.000491  1
  Nd  Nd3  1  0.005289  0.460194  0.753861  1
  Nd  Nd4  1  0.532696  0.003220  0.748343  1
  Nd  Nd5  1  0.465177  0.003185  0.249526  1
  Ta  Ta6  1  0.001420  0.001394  0.001362  1
  Mo  Mo7  1  0.001198  0.999584  0.497970  1
  O  O8  1  0.940163  0.060080  0.751133  1
  O  O9  1  0.062862  0.931788  0.248614  1
  O  O10  1  0.353962  0.631296  0.249591  1
  O  O11  1  0.642256  0.371345  0.749292  1
  O  O12  1  0.368883  0.629777  0.750198  1
  O  O13  1  0.643725  0.378175  0.251214  1
  O  O14  1  0.309652  0.073600  0.968525  1
  O  O15  1  0.677007  0.915041  0.473499  1
  O  O16  1  0.315114  0.078364  0.526276  1
  O  O17  1  0.678957  0.916226  0.026557  1
  O  O18  1  0.044569  0.300236  0.462303  1
  O  O19  1  0.930992  0.679322  0.975411  1
  O  O20  1  0.934111  0.685982  0.526031  1
  O  O21  1  0.035441  0.300985  0.042530  1
