# generated using pymatgen
data_TbNd5Al21Si3Os8
_symmetry_space_group_name_H-M   'P 1'
_cell_length_a   8.81046069
_cell_length_b   8.81046099
_cell_length_c   9.75020005
_cell_angle_alpha   89.98967750
_cell_angle_beta   90.01032285
_cell_angle_gamma   120.04408433
_symmetry_Int_Tables_number   1
_chemical_formula_structural   TbNd5Al21Si3Os8
_chemical_formula_sum   'Tb1 Nd5 Al21 Si3 Os8'
_cell_volume   655.16140252
_cell_formula_units_Z   1
loop_
 _symmetry_equiv_pos_site_id
 _symmetry_equiv_pos_as_xyz
  1  'x, y, z'
loop_
 _atom_site_type_symbol
 _atom_site_label
 _atom_site_symmetry_multiplicity
 _atom_site_fract_x
 _atom_site_fract_y
 _atom_site_fract_z
 _atom_site_occupancy
  Tb  Tb0  1  0.804616  0.195384  0.752952  1
  Nd  Nd1  1  0.192702  0.385291  0.247927  1
  Nd  Nd2  1  0.806983  0.613603  0.752771  1
  Nd  Nd3  1  0.614709  0.807298  0.247927  1
  Nd  Nd4  1  0.386397  0.193017  0.752771  1
  Nd  Nd5  1  0.192847  0.807153  0.247872  1
  Al  Al6  1  0.333564  0.666436  0.481238  1
  Al  Al7  1  0.163173  0.328161  0.572935  1
  Al  Al8  1  0.834642  0.669106  0.426427  1
  Al  Al9  1  0.671839  0.836827  0.572935  1
  Al  Al10  1  0.834589  0.669053  0.074410  1
  Al  Al11  1  0.330894  0.165358  0.426427  1
  Al  Al12  1  0.164503  0.330702  0.924253  1
  Al  Al13  1  0.164502  0.835498  0.572453  1
  Al  Al14  1  0.330947  0.165411  0.074410  1
  Al  Al15  1  0.834714  0.165286  0.427496  1
  Al  Al16  1  0.669298  0.835497  0.924253  1
  Al  Al17  1  0.834700  0.165300  0.073172  1
  Al  Al18  1  0.165787  0.834213  0.924729  1
  Al  Al19  1  0.564746  0.128993  0.248732  1
  Al  Al20  1  0.437536  0.873035  0.748562  1
  Al  Al21  1  0.871007  0.435254  0.248732  1
  Al  Al22  1  0.126965  0.562464  0.748562  1
  Al  Al23  1  0.564647  0.435353  0.248726  1
  Al  Al24  1  0.435836  0.564164  0.748558  1
  Al  Al25  1  0.000085  0.999915  0.248633  1
  Al  Al26  1  0.998024  0.001976  0.749421  1
  Si  Si27  1  0.333540  0.666460  0.032835  1
  Si  Si28  1  0.667435  0.332565  0.965616  1
  Si  Si29  1  0.667353  0.332647  0.535897  1
  Os  Os30  1  0.500677  0.999897  0.998223  1
  Os  Os31  1  0.000103  0.499323  0.998223  1
  Os  Os32  1  0.505197  0.008916  0.501940  1
  Os  Os33  1  0.499871  0.500129  0.998690  1
  Os  Os34  1  0.991084  0.494803  0.501940  1
  Os  Os35  1  0.504536  0.495464  0.501413  1
  Os  Os36  1  0.999933  0.000067  0.998489  1
  Os  Os37  1  0.000021  0.999979  0.499441  1
