# generated using pymatgen
data_Cs2AsO3F
_symmetry_space_group_name_H-M   'P 1'
_cell_length_a   6.71394200
_cell_length_b   8.75721200
_cell_length_c   11.44257300
_cell_angle_alpha   90.00000000
_cell_angle_beta   90.00000000
_cell_angle_gamma   90.00000000
_symmetry_Int_Tables_number   1
_chemical_formula_structural   Cs2AsO3F
_chemical_formula_sum   'Cs8 As4 O12 F4'
_cell_volume   672.77081046
_cell_formula_units_Z   4
loop_
 _symmetry_equiv_pos_site_id
 _symmetry_equiv_pos_as_xyz
  1  'x, y, z'
loop_
 _atom_site_type_symbol
 _atom_site_label
 _atom_site_symmetry_multiplicity
 _atom_site_fract_x
 _atom_site_fract_y
 _atom_site_fract_z
 _atom_site_occupancy
  Cs  Cs0  1  0.250000  0.015016  0.279966  1
  Cs  Cs1  1  0.750000  0.984984  0.720034  1
  Cs  Cs2  1  0.250000  0.515016  0.220034  1
  Cs  Cs3  1  0.750000  0.484984  0.779966  1
  Cs  Cs4  1  0.250000  0.186280  0.928706  1
  Cs  Cs5  1  0.750000  0.813720  0.071294  1
  Cs  Cs6  1  0.250000  0.686280  0.571294  1
  Cs  Cs7  1  0.750000  0.313720  0.428706  1
  As  As8  1  0.250000  0.240385  0.592839  1
  As  As9  1  0.750000  0.759615  0.407161  1
  As  As10  1  0.250000  0.740385  0.907161  1
  As  As11  1  0.750000  0.259615  0.092839  1
  O  O12  1  0.750000  0.671478  0.539026  1
  O  O13  1  0.250000  0.328522  0.460974  1
  O  O14  1  0.250000  0.828522  0.039026  1
  O  O15  1  0.750000  0.171478  0.960974  1
  O  O16  1  0.536571  0.744883  0.329325  1
  O  O17  1  0.036571  0.255117  0.670675  1
  O  O18  1  0.963429  0.244883  0.170675  1
  O  O19  1  0.463429  0.755117  0.829325  1
  O  O20  1  0.463429  0.255117  0.670675  1
  O  O21  1  0.963429  0.744883  0.329325  1
  O  O22  1  0.036571  0.755117  0.829325  1
  O  O23  1  0.536571  0.244883  0.170675  1
  F  F24  1  0.750000  0.464653  0.051849  1
  F  F25  1  0.250000  0.535347  0.948151  1
  F  F26  1  0.250000  0.035347  0.551849  1
  F  F27  1  0.750000  0.964653  0.448151  1
