# generated using pymatgen
data_Zr10Ga6Se
_symmetry_space_group_name_H-M   'P 1'
_cell_length_a   5.81504600
_cell_length_b   8.27420545
_cell_length_c   8.27427400
_cell_angle_alpha   120.00009856
_cell_angle_beta   90.00002822
_cell_angle_gamma   90.00002362
_symmetry_Int_Tables_number   1
_chemical_formula_structural   Zr10Ga6Se
_chemical_formula_sum   'Zr10 Ga6 Se1'
_cell_volume   344.77800601
_cell_formula_units_Z   1
loop_
 _symmetry_equiv_pos_site_id
 _symmetry_equiv_pos_as_xyz
  1  'x, y, z'
loop_
 _atom_site_type_symbol
 _atom_site_label
 _atom_site_symmetry_multiplicity
 _atom_site_fract_x
 _atom_site_fract_y
 _atom_site_fract_z
 _atom_site_occupancy
  Zr  Zr0  1  0.500002  0.333334  0.666666  1
  Zr  Zr1  1  0.499997  0.666665  0.333334  1
  Zr  Zr2  1  0.999996  0.666672  0.333338  1
  Zr  Zr3  1  0.999998  0.333338  0.666668  1
  Zr  Zr4  1  0.766528  0.258807  0.999893  1
  Zr  Zr5  1  0.766530  0.741092  0.741192  1
  Zr  Zr6  1  0.766535  0.000101  0.258915  1
  Zr  Zr7  1  0.233470  0.741089  0.999895  1
  Zr  Zr8  1  0.233466  0.258811  0.258913  1
  Zr  Zr9  1  0.233473  0.000099  0.741196  1
  Ga  Ga10  1  0.749411  0.610078  0.999809  1
  Ga  Ga11  1  0.749415  0.389729  0.389919  1
  Ga  Ga12  1  0.749408  0.000196  0.610277  1
  Ga  Ga13  1  0.250587  0.389727  0.999812  1
  Ga  Ga14  1  0.250591  0.610074  0.610267  1
  Ga  Ga15  1  0.250590  0.000195  0.389921  1
  Se  Se16  1  0.500001  0.999995  0.999984  1
