# generated using pymatgen
data_Dy2Er6InAgRh2
_symmetry_space_group_name_H-M   'P 1'
_cell_length_a   9.57791394
_cell_length_b   9.52742051
_cell_length_c   9.54026477
_cell_angle_alpha   59.88227153
_cell_angle_beta   59.67300875
_cell_angle_gamma   59.71703173
_symmetry_Int_Tables_number   1
_chemical_formula_structural   Dy2Er6InAgRh2
_chemical_formula_sum   'Dy4 Er12 In2 Ag2 Rh4'
_cell_volume   612.19504956
_cell_formula_units_Z   2
loop_
 _symmetry_equiv_pos_site_id
 _symmetry_equiv_pos_as_xyz
  1  'x, y, z'
loop_
 _atom_site_type_symbol
 _atom_site_label
 _atom_site_symmetry_multiplicity
 _atom_site_fract_x
 _atom_site_fract_y
 _atom_site_fract_z
 _atom_site_occupancy
  Dy  Dy0  1  0.187656  0.188963  0.812290  1
  Dy  Dy1  1  0.438500  0.060738  0.061218  1
  Dy  Dy2  1  0.435345  0.059652  0.436058  1
  Dy  Dy3  1  0.066012  0.437209  0.059660  1
  Er  Er4  1  0.651489  0.051302  0.646283  1
  Er  Er5  1  0.189361  0.811365  0.811925  1
  Er  Er6  1  0.065699  0.059268  0.437152  1
  Er  Er7  1  0.808118  0.190894  0.191452  1
  Er  Er8  1  0.812356  0.810687  0.190067  1
  Er  Er9  1  0.650388  0.646795  0.052140  1
  Er  Er10  1  0.651585  0.650152  0.650084  1
  Er  Er11  1  0.061761  0.436071  0.435483  1
  Er  Er12  1  0.050906  0.648606  0.647400  1
  Er  Er13  1  0.811732  0.190201  0.810525  1
  Er  Er14  1  0.436218  0.436981  0.059383  1
  Er  Er15  1  0.187864  0.811824  0.189430  1
  In  In16  1  0.744129  0.421150  0.421764  1
  In  In17  1  0.417836  0.421009  0.420160  1
  Ag  Ag18  1  0.415794  0.748940  0.418382  1
  Ag  Ag19  1  0.416804  0.418292  0.748937  1
  Rh  Rh20  1  0.857081  0.428683  0.857281  1
  Rh  Rh21  1  0.857501  0.857192  0.428288  1
  Rh  Rh22  1  0.428327  0.856956  0.857636  1
  Rh  Rh23  1  0.857540  0.857066  0.857001  1
