# generated using pymatgen
data_Er5Lu3Re(B8Ru)3
_symmetry_space_group_name_H-M   'P 1'
_cell_length_a   3.62439400
_cell_length_b   9.06694899
_cell_length_c   11.44952804
_cell_angle_alpha   90.12493004
_cell_angle_beta   90.00000000
_cell_angle_gamma   90.00000000
_symmetry_Int_Tables_number   1
_chemical_formula_structural   Er5Lu3Re(B8Ru)3
_chemical_formula_sum   'Er5 Lu3 Re1 B24 Ru3'
_cell_volume   376.25573449
_cell_formula_units_Z   1
loop_
 _symmetry_equiv_pos_site_id
 _symmetry_equiv_pos_as_xyz
  1  'x, y, z'
loop_
 _atom_site_type_symbol
 _atom_site_label
 _atom_site_symmetry_multiplicity
 _atom_site_fract_x
 _atom_site_fract_y
 _atom_site_fract_z
 _atom_site_occupancy
  Er  Er0  1  0.000000  0.322496  0.415223  1
  Er  Er1  1  0.000000  0.680483  0.588147  1
  Er  Er2  1  0.000000  0.821816  0.083253  1
  Er  Er3  1  0.000000  0.176953  0.913330  1
  Er  Er4  1  0.000000  0.943452  0.371438  1
  Lu  Lu5  1  0.000000  0.056274  0.628077  1
  Lu  Lu6  1  0.000000  0.442928  0.128020  1
  Lu  Lu7  1  0.000000  0.555781  0.872653  1
  Re  Re8  1  0.000000  0.861792  0.820795  1
  B  B9  1  0.500000  0.553741  0.433544  1
  B  B10  1  0.500000  0.446048  0.567026  1
  B  B11  1  0.500000  0.054135  0.067031  1
  B  B12  1  0.500000  0.947033  0.933421  1
  B  B13  1  0.500000  0.748706  0.419633  1
  B  B14  1  0.500000  0.250755  0.580412  1
  B  B15  1  0.500000  0.249799  0.080506  1
  B  B16  1  0.500000  0.749713  0.919516  1
  B  B17  1  0.500000  0.790463  0.265200  1
  B  B18  1  0.500000  0.208402  0.733620  1
  B  B19  1  0.500000  0.292364  0.234323  1
  B  B20  1  0.500000  0.707136  0.765650  1
  B  B21  1  0.500000  0.629893  0.184192  1
  B  B22  1  0.500000  0.369137  0.815294  1
  B  B23  1  0.500000  0.131990  0.315380  1
  B  B24  1  0.500000  0.869375  0.684726  1
  B  B25  1  0.500000  0.983132  0.212322  1
  B  B26  1  0.500000  0.018825  0.786898  1
  B  B27  1  0.500000  0.482088  0.287357  1
  B  B28  1  0.500000  0.517478  0.713169  1
  B  B29  1  0.500000  0.602727  0.029112  1
  B  B30  1  0.500000  0.395076  0.971503  1
  B  B31  1  0.500000  0.106115  0.471173  1
  B  B32  1  0.500000  0.895509  0.528927  1
  Ru  Ru33  1  0.000000  0.637177  0.320372  1
  Ru  Ru34  1  0.000000  0.361946  0.679284  1
  Ru  Ru35  1  0.000000  0.139263  0.179473  1
