# generated using pymatgen
data_Tb2Pr3Tm3(CdIr)2
_symmetry_space_group_name_H-M   'P 1'
_cell_length_a   9.74405014
_cell_length_b   9.74404960
_cell_length_c   9.74404900
_cell_angle_alpha   59.99999864
_cell_angle_beta   60.00000048
_cell_angle_gamma   59.99999848
_symmetry_Int_Tables_number   1
_chemical_formula_structural   Tb2Pr3Tm3(CdIr)2
_chemical_formula_sum   'Tb4 Pr6 Tm6 Cd4 Ir4'
_cell_volume   654.18931987
_cell_formula_units_Z   2
loop_
 _symmetry_equiv_pos_site_id
 _symmetry_equiv_pos_as_xyz
  1  'x, y, z'
loop_
 _atom_site_type_symbol
 _atom_site_label
 _atom_site_symmetry_multiplicity
 _atom_site_fract_x
 _atom_site_fract_y
 _atom_site_fract_z
 _atom_site_occupancy
  Tb  Tb0  1  0.347652  0.347652  0.347652  1
  Tb  Tb1  1  0.347652  0.347652  0.957045  1
  Tb  Tb2  1  0.347652  0.957045  0.347652  1
  Tb  Tb3  1  0.957045  0.347652  0.347652  1
  Pr  Pr4  1  0.941269  0.558731  0.558731  1
  Pr  Pr5  1  0.558731  0.941269  0.941269  1
  Pr  Pr6  1  0.558731  0.941269  0.558731  1
  Pr  Pr7  1  0.941269  0.558731  0.941269  1
  Pr  Pr8  1  0.558731  0.558731  0.941269  1
  Pr  Pr9  1  0.941269  0.941269  0.558731  1
  Tm  Tm10  1  0.814369  0.185631  0.185631  1
  Tm  Tm11  1  0.185631  0.814369  0.814369  1
  Tm  Tm12  1  0.185631  0.814369  0.185631  1
  Tm  Tm13  1  0.814369  0.185631  0.814369  1
  Tm  Tm14  1  0.185631  0.185631  0.814369  1
  Tm  Tm15  1  0.814369  0.814369  0.185631  1
  Cd  Cd16  1  0.579121  0.579121  0.579121  1
  Cd  Cd17  1  0.579121  0.579121  0.262636  1
  Cd  Cd18  1  0.579121  0.262636  0.579121  1
  Cd  Cd19  1  0.262636  0.579121  0.579121  1
  Ir  Ir20  1  0.140206  0.140206  0.140206  1
  Ir  Ir21  1  0.140206  0.140206  0.579380  1
  Ir  Ir22  1  0.140206  0.579380  0.140206  1
  Ir  Ir23  1  0.579380  0.140206  0.140206  1
