# generated using pymatgen
data_TaMn2Be8Al
_symmetry_space_group_name_H-M   'P 1'
_cell_length_a   4.33349100
_cell_length_b   4.33349050
_cell_length_c   7.08929100
_cell_angle_alpha   90.00000000
_cell_angle_beta   90.00000000
_cell_angle_gamma   119.99999621
_symmetry_Int_Tables_number   1
_chemical_formula_structural   TaMn2Be8Al
_chemical_formula_sum   'Ta1 Mn2 Be8 Al1'
_cell_volume   115.29466167
_cell_formula_units_Z   1
loop_
 _symmetry_equiv_pos_site_id
 _symmetry_equiv_pos_as_xyz
  1  'x, y, z'
loop_
 _atom_site_type_symbol
 _atom_site_label
 _atom_site_symmetry_multiplicity
 _atom_site_fract_x
 _atom_site_fract_y
 _atom_site_fract_z
 _atom_site_occupancy
  Ta  Ta0  1  0.666667  0.333333  0.562340  1
  Mn  Mn1  1  0.666667  0.333333  0.935132  1
  Mn  Mn2  1  0.333333  0.666667  0.445892  1
  Be  Be3  1  0.000000  0.000000  0.997645  1
  Be  Be4  1  0.000000  0.000000  0.489635  1
  Be  Be5  1  0.830450  0.660899  0.245431  1
  Be  Be6  1  0.168472  0.831528  0.755320  1
  Be  Be7  1  0.663055  0.831528  0.755320  1
  Be  Be8  1  0.339101  0.169550  0.245431  1
  Be  Be9  1  0.830450  0.169550  0.245431  1
  Be  Be10  1  0.168472  0.336945  0.755320  1
  Al  Al11  1  0.333333  0.666667  0.067105  1
