# generated using pymatgen
data_GdGa2Cu3
_symmetry_space_group_name_H-M   'P 1'
_cell_length_a   5.04114200
_cell_length_b   5.04114149
_cell_length_c   4.08895500
_cell_angle_alpha   90.00000000
_cell_angle_beta   90.00000000
_cell_angle_gamma   118.43720597
_symmetry_Int_Tables_number   1
_chemical_formula_structural   GdGa2Cu3
_chemical_formula_sum   'Gd1 Ga2 Cu3'
_cell_volume   91.37486473
_cell_formula_units_Z   1
loop_
 _symmetry_equiv_pos_site_id
 _symmetry_equiv_pos_as_xyz
  1  'x, y, z'
loop_
 _atom_site_type_symbol
 _atom_site_label
 _atom_site_symmetry_multiplicity
 _atom_site_fract_x
 _atom_site_fract_y
 _atom_site_fract_z
 _atom_site_occupancy
  Gd  Gd0  1  0.500000  0.500000  0.000000  1
  Ga  Ga1  1  0.000000  0.500000  0.500000  1
  Ga  Ga2  1  0.500000  0.000000  0.500000  1
  Cu  Cu3  1  0.163764  0.836236  0.000000  1
  Cu  Cu4  1  0.836236  0.163764  0.000000  1
  Cu  Cu5  1  0.000000  0.000000  0.500000  1
