# generated using pymatgen
data_Rb2Zr7Ti5(CI14)2
_symmetry_space_group_name_H-M   'P 1'
_cell_length_a   11.06538034
_cell_length_b   11.11091259
_cell_length_c   13.02586060
_cell_angle_alpha   89.66798122
_cell_angle_beta   90.14395276
_cell_angle_gamma   90.95762216
_symmetry_Int_Tables_number   1
_chemical_formula_structural   Rb2Zr7Ti5(CI14)2
_chemical_formula_sum   'Rb2 Zr7 Ti5 C2 I28'
_cell_volume   1601.22838958
_cell_formula_units_Z   1
loop_
 _symmetry_equiv_pos_site_id
 _symmetry_equiv_pos_as_xyz
  1  'x, y, z'
loop_
 _atom_site_type_symbol
 _atom_site_label
 _atom_site_symmetry_multiplicity
 _atom_site_fract_x
 _atom_site_fract_y
 _atom_site_fract_z
 _atom_site_occupancy
  Rb  Rb0  1  0.502826  0.496089  0.000763  1
  Rb  Rb1  1  0.000002  0.001209  0.496468  1
  Zr  Zr2  1  0.048736  0.836663  0.892567  1
  Zr  Zr3  1  0.547779  0.338562  0.607552  1
  Zr  Zr4  1  0.664129  0.453349  0.392546  1
  Zr  Zr5  1  0.451172  0.662973  0.393382  1
  Zr  Zr6  1  0.337645  0.548130  0.607008  1
  Zr  Zr7  1  0.837286  0.047792  0.892247  1
  Zr  Zr8  1  0.163020  0.951316  0.107587  1
  Ti  Ti9  1  0.384809  0.386685  0.413455  1
  Ti  Ti10  1  0.614813  0.614918  0.587422  1
  Ti  Ti11  1  0.114714  0.114305  0.913265  1
  Ti  Ti12  1  0.885544  0.885295  0.086997  1
  Ti  Ti13  1  0.956123  0.148464  0.097924  1
  C  C14  1  0.000630  0.997460  0.998600  1
  C  C15  1  0.500719  0.500565  0.499817  1
  I  I16  1  0.093930  0.334566  0.008297  1
  I  I17  1  0.899077  0.657746  0.996789  1
  I  I18  1  0.398091  0.158918  0.504606  1
  I  I19  1  0.842672  0.602364  0.498026  1
  I  I20  1  0.601252  0.842595  0.495501  1
  I  I21  1  0.156837  0.399810  0.503803  1
  I  I22  1  0.657619  0.898765  0.996390  1
  I  I23  1  0.342575  0.101169  0.003880  1
  I  I24  1  0.755370  0.250341  0.005136  1
  I  I25  1  0.256001  0.745417  0.000726  1
  I  I26  1  0.753917  0.245893  0.501172  1
  I  I27  1  0.244658  0.754652  0.500173  1
  I  I28  1  0.884644  0.394692  0.253209  1
  I  I29  1  0.111176  0.611513  0.751128  1
  I  I30  1  0.610691  0.112509  0.753179  1
  I  I31  1  0.386464  0.892259  0.251191  1
  I  I32  1  0.133143  0.144179  0.252833  1
  I  I33  1  0.857077  0.857841  0.739681  1
  I  I34  1  0.356791  0.357426  0.760293  1
  I  I35  1  0.640975  0.645434  0.240337  1
  I  I36  1  0.289230  0.530964  0.257870  1
  I  I37  1  0.710334  0.469960  0.743087  1
  I  I38  1  0.210752  0.970762  0.758207  1
  I  I39  1  0.028966  0.789416  0.242245  1
  I  I40  1  0.797170  0.035984  0.236242  1
  I  I41  1  0.970975  0.209920  0.757710  1
  I  I42  1  0.471030  0.709463  0.742060  1
  I  I43  1  0.528636  0.291670  0.258632  1
