# generated using pymatgen
data_Eu5Au4
_symmetry_space_group_name_H-M   'P 1'
_cell_length_a   8.33509600
_cell_length_b   8.01043093
_cell_length_c   8.30588452
_cell_angle_alpha   70.72903834
_cell_angle_beta   90.00000000
_cell_angle_gamma   90.00000000
_symmetry_Int_Tables_number   1
_chemical_formula_structural   Eu5Au4
_chemical_formula_sum   'Eu10 Au8'
_cell_volume   523.49170403
_cell_formula_units_Z   2
loop_
 _symmetry_equiv_pos_site_id
 _symmetry_equiv_pos_as_xyz
  1  'x, y, z'
loop_
 _atom_site_type_symbol
 _atom_site_label
 _atom_site_symmetry_multiplicity
 _atom_site_fract_x
 _atom_site_fract_y
 _atom_site_fract_z
 _atom_site_occupancy
  Eu  Eu0  1  0.321195  0.068860  0.307807  1
  Eu  Eu1  1  0.178805  0.568860  0.307807  1
  Eu  Eu2  1  0.821195  0.431140  0.692193  1
  Eu  Eu3  1  0.330396  0.252436  0.744214  1
  Eu  Eu4  1  0.000000  0.000000  0.000000  1
  Eu  Eu5  1  0.678805  0.931140  0.692193  1
  Eu  Eu6  1  0.830396  0.247564  0.255786  1
  Eu  Eu7  1  0.169604  0.752436  0.744214  1
  Eu  Eu8  1  0.669604  0.747564  0.255786  1
  Eu  Eu9  1  0.500000  0.500000  0.000000  1
  Au  Au10  1  0.868101  0.629922  0.987677  1
  Au  Au11  1  0.967073  0.855540  0.417359  1
  Au  Au12  1  0.131899  0.370078  0.012323  1
  Au  Au13  1  0.532927  0.355540  0.417359  1
  Au  Au14  1  0.368101  0.870078  0.012323  1
  Au  Au15  1  0.467073  0.644460  0.582641  1
  Au  Au16  1  0.032927  0.144460  0.582641  1
  Au  Au17  1  0.631899  0.129922  0.987677  1
