# generated using pymatgen
data_Sm4Er4Tc(B8Os)3
_symmetry_space_group_name_H-M   'P 1'
_cell_length_a   3.68052100
_cell_length_b   9.17574081
_cell_length_c   11.59612901
_cell_angle_alpha   89.94566707
_cell_angle_beta   90.00000000
_cell_angle_gamma   90.00000000
_symmetry_Int_Tables_number   1
_chemical_formula_structural   Sm4Er4Tc(B8Os)3
_chemical_formula_sum   'Sm4 Er4 Tc1 B24 Os3'
_cell_volume   391.61857286
_cell_formula_units_Z   1
loop_
 _symmetry_equiv_pos_site_id
 _symmetry_equiv_pos_as_xyz
  1  'x, y, z'
loop_
 _atom_site_type_symbol
 _atom_site_label
 _atom_site_symmetry_multiplicity
 _atom_site_fract_x
 _atom_site_fract_y
 _atom_site_fract_z
 _atom_site_occupancy
  Sm  Sm0  1  0.000000  0.323730  0.413289  1
  Sm  Sm1  1  0.000000  0.677333  0.583556  1
  Sm  Sm2  1  0.000000  0.820773  0.087350  1
  Sm  Sm3  1  0.000000  0.177323  0.915061  1
  Er  Er4  1  0.000000  0.942733  0.372030  1
  Er  Er5  1  0.000000  0.056802  0.628029  1
  Er  Er6  1  0.000000  0.444801  0.128777  1
  Er  Er7  1  0.000000  0.556430  0.871581  1
  Tc  Tc8  1  0.000000  0.638552  0.320028  1
  B  B9  1  0.500000  0.554430  0.431347  1
  B  B10  1  0.500000  0.444978  0.568789  1
  B  B11  1  0.500000  0.055162  0.068788  1
  B  B12  1  0.500000  0.944751  0.931628  1
  B  B13  1  0.500000  0.749187  0.417522  1
  B  B14  1  0.500000  0.250834  0.582340  1
  B  B15  1  0.500000  0.249443  0.082104  1
  B  B16  1  0.500000  0.750574  0.917794  1
  B  B17  1  0.500000  0.791120  0.266420  1
  B  B18  1  0.500000  0.209154  0.733692  1
  B  B19  1  0.500000  0.290791  0.233119  1
  B  B20  1  0.500000  0.709572  0.766293  1
  B  B21  1  0.500000  0.630553  0.185749  1
  B  B22  1  0.500000  0.369249  0.814812  1
  B  B23  1  0.500000  0.130556  0.314212  1
  B  B24  1  0.500000  0.869763  0.685415  1
  B  B25  1  0.500000  0.984169  0.213672  1
  B  B26  1  0.500000  0.015687  0.786826  1
  B  B27  1  0.500000  0.483862  0.286406  1
  B  B28  1  0.500000  0.515450  0.713613  1
  B  B29  1  0.500000  0.602626  0.027715  1
  B  B30  1  0.500000  0.397159  0.971541  1
  B  B31  1  0.500000  0.103148  0.471875  1
  B  B32  1  0.500000  0.897996  0.528634  1
  Os  Os33  1  0.000000  0.361199  0.680409  1
  Os  Os34  1  0.000000  0.138286  0.179396  1
  Os  Os35  1  0.000000  0.861824  0.820188  1
