# generated using pymatgen
data_Eu8Y12Si15P
_symmetry_space_group_name_H-M   'P 1'
_cell_length_a   7.55047500
_cell_length_b   7.83123986
_cell_length_c   14.86291800
_cell_angle_alpha   90.00000000
_cell_angle_beta   90.00000000
_cell_angle_gamma   90.38615046
_symmetry_Int_Tables_number   1
_chemical_formula_structural   Eu8Y12Si15P
_chemical_formula_sum   'Eu8 Y12 Si15 P1'
_cell_volume   878.81815072
_cell_formula_units_Z   1
loop_
 _symmetry_equiv_pos_site_id
 _symmetry_equiv_pos_as_xyz
  1  'x, y, z'
loop_
 _atom_site_type_symbol
 _atom_site_label
 _atom_site_symmetry_multiplicity
 _atom_site_fract_x
 _atom_site_fract_y
 _atom_site_fract_z
 _atom_site_occupancy
  Eu  Eu0  1  0.023804  0.178056  0.404863  1
  Eu  Eu1  1  0.522298  0.323687  0.405423  1
  Eu  Eu2  1  0.476994  0.676989  0.902029  1
  Eu  Eu3  1  0.476994  0.676989  0.597971  1
  Eu  Eu4  1  0.979878  0.823716  0.600402  1
  Eu  Eu5  1  0.979878  0.823716  0.899598  1
  Eu  Eu6  1  0.522298  0.323687  0.094577  1
  Eu  Eu7  1  0.023804  0.178056  0.095137  1
  Y  Y8  1  0.311883  0.169600  0.625577  1
  Y  Y9  1  0.682809  0.822522  0.379036  1
  Y  Y10  1  0.651422  0.984283  0.750000  1
  Y  Y11  1  0.182110  0.678752  0.378511  1
  Y  Y12  1  0.813672  0.325404  0.878257  1
  Y  Y13  1  0.813672  0.325404  0.621743  1
  Y  Y14  1  0.847144  0.481519  0.250000  1
  Y  Y15  1  0.350532  0.020662  0.250000  1
  Y  Y16  1  0.311883  0.169600  0.874423  1
  Y  Y17  1  0.182110  0.678752  0.121489  1
  Y  Y18  1  0.682809  0.822522  0.120964  1
  Y  Y19  1  0.151366  0.513890  0.750000  1
  Si  Si20  1  0.474313  0.613765  0.250000  1
  Si  Si21  1  0.009609  0.132216  0.750000  1
  Si  Si22  1  0.521153  0.385566  0.750000  1
  Si  Si23  1  0.142822  0.467705  0.541140  1
  Si  Si24  1  0.975393  0.887026  0.250000  1
  Si  Si25  1  0.737393  0.112390  0.250000  1
  Si  Si26  1  0.860427  0.533571  0.040183  1
  Si  Si27  1  0.358679  0.968863  0.039418  1
  Si  Si28  1  0.142822  0.467705  0.958860  1
  Si  Si29  1  0.639440  0.031019  0.541246  1
  Si  Si30  1  0.358679  0.968863  0.460582  1
  Si  Si31  1  0.860427  0.533571  0.459817  1
  Si  Si32  1  0.766328  0.614768  0.750000  1
  Si  Si33  1  0.235980  0.389223  0.250000  1
  Si  Si34  1  0.639440  0.031019  0.958754  1
  P  P35  1  0.289732  0.864924  0.750000  1
