# generated using pymatgen
data_Tm20AsRu11
_symmetry_space_group_name_H-M   'P 1'
_cell_length_a   10.70912047
_cell_length_b   10.70911986
_cell_length_c   6.31840853
_cell_angle_alpha   90.12732593
_cell_angle_beta   90.12732040
_cell_angle_gamma   89.77892468
_symmetry_Int_Tables_number   1
_chemical_formula_structural   Tm20AsRu11
_chemical_formula_sum   'Tm20 As1 Ru11'
_cell_volume   724.61933349
_cell_formula_units_Z   1
loop_
 _symmetry_equiv_pos_site_id
 _symmetry_equiv_pos_as_xyz
  1  'x, y, z'
loop_
 _atom_site_type_symbol
 _atom_site_label
 _atom_site_symmetry_multiplicity
 _atom_site_fract_x
 _atom_site_fract_y
 _atom_site_fract_z
 _atom_site_occupancy
  Tm  Tm0  1  0.291474  0.085769  0.376360  1
  Tm  Tm1  1  0.292983  0.919430  0.873891  1
  Tm  Tm2  1  0.709288  0.086396  0.876120  1
  Tm  Tm3  1  0.708328  0.913854  0.376900  1
  Tm  Tm4  1  0.591258  0.794977  0.875917  1
  Tm  Tm5  1  0.586639  0.206261  0.373997  1
  Tm  Tm6  1  0.416418  0.797022  0.371117  1
  Tm  Tm7  1  0.414020  0.209327  0.874952  1
  Tm  Tm8  1  0.205023  0.408742  0.624083  1
  Tm  Tm9  1  0.202978  0.583582  0.128883  1
  Tm  Tm10  1  0.793739  0.413361  0.126003  1
  Tm  Tm11  1  0.790673  0.585980  0.625048  1
  Tm  Tm12  1  0.914231  0.708526  0.123640  1
  Tm  Tm13  1  0.913604  0.290712  0.623880  1
  Tm  Tm14  1  0.080570  0.707017  0.626109  1
  Tm  Tm15  1  0.086146  0.291672  0.123100  1
  Tm  Tm16  1  0.999888  0.999528  0.499660  1
  Tm  Tm17  1  0.000472  0.000112  0.000340  1
  Tm  Tm18  1  0.502750  0.496859  0.003428  1
  Tm  Tm19  1  0.503141  0.497250  0.496572  1
  As  As20  1  0.344727  0.655273  0.750000  1
  Ru  Ru21  1  0.845919  0.154081  0.250000  1
  Ru  Ru22  1  0.846573  0.845653  0.750679  1
  Ru  Ru23  1  0.154347  0.153427  0.749321  1
  Ru  Ru24  1  0.153678  0.846322  0.250000  1
  Ru  Ru25  1  0.653247  0.346753  0.750000  1
  Ru  Ru26  1  0.649528  0.652210  0.251777  1
  Ru  Ru27  1  0.347790  0.350472  0.248223  1
  Ru  Ru28  1  0.500129  0.999082  0.123701  1
  Ru  Ru29  1  0.500967  0.001447  0.626073  1
  Ru  Ru30  1  0.998553  0.499033  0.873927  1
  Ru  Ru31  1  0.000918  0.499871  0.376299  1
