# generated using pymatgen
data_Ba4InSi(AsPt2)2
_symmetry_space_group_name_H-M   'P 1'
_cell_length_a   6.86890226
_cell_length_b   6.94107436
_cell_length_c   6.90481501
_cell_angle_alpha   91.58364033
_cell_angle_beta   89.42794534
_cell_angle_gamma   90.58250846
_symmetry_Int_Tables_number   1
_chemical_formula_structural   Ba4InSi(AsPt2)2
_chemical_formula_sum   'Ba4 In1 Si1 As2 Pt4'
_cell_volume   329.04648889
_cell_formula_units_Z   1
loop_
 _symmetry_equiv_pos_site_id
 _symmetry_equiv_pos_as_xyz
  1  'x, y, z'
loop_
 _atom_site_type_symbol
 _atom_site_label
 _atom_site_symmetry_multiplicity
 _atom_site_fract_x
 _atom_site_fract_y
 _atom_site_fract_z
 _atom_site_occupancy
  Ba  Ba0  1  0.636844  0.378624  0.875929  1
  Ba  Ba1  1  0.375956  0.858815  0.627870  1
  Ba  Ba2  1  0.125800  0.117835  0.136993  1
  Ba  Ba3  1  0.868534  0.633296  0.367735  1
  In  In4  1  0.161497  0.337510  0.658083  1
  Si  Si5  1  0.657249  0.155126  0.339559  1
  As  As6  1  0.340396  0.665471  0.170497  1
  As  As7  1  0.830743  0.839520  0.833606  1
  Pt  Pt8  1  0.594356  0.916268  0.101286  1
  Pt  Pt9  1  0.087498  0.615276  0.924664  1
  Pt  Pt10  1  0.438811  0.406237  0.388960  1
  Pt  Pt11  1  0.882314  0.076022  0.574816  1
