# generated using pymatgen
data_Nd2Ni7As4
_symmetry_space_group_name_H-M   'P 1'
_cell_length_a   3.91692800
_cell_length_b   9.52349800
_cell_length_c   10.71149700
_cell_angle_alpha   90.00000000
_cell_angle_beta   90.00000000
_cell_angle_gamma   90.00000000
_symmetry_Int_Tables_number   1
_chemical_formula_structural   Nd2Ni7As4
_chemical_formula_sum   'Nd4 Ni14 As8'
_cell_volume   399.56942986
_cell_formula_units_Z   2
loop_
 _symmetry_equiv_pos_site_id
 _symmetry_equiv_pos_as_xyz
  1  'x, y, z'
loop_
 _atom_site_type_symbol
 _atom_site_label
 _atom_site_symmetry_multiplicity
 _atom_site_fract_x
 _atom_site_fract_y
 _atom_site_fract_z
 _atom_site_occupancy
  Nd  Nd0  1  0.500000  0.440312  0.505072  1
  Nd  Nd1  1  0.500000  0.057978  0.282181  1
  Nd  Nd2  1  0.000000  0.942022  0.782181  1
  Nd  Nd3  1  0.000000  0.559688  0.005072  1
  Ni  Ni4  1  0.500000  0.308260  0.061425  1
  Ni  Ni5  1  0.500000  0.733373  0.400863  1
  Ni  Ni6  1  0.500000  0.422848  0.817063  1
  Ni  Ni7  1  0.500000  0.057824  0.981708  1
  Ni  Ni8  1  0.500000  0.682696  0.763987  1
  Ni  Ni9  1  0.000000  0.274572  0.671220  1
  Ni  Ni10  1  0.000000  0.266627  0.900863  1
  Ni  Ni11  1  0.000000  0.691740  0.561425  1
  Ni  Ni12  1  0.500000  0.099606  0.580555  1
  Ni  Ni13  1  0.000000  0.317304  0.263987  1
  Ni  Ni14  1  0.000000  0.577152  0.317063  1
  Ni  Ni15  1  0.000000  0.900394  0.080555  1
  Ni  Ni16  1  0.000000  0.942176  0.481708  1
  Ni  Ni17  1  0.500000  0.725428  0.171220  1
  As  As18  1  0.000000  0.815857  0.288461  1
  As  As19  1  0.000000  0.190450  0.465843  1
  As  As20  1  0.500000  0.184143  0.788461  1
  As  As21  1  0.000000  0.155657  0.089562  1
  As  As22  1  0.500000  0.473958  0.219761  1
  As  As23  1  0.500000  0.809550  0.965843  1
  As  As24  1  0.500000  0.844343  0.589562  1
  As  As25  1  0.000000  0.526042  0.719761  1
