# generated using pymatgen
data_Yb5Sc3(Cu4P3)4
_symmetry_space_group_name_H-M   'P 1'
_cell_length_a   12.45959700
_cell_length_b   12.45959680
_cell_length_c   3.82881300
_cell_angle_alpha   90.00000000
_cell_angle_beta   90.00000000
_cell_angle_gamma   120.00000319
_symmetry_Int_Tables_number   1
_chemical_formula_structural   Yb5Sc3(Cu4P3)4
_chemical_formula_sum   'Yb5 Sc3 Cu16 P12'
_cell_volume   514.75758828
_cell_formula_units_Z   1
loop_
 _symmetry_equiv_pos_site_id
 _symmetry_equiv_pos_as_xyz
  1  'x, y, z'
loop_
 _atom_site_type_symbol
 _atom_site_label
 _atom_site_symmetry_multiplicity
 _atom_site_fract_x
 _atom_site_fract_y
 _atom_site_fract_z
 _atom_site_occupancy
  Yb  Yb0  1  0.185111  0.185111  0.500000  1
  Yb  Yb1  1  0.814889  0.000000  0.500000  1
  Yb  Yb2  1  0.000000  0.814889  0.500000  1
  Yb  Yb3  1  0.333333  0.666667  0.000000  1
  Yb  Yb4  1  0.666667  0.333333  0.000000  1
  Sc  Sc5  1  0.565203  0.565203  0.000000  1
  Sc  Sc6  1  0.434797  0.000000  0.000000  1
  Sc  Sc7  1  0.000000  0.434797  0.000000  1
  Cu  Cu8  1  0.725664  0.725664  0.500000  1
  Cu  Cu9  1  0.274336  0.000000  0.500000  1
  Cu  Cu10  1  0.000000  0.274336  0.500000  1
  Cu  Cu11  1  0.184401  0.373615  0.000000  1
  Cu  Cu12  1  0.626385  0.810785  0.000000  1
  Cu  Cu13  1  0.189215  0.815599  0.000000  1
  Cu  Cu14  1  0.810785  0.626385  0.000000  1
  Cu  Cu15  1  0.815599  0.189215  0.000000  1
  Cu  Cu16  1  0.373615  0.184401  0.000000  1
  Cu  Cu17  1  0.355998  0.480487  0.500000  1
  Cu  Cu18  1  0.519513  0.875512  0.500000  1
  Cu  Cu19  1  0.124488  0.644002  0.500000  1
  Cu  Cu20  1  0.875512  0.519513  0.500000  1
  Cu  Cu21  1  0.644002  0.124488  0.500000  1
  Cu  Cu22  1  0.480487  0.355998  0.500000  1
  Cu  Cu23  1  0.000000  0.000000  0.000000  1
  P  P24  1  0.823561  0.823561  0.000000  1
  P  P25  1  0.176439  0.000000  0.000000  1
  P  P26  1  0.000000  0.176439  0.000000  1
  P  P27  1  0.169138  0.484177  0.500000  1
  P  P28  1  0.515823  0.684960  0.500000  1
  P  P29  1  0.315040  0.830862  0.500000  1
  P  P30  1  0.684960  0.515823  0.500000  1
  P  P31  1  0.830862  0.315040  0.500000  1
  P  P32  1  0.484177  0.169138  0.500000  1
  P  P33  1  0.362435  0.362435  0.000000  1
  P  P34  1  0.637565  0.000000  0.000000  1
  P  P35  1  0.000000  0.637565  0.000000  1
