# generated using pymatgen
data_Pr4Si8PdPt7
_symmetry_space_group_name_H-M   'P 1'
_cell_length_a   4.26292718
_cell_length_b   8.60687998
_cell_length_c   9.86714600
_cell_angle_alpha   89.97504966
_cell_angle_beta   89.98334725
_cell_angle_gamma   90.04911457
_symmetry_Int_Tables_number   1
_chemical_formula_structural   Pr4Si8PdPt7
_chemical_formula_sum   'Pr4 Si8 Pd1 Pt7'
_cell_volume   362.03036329
_cell_formula_units_Z   1
loop_
 _symmetry_equiv_pos_site_id
 _symmetry_equiv_pos_as_xyz
  1  'x, y, z'
loop_
 _atom_site_type_symbol
 _atom_site_label
 _atom_site_symmetry_multiplicity
 _atom_site_fract_x
 _atom_site_fract_y
 _atom_site_fract_z
 _atom_site_occupancy
  Pr  Pr0  1  0.750865  0.625047  0.755241  1
  Pr  Pr1  1  0.749429  0.125011  0.754644  1
  Pr  Pr2  1  0.251410  0.874756  0.244981  1
  Pr  Pr3  1  0.248489  0.375104  0.244885  1
  Si  Si4  1  0.747782  0.375070  0.002366  1
  Si  Si5  1  0.747965  0.124746  0.368064  1
  Si  Si6  1  0.253750  0.872296  0.632150  1
  Si  Si7  1  0.251127  0.625177  0.997485  1
  Si  Si8  1  0.752401  0.874707  0.002232  1
  Si  Si9  1  0.246729  0.378155  0.632520  1
  Si  Si10  1  0.249070  0.124986  0.997812  1
  Si  Si11  1  0.751365  0.624766  0.367568  1
  Pd  Pd12  1  0.246873  0.125792  0.500060  1
  Pt  Pt13  1  0.248203  0.375111  0.880052  1
  Pt  Pt14  1  0.750871  0.624920  0.119895  1
  Pt  Pt15  1  0.755027  0.877053  0.499754  1
  Pt  Pt16  1  0.745461  0.372432  0.499897  1
  Pt  Pt17  1  0.749173  0.124751  0.119983  1
  Pt  Pt18  1  0.251880  0.624961  0.500636  1
  Pt  Pt19  1  0.252133  0.875158  0.879775  1
