# generated using pymatgen
data_Lu2Mn2Ge2C
_symmetry_space_group_name_H-M   'P 1'
_cell_length_a   5.61897442
_cell_length_b   5.61897397
_cell_length_c   6.85314501
_cell_angle_alpha   123.28152777
_cell_angle_beta   123.28153627
_cell_angle_gamma   38.97071766
_symmetry_Int_Tables_number   1
_chemical_formula_structural   Lu2Mn2Ge2C
_chemical_formula_sum   'Lu2 Mn2 Ge2 C1'
_cell_volume   110.65165233
_cell_formula_units_Z   1
loop_
 _symmetry_equiv_pos_site_id
 _symmetry_equiv_pos_as_xyz
  1  'x, y, z'
loop_
 _atom_site_type_symbol
 _atom_site_label
 _atom_site_symmetry_multiplicity
 _atom_site_fract_x
 _atom_site_fract_y
 _atom_site_fract_z
 _atom_site_occupancy
  Lu  Lu0  1  0.564026  0.564026  0.286306  1
  Lu  Lu1  1  0.435975  0.435975  0.713695  1
  Mn  Mn2  1  0.197622  0.197622  0.076985  1
  Mn  Mn3  1  0.802379  0.802379  0.923016  1
  Ge  Ge4  1  0.849276  0.849276  0.317953  1
  Ge  Ge5  1  0.150724  0.150724  0.682047  1
  C  C6  1  0.000000  0.000000  0.000000  1
