# generated using pymatgen
data_Ho2ErGa2B4Rh9
_symmetry_space_group_name_H-M   'P 1'
_cell_length_a   5.50452502
_cell_length_b   5.50407622
_cell_length_c   10.02018300
_cell_angle_alpha   90.00100211
_cell_angle_beta   90.00122837
_cell_angle_gamma   120.00393096
_symmetry_Int_Tables_number   1
_chemical_formula_structural   Ho2ErGa2B4Rh9
_chemical_formula_sum   'Ho2 Er1 Ga2 B4 Rh9'
_cell_volume   262.90168517
_cell_formula_units_Z   1
loop_
 _symmetry_equiv_pos_site_id
 _symmetry_equiv_pos_as_xyz
  1  'x, y, z'
loop_
 _atom_site_type_symbol
 _atom_site_label
 _atom_site_symmetry_multiplicity
 _atom_site_fract_x
 _atom_site_fract_y
 _atom_site_fract_z
 _atom_site_occupancy
  Ho  Ho0  1  0.000003  0.000023  0.000010  1
  Ho  Ho1  1  0.000056  0.000059  0.660972  1
  Er  Er2  1  0.999892  0.999886  0.338601  1
  Ga  Ga3  1  0.333419  0.666818  0.000250  1
  Ga  Ga4  1  0.666584  0.333212  0.000251  1
  B  B5  1  0.333266  0.666553  0.346565  1
  B  B6  1  0.666682  0.333408  0.346565  1
  B  B7  1  0.666726  0.333460  0.653467  1
  B  B8  1  0.333347  0.666623  0.653468  1
  Rh  Rh9  1  0.499994  0.999998  0.499541  1
  Rh  Rh10  1  0.499988  0.499993  0.499544  1
  Rh  Rh11  1  0.999994  0.499996  0.499557  1
  Rh  Rh12  1  0.499925  0.999948  0.205538  1
  Rh  Rh13  1  0.499902  0.499909  0.205420  1
  Rh  Rh14  1  0.999941  0.499926  0.205428  1
  Rh  Rh15  1  0.500066  0.000054  0.794888  1
  Rh  Rh16  1  0.500064  0.500068  0.794971  1
  Rh  Rh17  1  0.000049  0.500062  0.794964  1
