# generated using pymatgen
data_Yb11Sc(SiIr)8
_symmetry_space_group_name_H-M   'P 1'
_cell_length_a   5.70095691
_cell_length_b   7.59640347
_cell_length_c   13.32157100
_cell_angle_alpha   89.84390802
_cell_angle_beta   90.37160890
_cell_angle_gamma   90.45290819
_symmetry_Int_Tables_number   1
_chemical_formula_structural   Yb11Sc(SiIr)8
_chemical_formula_sum   'Yb11 Sc1 Si8 Ir8'
_cell_volume   576.88197671
_cell_formula_units_Z   1
loop_
 _symmetry_equiv_pos_site_id
 _symmetry_equiv_pos_as_xyz
  1  'x, y, z'
loop_
 _atom_site_type_symbol
 _atom_site_label
 _atom_site_symmetry_multiplicity
 _atom_site_fract_x
 _atom_site_fract_y
 _atom_site_fract_z
 _atom_site_occupancy
  Yb  Yb0  1  0.627574  0.232864  0.249577  1
  Yb  Yb1  1  0.368141  0.768731  0.750119  1
  Yb  Yb2  1  0.367067  0.731274  0.249611  1
  Yb  Yb3  1  0.637413  0.271085  0.750397  1
  Yb  Yb4  1  0.135039  0.392747  0.097517  1
  Yb  Yb5  1  0.867389  0.607891  0.901535  1
  Yb  Yb6  1  0.863226  0.608646  0.597820  1
  Yb  Yb7  1  0.855676  0.895128  0.400986  1
  Yb  Yb8  1  0.136062  0.392456  0.400903  1
  Yb  Yb9  1  0.137513  0.106766  0.597908  1
  Yb  Yb10  1  0.143914  0.104347  0.902964  1
  Sc  Sc11  1  0.851005  0.890659  0.099215  1
  Si  Si12  1  0.138478  0.071484  0.245333  1
  Si  Si13  1  0.847856  0.920219  0.751517  1
  Si  Si14  1  0.848423  0.593137  0.248769  1
  Si  Si15  1  0.157544  0.416526  0.749966  1
  Si  Si16  1  0.593504  0.249348  0.004969  1
  Si  Si17  1  0.412919  0.748018  0.998567  1
  Si  Si18  1  0.408354  0.750232  0.498931  1
  Si  Si19  1  0.588642  0.250313  0.499107  1
  Ir  Ir20  1  0.354691  0.019553  0.091998  1
  Ir  Ir21  1  0.655406  0.973091  0.914123  1
  Ir  Ir22  1  0.636669  0.974786  0.593007  1
  Ir  Ir23  1  0.639587  0.527794  0.406692  1
  Ir  Ir24  1  0.353322  0.026306  0.406283  1
  Ir  Ir25  1  0.362650  0.473391  0.592131  1
  Ir  Ir26  1  0.364937  0.470069  0.908275  1
  Ir  Ir27  1  0.646999  0.533140  0.091777  1
