# generated using pymatgen
data_Sc4ReTc(BRu)8
_symmetry_space_group_name_H-M   'P 1'
_cell_length_a   3.02574300
_cell_length_b   8.54022400
_cell_length_c   10.05717233
_cell_angle_alpha   90.48583569
_cell_angle_beta   90.00000000
_cell_angle_gamma   90.00000000
_symmetry_Int_Tables_number   1
_chemical_formula_structural   Sc4ReTc(BRu)8
_chemical_formula_sum   'Sc4 Re1 Tc1 B8 Ru8'
_cell_volume   259.87325000
_cell_formula_units_Z   1
loop_
 _symmetry_equiv_pos_site_id
 _symmetry_equiv_pos_as_xyz
  1  'x, y, z'
loop_
 _atom_site_type_symbol
 _atom_site_label
 _atom_site_symmetry_multiplicity
 _atom_site_fract_x
 _atom_site_fract_y
 _atom_site_fract_z
 _atom_site_occupancy
  Sc  Sc0  1  0.500000  0.841596  0.177743  1
  Sc  Sc1  1  0.500000  0.157620  0.821323  1
  Sc  Sc2  1  0.500000  0.656485  0.685641  1
  Sc  Sc3  1  0.500000  0.342823  0.316095  1
  Re  Re4  1  0.000000  0.340220  0.047082  1
  Tc  Tc5  1  0.000000  0.660616  0.952809  1
  B  B6  1  0.500000  0.964588  0.589723  1
  B  B7  1  0.500000  0.034847  0.409876  1
  B  B8  1  0.500000  0.848839  0.901044  1
  B  B9  1  0.500000  0.152101  0.098426  1
  B  B10  1  0.500000  0.647256  0.398594  1
  B  B11  1  0.500000  0.352425  0.601842  1
  B  B12  1  0.500000  0.464596  0.912642  1
  B  B13  1  0.500000  0.537574  0.086984  1
  Ru  Ru14  1  0.000000  0.841392  0.453249  1
  Ru  Ru15  1  0.000000  0.158317  0.546530  1
  Ru  Ru16  1  0.000000  0.000353  0.999802  1
  Ru  Ru17  1  0.000000  0.402012  0.760255  1
  Ru  Ru18  1  0.000000  0.596658  0.240338  1
  Ru  Ru19  1  0.000000  0.499984  0.500466  1
  Ru  Ru20  1  0.000000  0.905096  0.737834  1
  Ru  Ru21  1  0.000000  0.094606  0.261706  1
