# generated using pymatgen
data_Zr20Si15As
_symmetry_space_group_name_H-M   'P 1'
_cell_length_a   7.16873000
_cell_length_b   7.16676317
_cell_length_c   13.07841010
_cell_angle_alpha   89.98807983
_cell_angle_beta   89.80976219
_cell_angle_gamma   90.02150872
_symmetry_Int_Tables_number   1
_chemical_formula_structural   Zr20Si15As
_chemical_formula_sum   'Zr20 Si15 As1'
_cell_volume   671.92034932
_cell_formula_units_Z   1
loop_
 _symmetry_equiv_pos_site_id
 _symmetry_equiv_pos_as_xyz
  1  'x, y, z'
loop_
 _atom_site_type_symbol
 _atom_site_label
 _atom_site_symmetry_multiplicity
 _atom_site_fract_x
 _atom_site_fract_y
 _atom_site_fract_z
 _atom_site_occupancy
  Zr  Zr0  1  0.354097  0.501255  0.377607  1
  Zr  Zr1  1  0.852905  0.000746  0.372191  1
  Zr  Zr2  1  0.001492  0.145472  0.126862  1
  Zr  Zr3  1  0.000481  0.855141  0.626801  1
  Zr  Zr4  1  0.645786  0.498906  0.877073  1
  Zr  Zr5  1  0.502475  0.352789  0.623038  1
  Zr  Zr6  1  0.498806  0.645599  0.123020  1
  Zr  Zr7  1  0.145190  0.000994  0.873289  1
  Zr  Zr8  1  0.998401  0.648728  0.035933  1
  Zr  Zr9  1  0.001333  0.348138  0.536012  1
  Zr  Zr10  1  0.649064  0.998583  0.963866  1
  Zr  Zr11  1  0.149396  0.502049  0.785422  1
  Zr  Zr12  1  0.846629  0.495218  0.282974  1
  Zr  Zr13  1  0.501252  0.149761  0.214083  1
  Zr  Zr14  1  0.499696  0.852367  0.714941  1
  Zr  Zr15  1  0.352685  0.003000  0.465133  1
  Zr  Zr16  1  0.674115  0.677189  0.500227  1
  Zr  Zr17  1  0.823768  0.176527  0.750065  1
  Zr  Zr18  1  0.176715  0.823831  0.249347  1
  Zr  Zr19  1  0.323367  0.323506  0.999890  1
  Si  Si20  1  0.948017  0.300174  0.937660  1
  Si  Si21  1  0.701469  0.051949  0.562529  1
  Si  Si22  1  0.199908  0.448137  0.187665  1
  Si  Si23  1  0.800083  0.552059  0.687638  1
  Si  Si24  1  0.447910  0.200497  0.812659  1
  Si  Si25  1  0.551429  0.800222  0.312078  1
  Si  Si26  1  0.300117  0.948232  0.062063  1
  Si  Si27  1  0.853613  0.794805  0.822306  1
  Si  Si28  1  0.147320  0.204918  0.322264  1
  Si  Si29  1  0.794512  0.853434  0.177034  1
  Si  Si30  1  0.300876  0.646190  0.577729  1
  Si  Si31  1  0.705203  0.353104  0.072506  1
  Si  Si32  1  0.646234  0.295354  0.427404  1
  Si  Si33  1  0.353193  0.705341  0.927308  1
  Si  Si34  1  0.205327  0.146874  0.677780  1
  As  As35  1  0.047135  0.698912  0.435602  1
