# generated using pymatgen
data_Hf18TiCuRe7P
_symmetry_space_group_name_H-M   'P 1'
_cell_length_a   8.60098700
_cell_length_b   8.60098654
_cell_length_c   8.57138900
_cell_angle_alpha   90.00000000
_cell_angle_beta   90.00000000
_cell_angle_gamma   119.99999791
_symmetry_Int_Tables_number   1
_chemical_formula_structural   Hf18TiCuRe7P
_chemical_formula_sum   'Hf18 Ti1 Cu1 Re7 P1'
_cell_volume   549.13409031
_cell_formula_units_Z   1
loop_
 _symmetry_equiv_pos_site_id
 _symmetry_equiv_pos_as_xyz
  1  'x, y, z'
loop_
 _atom_site_type_symbol
 _atom_site_label
 _atom_site_symmetry_multiplicity
 _atom_site_fract_x
 _atom_site_fract_y
 _atom_site_fract_z
 _atom_site_occupancy
  Hf  Hf0  1  0.196286  0.803714  0.446177  1
  Hf  Hf1  1  0.196286  0.392572  0.446177  1
  Hf  Hf2  1  0.607428  0.803714  0.446177  1
  Hf  Hf3  1  0.803459  0.196541  0.550410  1
  Hf  Hf4  1  0.803459  0.606920  0.550410  1
  Hf  Hf5  1  0.393080  0.196541  0.550410  1
  Hf  Hf6  1  0.805811  0.194189  0.948410  1
  Hf  Hf7  1  0.805811  0.611623  0.948410  1
  Hf  Hf8  1  0.388377  0.194189  0.948410  1
  Hf  Hf9  1  0.195661  0.804339  0.055200  1
  Hf  Hf10  1  0.195661  0.391323  0.055200  1
  Hf  Hf11  1  0.608677  0.804339  0.055200  1
  Hf  Hf12  1  0.542340  0.457660  0.248087  1
  Hf  Hf13  1  0.542340  0.084680  0.248087  1
  Hf  Hf14  1  0.915320  0.457660  0.248087  1
  Hf  Hf15  1  0.458065  0.541935  0.750932  1
  Hf  Hf16  1  0.458065  0.916129  0.750932  1
  Hf  Hf17  1  0.083871  0.541935  0.750932  1
  Ti  Ti18  1  0.000000  0.000000  0.499461  1
  Cu  Cu19  1  0.333333  0.666667  0.248871  1
  Re  Re20  1  0.888537  0.111463  0.252429  1
  Re  Re21  1  0.888537  0.777072  0.252429  1
  Re  Re22  1  0.222928  0.111463  0.252429  1
  Re  Re23  1  0.110760  0.889240  0.748247  1
  Re  Re24  1  0.110760  0.221521  0.748247  1
  Re  Re25  1  0.778479  0.889240  0.748247  1
  Re  Re26  1  0.000000  0.000000  0.999922  1
  P  P27  1  0.666667  0.333333  0.752073  1
