# generated using pymatgen
data_CuS23
_symmetry_space_group_name_H-M   'P 1'
_cell_length_a   5.45283822
_cell_length_b   9.65123540
_cell_length_c   15.55398139
_cell_angle_alpha   90.01422173
_cell_angle_beta   86.54388363
_cell_angle_gamma   90.73422211
_symmetry_Int_Tables_number   1
_chemical_formula_structural   CuS23
_chemical_formula_sum   'Cu1 S23'
_cell_volume   816.99761832
_cell_formula_units_Z   1
loop_
 _symmetry_equiv_pos_site_id
 _symmetry_equiv_pos_as_xyz
  1  'x, y, z'
loop_
 _atom_site_type_symbol
 _atom_site_label
 _atom_site_symmetry_multiplicity
 _atom_site_fract_x
 _atom_site_fract_y
 _atom_site_fract_z
 _atom_site_occupancy
  Cu  Cu0  1  0.500996  0.215954  0.396240  1
  S  S1  1  0.512608  0.800854  0.392210  1
  S  S2  1  0.998775  0.301916  0.111786  1
  S  S3  1  0.742013  0.225771  0.499695  1
  S  S4  1  0.301371  0.767525  0.505100  1
  S  S5  1  0.194640  0.258350  0.997401  1
  S  S6  1  0.795629  0.740074  0.003706  1
  S  S7  1  0.255904  0.369873  0.354206  1
  S  S8  1  0.690070  0.617900  0.359546  1
  S  S9  1  0.795058  0.128193  0.151042  1
  S  S10  1  0.205168  0.871441  0.134533  1
  S  S11  1  0.704544  0.632704  0.636061  1
  S  S12  1  0.306634  0.367543  0.632228  1
  S  S13  1  0.207746  0.877501  0.858591  1
  S  S14  1  0.790064  0.128107  0.863988  1
  S  S15  1  0.998045  0.697312  0.108354  1
  S  S16  1  0.509244  0.807919  0.609269  1
  S  S17  1  0.504107  0.190464  0.604815  1
  S  S18  1  0.005647  0.700747  0.891460  1
  S  S19  1  0.988676  0.303488  0.893929  1
  S  S20  1  0.491255  0.494453  0.280007  1
  S  S21  1  0.009094  0.998062  0.220022  1
  S  S22  1  0.486879  0.500126  0.712821  1
  S  S23  1  0.005830  0.003721  0.782993  1
