# generated using pymatgen
data_CBr35
_symmetry_space_group_name_H-M   'P 1'
_cell_length_a   15.58242756
_cell_length_b   11.11527419
_cell_length_c   10.52208600
_cell_angle_alpha   88.81408432
_cell_angle_beta   66.02770569
_cell_angle_gamma   92.31545236
_symmetry_Int_Tables_number   1
_chemical_formula_structural   CBr35
_chemical_formula_sum   'C1 Br35'
_cell_volume   1662.52021473
_cell_formula_units_Z   1
loop_
 _symmetry_equiv_pos_site_id
 _symmetry_equiv_pos_as_xyz
  1  'x, y, z'
loop_
 _atom_site_type_symbol
 _atom_site_label
 _atom_site_symmetry_multiplicity
 _atom_site_fract_x
 _atom_site_fract_y
 _atom_site_fract_z
 _atom_site_occupancy
  C  C0  1  0.182314  0.453661  0.583718  1
  Br  Br1  1  0.507744  0.270529  0.541134  1
  Br  Br2  1  0.768557  0.585683  0.572598  1
  Br  Br3  1  0.473798  0.690116  0.719325  1
  Br  Br4  1  0.066181  0.888459  0.816746  1
  Br  Br5  1  0.894578  0.153430  0.039901  1
  Br  Br6  1  0.639057  0.322257  0.302095  1
  Br  Br7  1  0.611246  0.336686  0.841166  1
  Br  Br8  1  0.335718  0.770143  0.682151  1
  Br  Br9  1  0.419103  0.660204  0.122690  1
  Br  Br10  1  0.654386  0.136302  0.774430  1
  Br  Br11  1  0.926923  0.554937  0.391243  1
  Br  Br12  1  0.072820  0.948842  0.576515  1
  Br  Br13  1  0.915837  0.112144  0.273543  1
  Br  Br14  1  0.876888  0.204076  0.821149  1
  Br  Br15  1  0.676439  0.055082  0.137852  1
  Br  Br16  1  0.050281  0.828781  0.062576  1
  Br  Br17  1  0.352515  0.992110  0.733980  1
  Br  Br18  1  0.921027  0.327597  0.335122  1
  Br  Br19  1  0.888610  0.927524  0.650307  1
  Br  Br20  1  0.848254  0.656812  0.875676  1
  Br  Br21  1  0.311414  0.010243  0.216342  1
  Br  Br22  1  0.307353  0.221121  0.189871  1
  Br  Br23  1  0.605350  0.613756  0.783866  1
  Br  Br24  1  0.141895  0.430961  0.431834  1
  Br  Br25  1  0.715548  0.906426  0.740685  1
  Br  Br26  1  0.850294  0.443563  0.856953  1
  Br  Br27  1  0.515751  0.018661  0.186783  1
  Br  Br28  1  0.138963  0.313929  0.713005  1
  Br  Br29  1  0.690632  0.779349  0.296067  1
  Br  Br30  1  0.867116  0.805003  0.185687  1
  Br  Br31  1  0.374498  0.212432  0.778275  1
  Br  Br32  1  0.319611  0.470502  0.508026  1
  Br  Br33  1  0.662540  0.548235  0.299843  1
  Br  Br34  1  0.127927  0.598481  0.680999  1
  Br  Br35  1  0.288830  0.751962  0.277851  1
