# generated using pymatgen
data_Tb3Er(GeRh2)8
_symmetry_space_group_name_H-M   'P 1'
_cell_length_a   4.23260300
_cell_length_b   9.19131758
_cell_length_c   11.52757118
_cell_angle_alpha   90.23011384
_cell_angle_beta   90.00000000
_cell_angle_gamma   90.00000000
_symmetry_Int_Tables_number   1
_chemical_formula_structural   Tb3Er(GeRh2)8
_chemical_formula_sum   'Tb3 Er1 Ge8 Rh16'
_cell_volume   448.45577151
_cell_formula_units_Z   1
loop_
 _symmetry_equiv_pos_site_id
 _symmetry_equiv_pos_as_xyz
  1  'x, y, z'
loop_
 _atom_site_type_symbol
 _atom_site_label
 _atom_site_symmetry_multiplicity
 _atom_site_fract_x
 _atom_site_fract_y
 _atom_site_fract_z
 _atom_site_occupancy
  Tb  Tb0  1  0.250000  0.148969  0.825454  1
  Tb  Tb1  1  0.250000  0.351139  0.325840  1
  Tb  Tb2  1  0.750000  0.850466  0.174196  1
  Er  Er3  1  0.750000  0.648464  0.674562  1
  Ge  Ge4  1  0.250000  0.414775  0.638622  1
  Ge  Ge5  1  0.250000  0.086221  0.138438  1
  Ge  Ge6  1  0.750000  0.586324  0.361802  1
  Ge  Ge7  1  0.750000  0.912984  0.861070  1
  Ge  Ge8  1  0.250000  0.618277  0.059889  1
  Ge  Ge9  1  0.250000  0.882499  0.559958  1
  Ge  Ge10  1  0.750000  0.381940  0.940452  1
  Ge  Ge11  1  0.750000  0.118562  0.440347  1
  Rh  Rh12  1  0.250000  0.616580  0.500363  1
  Rh  Rh13  1  0.250000  0.884996  0.997043  1
  Rh  Rh14  1  0.750000  0.386032  0.502070  1
  Rh  Rh15  1  0.750000  0.114762  0.001799  1
  Rh  Rh16  1  0.250000  0.688419  0.270488  1
  Rh  Rh17  1  0.250000  0.808066  0.767956  1
  Rh  Rh18  1  0.750000  0.311559  0.730141  1
  Rh  Rh19  1  0.750000  0.188691  0.230723  1
  Rh  Rh20  1  0.250000  0.171206  0.560246  1
  Rh  Rh21  1  0.250000  0.329128  0.059408  1
  Rh  Rh22  1  0.750000  0.829318  0.440633  1
  Rh  Rh23  1  0.750000  0.670424  0.939135  1
  Rh  Rh24  1  0.250000  0.003115  0.344752  1
  Rh  Rh25  1  0.250000  0.496930  0.844167  1
  Rh  Rh26  1  0.750000  0.996501  0.655488  1
  Rh  Rh27  1  0.750000  0.503655  0.154958  1
