# generated using pymatgen
data_NiIrCl6
_symmetry_space_group_name_H-M   'P 1'
_cell_length_a   11.58180484
_cell_length_b   11.09858811
_cell_length_c   6.19501573
_cell_angle_alpha   78.49863223
_cell_angle_beta   69.89023344
_cell_angle_gamma   30.64150545
_symmetry_Int_Tables_number   1
_chemical_formula_structural   NiIrCl6
_chemical_formula_sum   'Ni2 Ir2 Cl12'
_cell_volume   373.29765425
_cell_formula_units_Z   2
loop_
 _symmetry_equiv_pos_site_id
 _symmetry_equiv_pos_as_xyz
  1  'x, y, z'
loop_
 _atom_site_type_symbol
 _atom_site_label
 _atom_site_symmetry_multiplicity
 _atom_site_fract_x
 _atom_site_fract_y
 _atom_site_fract_z
 _atom_site_occupancy
  Ni  Ni0  1  0.414728  0.414728  0.585272  1
  Ni  Ni1  1  0.835272  0.835272  0.664728  1
  Ir  Ir2  1  0.667244  0.667244  0.832756  1
  Ir  Ir3  1  0.582756  0.582756  0.417244  1
  Cl  Cl4  1  0.719382  0.282703  0.284276  1
  Cl  Cl5  1  0.885022  0.439860  0.095807  1
  Cl  Cl6  1  0.364978  0.810140  0.154193  1
  Cl  Cl7  1  0.439860  0.885022  0.579310  1
  Cl  Cl8  1  0.177150  0.644984  0.369523  1
  Cl  Cl9  1  0.282703  0.719382  0.713640  1
  Cl  Cl10  1  0.530618  0.967297  0.965724  1
  Cl  Cl11  1  0.967297  0.530618  0.536360  1
  Cl  Cl12  1  0.072850  0.605016  0.880477  1
  Cl  Cl13  1  0.810140  0.364978  0.670690  1
  Cl  Cl14  1  0.644984  0.177150  0.808344  1
  Cl  Cl15  1  0.605016  0.072850  0.441656  1
