# generated using pymatgen
data_Gd2Al16PdPt8
_symmetry_space_group_name_H-M   'P 1'
_cell_length_a   11.17759845
_cell_length_b   11.17759930
_cell_length_c   11.17759900
_cell_angle_alpha   158.50410170
_cell_angle_beta   115.16298439
_cell_angle_gamma   69.16741838
_symmetry_Int_Tables_number   1
_chemical_formula_structural   Gd2Al16PdPt8
_chemical_formula_sum   'Gd2 Al16 Pd1 Pt8'
_cell_volume   459.79138422
_cell_formula_units_Z   1
loop_
 _symmetry_equiv_pos_site_id
 _symmetry_equiv_pos_as_xyz
  1  'x, y, z'
loop_
 _atom_site_type_symbol
 _atom_site_label
 _atom_site_symmetry_multiplicity
 _atom_site_fract_x
 _atom_site_fract_y
 _atom_site_fract_z
 _atom_site_occupancy
  Gd  Gd0  1  0.228666  0.228431  0.000235  1
  Gd  Gd1  1  0.771804  0.771569  0.000235  1
  Al  Al2  1  0.272537  0.391508  0.881030  1
  Al  Al3  1  0.092343  0.920573  0.171770  1
  Al  Al4  1  0.512417  0.204438  0.307980  1
  Al  Al5  1  0.251196  0.079427  0.171770  1
  Al  Al6  1  0.913006  0.413258  0.499748  1
  Al  Al7  1  0.727426  0.608012  0.119412  1
  Al  Al8  1  0.896083  0.204254  0.691830  1
  Al  Al9  1  0.487577  0.795746  0.691830  1
  Al  Al10  1  0.385854  0.000000  0.385854  1
  Al  Al11  1  0.614044  0.000000  0.614044  1
  Al  Al12  1  0.489522  0.608492  0.881030  1
  Al  Al13  1  0.103541  0.795562  0.307980  1
  Al  Al14  1  0.908061  0.080358  0.827702  1
  Al  Al15  1  0.747344  0.919642  0.827702  1
  Al  Al16  1  0.511400  0.391988  0.119412  1
  Al  Al17  1  0.086491  0.586742  0.499748  1
  Pd  Pd18  1  0.751064  0.500000  0.251064  1
  Pt  Pt19  1  0.024340  0.339621  0.684719  1
  Pt  Pt20  1  0.625602  0.125970  0.499632  1
  Pt  Pt21  1  0.252770  0.500000  0.752770  1
  Pt  Pt22  1  0.373662  0.874030  0.499632  1
  Pt  Pt23  1  0.998643  0.000000  0.998643  1
  Pt  Pt24  1  0.654681  0.339926  0.314755  1
  Pt  Pt25  1  0.345097  0.660379  0.684719  1
  Pt  Pt26  1  0.974830  0.660074  0.314755  1
