# generated using pymatgen
data_Li2Ni5P7IrRu6
_symmetry_space_group_name_H-M   'P 1'
_cell_length_a   9.24140420
_cell_length_b   9.30923402
_cell_length_c   3.69050400
_cell_angle_alpha   90.00000000
_cell_angle_beta   90.00000000
_cell_angle_gamma   120.44620628
_symmetry_Int_Tables_number   1
_chemical_formula_structural   Li2Ni5P7IrRu6
_chemical_formula_sum   'Li2 Ni5 P7 Ir1 Ru6'
_cell_volume   273.71456491
_cell_formula_units_Z   1
loop_
 _symmetry_equiv_pos_site_id
 _symmetry_equiv_pos_as_xyz
  1  'x, y, z'
loop_
 _atom_site_type_symbol
 _atom_site_label
 _atom_site_symmetry_multiplicity
 _atom_site_fract_x
 _atom_site_fract_y
 _atom_site_fract_z
 _atom_site_occupancy
  Li  Li0  1  0.999789  0.998433  0.000000  1
  Li  Li1  1  0.332938  0.669935  0.500000  1
  Ni  Ni2  1  0.301681  0.899823  0.000000  1
  Ni  Ni3  1  0.600501  0.699828  0.000000  1
  Ni  Ni4  1  0.825822  0.614182  0.000000  1
  Ni  Ni5  1  0.782109  0.169475  0.000000  1
  Ni  Ni6  1  0.387411  0.211299  0.000000  1
  P  P7  1  0.666659  0.333015  0.000000  1
  P  P8  1  0.080409  0.635618  0.000000  1
  P  P9  1  0.545758  0.916481  0.000000  1
  P  P10  1  0.378518  0.448874  0.000000  1
  P  P11  1  0.792468  0.745417  0.500000  1
  P  P12  1  0.949339  0.207652  0.500000  1
  P  P13  1  0.257337  0.046728  0.500000  1
  Ir  Ir14  1  0.106236  0.406675  0.000000  1
  Ru  Ru15  1  0.058121  0.773045  0.500000  1
  Ru  Ru16  1  0.709163  0.938852  0.500000  1
  Ru  Ru17  1  0.228724  0.280140  0.500000  1
  Ru  Ru18  1  0.873446  0.417025  0.500000  1
  Ru  Ru19  1  0.540571  0.123914  0.500000  1
  Ru  Ru20  1  0.583003  0.463584  0.500000  1
