# generated using pymatgen
data_Pu2Zr2CN3
_symmetry_space_group_name_H-M   'P 1'
_cell_length_a   11.29801754
_cell_length_b   11.29801761
_cell_length_c   11.29801775
_cell_angle_alpha   17.23199389
_cell_angle_beta   17.23199197
_cell_angle_gamma   17.23199099
_symmetry_Int_Tables_number   1
_chemical_formula_structural   Pu2Zr2CN3
_chemical_formula_sum   'Pu2 Zr2 C1 N3'
_cell_volume   110.43067972
_cell_formula_units_Z   1
loop_
 _symmetry_equiv_pos_site_id
 _symmetry_equiv_pos_as_xyz
  1  'x, y, z'
loop_
 _atom_site_type_symbol
 _atom_site_label
 _atom_site_symmetry_multiplicity
 _atom_site_fract_x
 _atom_site_fract_y
 _atom_site_fract_z
 _atom_site_occupancy
  Pu  Pu0  1  0.877216  0.877216  0.877216  1
  Pu  Pu1  1  0.122784  0.122784  0.122784  1
  Zr  Zr2  1  0.372486  0.372486  0.372486  1
  Zr  Zr3  1  0.627514  0.627514  0.627514  1
  C  C4  1  0.000000  0.000000  0.000000  1
  N  N5  1  0.253523  0.253523  0.253523  1
  N  N6  1  0.500000  0.500000  0.500000  1
  N  N7  1  0.746477  0.746477  0.746477  1
