# generated using pymatgen
data_Lu5MnRuO12
_symmetry_space_group_name_H-M   'P 1'
_cell_length_a   6.70775381
_cell_length_b   6.70775473
_cell_length_c   7.06704147
_cell_angle_alpha   74.57398150
_cell_angle_beta   74.57397924
_cell_angle_gamma   50.71286361
_symmetry_Int_Tables_number   1
_chemical_formula_structural   Lu5MnRuO12
_chemical_formula_sum   'Lu5 Mn1 Ru1 O12'
_cell_volume   235.20326924
_cell_formula_units_Z   1
loop_
 _symmetry_equiv_pos_site_id
 _symmetry_equiv_pos_as_xyz
  1  'x, y, z'
loop_
 _atom_site_type_symbol
 _atom_site_label
 _atom_site_symmetry_multiplicity
 _atom_site_fract_x
 _atom_site_fract_y
 _atom_site_fract_z
 _atom_site_occupancy
  Lu  Lu0  1  0.692551  0.693248  0.668446  1
  Lu  Lu1  1  0.693783  0.706037  0.139271  1
  Lu  Lu2  1  0.002561  0.997439  0.000000  1
  Lu  Lu3  1  0.293963  0.306217  0.860729  1
  Lu  Lu4  1  0.306752  0.307449  0.331554  1
  Mn  Mn5  1  0.251399  0.748601  0.500000  1
  Ru  Ru6  1  0.759540  0.240460  0.500000  1
  O  O7  1  0.401288  0.904731  0.926078  1
  O  O8  1  0.569790  0.095332  0.585201  1
  O  O9  1  0.904668  0.430210  0.414799  1
  O  O10  1  0.095269  0.598712  0.073922  1
  O  O11  1  0.005808  0.993859  0.314093  1
  O  O12  1  0.496321  0.503560  0.689376  1
  O  O13  1  0.900168  0.401847  0.926961  1
  O  O14  1  0.098806  0.573401  0.583890  1
  O  O15  1  0.426599  0.901194  0.416110  1
  O  O16  1  0.598153  0.099832  0.073039  1
  O  O17  1  0.496440  0.503679  0.310624  1
  O  O18  1  0.006141  0.994192  0.685907  1
