# generated using pymatgen
data_Ac(ThSe2)6
_symmetry_space_group_name_H-M   'P 1'
_cell_length_a   4.14798400
_cell_length_b   11.81258055
_cell_length_c   11.81257700
_cell_angle_alpha   119.99999846
_cell_angle_beta   90.00000000
_cell_angle_gamma   90.00000000
_symmetry_Int_Tables_number   1
_chemical_formula_structural   Ac(ThSe2)6
_chemical_formula_sum   'Ac1 Th6 Se12'
_cell_volume   501.25318645
_cell_formula_units_Z   1
loop_
 _symmetry_equiv_pos_site_id
 _symmetry_equiv_pos_as_xyz
  1  'x, y, z'
loop_
 _atom_site_type_symbol
 _atom_site_label
 _atom_site_symmetry_multiplicity
 _atom_site_fract_x
 _atom_site_fract_y
 _atom_site_fract_z
 _atom_site_occupancy
  Ac  Ac0  1  0.750000  0.000000  0.000000  1
  Th  Th1  1  0.750000  0.719099  0.565642  1
  Th  Th2  1  0.750000  0.434358  0.153457  1
  Th  Th3  1  0.750000  0.846543  0.280901  1
  Th  Th4  1  0.250000  0.287277  0.444869  1
  Th  Th5  1  0.250000  0.555131  0.842408  1
  Th  Th6  1  0.250000  0.157592  0.712723  1
  Se  Se7  1  0.750000  0.005096  0.744357  1
  Se  Se8  1  0.750000  0.255643  0.260739  1
  Se  Se9  1  0.750000  0.739261  0.994904  1
  Se  Se10  1  0.250000  0.994564  0.219813  1
  Se  Se11  1  0.250000  0.780187  0.774752  1
  Se  Se12  1  0.250000  0.225248  0.005436  1
  Se  Se13  1  0.750000  0.374829  0.861328  1
  Se  Se14  1  0.750000  0.138672  0.513500  1
  Se  Se15  1  0.750000  0.486499  0.625171  1
  Se  Se16  1  0.250000  0.616042  0.141159  1
  Se  Se17  1  0.250000  0.858841  0.474884  1
  Se  Se18  1  0.250000  0.525116  0.383958  1
