# generated using pymatgen
data_Nd(LuS2)2
_symmetry_space_group_name_H-M   'P 1'
_cell_length_a   3.83495400
_cell_length_b   12.85530000
_cell_length_c   12.92799500
_cell_angle_alpha   90.00000000
_cell_angle_beta   90.00000000
_cell_angle_gamma   90.00000000
_symmetry_Int_Tables_number   1
_chemical_formula_structural   Nd(LuS2)2
_chemical_formula_sum   'Nd4 Lu8 S16'
_cell_volume   637.34348467
_cell_formula_units_Z   4
loop_
 _symmetry_equiv_pos_site_id
 _symmetry_equiv_pos_as_xyz
  1  'x, y, z'
loop_
 _atom_site_type_symbol
 _atom_site_label
 _atom_site_symmetry_multiplicity
 _atom_site_fract_x
 _atom_site_fract_y
 _atom_site_fract_z
 _atom_site_occupancy
  Nd  Nd0  1  0.750000  0.866973  0.086040  1
  Nd  Nd1  1  0.250000  0.133027  0.913960  1
  Nd  Nd2  1  0.750000  0.366973  0.413960  1
  Nd  Nd3  1  0.250000  0.633027  0.586040  1
  Lu  Lu4  1  0.750000  0.608264  0.921337  1
  Lu  Lu5  1  0.250000  0.391736  0.078663  1
  Lu  Lu6  1  0.750000  0.108264  0.578663  1
  Lu  Lu7  1  0.250000  0.891736  0.421337  1
  Lu  Lu8  1  0.750000  0.647541  0.295902  1
  Lu  Lu9  1  0.250000  0.352459  0.704098  1
  Lu  Lu10  1  0.750000  0.147541  0.204098  1
  Lu  Lu11  1  0.250000  0.852459  0.795902  1
  S  S12  1  0.750000  0.716441  0.737328  1
  S  S13  1  0.250000  0.283559  0.262672  1
  S  S14  1  0.750000  0.216441  0.762672  1
  S  S15  1  0.250000  0.783559  0.237328  1
  S  S16  1  0.750000  0.757300  0.472664  1
  S  S17  1  0.250000  0.242700  0.527336  1
  S  S18  1  0.750000  0.257300  0.027336  1
  S  S19  1  0.250000  0.742700  0.972664  1
  S  S20  1  0.750000  0.967416  0.881637  1
  S  S21  1  0.250000  0.032584  0.118363  1
  S  S22  1  0.750000  0.467416  0.618363  1
  S  S23  1  0.250000  0.532584  0.381637  1
  S  S24  1  0.750000  0.532334  0.120285  1
  S  S25  1  0.250000  0.467666  0.879715  1
  S  S26  1  0.750000  0.032334  0.379715  1
  S  S27  1  0.250000  0.967666  0.620285  1
