# generated using pymatgen
data_Yb4ThRu2
_symmetry_space_group_name_H-M   'P 1'
_cell_length_a   8.79347797
_cell_length_b   8.79347835
_cell_length_c   7.21298912
_cell_angle_alpha   81.44349723
_cell_angle_beta   81.44349807
_cell_angle_gamma   43.78941424
_symmetry_Int_Tables_number   1
_chemical_formula_structural   Yb4ThRu2
_chemical_formula_sum   'Yb8 Th2 Ru4'
_cell_volume   380.97152147
_cell_formula_units_Z   2
loop_
 _symmetry_equiv_pos_site_id
 _symmetry_equiv_pos_as_xyz
  1  'x, y, z'
loop_
 _atom_site_type_symbol
 _atom_site_label
 _atom_site_symmetry_multiplicity
 _atom_site_fract_x
 _atom_site_fract_y
 _atom_site_fract_z
 _atom_site_occupancy
  Yb  Yb0  1  0.021246  0.801094  0.917386  1
  Yb  Yb1  1  0.198906  0.978754  0.582614  1
  Yb  Yb2  1  0.978754  0.198906  0.082614  1
  Yb  Yb3  1  0.801094  0.021246  0.417386  1
  Yb  Yb4  1  0.361258  0.205898  0.813714  1
  Yb  Yb5  1  0.794102  0.638742  0.686286  1
  Yb  Yb6  1  0.638742  0.794102  0.186286  1
  Yb  Yb7  1  0.205898  0.361258  0.313714  1
  Th  Th8  1  0.570786  0.429214  0.750000  1
  Th  Th9  1  0.429214  0.570786  0.250000  1
  Ru  Ru10  1  0.201212  0.595271  0.551896  1
  Ru  Ru11  1  0.404729  0.798788  0.948104  1
  Ru  Ru12  1  0.798788  0.404729  0.448104  1
  Ru  Ru13  1  0.595271  0.201212  0.051896  1
