# generated using pymatgen
data_Er2Pa2Ni4SnPb
_symmetry_space_group_name_H-M   'P 1'
_cell_length_a   7.44723444
_cell_length_b   7.37053384
_cell_length_c   3.61937600
_cell_angle_alpha   90.00000000
_cell_angle_beta   90.00000000
_cell_angle_gamma   93.53293030
_symmetry_Int_Tables_number   1
_chemical_formula_structural   Er2Pa2Ni4SnPb
_chemical_formula_sum   'Er2 Pa2 Ni4 Sn1 Pb1'
_cell_volume   198.29032771
_cell_formula_units_Z   1
loop_
 _symmetry_equiv_pos_site_id
 _symmetry_equiv_pos_as_xyz
  1  'x, y, z'
loop_
 _atom_site_type_symbol
 _atom_site_label
 _atom_site_symmetry_multiplicity
 _atom_site_fract_x
 _atom_site_fract_y
 _atom_site_fract_z
 _atom_site_occupancy
  Er  Er0  1  0.167994  0.325928  0.500000  1
  Er  Er1  1  0.832006  0.674072  0.500000  1
  Pa  Pa2  1  0.679548  0.170339  0.500000  1
  Pa  Pa3  1  0.320452  0.829661  0.500000  1
  Ni  Ni4  1  0.873915  0.364872  0.000000  1
  Ni  Ni5  1  0.126085  0.635128  0.000000  1
  Ni  Ni6  1  0.378138  0.110098  0.000000  1
  Ni  Ni7  1  0.621862  0.889902  0.000000  1
  Sn  Sn8  1  0.000000  0.000000  0.000000  1
  Pb  Pb9  1  0.500000  0.500000  0.000000  1
