# generated using pymatgen
data_Na3TaSe3O
_symmetry_space_group_name_H-M   'P 1'
_cell_length_a   8.19835240
_cell_length_b   8.19835238
_cell_length_c   6.26809200
_cell_angle_alpha   90.00000000
_cell_angle_beta   90.00000000
_cell_angle_gamma   102.27357278
_symmetry_Int_Tables_number   1
_chemical_formula_structural   Na3TaSe3O
_chemical_formula_sum   'Na6 Ta2 Se6 O2'
_cell_volume   411.66787244
_cell_formula_units_Z   2
loop_
 _symmetry_equiv_pos_site_id
 _symmetry_equiv_pos_as_xyz
  1  'x, y, z'
loop_
 _atom_site_type_symbol
 _atom_site_label
 _atom_site_symmetry_multiplicity
 _atom_site_fract_x
 _atom_site_fract_y
 _atom_site_fract_z
 _atom_site_occupancy
  Na  Na0  1  0.875787  0.124213  0.463926  1
  Na  Na1  1  0.823902  0.579928  0.484817  1
  Na  Na2  1  0.420072  0.176098  0.484817  1
  Na  Na3  1  0.579928  0.823902  0.984817  1
  Na  Na4  1  0.124213  0.875787  0.963926  1
  Na  Na5  1  0.176098  0.420072  0.984817  1
  Ta  Ta6  1  0.295879  0.704121  0.383133  1
  Ta  Ta7  1  0.704121  0.295879  0.883133  1
  Se  Se8  1  0.579620  0.818650  0.501803  1
  Se  Se9  1  0.888734  0.111266  0.984155  1
  Se  Se10  1  0.181350  0.420380  0.501803  1
  Se  Se11  1  0.818650  0.579620  0.001803  1
  Se  Se12  1  0.420380  0.181350  0.001803  1
  Se  Se13  1  0.111266  0.888734  0.484155  1
  O  O14  1  0.699223  0.300777  0.594108  1
  O  O15  1  0.300777  0.699223  0.094108  1
