# generated using pymatgen
data_Li3CaYbIn
_symmetry_space_group_name_H-M   'P 1'
_cell_length_a   5.92064000
_cell_length_b   5.92063894
_cell_length_c   10.04921100
_cell_angle_alpha   90.00000000
_cell_angle_beta   90.00000000
_cell_angle_gamma   119.99999475
_symmetry_Int_Tables_number   1
_chemical_formula_structural   Li3CaYbIn
_chemical_formula_sum   'Li6 Ca2 Yb2 In2'
_cell_volume   305.07024572
_cell_formula_units_Z   2
loop_
 _symmetry_equiv_pos_site_id
 _symmetry_equiv_pos_as_xyz
  1  'x, y, z'
loop_
 _atom_site_type_symbol
 _atom_site_label
 _atom_site_symmetry_multiplicity
 _atom_site_fract_x
 _atom_site_fract_y
 _atom_site_fract_z
 _atom_site_occupancy
  Li  Li0  1  0.161094  0.322187  0.749935  1
  Li  Li1  1  0.161094  0.838906  0.749935  1
  Li  Li2  1  0.322187  0.161094  0.250065  1
  Li  Li3  1  0.838906  0.677813  0.250065  1
  Li  Li4  1  0.677813  0.838906  0.749935  1
  Li  Li5  1  0.838906  0.161094  0.250065  1
  Ca  Ca6  1  0.666667  0.333333  0.943455  1
  Ca  Ca7  1  0.333333  0.666667  0.056545  1
  Yb  Yb8  1  0.333333  0.666667  0.443202  1
  Yb  Yb9  1  0.666667  0.333333  0.556798  1
  In  In10  1  0.000000  0.000000  0.000000  1
  In  In11  1  0.000000  0.000000  0.500000  1
