# generated using pymatgen
data_SmCd3(Rh2O7)2
_symmetry_space_group_name_H-M   'P 1'
_cell_length_a   7.21734155
_cell_length_b   7.29352789
_cell_length_c   7.21734200
_cell_angle_alpha   60.34494306
_cell_angle_beta   59.99999794
_cell_angle_gamma   60.34494374
_symmetry_Int_Tables_number   1
_chemical_formula_structural   SmCd3(Rh2O7)2
_chemical_formula_sum   'Sm1 Cd3 Rh4 O14'
_cell_volume   270.03617709
_cell_formula_units_Z   1
loop_
 _symmetry_equiv_pos_site_id
 _symmetry_equiv_pos_as_xyz
  1  'x, y, z'
loop_
 _atom_site_type_symbol
 _atom_site_label
 _atom_site_symmetry_multiplicity
 _atom_site_fract_x
 _atom_site_fract_y
 _atom_site_fract_z
 _atom_site_occupancy
  Sm  Sm0  1  0.125000  0.625000  0.125000  1
  Cd  Cd1  1  0.125000  0.125000  0.125000  1
  Cd  Cd2  1  0.625000  0.125000  0.125000  1
  Cd  Cd3  1  0.125000  0.125000  0.625000  1
  Rh  Rh4  1  0.625000  0.625000  0.625000  1
  Rh  Rh5  1  0.625000  0.625000  0.125000  1
  Rh  Rh6  1  0.125000  0.625000  0.625000  1
  Rh  Rh7  1  0.625000  0.125000  0.625000  1
  O  O8  1  0.254683  0.235952  0.254683  1
  O  O9  1  0.295751  0.700726  0.295751  1
  O  O10  1  0.951543  0.948655  0.549901  1
  O  O11  1  0.549901  0.948655  0.549901  1
  O  O12  1  0.707772  0.700726  0.295751  1
  O  O13  1  0.954249  0.549274  0.542228  1
  O  O14  1  0.700099  0.301345  0.700099  1
  O  O15  1  0.298457  0.301345  0.700099  1
  O  O16  1  0.700099  0.301345  0.298457  1
  O  O17  1  0.295751  0.700726  0.707772  1
  O  O18  1  0.954249  0.549274  0.954249  1
  O  O19  1  0.542228  0.549274  0.954249  1
  O  O20  1  0.995317  0.014048  0.995317  1
  O  O21  1  0.549901  0.948655  0.951543  1
