# generated using pymatgen
data_TbTm3(ScPt)4
_symmetry_space_group_name_H-M   'P 1'
_cell_length_a   4.62383900
_cell_length_b   6.94010936
_cell_length_c   8.35206014
_cell_angle_alpha   90.24625128
_cell_angle_beta   90.00000000
_cell_angle_gamma   90.00000000
_symmetry_Int_Tables_number   1
_chemical_formula_structural   TbTm3(ScPt)4
_chemical_formula_sum   'Tb1 Tm3 Sc4 Pt4'
_cell_volume   268.01470271
_cell_formula_units_Z   1
loop_
 _symmetry_equiv_pos_site_id
 _symmetry_equiv_pos_as_xyz
  1  'x, y, z'
loop_
 _atom_site_type_symbol
 _atom_site_label
 _atom_site_symmetry_multiplicity
 _atom_site_fract_x
 _atom_site_fract_y
 _atom_site_fract_z
 _atom_site_occupancy
  Tb  Tb0  1  0.750000  0.515196  0.823957  1
  Tm  Tm1  1  0.250000  0.984264  0.323940  1
  Tm  Tm2  1  0.750000  0.016775  0.674941  1
  Tm  Tm3  1  0.250000  0.483646  0.176664  1
  Sc  Sc4  1  0.750000  0.642166  0.425742  1
  Sc  Sc5  1  0.250000  0.358399  0.572083  1
  Sc  Sc6  1  0.750000  0.141152  0.074058  1
  Sc  Sc7  1  0.250000  0.857927  0.926246  1
  Pt  Pt8  1  0.250000  0.245198  0.903222  1
  Pt  Pt9  1  0.750000  0.753107  0.100268  1
  Pt  Pt10  1  0.250000  0.749892  0.596321  1
  Pt  Pt11  1  0.750000  0.252279  0.402557  1
