# generated using pymatgen
data_PrDy2Co8P6Ru
_symmetry_space_group_name_H-M   'P 1'
_cell_length_a   3.72768400
_cell_length_b   10.56854200
_cell_length_c   12.30904700
_cell_angle_alpha   90.00000000
_cell_angle_beta   90.00000000
_cell_angle_gamma   90.00000000
_symmetry_Int_Tables_number   1
_chemical_formula_structural   PrDy2Co8P6Ru
_chemical_formula_sum   'Pr2 Dy4 Co16 P12 Ru2'
_cell_volume   484.92949176
_cell_formula_units_Z   2
loop_
 _symmetry_equiv_pos_site_id
 _symmetry_equiv_pos_as_xyz
  1  'x, y, z'
loop_
 _atom_site_type_symbol
 _atom_site_label
 _atom_site_symmetry_multiplicity
 _atom_site_fract_x
 _atom_site_fract_y
 _atom_site_fract_z
 _atom_site_occupancy
  Pr  Pr0  1  0.000000  0.500000  0.525099  1
  Pr  Pr1  1  0.500000  0.000000  0.474901  1
  Dy  Dy2  1  0.500000  0.816596  0.205280  1
  Dy  Dy3  1  0.500000  0.183404  0.205280  1
  Dy  Dy4  1  0.000000  0.683404  0.794720  1
  Dy  Dy5  1  0.000000  0.316596  0.794720  1
  Co  Co6  1  0.500000  0.500000  0.707660  1
  Co  Co7  1  0.000000  0.000000  0.292340  1
  Co  Co8  1  0.000000  0.500000  0.986454  1
  Co  Co9  1  0.500000  0.000000  0.013546  1
  Co  Co10  1  0.500000  0.332257  0.990891  1
  Co  Co11  1  0.500000  0.667743  0.990891  1
  Co  Co12  1  0.000000  0.167743  0.009109  1
  Co  Co13  1  0.000000  0.832257  0.009109  1
  Co  Co14  1  0.500000  0.296561  0.429271  1
  Co  Co15  1  0.500000  0.703439  0.429271  1
  Co  Co16  1  0.000000  0.203439  0.570729  1
  Co  Co17  1  0.000000  0.796561  0.570729  1
  Co  Co18  1  0.500000  0.879708  0.710876  1
  Co  Co19  1  0.500000  0.120292  0.710876  1
  Co  Co20  1  0.000000  0.620292  0.289124  1
  Co  Co21  1  0.000000  0.379708  0.289124  1
  P  P22  1  0.500000  0.500000  0.883604  1
  P  P23  1  0.000000  0.000000  0.116396  1
  P  P24  1  0.500000  0.500000  0.345392  1
  P  P25  1  0.000000  0.000000  0.654608  1
  P  P26  1  0.500000  0.307211  0.618087  1
  P  P27  1  0.500000  0.692789  0.618087  1
  P  P28  1  0.000000  0.192789  0.381913  1
  P  P29  1  0.000000  0.807211  0.381913  1
  P  P30  1  0.500000  0.846366  0.894524  1
  P  P31  1  0.500000  0.153634  0.894524  1
  P  P32  1  0.000000  0.653634  0.105476  1
  P  P33  1  0.000000  0.346366  0.105476  1
  Ru  Ru34  1  0.500000  0.500000  0.157030  1
  Ru  Ru35  1  0.000000  0.000000  0.842970  1
