# generated using pymatgen
data_Ho4Ga6PdRh6
_symmetry_space_group_name_H-M   'P 1'
_cell_length_a   7.30642226
_cell_length_b   7.30642264
_cell_length_c   7.30642300
_cell_angle_alpha   109.47121885
_cell_angle_beta   109.47121991
_cell_angle_gamma   109.47122422
_symmetry_Int_Tables_number   1
_chemical_formula_structural   Ho4Ga6PdRh6
_chemical_formula_sum   'Ho4 Ga6 Pd1 Rh6'
_cell_volume   300.25653851
_cell_formula_units_Z   1
loop_
 _symmetry_equiv_pos_site_id
 _symmetry_equiv_pos_as_xyz
  1  'x, y, z'
loop_
 _atom_site_type_symbol
 _atom_site_label
 _atom_site_symmetry_multiplicity
 _atom_site_fract_x
 _atom_site_fract_y
 _atom_site_fract_z
 _atom_site_occupancy
  Ho  Ho0  1  0.500000  0.500000  0.500000  1
  Ho  Ho1  1  0.000000  0.000000  0.500000  1
  Ho  Ho2  1  0.000000  0.500000  0.000000  1
  Ho  Ho3  1  0.500000  0.000000  0.000000  1
  Ga  Ga4  1  0.000000  0.319587  0.319587  1
  Ga  Ga5  1  0.000000  0.680413  0.680413  1
  Ga  Ga6  1  0.319587  0.000000  0.319587  1
  Ga  Ga7  1  0.680413  0.000000  0.680413  1
  Ga  Ga8  1  0.319587  0.319587  0.000000  1
  Ga  Ga9  1  0.680413  0.680413  0.000000  1
  Pd  Pd10  1  0.000000  0.000000  0.000000  1
  Rh  Rh11  1  0.500000  0.750000  0.250000  1
  Rh  Rh12  1  0.500000  0.250000  0.750000  1
  Rh  Rh13  1  0.250000  0.500000  0.750000  1
  Rh  Rh14  1  0.750000  0.500000  0.250000  1
  Rh  Rh15  1  0.750000  0.250000  0.500000  1
  Rh  Rh16  1  0.250000  0.750000  0.500000  1
