# generated using pymatgen
data_HfTh5Ni16(MoAs6)2
_symmetry_space_group_name_H-M   'P 1'
_cell_length_a   12.84935400
_cell_length_b   12.84935372
_cell_length_c   4.02647700
_cell_angle_alpha   90.00000000
_cell_angle_beta   90.00000000
_cell_angle_gamma   120.02290033
_symmetry_Int_Tables_number   1
_chemical_formula_structural   HfTh5Ni16(MoAs6)2
_chemical_formula_sum   'Hf1 Th5 Ni16 Mo2 As12'
_cell_volume   575.59653316
_cell_formula_units_Z   1
loop_
 _symmetry_equiv_pos_site_id
 _symmetry_equiv_pos_as_xyz
  1  'x, y, z'
loop_
 _atom_site_type_symbol
 _atom_site_label
 _atom_site_symmetry_multiplicity
 _atom_site_fract_x
 _atom_site_fract_y
 _atom_site_fract_z
 _atom_site_occupancy
  Hf  Hf0  1  0.574467  0.574467  0.000000  1
  Th  Th1  1  0.186997  0.186997  0.500000  1
  Th  Th2  1  0.809431  0.997452  0.500000  1
  Th  Th3  1  0.997452  0.809431  0.500000  1
  Th  Th4  1  0.331291  0.667044  0.000000  1
  Th  Th5  1  0.667044  0.331291  0.000000  1
  Ni  Ni6  1  0.724444  0.724444  0.500000  1
  Ni  Ni7  1  0.279162  0.000861  0.500000  1
  Ni  Ni8  1  0.000861  0.279162  0.500000  1
  Ni  Ni9  1  0.183558  0.376437  0.000000  1
  Ni  Ni10  1  0.623778  0.813046  0.000000  1
  Ni  Ni11  1  0.190749  0.813200  0.000000  1
  Ni  Ni12  1  0.813046  0.623778  0.000000  1
  Ni  Ni13  1  0.813200  0.190749  0.000000  1
  Ni  Ni14  1  0.376437  0.183558  0.000000  1
  Ni  Ni15  1  0.364343  0.486573  0.500000  1
  Ni  Ni16  1  0.511533  0.880449  0.500000  1
  Ni  Ni17  1  0.121549  0.634287  0.500000  1
  Ni  Ni18  1  0.880449  0.511533  0.500000  1
  Ni  Ni19  1  0.634287  0.121549  0.500000  1
  Ni  Ni20  1  0.486573  0.364343  0.500000  1
  Ni  Ni21  1  0.000529  0.000529  0.000000  1
  Mo  Mo22  1  0.430671  0.999923  0.000000  1
  Mo  Mo23  1  0.999923  0.430671  0.000000  1
  As  As24  1  0.819631  0.819631  0.000000  1
  As  As25  1  0.180231  0.998135  0.000000  1
  As  As26  1  0.998135  0.180231  0.000000  1
  As  As27  1  0.166648  0.475540  0.500000  1
  As  As28  1  0.523779  0.696423  0.500000  1
  As  As29  1  0.308148  0.833952  0.500000  1
  As  As30  1  0.696423  0.523779  0.500000  1
  As  As31  1  0.833952  0.308148  0.500000  1
  As  As32  1  0.475540  0.166648  0.500000  1
  As  As33  1  0.369086  0.369086  0.000000  1
  As  As34  1  0.625007  0.001645  0.000000  1
  As  As35  1  0.001645  0.625007  0.000000  1
