# generated using pymatgen
data_Sm7TmSc11Si16Hg
_symmetry_space_group_name_H-M   'P 1'
_cell_length_a   7.12582872
_cell_length_b   7.45595396
_cell_length_c   14.13868389
_cell_angle_alpha   89.89871461
_cell_angle_beta   89.94908620
_cell_angle_gamma   89.80532573
_symmetry_Int_Tables_number   1
_chemical_formula_structural   Sm7TmSc11Si16Hg
_chemical_formula_sum   'Sm7 Tm1 Sc11 Si16 Hg1'
_cell_volume   751.18036478
_cell_formula_units_Z   1
loop_
 _symmetry_equiv_pos_site_id
 _symmetry_equiv_pos_as_xyz
  1  'x, y, z'
loop_
 _atom_site_type_symbol
 _atom_site_label
 _atom_site_symmetry_multiplicity
 _atom_site_fract_x
 _atom_site_fract_y
 _atom_site_fract_z
 _atom_site_occupancy
  Sm  Sm0  1  0.991315  0.818726  0.901726  1
  Sm  Sm1  1  0.481495  0.671676  0.901112  1
  Sm  Sm2  1  0.991229  0.818876  0.599290  1
  Sm  Sm3  1  0.511988  0.324862  0.097863  1
  Sm  Sm4  1  0.010104  0.171385  0.402940  1
  Sm  Sm5  1  0.511884  0.325475  0.401360  1
  Sm  Sm6  1  0.482422  0.672031  0.599677  1
  Tm  Tm7  1  0.011296  0.173891  0.099012  1
  Sc  Sc8  1  0.838878  0.498771  0.249083  1
  Sc  Sc9  1  0.339227  0.002058  0.249350  1
  Sc  Sc10  1  0.658405  0.000459  0.750087  1
  Sc  Sc11  1  0.326138  0.183633  0.625029  1
  Sc  Sc12  1  0.671858  0.823955  0.374935  1
  Sc  Sc13  1  0.170032  0.679924  0.372790  1
  Sc  Sc14  1  0.671899  0.824773  0.124111  1
  Sc  Sc15  1  0.837605  0.325475  0.625165  1
  Sc  Sc16  1  0.325546  0.183603  0.875341  1
  Sc  Sc17  1  0.838254  0.324231  0.875223  1
  Sc  Sc18  1  0.169696  0.680589  0.126372  1
  Si  Si19  1  0.029735  0.103299  0.750435  1
  Si  Si20  1  0.967352  0.884316  0.248775  1
  Si  Si21  1  0.466824  0.622477  0.249611  1
  Si  Si22  1  0.547256  0.374853  0.750256  1
  Si  Si23  1  0.292295  0.897377  0.750175  1
  Si  Si24  1  0.715050  0.123647  0.247910  1
  Si  Si25  1  0.209700  0.374997  0.248429  1
  Si  Si26  1  0.771099  0.625099  0.750327  1
  Si  Si27  1  0.158019  0.459022  0.528360  1
  Si  Si28  1  0.844941  0.536596  0.461168  1
  Si  Si29  1  0.347120  0.964764  0.461686  1
  Si  Si30  1  0.846137  0.533203  0.040042  1
  Si  Si31  1  0.655384  0.033680  0.540786  1
  Si  Si32  1  0.157005  0.454978  0.973100  1
  Si  Si33  1  0.655745  0.034012  0.959253  1
  Si  Si34  1  0.342134  0.967420  0.039236  1
  Hg  Hg35  1  0.154938  0.505866  0.749984  1
