# generated using pymatgen
data_Sr2DyEr(ZnSn)4
_symmetry_space_group_name_H-M   'P 1'
_cell_length_a   4.52074500
_cell_length_b   4.52074474
_cell_length_c   17.62225000
_cell_angle_alpha   90.00000000
_cell_angle_beta   90.00000000
_cell_angle_gamma   119.99999460
_symmetry_Int_Tables_number   1
_chemical_formula_structural   Sr2DyEr(ZnSn)4
_chemical_formula_sum   'Sr2 Dy1 Er1 Zn4 Sn4'
_cell_volume   311.89758318
_cell_formula_units_Z   1
loop_
 _symmetry_equiv_pos_site_id
 _symmetry_equiv_pos_as_xyz
  1  'x, y, z'
loop_
 _atom_site_type_symbol
 _atom_site_label
 _atom_site_symmetry_multiplicity
 _atom_site_fract_x
 _atom_site_fract_y
 _atom_site_fract_z
 _atom_site_occupancy
  Sr  Sr0  1  0.000000  0.000000  0.000535  1
  Sr  Sr1  1  0.000000  0.000000  0.499465  1
  Dy  Dy2  1  0.000000  0.000000  0.750000  1
  Er  Er3  1  0.000000  0.000000  0.250000  1
  Zn  Zn4  1  0.333333  0.666667  0.166998  1
  Zn  Zn5  1  0.666667  0.333333  0.834802  1
  Zn  Zn6  1  0.666667  0.333333  0.665198  1
  Zn  Zn7  1  0.333333  0.666667  0.333002  1
  Sn  Sn8  1  0.333333  0.666667  0.627109  1
  Sn  Sn9  1  0.666667  0.333333  0.371701  1
  Sn  Sn10  1  0.666667  0.333333  0.128299  1
  Sn  Sn11  1  0.333333  0.666667  0.872891  1
