# generated using pymatgen
data_SrErZn4
_symmetry_space_group_name_H-M   'P 1'
_cell_length_a   4.56415400
_cell_length_b   4.56415373
_cell_length_c   7.52835800
_cell_angle_alpha   90.00000000
_cell_angle_beta   90.00000000
_cell_angle_gamma   120.00000195
_symmetry_Int_Tables_number   1
_chemical_formula_structural   SrErZn4
_chemical_formula_sum   'Sr1 Er1 Zn4'
_cell_volume   135.81615770
_cell_formula_units_Z   1
loop_
 _symmetry_equiv_pos_site_id
 _symmetry_equiv_pos_as_xyz
  1  'x, y, z'
loop_
 _atom_site_type_symbol
 _atom_site_label
 _atom_site_symmetry_multiplicity
 _atom_site_fract_x
 _atom_site_fract_y
 _atom_site_fract_z
 _atom_site_occupancy
  Sr  Sr0  1  0.000000  0.000000  0.000000  1
  Er  Er1  1  0.000000  0.000000  0.500000  1
  Zn  Zn2  1  0.666668  0.333335  0.303779  1
  Zn  Zn3  1  0.333333  0.666666  0.303779  1
  Zn  Zn4  1  0.666668  0.333335  0.696221  1
  Zn  Zn5  1  0.333333  0.666666  0.696221  1
