# generated using pymatgen
data_Pr4Sn7Hg2Bi
_symmetry_space_group_name_H-M   'P 1'
_cell_length_a   17.72625619
_cell_length_b   17.72625607
_cell_length_c   4.58787400
_cell_angle_alpha   90.00000000
_cell_angle_beta   90.00000000
_cell_angle_gamma   164.18729335
_symmetry_Int_Tables_number   1
_chemical_formula_structural   Pr4Sn7Hg2Bi
_chemical_formula_sum   'Pr4 Sn7 Hg2 Bi1'
_cell_volume   392.82750049
_cell_formula_units_Z   1
loop_
 _symmetry_equiv_pos_site_id
 _symmetry_equiv_pos_as_xyz
  1  'x, y, z'
loop_
 _atom_site_type_symbol
 _atom_site_label
 _atom_site_symmetry_multiplicity
 _atom_site_fract_x
 _atom_site_fract_y
 _atom_site_fract_z
 _atom_site_occupancy
  Pr  Pr0  1  0.928055  0.071945  0.500000  1
  Pr  Pr1  1  0.071068  0.928932  0.500000  1
  Pr  Pr2  1  0.797900  0.202100  0.500000  1
  Pr  Pr3  1  0.201573  0.798427  0.500000  1
  Sn  Sn4  1  0.636484  0.363516  0.500000  1
  Sn  Sn5  1  0.362906  0.637094  0.500000  1
  Sn  Sn6  1  0.283949  0.716051  0.000000  1
  Sn  Sn7  1  0.566681  0.433319  0.000000  1
  Sn  Sn8  1  0.433038  0.566962  0.000000  1
  Sn  Sn9  1  0.862019  0.137981  0.000000  1
  Sn  Sn10  1  0.136707  0.863293  0.000000  1
  Hg  Hg11  1  0.499757  0.500243  0.500000  1
  Hg  Hg12  1  0.999808  0.000192  0.000000  1
  Bi  Bi13  1  0.720056  0.279944  0.000000  1
