# generated using pymatgen
data_Ho20In4Si7Tc
_symmetry_space_group_name_H-M   'P 1'
_cell_length_a   7.66752700
_cell_length_b   7.66752758
_cell_length_c   13.94972000
_cell_angle_alpha   90.00127033
_cell_angle_beta   90.00127033
_cell_angle_gamma   89.82302045
_symmetry_Int_Tables_number   1
_chemical_formula_structural   Ho20In4Si7Tc
_chemical_formula_sum   'Ho20 In4 Si7 Tc1'
_cell_volume   820.11372360
_cell_formula_units_Z   1
loop_
 _symmetry_equiv_pos_site_id
 _symmetry_equiv_pos_as_xyz
  1  'x, y, z'
loop_
 _atom_site_type_symbol
 _atom_site_label
 _atom_site_symmetry_multiplicity
 _atom_site_fract_x
 _atom_site_fract_y
 _atom_site_fract_z
 _atom_site_occupancy
  Ho  Ho0  1  0.993804  0.492359  0.752133  1
  Ho  Ho1  1  0.001168  0.501326  0.252190  1
  Ho  Ho2  1  0.498706  0.998789  0.247831  1
  Ho  Ho3  1  0.507568  0.006052  0.747875  1
  Ho  Ho4  1  0.666574  0.659520  0.613541  1
  Ho  Ho5  1  0.670373  0.331204  0.111475  1
  Ho  Ho6  1  0.831423  0.835716  0.390481  1
  Ho  Ho7  1  0.166879  0.834881  0.890201  1
  Ho  Ho8  1  0.338949  0.336106  0.613440  1
  Ho  Ho9  1  0.332555  0.665268  0.112660  1
  Ho  Ho10  1  0.166380  0.166557  0.390364  1
  Ho  Ho11  1  0.823269  0.173984  0.887555  1
  Ho  Ho12  1  0.668819  0.329609  0.388546  1
  Ho  Ho13  1  0.340470  0.333436  0.886460  1
  Ho  Ho14  1  0.165127  0.833113  0.609804  1
  Ho  Ho15  1  0.833371  0.833653  0.109631  1
  Ho  Ho16  1  0.334763  0.667448  0.387347  1
  Ho  Ho17  1  0.663866  0.661056  0.886540  1
  Ho  Ho18  1  0.825956  0.176825  0.612506  1
  Ho  Ho19  1  0.164293  0.168604  0.109531  1
  In  In20  1  0.004216  0.501737  0.497506  1
  In  In21  1  0.003384  0.501757  0.001476  1
  In  In22  1  0.498314  0.996534  0.498503  1
  In  In23  1  0.498290  0.995951  0.002423  1
  Si  Si24  1  0.878814  0.871927  0.750108  1
  Si  Si25  1  0.871683  0.128303  0.250009  1
  Si  Si26  1  0.633184  0.628450  0.250057  1
  Si  Si27  1  0.370834  0.629168  0.750014  1
  Si  Si28  1  0.128069  0.121169  0.749897  1
  Si  Si29  1  0.128656  0.871316  0.250005  1
  Si  Si30  1  0.371539  0.366806  0.249970  1
  Tc  Tc31  1  0.618704  0.381375  0.749923  1
