# generated using pymatgen
data_Ba2YHO3
_symmetry_space_group_name_H-M   'P 1'
_cell_length_a   4.41605500
_cell_length_b   4.41605200
_cell_length_c   14.01260300
_cell_angle_alpha   90.00000000
_cell_angle_beta   90.00000000
_cell_angle_gamma   90.00000000
_symmetry_Int_Tables_number   1
_chemical_formula_structural   Ba2YHO3
_chemical_formula_sum   'Ba4 Y2 H2 O6'
_cell_volume   273.26717697
_cell_formula_units_Z   2
loop_
 _symmetry_equiv_pos_site_id
 _symmetry_equiv_pos_as_xyz
  1  'x, y, z'
loop_
 _atom_site_type_symbol
 _atom_site_label
 _atom_site_symmetry_multiplicity
 _atom_site_fract_x
 _atom_site_fract_y
 _atom_site_fract_z
 _atom_site_occupancy
  Ba  Ba0  1  0.499999  0.000000  0.100872  1
  Ba  Ba1  1  0.499999  0.000000  0.374984  1
  Ba  Ba2  1  0.000000  0.499999  0.625016  1
  Ba  Ba3  1  0.000000  0.499999  0.899128  1
  Y  Y4  1  0.000000  0.499999  0.235824  1
  Y  Y5  1  0.499999  0.000000  0.764176  1
  H  H6  1  0.000000  0.499999  0.422720  1
  H  H7  1  0.499999  0.000000  0.577281  1
  O  O8  1  0.000000  0.499999  0.079949  1
  O  O9  1  0.000000  0.000000  0.259267  1
  O  O10  1  0.499999  0.499999  0.259267  1
  O  O11  1  0.000000  0.000000  0.740733  1
  O  O12  1  0.499999  0.499999  0.740733  1
  O  O13  1  0.499999  0.000000  0.920051  1
