# generated using pymatgen
data_BaH4S3
_symmetry_space_group_name_H-M   'P 1'
_cell_length_a   8.65407300
_cell_length_b   4.57654650
_cell_length_c   8.10712708
_cell_angle_alpha   89.64467473
_cell_angle_beta   90.00000000
_cell_angle_gamma   90.00000000
_symmetry_Int_Tables_number   1
_chemical_formula_structural   BaH4S3
_chemical_formula_sum   'Ba2 H8 S6'
_cell_volume   321.08281564
_cell_formula_units_Z   2
loop_
 _symmetry_equiv_pos_site_id
 _symmetry_equiv_pos_as_xyz
  1  'x, y, z'
loop_
 _atom_site_type_symbol
 _atom_site_label
 _atom_site_symmetry_multiplicity
 _atom_site_fract_x
 _atom_site_fract_y
 _atom_site_fract_z
 _atom_site_occupancy
  Ba  Ba0  1  0.746871  0.997217  0.630330  1
  Ba  Ba1  1  0.246871  0.002783  0.369670  1
  H  H2  1  0.833868  0.778321  0.126602  1
  H  H3  1  0.834160  0.210079  0.119563  1
  H  H4  1  0.333868  0.221679  0.873398  1
  H  H5  1  0.334160  0.789921  0.880437  1
  H  H6  1  0.604803  0.477821  0.957723  1
  H  H7  1  0.104803  0.522179  0.042277  1
  H  H8  1  0.587527  0.504043  0.299990  1
  H  H9  1  0.087527  0.495957  0.700010  1
  S  S10  1  0.876111  0.997758  0.233944  1
  S  S11  1  0.376111  0.002242  0.766056  1
  S  S12  1  0.753795  0.491808  0.908450  1
  S  S13  1  0.253795  0.508192  0.091550  1
  S  S14  1  0.522468  0.500307  0.451640  1
  S  S15  1  0.022468  0.499693  0.548360  1
