# generated using pymatgen
data_Cs4Na2DyErSb4
_symmetry_space_group_name_H-M   'P 1'
_cell_length_a   11.62887337
_cell_length_b   11.62887116
_cell_length_c   7.57746800
_cell_angle_alpha   90.00000000
_cell_angle_beta   90.00000000
_cell_angle_gamma   99.84201943
_symmetry_Int_Tables_number   1
_chemical_formula_structural   Cs4Na2DyErSb4
_chemical_formula_sum   'Cs8 Na4 Dy2 Er2 Sb8'
_cell_volume   1009.62527741
_cell_formula_units_Z   2
loop_
 _symmetry_equiv_pos_site_id
 _symmetry_equiv_pos_as_xyz
  1  'x, y, z'
loop_
 _atom_site_type_symbol
 _atom_site_label
 _atom_site_symmetry_multiplicity
 _atom_site_fract_x
 _atom_site_fract_y
 _atom_site_fract_z
 _atom_site_occupancy
  Cs  Cs0  1  0.070474  0.429526  0.250000  1
  Cs  Cs1  1  0.429526  0.070474  0.750000  1
  Cs  Cs2  1  0.929610  0.570390  0.750000  1
  Cs  Cs3  1  0.570390  0.929610  0.250000  1
  Cs  Cs4  1  0.677246  0.322652  0.212634  1
  Cs  Cs5  1  0.822754  0.177348  0.712634  1
  Cs  Cs6  1  0.322652  0.677246  0.787366  1
  Cs  Cs7  1  0.177348  0.822754  0.287366  1
  Na  Na8  1  0.382112  0.382112  0.000000  1
  Na  Na9  1  0.117888  0.117888  0.500000  1
  Na  Na10  1  0.617738  0.617738  0.000000  1
  Na  Na11  1  0.882262  0.882262  0.500000  1
  Dy  Dy12  1  0.869330  0.869330  0.000000  1
  Dy  Dy13  1  0.630670  0.630670  0.500000  1
  Er  Er14  1  0.130804  0.130804  0.000000  1
  Er  Er15  1  0.369196  0.369196  0.500000  1
  Sb  Sb16  1  0.842156  0.657843  0.250000  1
  Sb  Sb17  1  0.657843  0.842156  0.750000  1
  Sb  Sb18  1  0.158582  0.341417  0.750000  1
  Sb  Sb19  1  0.341417  0.158582  0.250000  1
  Sb  Sb20  1  0.905271  0.095851  0.210423  1
  Sb  Sb21  1  0.594729  0.404149  0.710423  1
  Sb  Sb22  1  0.095851  0.905271  0.789577  1
  Sb  Sb23  1  0.404149  0.594729  0.289577  1
