# generated using pymatgen
data_CeSm4Al2Ru3
_symmetry_space_group_name_H-M   'P 1'
_cell_length_a   8.59604744
_cell_length_b   8.48575385
_cell_length_c   8.46343448
_cell_angle_alpha   110.00503389
_cell_angle_beta   109.27685337
_cell_angle_gamma   110.39118285
_symmetry_Int_Tables_number   1
_chemical_formula_structural   CeSm4Al2Ru3
_chemical_formula_sum   'Ce2 Sm8 Al4 Ru6'
_cell_volume   467.67477769
_cell_formula_units_Z   2
loop_
 _symmetry_equiv_pos_site_id
 _symmetry_equiv_pos_as_xyz
  1  'x, y, z'
loop_
 _atom_site_type_symbol
 _atom_site_label
 _atom_site_symmetry_multiplicity
 _atom_site_fract_x
 _atom_site_fract_y
 _atom_site_fract_z
 _atom_site_occupancy
  Ce  Ce0  1  0.943764  0.250226  0.196019  1
  Ce  Ce1  1  0.197498  0.942181  0.251777  1
  Sm  Sm2  1  0.783559  0.787846  0.779870  1
  Sm  Sm3  1  0.315371  0.563435  0.754671  1
  Sm  Sm4  1  0.752497  0.315021  0.566066  1
  Sm  Sm5  1  0.563385  0.748510  0.309610  1
  Sm  Sm6  1  0.723319  0.503739  0.999057  1
  Sm  Sm7  1  0.999141  0.719726  0.505713  1
  Sm  Sm8  1  0.501341  0.990602  0.715923  1
  Sm  Sm9  1  0.254265  0.191981  0.934730  1
  Al  Al10  1  0.412550  0.407165  0.407114  1
  Al  Al11  1  0.091843  0.491470  0.999658  1
  Al  Al12  1  0.998881  0.091026  0.498565  1
  Al  Al13  1  0.502983  0.013003  0.097284  1
  Ru  Ru14  1  0.871721  0.118658  0.738414  1
  Ru  Ru15  1  0.756153  0.912865  0.123651  1
  Ru  Ru16  1  0.131132  0.765900  0.919508  1
  Ru  Ru17  1  0.220564  0.584046  0.360843  1
  Ru  Ru18  1  0.354474  0.216386  0.588205  1
  Ru  Ru19  1  0.625560  0.386214  0.253319  1
