# generated using pymatgen
data_Zr12Al2GaSi(Ir2N)4
_symmetry_space_group_name_H-M   'P 1'
_cell_length_a   8.55643770
_cell_length_b   8.55643832
_cell_length_c   8.55643800
_cell_angle_alpha   60.13360761
_cell_angle_beta   60.13361295
_cell_angle_gamma   60.13360544
_symmetry_Int_Tables_number   1
_chemical_formula_structural   Zr12Al2GaSi(Ir2N)4
_chemical_formula_sum   'Zr12 Al2 Ga1 Si1 Ir8 N4'
_cell_volume   444.30020321
_cell_formula_units_Z   1
loop_
 _symmetry_equiv_pos_site_id
 _symmetry_equiv_pos_as_xyz
  1  'x, y, z'
loop_
 _atom_site_type_symbol
 _atom_site_label
 _atom_site_symmetry_multiplicity
 _atom_site_fract_x
 _atom_site_fract_y
 _atom_site_fract_z
 _atom_site_occupancy
  Zr  Zr0  1  0.807545  0.807545  0.192800  1
  Zr  Zr1  1  0.192368  0.192368  0.806697  1
  Zr  Zr2  1  0.807569  0.193083  0.807017  1
  Zr  Zr3  1  0.192103  0.807345  0.191941  1
  Zr  Zr4  1  0.193083  0.807569  0.807017  1
  Zr  Zr5  1  0.807345  0.192103  0.191941  1
  Zr  Zr6  1  0.442455  0.442455  0.057200  1
  Zr  Zr7  1  0.057632  0.057632  0.443303  1
  Zr  Zr8  1  0.442431  0.056917  0.442983  1
  Zr  Zr9  1  0.057897  0.442655  0.058059  1
  Zr  Zr10  1  0.056917  0.442431  0.442983  1
  Zr  Zr11  1  0.442655  0.057897  0.058059  1
  Al  Al12  1  0.125000  0.625000  0.625000  1
  Al  Al13  1  0.625000  0.125000  0.625000  1
  Ga  Ga14  1  0.625000  0.625000  0.125000  1
  Si  Si15  1  0.625000  0.625000  0.625000  1
  Ir  Ir16  1  0.752860  0.416610  0.419777  1
  Ir  Ir17  1  0.416610  0.752860  0.419777  1
  Ir  Ir18  1  0.417500  0.417500  0.753215  1
  Ir  Ir19  1  0.414478  0.414478  0.417464  1
  Ir  Ir20  1  0.497140  0.833390  0.830223  1
  Ir  Ir21  1  0.833390  0.497140  0.830223  1
  Ir  Ir22  1  0.832500  0.832500  0.496785  1
  Ir  Ir23  1  0.835522  0.835522  0.832536  1
  N  N24  1  0.625000  0.125000  0.125000  1
  N  N25  1  0.125000  0.625000  0.125000  1
  N  N26  1  0.125000  0.125000  0.625000  1
  N  N27  1  0.125000  0.125000  0.125000  1
