# generated using pymatgen
data_Zr6Al16IrPt5Rh
_symmetry_space_group_name_H-M   'P 1'
_cell_length_a   8.79339561
_cell_length_b   8.78022754
_cell_length_c   8.78022704
_cell_angle_alpha   59.86874530
_cell_angle_beta   59.95037176
_cell_angle_gamma   59.95037324
_symmetry_Int_Tables_number   1
_chemical_formula_structural   Zr6Al16IrPt5Rh
_chemical_formula_sum   'Zr6 Al16 Ir1 Pt5 Rh1'
_cell_volume   478.51432405
_cell_formula_units_Z   1
loop_
 _symmetry_equiv_pos_site_id
 _symmetry_equiv_pos_as_xyz
  1  'x, y, z'
loop_
 _atom_site_type_symbol
 _atom_site_label
 _atom_site_symmetry_multiplicity
 _atom_site_fract_x
 _atom_site_fract_y
 _atom_site_fract_z
 _atom_site_occupancy
  Zr  Zr0  1  0.687193  0.685438  0.314562  1
  Zr  Zr1  1  0.312807  0.685438  0.314562  1
  Zr  Zr2  1  0.686975  0.313025  0.313025  1
  Zr  Zr3  1  0.312807  0.314562  0.685438  1
  Zr  Zr4  1  0.687193  0.314562  0.685438  1
  Zr  Zr5  1  0.313025  0.686975  0.686975  1
  Al  Al6  1  0.883796  0.875152  0.357257  1
  Al  Al7  1  0.883796  0.357257  0.875152  1
  Al  Al8  1  0.355579  0.881242  0.881242  1
  Al  Al9  1  0.881937  0.881242  0.881242  1
  Al  Al10  1  0.116204  0.124848  0.642743  1
  Al  Al11  1  0.116204  0.642743  0.124848  1
  Al  Al12  1  0.644421  0.118758  0.118758  1
  Al  Al13  1  0.118063  0.118758  0.118758  1
  Al  Al14  1  0.664415  0.663959  0.007208  1
  Al  Al15  1  0.664415  0.007208  0.663959  1
  Al  Al16  1  0.007300  0.663284  0.663284  1
  Al  Al17  1  0.666130  0.663284  0.663284  1
  Al  Al18  1  0.335585  0.336041  0.992792  1
  Al  Al19  1  0.335585  0.992792  0.336041  1
  Al  Al20  1  0.992700  0.336716  0.336716  1
  Al  Al21  1  0.333870  0.336716  0.336716  1
  Ir  Ir22  1  0.000000  0.500000  0.500000  1
  Pt  Pt23  1  0.000000  0.000000  0.500000  1
  Pt  Pt24  1  0.500000  0.000000  0.500000  1
  Pt  Pt25  1  0.500000  0.500000  0.000000  1
  Pt  Pt26  1  0.000000  0.500000  0.000000  1
  Pt  Pt27  1  0.500000  0.000000  0.000000  1
  Rh  Rh28  1  0.000000  0.000000  0.000000  1
