# generated using pymatgen
data_TbTh7(FeSi3)4
_symmetry_space_group_name_H-M   'P 1'
_cell_length_a   8.12105700
_cell_length_b   8.12105667
_cell_length_c   8.27030500
_cell_angle_alpha   90.00000000
_cell_angle_beta   90.00000000
_cell_angle_gamma   120.00000541
_symmetry_Int_Tables_number   1
_chemical_formula_structural   TbTh7(FeSi3)4
_chemical_formula_sum   'Tb1 Th7 Fe4 Si12'
_cell_volume   472.36448130
_cell_formula_units_Z   1
loop_
 _symmetry_equiv_pos_site_id
 _symmetry_equiv_pos_as_xyz
  1  'x, y, z'
loop_
 _atom_site_type_symbol
 _atom_site_label
 _atom_site_symmetry_multiplicity
 _atom_site_fract_x
 _atom_site_fract_y
 _atom_site_fract_z
 _atom_site_occupancy
  Tb  Tb0  1  0.000000  0.000000  0.750000  1
  Th  Th1  1  0.499745  0.999488  0.250000  1
  Th  Th2  1  0.500038  0.000079  0.750000  1
  Th  Th3  1  0.000512  0.500255  0.250000  1
  Th  Th4  1  0.999921  0.499962  0.750000  1
  Th  Th5  1  0.499745  0.500255  0.250000  1
  Th  Th6  1  0.500038  0.499962  0.750000  1
  Th  Th7  1  0.000000  0.000000  0.250000  1
  Fe  Fe8  1  0.333333  0.666667  0.993836  1
  Fe  Fe9  1  0.666667  0.333333  0.993685  1
  Fe  Fe10  1  0.666667  0.333333  0.506315  1
  Fe  Fe11  1  0.333333  0.666667  0.506164  1
  Si  Si12  1  0.170006  0.340011  0.000622  1
  Si  Si13  1  0.830103  0.660207  0.000968  1
  Si  Si14  1  0.659989  0.829994  0.000622  1
  Si  Si15  1  0.830103  0.660207  0.499032  1
  Si  Si16  1  0.339793  0.169897  0.000968  1
  Si  Si17  1  0.170006  0.340011  0.499378  1
  Si  Si18  1  0.170006  0.829994  0.000622  1
  Si  Si19  1  0.339793  0.169897  0.499032  1
  Si  Si20  1  0.830103  0.169897  0.000968  1
  Si  Si21  1  0.659989  0.829994  0.499378  1
  Si  Si22  1  0.830103  0.169897  0.499032  1
  Si  Si23  1  0.170006  0.829994  0.499378  1
