# generated using pymatgen
data_Hf18Ta3Re5Ni2
_symmetry_space_group_name_H-M   'P 1'
_cell_length_a   8.48332400
_cell_length_b   8.66927606
_cell_length_c   8.69398447
_cell_angle_alpha   119.90462835
_cell_angle_beta   90.00000000
_cell_angle_gamma   90.00000000
_symmetry_Int_Tables_number   1
_chemical_formula_structural   Hf18Ta3Re5Ni2
_chemical_formula_sum   'Hf18 Ta3 Re5 Ni2'
_cell_volume   554.26179819
_cell_formula_units_Z   1
loop_
 _symmetry_equiv_pos_site_id
 _symmetry_equiv_pos_as_xyz
  1  'x, y, z'
loop_
 _atom_site_type_symbol
 _atom_site_label
 _atom_site_symmetry_multiplicity
 _atom_site_fract_x
 _atom_site_fract_y
 _atom_site_fract_z
 _atom_site_occupancy
  Hf  Hf0  1  0.558776  0.799917  0.599822  1
  Hf  Hf1  1  0.555607  0.798941  0.200883  1
  Hf  Hf2  1  0.555593  0.401918  0.200864  1
  Hf  Hf3  1  0.439631  0.200825  0.401655  1
  Hf  Hf4  1  0.441988  0.200039  0.799912  1
  Hf  Hf5  1  0.441978  0.599903  0.799941  1
  Hf  Hf6  1  0.060369  0.200825  0.401655  1
  Hf  Hf7  1  0.058012  0.200039  0.799912  1
  Hf  Hf8  1  0.058022  0.599903  0.799941  1
  Hf  Hf9  1  0.941224  0.799917  0.599822  1
  Hf  Hf10  1  0.944393  0.798941  0.200883  1
  Hf  Hf11  1  0.944407  0.401918  0.200864  1
  Hf  Hf12  1  0.750000  0.457938  0.915872  1
  Hf  Hf13  1  0.750000  0.459320  0.543704  1
  Hf  Hf14  1  0.750000  0.084365  0.543682  1
  Hf  Hf15  1  0.250000  0.541973  0.083960  1
  Hf  Hf16  1  0.250000  0.543818  0.458273  1
  Hf  Hf17  1  0.250000  0.914460  0.458261  1
  Ta  Ta18  1  0.750000  0.113073  0.226172  1
  Ta  Ta19  1  0.497144  0.998579  0.997154  1
  Ta  Ta20  1  0.002856  0.998579  0.997154  1
  Re  Re21  1  0.750000  0.113015  0.884608  1
  Re  Re22  1  0.750000  0.771582  0.884635  1
  Re  Re23  1  0.250000  0.886028  0.772033  1
  Re  Re24  1  0.250000  0.884742  0.113339  1
  Re  Re25  1  0.250000  0.228624  0.113327  1
  Ni  Ni26  1  0.750000  0.666342  0.332734  1
  Ni  Ni27  1  0.250000  0.334477  0.668937  1
