# generated using pymatgen
data_Nd6Al24TcRu5PtAu
_symmetry_space_group_name_H-M   'P 1'
_cell_length_a   8.92679534
_cell_length_b   8.91499496
_cell_length_c   9.69173600
_cell_angle_alpha   89.99359238
_cell_angle_beta   89.96860117
_cell_angle_gamma   119.46058507
_symmetry_Int_Tables_number   1
_chemical_formula_structural   Nd6Al24TcRu5PtAu
_chemical_formula_sum   'Nd6 Al24 Tc1 Ru5 Pt1 Au1'
_cell_volume   671.55845185
_cell_formula_units_Z   1
loop_
 _symmetry_equiv_pos_site_id
 _symmetry_equiv_pos_as_xyz
  1  'x, y, z'
loop_
 _atom_site_type_symbol
 _atom_site_label
 _atom_site_symmetry_multiplicity
 _atom_site_fract_x
 _atom_site_fract_y
 _atom_site_fract_z
 _atom_site_occupancy
  Nd  Nd0  1  0.190227  0.383182  0.247501  1
  Nd  Nd1  1  0.809773  0.616818  0.752499  1
  Nd  Nd2  1  0.619111  0.810001  0.248864  1
  Nd  Nd3  1  0.380889  0.189999  0.751136  1
  Nd  Nd4  1  0.190030  0.809041  0.254103  1
  Nd  Nd5  1  0.809970  0.190959  0.745897  1
  Al  Al6  1  0.327023  0.673207  0.020268  1
  Al  Al7  1  0.672977  0.326793  0.979732  1
  Al  Al8  1  0.669916  0.338317  0.519133  1
  Al  Al9  1  0.330084  0.661683  0.480867  1
  Al  Al10  1  0.162863  0.325879  0.574256  1
  Al  Al11  1  0.837137  0.674121  0.425744  1
  Al  Al12  1  0.674943  0.832868  0.574379  1
  Al  Al13  1  0.848187  0.676094  0.077918  1
  Al  Al14  1  0.325057  0.167132  0.425621  1
  Al  Al15  1  0.151813  0.323906  0.922082  1
  Al  Al16  1  0.157909  0.832626  0.578099  1
  Al  Al17  1  0.323259  0.151114  0.076909  1
  Al  Al18  1  0.842091  0.167374  0.421901  1
  Al  Al19  1  0.676741  0.848886  0.923091  1
  Al  Al20  1  0.836083  0.163266  0.076380  1
  Al  Al21  1  0.163917  0.836734  0.923620  1
  Al  Al22  1  0.563244  0.126161  0.245768  1
  Al  Al23  1  0.436756  0.873839  0.754232  1
  Al  Al24  1  0.876082  0.438646  0.249631  1
  Al  Al25  1  0.123918  0.561354  0.750369  1
  Al  Al26  1  0.565760  0.435407  0.258629  1
  Al  Al27  1  0.434240  0.564593  0.741371  1
  Al  Al28  1  0.997518  0.001440  0.249670  1
  Al  Al29  1  0.002482  0.998560  0.750330  1
  Tc  Tc30  1  0.000000  0.000000  0.500000  1
  Ru  Ru31  1  0.500000  0.000000  0.000000  1
  Ru  Ru32  1  0.000000  0.500000  0.000000  1
  Ru  Ru33  1  0.000000  0.500000  0.500000  1
  Ru  Ru34  1  0.500000  0.500000  0.500000  1
  Ru  Ru35  1  0.000000  0.000000  0.000000  1
  Pt  Pt36  1  0.500000  0.000000  0.500000  1
  Au  Au37  1  0.500000  0.500000  0.000000  1
