# generated using pymatgen
data_Hf2ScTi3(SiRu)6
_symmetry_space_group_name_H-M   'P 1'
_cell_length_a   7.50925159
_cell_length_b   7.51613649
_cell_length_c   7.50925067
_cell_angle_alpha   127.79467144
_cell_angle_beta   123.12488808
_cell_angle_gamma   80.80965959
_symmetry_Int_Tables_number   1
_chemical_formula_structural   Hf2ScTi3(SiRu)6
_chemical_formula_sum   'Hf2 Sc1 Ti3 Si6 Ru6'
_cell_volume   270.47821155
_cell_formula_units_Z   1
loop_
 _symmetry_equiv_pos_site_id
 _symmetry_equiv_pos_as_xyz
  1  'x, y, z'
loop_
 _atom_site_type_symbol
 _atom_site_label
 _atom_site_symmetry_multiplicity
 _atom_site_fract_x
 _atom_site_fract_y
 _atom_site_fract_z
 _atom_site_occupancy
  Hf  Hf0  1  0.969441  0.494864  0.025422  1
  Hf  Hf1  1  0.032180  0.053238  0.521058  1
  Sc  Sc2  1  0.241723  0.907103  0.165380  1
  Ti  Ti3  1  0.441672  0.480745  0.539073  1
  Ti  Ti4  1  0.758586  0.926487  0.667902  1
  Ti  Ti5  1  0.551233  0.108019  0.056784  1
  Si  Si6  1  0.779476  0.555871  0.276396  1
  Si  Si7  1  0.176411  0.159317  0.004322  1
  Si  Si8  1  0.654994  0.159317  0.482904  1
  Si  Si9  1  0.355517  0.826783  0.517468  1
  Si  Si10  1  0.229955  0.468101  0.738147  1
  Si  Si11  1  0.809316  0.826783  0.971266  1
  Ru  Ru12  1  0.527447  0.246478  0.774867  1
  Ru  Ru13  1  0.971611  0.246478  0.219031  1
  Ru  Ru14  1  0.840847  0.492871  0.587263  1
  Ru  Ru15  1  0.591711  0.748444  0.086170  1
  Ru  Ru16  1  0.405607  0.492871  0.152023  1
  Ru  Ru17  1  0.162273  0.748444  0.656734  1
