# generated using pymatgen
data_Er6TmCoBr12
_symmetry_space_group_name_H-M   'P 1'
_cell_length_a   9.12440680
_cell_length_b   9.12440681
_cell_length_c   9.12440645
_cell_angle_alpha   106.75725652
_cell_angle_beta   106.75725501
_cell_angle_gamma   106.75726059
_symmetry_Int_Tables_number   1
_chemical_formula_structural   Er6TmCoBr12
_chemical_formula_sum   'Er6 Tm1 Co1 Br12'
_cell_volume   636.78708306
_cell_formula_units_Z   1
loop_
 _symmetry_equiv_pos_site_id
 _symmetry_equiv_pos_as_xyz
  1  'x, y, z'
loop_
 _atom_site_type_symbol
 _atom_site_label
 _atom_site_symmetry_multiplicity
 _atom_site_fract_x
 _atom_site_fract_y
 _atom_site_fract_z
 _atom_site_occupancy
  Er  Er0  1  0.299067  0.095662  0.020913  1
  Er  Er1  1  0.095662  0.020913  0.299067  1
  Er  Er2  1  0.020913  0.299067  0.095662  1
  Er  Er3  1  0.700933  0.904338  0.979087  1
  Er  Er4  1  0.904338  0.979087  0.700933  1
  Er  Er5  1  0.979087  0.700933  0.904338  1
  Tm  Tm6  1  0.500000  0.500000  0.500000  1
  Co  Co7  1  0.000000  0.000000  0.000000  1
  Br  Br8  1  0.220693  0.070054  0.676424  1
  Br  Br9  1  0.070054  0.676424  0.220693  1
  Br  Br10  1  0.676424  0.220693  0.070054  1
  Br  Br11  1  0.779307  0.929946  0.323576  1
  Br  Br12  1  0.929946  0.323576  0.779307  1
  Br  Br13  1  0.323576  0.779307  0.929946  1
  Br  Br14  1  0.387478  0.461472  0.168613  1
  Br  Br15  1  0.461472  0.168613  0.387478  1
  Br  Br16  1  0.168613  0.387478  0.461472  1
  Br  Br17  1  0.612522  0.538528  0.831387  1
  Br  Br18  1  0.538528  0.831387  0.612522  1
  Br  Br19  1  0.831387  0.612522  0.538528  1
