# generated using pymatgen
data_Zr3Zn2CuN
_symmetry_space_group_name_H-M   'P 1'
_cell_length_a   8.53936336
_cell_length_b   8.53936278
_cell_length_c   8.53936400
_cell_angle_alpha   60.00000302
_cell_angle_beta   60.00000529
_cell_angle_gamma   60.00000797
_symmetry_Int_Tables_number   1
_chemical_formula_structural   Zr3Zn2CuN
_chemical_formula_sum   'Zr12 Zn8 Cu4 N4'
_cell_volume   440.31303249
_cell_formula_units_Z   4
loop_
 _symmetry_equiv_pos_site_id
 _symmetry_equiv_pos_as_xyz
  1  'x, y, z'
loop_
 _atom_site_type_symbol
 _atom_site_label
 _atom_site_symmetry_multiplicity
 _atom_site_fract_x
 _atom_site_fract_y
 _atom_site_fract_z
 _atom_site_occupancy
  Zr  Zr0  1  0.810511  0.189489  0.189489  1
  Zr  Zr1  1  0.189489  0.810511  0.189489  1
  Zr  Zr2  1  0.810511  0.810511  0.189489  1
  Zr  Zr3  1  0.189489  0.810511  0.810511  1
  Zr  Zr4  1  0.810511  0.189489  0.810511  1
  Zr  Zr5  1  0.189489  0.189489  0.810511  1
  Zr  Zr6  1  0.439489  0.060511  0.060511  1
  Zr  Zr7  1  0.060511  0.439489  0.060511  1
  Zr  Zr8  1  0.439489  0.439489  0.060511  1
  Zr  Zr9  1  0.060511  0.439489  0.439489  1
  Zr  Zr10  1  0.439489  0.060511  0.439489  1
  Zr  Zr11  1  0.060511  0.060511  0.439489  1
  Zn  Zn12  1  0.420607  0.420607  0.738178  1
  Zn  Zn13  1  0.420607  0.420607  0.420607  1
  Zn  Zn14  1  0.738178  0.420607  0.420607  1
  Zn  Zn15  1  0.420607  0.738178  0.420607  1
  Zn  Zn16  1  0.829393  0.829393  0.511822  1
  Zn  Zn17  1  0.829393  0.829393  0.829393  1
  Zn  Zn18  1  0.511822  0.829393  0.829393  1
  Zn  Zn19  1  0.829393  0.511822  0.829393  1
  Cu  Cu20  1  0.625000  0.625000  0.125000  1
  Cu  Cu21  1  0.625000  0.625000  0.625000  1
  Cu  Cu22  1  0.125000  0.625000  0.625000  1
  Cu  Cu23  1  0.625000  0.125000  0.625000  1
  N  N24  1  0.125000  0.125000  0.625000  1
  N  N25  1  0.125000  0.125000  0.125000  1
  N  N26  1  0.625000  0.125000  0.125000  1
  N  N27  1  0.125000  0.625000  0.125000  1
