# generated using pymatgen
data_TbPa2Zn3Pd2Pt
_symmetry_space_group_name_H-M   'P 1'
_cell_length_a   7.42996405
_cell_length_b   7.36584433
_cell_length_c   3.80457600
_cell_angle_alpha   90.00000000
_cell_angle_beta   90.00000000
_cell_angle_gamma   120.27469574
_symmetry_Int_Tables_number   1
_chemical_formula_structural   TbPa2Zn3Pd2Pt
_chemical_formula_sum   'Tb1 Pa2 Zn3 Pd2 Pt1'
_cell_volume   179.81973063
_cell_formula_units_Z   1
loop_
 _symmetry_equiv_pos_site_id
 _symmetry_equiv_pos_as_xyz
  1  'x, y, z'
loop_
 _atom_site_type_symbol
 _atom_site_label
 _atom_site_symmetry_multiplicity
 _atom_site_fract_x
 _atom_site_fract_y
 _atom_site_fract_z
 _atom_site_occupancy
  Tb  Tb0  1  0.403084  0.998672  0.000000  1
  Pa  Pa1  1  0.005569  0.412739  0.000000  1
  Pa  Pa2  1  0.591434  0.590532  0.000000  1
  Zn  Zn3  1  0.008743  0.756618  0.500000  1
  Zn  Zn4  1  0.253162  0.240809  0.500000  1
  Zn  Zn5  1  0.737360  0.001375  0.500000  1
  Pd  Pd6  1  0.986486  0.000192  0.000000  1
  Pd  Pd7  1  0.682480  0.350664  0.500000  1
  Pt  Pt8  1  0.331681  0.648398  0.500000  1
