# generated using pymatgen
data_Dy2Er4ReSb2
_symmetry_space_group_name_H-M   'P 1'
_cell_length_a   8.09856805
_cell_length_b   8.09856812
_cell_length_c   4.29480700
_cell_angle_alpha   90.00000000
_cell_angle_beta   90.00000000
_cell_angle_gamma   120.01218540
_symmetry_Int_Tables_number   1
_chemical_formula_structural   Dy2Er4ReSb2
_chemical_formula_sum   'Dy2 Er4 Re1 Sb2'
_cell_volume   243.91438820
_cell_formula_units_Z   1
loop_
 _symmetry_equiv_pos_site_id
 _symmetry_equiv_pos_as_xyz
  1  'x, y, z'
loop_
 _atom_site_type_symbol
 _atom_site_label
 _atom_site_symmetry_multiplicity
 _atom_site_fract_x
 _atom_site_fract_y
 _atom_site_fract_z
 _atom_site_occupancy
  Dy  Dy0  1  0.605450  0.999905  0.000000  1
  Dy  Dy1  1  0.999905  0.605450  0.000000  1
  Er  Er2  1  0.235427  0.000348  0.500000  1
  Er  Er3  1  0.000348  0.235427  0.500000  1
  Er  Er4  1  0.764584  0.764584  0.500000  1
  Er  Er5  1  0.393996  0.393996  0.000000  1
  Re  Re6  1  0.000708  0.000708  0.000000  1
  Sb  Sb7  1  0.333338  0.666243  0.500000  1
  Sb  Sb8  1  0.666243  0.333338  0.500000  1
