# generated using pymatgen
data_Ac10Sn6P
_symmetry_space_group_name_H-M   'P 1'
_cell_length_a   7.37457101
_cell_length_b   9.96132506
_cell_length_c   9.96094700
_cell_angle_alpha   120.00125456
_cell_angle_beta   89.99759645
_cell_angle_gamma   90.00480463
_symmetry_Int_Tables_number   1
_chemical_formula_structural   Ac10Sn6P
_chemical_formula_sum   'Ac10 Sn6 P1'
_cell_volume   633.69407033
_cell_formula_units_Z   1
loop_
 _symmetry_equiv_pos_site_id
 _symmetry_equiv_pos_as_xyz
  1  'x, y, z'
loop_
 _atom_site_type_symbol
 _atom_site_label
 _atom_site_symmetry_multiplicity
 _atom_site_fract_x
 _atom_site_fract_y
 _atom_site_fract_z
 _atom_site_occupancy
  Ac  Ac0  1  0.500000  0.333338  0.666677  1
  Ac  Ac1  1  0.500000  0.666661  0.333323  1
  Ac  Ac2  1  0.000000  0.666672  0.333345  1
  Ac  Ac3  1  0.000000  0.333329  0.666655  1
  Ac  Ac4  1  0.743688  0.245748  0.000000  1
  Ac  Ac5  1  0.743686  0.754241  0.754240  1
  Ac  Ac6  1  0.743686  0.999999  0.245760  1
  Ac  Ac7  1  0.256312  0.754252  0.000000  1
  Ac  Ac8  1  0.256314  0.245761  0.245760  1
  Ac  Ac9  1  0.256314  0.000002  0.754240  1
  Sn  Sn10  1  0.749746  0.605601  0.000000  1
  Sn  Sn11  1  0.749742  0.394411  0.394408  1
  Sn  Sn12  1  0.749742  0.000004  0.605592  1
  Sn  Sn13  1  0.250254  0.394399  0.000000  1
  Sn  Sn14  1  0.250258  0.605589  0.605592  1
  Sn  Sn15  1  0.250258  0.999996  0.394408  1
  P  P16  1  0.499999  0.000001  0.000000  1
