# generated using pymatgen
data_La2Pr(NdRu)2
_symmetry_space_group_name_H-M   'P 1'
_cell_length_a   9.09555397
_cell_length_b   9.09555463
_cell_length_c   7.35180516
_cell_angle_alpha   84.42359803
_cell_angle_beta   84.42359471
_cell_angle_gamma   43.11897314
_symmetry_Int_Tables_number   1
_chemical_formula_structural   La2Pr(NdRu)2
_chemical_formula_sum   'La4 Pr2 Nd4 Ru4'
_cell_volume   413.44443275
_cell_formula_units_Z   2
loop_
 _symmetry_equiv_pos_site_id
 _symmetry_equiv_pos_as_xyz
  1  'x, y, z'
loop_
 _atom_site_type_symbol
 _atom_site_label
 _atom_site_symmetry_multiplicity
 _atom_site_fract_x
 _atom_site_fract_y
 _atom_site_fract_z
 _atom_site_occupancy
  La  La0  1  0.016952  0.795064  0.905025  1
  La  La1  1  0.204936  0.983048  0.594975  1
  La  La2  1  0.982778  0.205224  0.095721  1
  La  La3  1  0.794776  0.017222  0.404279  1
  Pr  Pr4  1  0.361941  0.207819  0.816097  1
  Pr  Pr5  1  0.792181  0.638059  0.683903  1
  Nd  Nd6  1  0.637927  0.791991  0.183857  1
  Nd  Nd7  1  0.208009  0.362073  0.316143  1
  Nd  Nd8  1  0.574387  0.425613  0.750000  1
  Nd  Nd9  1  0.425521  0.574479  0.250000  1
  Ru  Ru10  1  0.165871  0.611717  0.585451  1
  Ru  Ru11  1  0.388283  0.834129  0.914549  1
  Ru  Ru12  1  0.834660  0.388222  0.413789  1
  Ru  Ru13  1  0.611778  0.165340  0.086211  1
