# generated using pymatgen
data_Tm3Zr2Sn2Bi
_symmetry_space_group_name_H-M   'P 1'
_cell_length_a   6.08314400
_cell_length_b   8.81588247
_cell_length_c   8.81051908
_cell_angle_alpha   59.98293396
_cell_angle_beta   90.00057813
_cell_angle_gamma   90.00049087
_symmetry_Int_Tables_number   1
_chemical_formula_structural   Tm3Zr2Sn2Bi
_chemical_formula_sum   'Tm6 Zr4 Sn4 Bi2'
_cell_volume   409.12056089
_cell_formula_units_Z   2
loop_
 _symmetry_equiv_pos_site_id
 _symmetry_equiv_pos_as_xyz
  1  'x, y, z'
loop_
 _atom_site_type_symbol
 _atom_site_label
 _atom_site_symmetry_multiplicity
 _atom_site_fract_x
 _atom_site_fract_y
 _atom_site_fract_z
 _atom_site_occupancy
  Tm  Tm0  1  0.750002  0.238494  0.756387  1
  Tm  Tm1  1  0.749997  0.762931  0.994975  1
  Tm  Tm2  1  0.749999  0.999766  0.244993  1
  Tm  Tm3  1  0.250004  0.757789  0.243275  1
  Tm  Tm4  1  0.250004  0.241614  0.000387  1
  Tm  Tm5  1  0.249997  0.000582  0.757749  1
  Zr  Zr6  1  0.496214  0.329924  0.335642  1
  Zr  Zr7  1  0.496147  0.669522  0.666011  1
  Zr  Zr8  1  0.003849  0.669521  0.666009  1
  Zr  Zr9  1  0.003784  0.329923  0.335646  1
  Sn  Sn10  1  0.749995  0.999931  0.599510  1
  Sn  Sn11  1  0.250024  0.396835  0.604130  1
  Sn  Sn12  1  0.249992  0.602088  0.001272  1
  Sn  Sn13  1  0.249992  0.000011  0.398963  1
  Bi  Bi14  1  0.750002  0.603054  0.395892  1
  Bi  Bi15  1  0.750001  0.398013  0.999158  1
