# generated using pymatgen
data_Yb4HoU5O18
_symmetry_space_group_name_H-M   'P 1'
_cell_length_a   6.80723063
_cell_length_b   7.46582175
_cell_length_c   8.39353800
_cell_angle_alpha   98.98063881
_cell_angle_beta   98.48729634
_cell_angle_gamma   107.77802721
_symmetry_Int_Tables_number   1
_chemical_formula_structural   Yb4HoU5O18
_chemical_formula_sum   'Yb4 Ho1 U5 O18'
_cell_volume   392.48272491
_cell_formula_units_Z   1
loop_
 _symmetry_equiv_pos_site_id
 _symmetry_equiv_pos_as_xyz
  1  'x, y, z'
loop_
 _atom_site_type_symbol
 _atom_site_label
 _atom_site_symmetry_multiplicity
 _atom_site_fract_x
 _atom_site_fract_y
 _atom_site_fract_z
 _atom_site_occupancy
  Yb  Yb0  1  0.593608  0.697788  0.196031  1
  Yb  Yb1  1  0.406630  0.303551  0.803234  1
  Yb  Yb2  1  0.208587  0.897932  0.419565  1
  Yb  Yb3  1  0.002677  0.509937  0.007614  1
  Ho  Ho4  1  0.795497  0.106346  0.578992  1
  U  U5  1  0.998398  0.997786  0.000839  1
  U  U6  1  0.790610  0.581621  0.591191  1
  U  U7  1  0.625992  0.205588  0.189290  1
  U  U8  1  0.373605  0.793291  0.807347  1
  U  U9  1  0.211334  0.421980  0.409311  1
  O  O10  1  0.818411  0.809963  0.476917  1
  O  O11  1  0.999279  0.255803  0.163024  1
  O  O12  1  0.670464  0.419235  0.061116  1
  O  O13  1  0.476062  0.998547  0.672692  1
  O  O14  1  0.860823  0.336367  0.429191  1
  O  O15  1  0.511435  0.412645  0.343813  1
  O  O16  1  0.255399  0.624824  0.275842  1
  O  O17  1  0.987119  0.829716  0.167541  1
  O  O18  1  0.656435  0.924415  0.007999  1
  O  O19  1  0.340711  0.073260  0.991023  1
  O  O20  1  0.004216  0.157155  0.824682  1
  O  O21  1  0.745875  0.371320  0.722480  1
  O  O22  1  0.490756  0.585439  0.658063  1
  O  O23  1  0.138398  0.663469  0.572101  1
  O  O24  1  0.542890  0.001253  0.326975  1
  O  O25  1  0.325669  0.579014  0.936621  1
  O  O26  1  0.996864  0.742270  0.836544  1
  O  O27  1  0.172256  0.199484  0.529955  1
