# generated using pymatgen
data_ErTm7Re2(B12Rh)2
_symmetry_space_group_name_H-M   'P 1'
_cell_length_a   3.64184700
_cell_length_b   9.08023538
_cell_length_c   11.46608800
_cell_angle_alpha   90.41407576
_cell_angle_beta   90.00000000
_cell_angle_gamma   90.00000000
_symmetry_Int_Tables_number   1
_chemical_formula_structural   ErTm7Re2(B12Rh)2
_chemical_formula_sum   'Er1 Tm7 Re2 B24 Rh2'
_cell_volume   379.16018972
_cell_formula_units_Z   1
loop_
 _symmetry_equiv_pos_site_id
 _symmetry_equiv_pos_as_xyz
  1  'x, y, z'
loop_
 _atom_site_type_symbol
 _atom_site_label
 _atom_site_symmetry_multiplicity
 _atom_site_fract_x
 _atom_site_fract_y
 _atom_site_fract_z
 _atom_site_occupancy
  Er  Er0  1  0.500000  0.317909  0.410744  1
  Tm  Tm1  1  0.500000  0.682261  0.589294  1
  Tm  Tm2  1  0.500000  0.174001  0.917504  1
  Tm  Tm3  1  0.500000  0.825988  0.082470  1
  Tm  Tm4  1  0.500000  0.442687  0.126547  1
  Tm  Tm5  1  0.500000  0.557335  0.873417  1
  Tm  Tm6  1  0.500000  0.054451  0.627984  1
  Tm  Tm7  1  0.500000  0.945419  0.372046  1
  Re  Re8  1  0.500000  0.139005  0.179863  1
  Re  Re9  1  0.500000  0.860918  0.820064  1
  B  B10  1  0.000000  0.106673  0.471255  1
  B  B11  1  0.000000  0.893093  0.528808  1
  B  B12  1  0.000000  0.394337  0.970729  1
  B  B13  1  0.000000  0.605668  0.029262  1
  B  B14  1  0.000000  0.131751  0.315274  1
  B  B15  1  0.000000  0.868106  0.684640  1
  B  B16  1  0.000000  0.367461  0.816977  1
  B  B17  1  0.000000  0.632553  0.183018  1
  B  B18  1  0.000000  0.052954  0.067046  1
  B  B19  1  0.000000  0.947028  0.932934  1
  B  B20  1  0.000000  0.445811  0.565619  1
  B  B21  1  0.000000  0.554420  0.434503  1
  B  B22  1  0.000000  0.483279  0.287606  1
  B  B23  1  0.000000  0.516909  0.712317  1
  B  B24  1  0.000000  0.017658  0.786879  1
  B  B25  1  0.000000  0.982300  0.213112  1
  B  B26  1  0.000000  0.249001  0.080730  1
  B  B27  1  0.000000  0.751001  0.919232  1
  B  B28  1  0.000000  0.250461  0.578560  1
  B  B29  1  0.000000  0.749494  0.421630  1
  B  B30  1  0.000000  0.293513  0.234894  1
  B  B31  1  0.000000  0.706420  0.764970  1
  B  B32  1  0.000000  0.208261  0.734971  1
  B  B33  1  0.000000  0.791734  0.265043  1
  Rh  Rh34  1  0.500000  0.361909  0.678744  1
  Rh  Rh35  1  0.500000  0.638231  0.321312  1
