# generated using pymatgen
data_TbYb(ErB8)2
_symmetry_space_group_name_H-M   'P 1'
_cell_length_a   7.09418999
_cell_length_b   7.09400928
_cell_length_c   4.01566100
_cell_angle_alpha   90.00000000
_cell_angle_beta   90.00000000
_cell_angle_gamma   90.01497179
_symmetry_Int_Tables_number   1
_chemical_formula_structural   TbYb(ErB8)2
_chemical_formula_sum   'Tb1 Yb1 Er2 B16'
_cell_volume   202.09315127
_cell_formula_units_Z   1
loop_
 _symmetry_equiv_pos_site_id
 _symmetry_equiv_pos_as_xyz
  1  'x, y, z'
loop_
 _atom_site_type_symbol
 _atom_site_label
 _atom_site_symmetry_multiplicity
 _atom_site_fract_x
 _atom_site_fract_y
 _atom_site_fract_z
 _atom_site_occupancy
  Tb  Tb0  1  0.817746  0.317929  0.000000  1
  Yb  Yb1  1  0.682426  0.817509  0.000000  1
  Er  Er2  1  0.182047  0.682230  0.000000  1
  Er  Er3  1  0.319343  0.180549  0.000000  1
  B  B4  1  0.499338  0.501518  0.797275  1
  B  B5  1  0.999487  0.999242  0.797269  1
  B  B6  1  0.499338  0.501518  0.202725  1
  B  B7  1  0.999487  0.999242  0.202731  1
  B  B8  1  0.913638  0.586966  0.500000  1
  B  B9  1  0.087164  0.413403  0.500000  1
  B  B10  1  0.412930  0.913703  0.500000  1
  B  B11  1  0.586281  0.087109  0.500000  1
  B  B12  1  0.675378  0.538519  0.500000  1
  B  B13  1  0.323737  0.461318  0.500000  1
  B  B14  1  0.177407  0.962065  0.500000  1
  B  B15  1  0.824062  0.037944  0.500000  1
  B  B16  1  0.461045  0.676620  0.500000  1
  B  B17  1  0.536838  0.323242  0.500000  1
  B  B18  1  0.039700  0.175537  0.500000  1
  B  B19  1  0.962607  0.823840  0.500000  1
