# generated using pymatgen
data_Zr3AlPt2C
_symmetry_space_group_name_H-M   'P 1'
_cell_length_a   8.69800226
_cell_length_b   8.69800212
_cell_length_c   8.69800300
_cell_angle_alpha   60.00000044
_cell_angle_beta   60.00000101
_cell_angle_gamma   60.00000011
_symmetry_Int_Tables_number   1
_chemical_formula_structural   Zr3AlPt2C
_chemical_formula_sum   'Zr12 Al4 Pt8 C4'
_cell_volume   465.31128539
_cell_formula_units_Z   4
loop_
 _symmetry_equiv_pos_site_id
 _symmetry_equiv_pos_as_xyz
  1  'x, y, z'
loop_
 _atom_site_type_symbol
 _atom_site_label
 _atom_site_symmetry_multiplicity
 _atom_site_fract_x
 _atom_site_fract_y
 _atom_site_fract_z
 _atom_site_occupancy
  Zr  Zr0  1  0.807375  0.807375  0.192625  1
  Zr  Zr1  1  0.192625  0.192625  0.807375  1
  Zr  Zr2  1  0.807375  0.192625  0.807375  1
  Zr  Zr3  1  0.192625  0.807375  0.192625  1
  Zr  Zr4  1  0.192625  0.807375  0.807375  1
  Zr  Zr5  1  0.807375  0.192625  0.192625  1
  Zr  Zr6  1  0.442625  0.442625  0.057375  1
  Zr  Zr7  1  0.057375  0.057375  0.442625  1
  Zr  Zr8  1  0.442625  0.057375  0.442625  1
  Zr  Zr9  1  0.057375  0.442625  0.057375  1
  Zr  Zr10  1  0.057375  0.442625  0.442625  1
  Zr  Zr11  1  0.442625  0.057375  0.057375  1
  Al  Al12  1  0.125000  0.625000  0.625000  1
  Al  Al13  1  0.625000  0.125000  0.625000  1
  Al  Al14  1  0.625000  0.625000  0.125000  1
  Al  Al15  1  0.625000  0.625000  0.625000  1
  Pt  Pt16  1  0.757325  0.414225  0.414225  1
  Pt  Pt17  1  0.414225  0.757325  0.414225  1
  Pt  Pt18  1  0.414225  0.414225  0.757325  1
  Pt  Pt19  1  0.414225  0.414225  0.414225  1
  Pt  Pt20  1  0.492675  0.835775  0.835775  1
  Pt  Pt21  1  0.835775  0.492675  0.835775  1
  Pt  Pt22  1  0.835775  0.835775  0.492675  1
  Pt  Pt23  1  0.835775  0.835775  0.835775  1
  C  C24  1  0.625000  0.125000  0.125000  1
  C  C25  1  0.125000  0.625000  0.125000  1
  C  C26  1  0.125000  0.125000  0.625000  1
  C  C27  1  0.125000  0.125000  0.125000  1
