# generated using pymatgen
data_Dy(Ta3N4)3
_symmetry_space_group_name_H-M   'P 1'
_cell_length_a   5.28198000
_cell_length_b   5.28198012
_cell_length_c   10.53517400
_cell_angle_alpha   90.00000000
_cell_angle_beta   90.00000000
_cell_angle_gamma   119.99999925
_symmetry_Int_Tables_number   1
_chemical_formula_structural   Dy(Ta3N4)3
_chemical_formula_sum   'Dy1 Ta9 N12'
_cell_volume   254.54575716
_cell_formula_units_Z   1
loop_
 _symmetry_equiv_pos_site_id
 _symmetry_equiv_pos_as_xyz
  1  'x, y, z'
loop_
 _atom_site_type_symbol
 _atom_site_label
 _atom_site_symmetry_multiplicity
 _atom_site_fract_x
 _atom_site_fract_y
 _atom_site_fract_z
 _atom_site_occupancy
  Dy  Dy0  1  0.666667  0.333333  0.000000  1
  Ta  Ta1  1  0.677448  0.675218  0.744837  1
  Ta  Ta2  1  0.324782  0.002229  0.744837  1
  Ta  Ta3  1  0.997771  0.322552  0.744837  1
  Ta  Ta4  1  0.324782  0.322552  0.255163  1
  Ta  Ta5  1  0.677448  0.002229  0.255163  1
  Ta  Ta6  1  0.997771  0.675218  0.255163  1
  Ta  Ta7  1  0.333333  0.666667  0.000000  1
  Ta  Ta8  1  0.333333  0.666667  0.500000  1
  Ta  Ta9  1  0.666667  0.333333  0.500000  1
  N  N10  1  0.658834  0.659190  0.382121  1
  N  N11  1  0.340810  0.999644  0.382121  1
  N  N12  1  0.000356  0.341166  0.382121  1
  N  N13  1  0.340810  0.341166  0.617879  1
  N  N14  1  0.658834  0.999644  0.617879  1
  N  N15  1  0.000356  0.659190  0.617879  1
  N  N16  1  0.332723  0.351440  0.868960  1
  N  N17  1  0.648560  0.981283  0.868960  1
  N  N18  1  0.018717  0.667277  0.868960  1
  N  N19  1  0.648560  0.667277  0.131040  1
  N  N20  1  0.332723  0.981283  0.131040  1
  N  N21  1  0.018717  0.351440  0.131040  1
