# generated using pymatgen
data_VSnHg8(P2O9)2
_symmetry_space_group_name_H-M   'P 1'
_cell_length_a   7.25787300
_cell_length_b   9.25510400
_cell_length_c   17.05075300
_cell_angle_alpha   90.00000000
_cell_angle_beta   90.00000000
_cell_angle_gamma   90.00000000
_symmetry_Int_Tables_number   1
_chemical_formula_structural   VSnHg8(P2O9)2
_chemical_formula_sum   'V2 Sn2 Hg16 P8 O36'
_cell_volume   1145.33947964
_cell_formula_units_Z   2
loop_
 _symmetry_equiv_pos_site_id
 _symmetry_equiv_pos_as_xyz
  1  'x, y, z'
loop_
 _atom_site_type_symbol
 _atom_site_label
 _atom_site_symmetry_multiplicity
 _atom_site_fract_x
 _atom_site_fract_y
 _atom_site_fract_z
 _atom_site_occupancy
  V  V0  1  0.892631  0.244587  0.250000  1
  V  V1  1  0.607369  0.744587  0.750000  1
  Sn  Sn2  1  0.107245  0.755277  0.750000  1
  Sn  Sn3  1  0.392755  0.255277  0.250000  1
  Hg  Hg4  1  0.640873  0.752386  0.420559  1
  Hg  Hg5  1  0.126749  0.470555  0.399765  1
  Hg  Hg6  1  0.859127  0.252386  0.920559  1
  Hg  Hg7  1  0.852448  0.529626  0.600164  1
  Hg  Hg8  1  0.134874  0.747674  0.078166  1
  Hg  Hg9  1  0.373251  0.970555  0.899765  1
  Hg  Hg10  1  0.647552  0.029626  0.100164  1
  Hg  Hg11  1  0.365126  0.247674  0.578166  1
  Hg  Hg12  1  0.365126  0.247674  0.921834  1
  Hg  Hg13  1  0.647552  0.029626  0.399836  1
  Hg  Hg14  1  0.134874  0.747674  0.421834  1
  Hg  Hg15  1  0.859127  0.252386  0.579441  1
  Hg  Hg16  1  0.126749  0.470555  0.100235  1
  Hg  Hg17  1  0.852448  0.529626  0.899836  1
  Hg  Hg18  1  0.640873  0.752386  0.079441  1
  Hg  Hg19  1  0.373251  0.970555  0.600235  1
  P  P20  1  0.357596  0.607625  0.889241  1
  P  P21  1  0.142404  0.107625  0.110759  1
  P  P22  1  0.645893  0.392216  0.388857  1
  P  P23  1  0.357596  0.607625  0.610759  1
  P  P24  1  0.142404  0.107625  0.389241  1
  P  P25  1  0.854107  0.892216  0.611143  1
  P  P26  1  0.645893  0.392216  0.111143  1
  P  P27  1  0.854107  0.892216  0.888857  1
  O  O28  1  0.970721  0.100095  0.334916  1
  O  O29  1  0.682945  0.887743  0.665842  1
  O  O30  1  0.682945  0.887743  0.834158  1
  O  O31  1  0.656380  0.169687  0.250000  1
  O  O32  1  0.661412  0.524832  0.443420  1
  O  O33  1  0.136689  0.243268  0.056581  1
  O  O34  1  0.843620  0.669687  0.750000  1
  O  O35  1  0.863977  0.756951  0.943136  1
  O  O36  1  0.817055  0.387743  0.334158  1
  O  O37  1  0.346075  0.475181  0.944052  1
  O  O38  1  0.125375  0.329422  0.250000  1
  O  O39  1  0.466758  0.405172  0.162584  1
  O  O40  1  0.153925  0.975181  0.444052  1
  O  O41  1  0.321381  0.107189  0.162767  1
  O  O42  1  0.863977  0.756951  0.556864  1
  O  O43  1  0.374625  0.829422  0.750000  1
  O  O44  1  0.363311  0.743268  0.556581  1
  O  O45  1  0.636023  0.256951  0.056864  1
  O  O46  1  0.838588  0.024832  0.943420  1
  O  O47  1  0.178619  0.607189  0.662767  1
  O  O48  1  0.178619  0.607189  0.837233  1
  O  O49  1  0.321381  0.107189  0.337233  1
  O  O50  1  0.153925  0.975181  0.055948  1
  O  O51  1  0.033242  0.905172  0.662584  1
  O  O52  1  0.817055  0.387743  0.165842  1
  O  O53  1  0.466758  0.405172  0.337416  1
  O  O54  1  0.529279  0.600095  0.834916  1
  O  O55  1  0.529279  0.600095  0.665084  1
  O  O56  1  0.033242  0.905172  0.837416  1
  O  O57  1  0.838588  0.024832  0.556580  1
  O  O58  1  0.661412  0.524832  0.056580  1
  O  O59  1  0.346075  0.475181  0.555948  1
  O  O60  1  0.136689  0.243268  0.443419  1
  O  O61  1  0.636023  0.256951  0.443136  1
  O  O62  1  0.970721  0.100095  0.165084  1
  O  O63  1  0.363311  0.743268  0.943419  1
