# generated using pymatgen
data_Ca2TbUN4
_symmetry_space_group_name_H-M   'P 1'
_cell_length_a   6.92134890
_cell_length_b   9.22529415
_cell_length_c   6.09926141
_cell_angle_alpha   29.07424737
_cell_angle_beta   55.43141576
_cell_angle_gamma   41.38729259
_symmetry_Int_Tables_number   1
_chemical_formula_structural   Ca2TbUN4
_chemical_formula_sum   'Ca2 Tb1 U1 N4'
_cell_volume   120.29972852
_cell_formula_units_Z   1
loop_
 _symmetry_equiv_pos_site_id
 _symmetry_equiv_pos_as_xyz
  1  'x, y, z'
loop_
 _atom_site_type_symbol
 _atom_site_label
 _atom_site_symmetry_multiplicity
 _atom_site_fract_x
 _atom_site_fract_y
 _atom_site_fract_z
 _atom_site_occupancy
  Ca  Ca0  1  0.750000  0.500000  0.000000  1
  Ca  Ca1  1  0.500000  0.000000  0.000000  1
  Tb  Tb2  1  0.250000  0.500000  0.000000  1
  U  U3  1  0.000000  0.000000  0.000000  1
  N  N4  1  0.491105  0.500000  0.517791  1
  N  N5  1  0.211623  0.000000  0.576754  1
  N  N6  1  0.008895  0.500000  0.482209  1
  N  N7  1  0.788377  0.000000  0.423246  1
