# generated using pymatgen
data_CaYbEr6(B6Ru)4
_symmetry_space_group_name_H-M   'P 1'
_cell_length_a   3.63540200
_cell_length_b   9.11157764
_cell_length_c   11.50422517
_cell_angle_alpha   89.81795768
_cell_angle_beta   90.00000000
_cell_angle_gamma   90.00000000
_symmetry_Int_Tables_number   1
_chemical_formula_structural   CaYbEr6(B6Ru)4
_chemical_formula_sum   'Ca1 Yb1 Er6 B24 Ru4'
_cell_volume   381.06687940
_cell_formula_units_Z   1
loop_
 _symmetry_equiv_pos_site_id
 _symmetry_equiv_pos_as_xyz
  1  'x, y, z'
loop_
 _atom_site_type_symbol
 _atom_site_label
 _atom_site_symmetry_multiplicity
 _atom_site_fract_x
 _atom_site_fract_y
 _atom_site_fract_z
 _atom_site_occupancy
  Ca  Ca0  1  0.000000  0.675942  0.585158  1
  Yb  Yb1  1  0.000000  0.324791  0.414631  1
  Er  Er2  1  0.000000  0.822283  0.086143  1
  Er  Er3  1  0.000000  0.177710  0.913878  1
  Er  Er4  1  0.000000  0.941915  0.369536  1
  Er  Er5  1  0.000000  0.058461  0.630223  1
  Er  Er6  1  0.000000  0.442442  0.130586  1
  Er  Er7  1  0.000000  0.557368  0.869586  1
  B  B8  1  0.500000  0.553657  0.431949  1
  B  B9  1  0.500000  0.445274  0.567597  1
  B  B10  1  0.500000  0.053518  0.066594  1
  B  B11  1  0.500000  0.946641  0.933540  1
  B  B12  1  0.500000  0.748248  0.417283  1
  B  B13  1  0.500000  0.251744  0.582121  1
  B  B14  1  0.500000  0.248189  0.080860  1
  B  B15  1  0.500000  0.751817  0.919400  1
  B  B16  1  0.500000  0.791218  0.264130  1
  B  B17  1  0.500000  0.208701  0.735691  1
  B  B18  1  0.500000  0.289846  0.234061  1
  B  B19  1  0.500000  0.710185  0.766438  1
  B  B20  1  0.500000  0.631214  0.184785  1
  B  B21  1  0.500000  0.368444  0.815323  1
  B  B22  1  0.500000  0.130352  0.313776  1
  B  B23  1  0.500000  0.870196  0.686507  1
  B  B24  1  0.500000  0.982627  0.211283  1
  B  B25  1  0.500000  0.017629  0.788756  1
  B  B26  1  0.500000  0.483536  0.287804  1
  B  B27  1  0.500000  0.515851  0.712380  1
  B  B28  1  0.500000  0.603834  0.028650  1
  B  B29  1  0.500000  0.396011  0.971478  1
  B  B30  1  0.500000  0.099037  0.472522  1
  B  B31  1  0.500000  0.901665  0.527205  1
  Ru  Ru32  1  0.000000  0.639811  0.318018  1
  Ru  Ru33  1  0.000000  0.359566  0.681758  1
  Ru  Ru34  1  0.000000  0.136646  0.177772  1
  Ru  Ru35  1  0.000000  0.863628  0.822581  1
