# generated using pymatgen
data_Tb7Pr(CdPt)2
_symmetry_space_group_name_H-M   'P 1'
_cell_length_a   9.78211116
_cell_length_b   9.78211189
_cell_length_c   9.74954900
_cell_angle_alpha   60.11005216
_cell_angle_beta   60.11004970
_cell_angle_gamma   59.77990109
_symmetry_Int_Tables_number   1
_chemical_formula_structural   Tb7Pr(CdPt)2
_chemical_formula_sum   'Tb14 Pr2 Cd4 Pt4'
_cell_volume   659.66761858
_cell_formula_units_Z   2
loop_
 _symmetry_equiv_pos_site_id
 _symmetry_equiv_pos_as_xyz
  1  'x, y, z'
loop_
 _atom_site_type_symbol
 _atom_site_label
 _atom_site_symmetry_multiplicity
 _atom_site_fract_x
 _atom_site_fract_y
 _atom_site_fract_z
 _atom_site_occupancy
  Tb  Tb0  1  0.351221  0.351221  0.351078  1
  Tb  Tb1  1  0.351221  0.351221  0.946480  1
  Tb  Tb2  1  0.351078  0.946480  0.351221  1
  Tb  Tb3  1  0.946480  0.351078  0.351221  1
  Tb  Tb4  1  0.809546  0.190454  0.190454  1
  Tb  Tb5  1  0.190454  0.809546  0.809546  1
  Tb  Tb6  1  0.190454  0.809546  0.190454  1
  Tb  Tb7  1  0.809546  0.190454  0.809546  1
  Tb  Tb8  1  0.190697  0.190697  0.809303  1
  Tb  Tb9  1  0.809303  0.809303  0.190697  1
  Tb  Tb10  1  0.938293  0.561707  0.561707  1
  Tb  Tb11  1  0.561707  0.938293  0.938293  1
  Tb  Tb12  1  0.561707  0.938293  0.561707  1
  Tb  Tb13  1  0.938293  0.561707  0.938293  1
  Pr  Pr14  1  0.567182  0.567182  0.932818  1
  Pr  Pr15  1  0.932818  0.932818  0.567182  1
  Cd  Cd16  1  0.582140  0.582140  0.578293  1
  Cd  Cd17  1  0.582140  0.582140  0.257426  1
  Cd  Cd18  1  0.578293  0.257426  0.582140  1
  Cd  Cd19  1  0.257426  0.578293  0.582140  1
  Pt  Pt20  1  0.144200  0.144200  0.141011  1
  Pt  Pt21  1  0.144200  0.144200  0.570590  1
  Pt  Pt22  1  0.141011  0.570590  0.144200  1
  Pt  Pt23  1  0.570590  0.141011  0.144200  1
