# generated using pymatgen
data_GdCrClO4
_symmetry_space_group_name_H-M   'P 1'
_cell_length_a   6.21379353
_cell_length_b   6.21378753
_cell_length_c   6.73839972
_cell_angle_alpha   102.35037977
_cell_angle_beta   102.34604465
_cell_angle_gamma   71.90108097
_symmetry_Int_Tables_number   1
_chemical_formula_structural   GdCrClO4
_chemical_formula_sum   'Gd2 Cr2 Cl2 O8'
_cell_volume   238.51922270
_cell_formula_units_Z   2
loop_
 _symmetry_equiv_pos_site_id
 _symmetry_equiv_pos_as_xyz
  1  'x, y, z'
loop_
 _atom_site_type_symbol
 _atom_site_label
 _atom_site_symmetry_multiplicity
 _atom_site_fract_x
 _atom_site_fract_y
 _atom_site_fract_z
 _atom_site_occupancy
  Gd  Gd0  1  0.223384  0.223388  0.115629  1
  Gd  Gd1  1  0.776616  0.776612  0.884372  1
  Cr  Cr2  1  0.639757  0.639713  0.267888  1
  Cr  Cr3  1  0.360243  0.360287  0.732111  1
  Cl  Cl4  1  0.985842  0.985730  0.237334  1
  Cl  Cl5  1  0.014158  0.014270  0.762666  1
  O  O6  1  0.872139  0.509985  0.148489  1
  O  O7  1  0.510033  0.872133  0.148545  1
  O  O8  1  0.471588  0.471467  0.227523  1
  O  O9  1  0.287198  0.287360  0.483837  1
  O  O10  1  0.712802  0.712640  0.516162  1
  O  O11  1  0.528412  0.528533  0.772477  1
  O  O12  1  0.489967  0.127867  0.851454  1
  O  O13  1  0.127861  0.490015  0.851510  1
