# generated using pymatgen
data_Yb4ScGa(OsO6)2
_symmetry_space_group_name_H-M   'P 1'
_cell_length_a   5.60297987
_cell_length_b   5.37614048
_cell_length_c   9.38580402
_cell_angle_alpha   55.17079349
_cell_angle_beta   89.73463758
_cell_angle_gamma   90.00612388
_symmetry_Int_Tables_number   1
_chemical_formula_structural   Yb4ScGa(OsO6)2
_chemical_formula_sum   'Yb4 Sc1 Ga1 Os2 O12'
_cell_volume   232.07170043
_cell_formula_units_Z   1
loop_
 _symmetry_equiv_pos_site_id
 _symmetry_equiv_pos_as_xyz
  1  'x, y, z'
loop_
 _atom_site_type_symbol
 _atom_site_label
 _atom_site_symmetry_multiplicity
 _atom_site_fract_x
 _atom_site_fract_y
 _atom_site_fract_z
 _atom_site_occupancy
  Yb  Yb0  1  0.939489  0.228446  0.753073  1
  Yb  Yb1  1  0.564325  0.237955  0.245160  1
  Yb  Yb2  1  0.060511  0.771554  0.246927  1
  Yb  Yb3  1  0.435675  0.762045  0.754840  1
  Sc  Sc4  1  0.500000  0.500000  0.500000  1
  Ga  Ga5  1  0.000000  0.500000  0.000000  1
  Os  Os6  1  0.000000  0.000000  0.500000  1
  Os  Os7  1  0.500000  0.000000  0.000000  1
  O  O8  1  0.533562  0.345376  0.757365  1
  O  O9  1  0.967287  0.350981  0.250572  1
  O  O10  1  0.466438  0.654624  0.242635  1
  O  O11  1  0.032713  0.649019  0.749428  1
  O  O12  1  0.701491  0.752074  0.948856  1
  O  O13  1  0.806874  0.756094  0.447547  1
  O  O14  1  0.298509  0.247926  0.051144  1
  O  O15  1  0.193126  0.243906  0.552453  1
  O  O16  1  0.794696  0.142974  0.053731  1
  O  O17  1  0.706936  0.133817  0.554678  1
  O  O18  1  0.205304  0.857026  0.946269  1
  O  O19  1  0.293064  0.866183  0.445322  1
