# generated using pymatgen
data_SrAc(MnN3)2
_symmetry_space_group_name_H-M   'P 1'
_cell_length_a   6.44097980
_cell_length_b   6.44098024
_cell_length_c   5.47751400
_cell_angle_alpha   90.00000000
_cell_angle_beta   90.00000000
_cell_angle_gamma   142.70750239
_symmetry_Int_Tables_number   1
_chemical_formula_structural   SrAc(MnN3)2
_chemical_formula_sum   'Sr1 Ac1 Mn2 N6'
_cell_volume   137.68196401
_cell_formula_units_Z   1
loop_
 _symmetry_equiv_pos_site_id
 _symmetry_equiv_pos_as_xyz
  1  'x, y, z'
loop_
 _atom_site_type_symbol
 _atom_site_label
 _atom_site_symmetry_multiplicity
 _atom_site_fract_x
 _atom_site_fract_y
 _atom_site_fract_z
 _atom_site_occupancy
  Sr  Sr0  1  0.369812  0.630188  0.250000  1
  Ac  Ac1  1  0.627957  0.372043  0.750000  1
  Mn  Mn2  1  0.909014  0.090986  0.750000  1
  Mn  Mn3  1  0.090466  0.909534  0.250000  1
  N  N4  1  0.470384  0.840360  0.750000  1
  N  N5  1  0.159640  0.529616  0.750000  1
  N  N6  1  0.000840  0.999160  0.998444  1
  N  N7  1  0.529756  0.158709  0.250000  1
  N  N8  1  0.841291  0.470244  0.250000  1
  N  N9  1  0.000840  0.999160  0.501556  1
