# generated using pymatgen
data_Hf17Pa(FeMo4)2
_symmetry_space_group_name_H-M   'P 1'
_cell_length_a   8.46454637
_cell_length_b   8.73774422
_cell_length_c   8.70886333
_cell_angle_alpha   120.10899181
_cell_angle_beta   89.34735609
_cell_angle_gamma   89.99961459
_symmetry_Int_Tables_number   1
_chemical_formula_structural   Hf17Pa(FeMo4)2
_chemical_formula_sum   'Hf17 Pa1 Fe2 Mo8'
_cell_volume   557.15935492
_cell_formula_units_Z   1
loop_
 _symmetry_equiv_pos_site_id
 _symmetry_equiv_pos_as_xyz
  1  'x, y, z'
loop_
 _atom_site_type_symbol
 _atom_site_label
 _atom_site_symmetry_multiplicity
 _atom_site_fract_x
 _atom_site_fract_y
 _atom_site_fract_z
 _atom_site_occupancy
  Hf  Hf0  1  0.555791  0.800364  0.197390  1
  Hf  Hf1  1  0.555779  0.397016  0.197383  1
  Hf  Hf2  1  0.442323  0.203110  0.406229  1
  Hf  Hf3  1  0.440233  0.205477  0.798257  1
  Hf  Hf4  1  0.440245  0.592789  0.798263  1
  Hf  Hf5  1  0.059010  0.201197  0.402398  1
  Hf  Hf6  1  0.059251  0.202973  0.798667  1
  Hf  Hf7  1  0.059239  0.595703  0.798671  1
  Hf  Hf8  1  0.948394  0.800328  0.600650  1
  Hf  Hf9  1  0.940608  0.799323  0.201074  1
  Hf  Hf10  1  0.940613  0.401741  0.201067  1
  Hf  Hf11  1  0.749957  0.459415  0.918844  1
  Hf  Hf12  1  0.753874  0.453553  0.539181  1
  Hf  Hf13  1  0.753877  0.085622  0.539187  1
  Hf  Hf14  1  0.247186  0.542204  0.084395  1
  Hf  Hf15  1  0.245662  0.535535  0.455234  1
  Hf  Hf16  1  0.245664  0.919703  0.455232  1
  Pa  Pa17  1  0.561533  0.791303  0.582608  1
  Fe  Fe18  1  0.738215  0.678372  0.356773  1
  Fe  Fe19  1  0.248750  0.334452  0.668861  1
  Mo  Mo20  1  0.750904  0.111924  0.223863  1
  Mo  Mo21  1  0.751702  0.113920  0.889662  1
  Mo  Mo22  1  0.751703  0.775734  0.889667  1
  Mo  Mo23  1  0.256983  0.886700  0.773384  1
  Mo  Mo24  1  0.249507  0.887473  0.111150  1
  Mo  Mo25  1  0.249505  0.223686  0.111150  1
  Mo  Mo26  1  0.499795  0.000475  0.000948  1
  Mo  Mo27  1  0.003699  0.999907  0.999812  1
