# generated using pymatgen
data_Pr3Nd(AuBr6)4
_symmetry_space_group_name_H-M   'P 1'
_cell_length_a   8.27938328
_cell_length_b   10.63274400
_cell_length_c   15.25510153
_cell_angle_alpha   103.49685866
_cell_angle_beta   95.92348359
_cell_angle_gamma   112.21688360
_symmetry_Int_Tables_number   1
_chemical_formula_structural   Pr3Nd(AuBr6)4
_chemical_formula_sum   'Pr3 Nd1 Au4 Br24'
_cell_volume   1181.25291527
_cell_formula_units_Z   1
loop_
 _symmetry_equiv_pos_site_id
 _symmetry_equiv_pos_as_xyz
  1  'x, y, z'
loop_
 _atom_site_type_symbol
 _atom_site_label
 _atom_site_symmetry_multiplicity
 _atom_site_fract_x
 _atom_site_fract_y
 _atom_site_fract_z
 _atom_site_occupancy
  Pr  Pr0  1  0.579801  0.921760  0.621538  1
  Pr  Pr1  1  0.420174  0.078217  0.378446  1
  Pr  Pr2  1  0.976900  0.311860  0.870924  1
  Nd  Nd3  1  0.023333  0.688085  0.129079  1
  Au  Au4  1  0.295667  0.631323  0.762492  1
  Au  Au5  1  0.704375  0.368731  0.237498  1
  Au  Au6  1  0.500000  0.499999  0.499997  1
  Au  Au7  1  0.999994  0.999948  0.000016  1
  Br  Br8  1  0.610919  0.731772  0.747365  1
  Br  Br9  1  0.389080  0.268231  0.252638  1
  Br  Br10  1  0.275432  0.845655  0.735220  1
  Br  Br11  1  0.724575  0.154345  0.264783  1
  Br  Br12  1  0.978127  0.534093  0.773863  1
  Br  Br13  1  0.021834  0.466343  0.225936  1
  Br  Br14  1  0.315344  0.413557  0.785604  1
  Br  Br15  1  0.685197  0.586597  0.214268  1
  Br  Br16  1  0.692233  0.369590  0.506916  1
  Br  Br17  1  0.307769  0.630414  0.493085  1
  Br  Br18  1  0.763240  0.727035  0.524589  1
  Br  Br19  1  0.236744  0.272951  0.475408  1
  Br  Br20  1  0.784003  0.105316  0.975802  1
  Br  Br21  1  0.215592  0.894298  0.024408  1
  Br  Br22  1  0.767395  0.795261  0.030629  1
  Br  Br23  1  0.232986  0.204606  0.969511  1
  Br  Br24  1  0.614968  0.192522  0.746704  1
  Br  Br25  1  0.384226  0.807217  0.253028  1
  Br  Br26  1  0.954387  0.054692  0.727433  1
  Br  Br27  1  0.045541  0.944666  0.272206  1
  Br  Br28  1  0.730110  0.049674  0.480449  1
  Br  Br29  1  0.269883  0.950320  0.519544  1
  Br  Br30  1  0.759925  0.435703  0.978229  1
  Br  Br31  1  0.240245  0.565220  0.022391  1
