# generated using pymatgen
data_Np7UH24
_symmetry_space_group_name_H-M   'P 1'
_cell_length_a   6.64358400
_cell_length_b   6.64358400
_cell_length_c   6.64358400
_cell_angle_alpha   90.00000000
_cell_angle_beta   90.00000000
_cell_angle_gamma   90.00000000
_symmetry_Int_Tables_number   1
_chemical_formula_structural   Np7UH24
_chemical_formula_sum   'Np7 U1 H24'
_cell_volume   293.22925130
_cell_formula_units_Z   1
loop_
 _symmetry_equiv_pos_site_id
 _symmetry_equiv_pos_as_xyz
  1  'x, y, z'
loop_
 _atom_site_type_symbol
 _atom_site_label
 _atom_site_symmetry_multiplicity
 _atom_site_fract_x
 _atom_site_fract_y
 _atom_site_fract_z
 _atom_site_occupancy
  Np  Np0  1  0.000000  0.000000  0.000000  1
  Np  Np1  1  0.248958  0.000000  0.500000  1
  Np  Np2  1  0.751042  0.000000  0.500000  1
  Np  Np3  1  0.000000  0.500000  0.248958  1
  Np  Np4  1  0.000000  0.500000  0.751042  1
  Np  Np5  1  0.500000  0.751042  0.000000  1
  Np  Np6  1  0.500000  0.248958  0.000000  1
  U  U7  1  0.500000  0.500000  0.500000  1
  H  H8  1  0.000000  0.155364  0.302900  1
  H  H9  1  0.500000  0.195969  0.654395  1
  H  H10  1  0.500000  0.804031  0.345605  1
  H  H11  1  0.804031  0.654395  0.500000  1
  H  H12  1  0.195969  0.654395  0.500000  1
  H  H13  1  0.345605  0.500000  0.804031  1
  H  H14  1  0.654395  0.500000  0.804031  1
  H  H15  1  0.302900  0.000000  0.155364  1
  H  H16  1  0.155364  0.302900  0.000000  1
  H  H17  1  0.844636  0.697100  0.000000  1
  H  H18  1  0.302900  0.000000  0.844636  1
  H  H19  1  0.844636  0.302900  0.000000  1
  H  H20  1  0.697100  0.000000  0.155364  1
  H  H21  1  0.697100  0.000000  0.844636  1
  H  H22  1  0.155364  0.697100  0.000000  1
  H  H23  1  0.000000  0.844636  0.697100  1
  H  H24  1  0.000000  0.155364  0.697100  1
  H  H25  1  0.000000  0.844636  0.302900  1
  H  H26  1  0.654395  0.500000  0.195969  1
  H  H27  1  0.345605  0.500000  0.195969  1
  H  H28  1  0.804031  0.345605  0.500000  1
  H  H29  1  0.195969  0.345605  0.500000  1
  H  H30  1  0.500000  0.804031  0.654395  1
  H  H31  1  0.500000  0.195969  0.345605  1
