# generated using pymatgen
data_TaTiReB2
_symmetry_space_group_name_H-M   'P 1'
_cell_length_a   5.99945700
_cell_length_b   5.99879000
_cell_length_c   3.24406900
_cell_angle_alpha   90.00000000
_cell_angle_beta   90.00000000
_cell_angle_gamma   90.00000000
_symmetry_Int_Tables_number   1
_chemical_formula_structural   TaTiReB2
_chemical_formula_sum   'Ta2 Ti2 Re2 B4'
_cell_volume   116.75236501
_cell_formula_units_Z   2
loop_
 _symmetry_equiv_pos_site_id
 _symmetry_equiv_pos_as_xyz
  1  'x, y, z'
loop_
 _atom_site_type_symbol
 _atom_site_label
 _atom_site_symmetry_multiplicity
 _atom_site_fract_x
 _atom_site_fract_y
 _atom_site_fract_z
 _atom_site_occupancy
  Ta  Ta0  1  0.822318  0.676697  0.500000  1
  Ta  Ta1  1  0.322318  0.823303  0.500000  1
  Ti  Ti2  1  0.177821  0.321502  0.500000  1
  Ti  Ti3  1  0.677821  0.178498  0.500000  1
  Re  Re4  1  0.498833  0.494769  0.000000  1
  Re  Re5  1  0.998833  0.005231  0.000000  1
  B  B6  1  0.110908  0.606669  0.000000  1
  B  B7  1  0.610908  0.893331  0.000000  1
  B  B8  1  0.390120  0.113413  0.000000  1
  B  B9  1  0.890120  0.386587  0.000000  1
