# generated using pymatgen
data_K4Ba2TiP4
_symmetry_space_group_name_H-M   'P 1'
_cell_length_a   10.22903611
_cell_length_b   10.22903602
_cell_length_c   7.93106160
_cell_angle_alpha   89.04891256
_cell_angle_beta   89.04891203
_cell_angle_gamma   119.84885800
_symmetry_Int_Tables_number   1
_chemical_formula_structural   K4Ba2TiP4
_chemical_formula_sum   'K8 Ba4 Ti2 P8'
_cell_volume   719.37019216
_cell_formula_units_Z   2
loop_
 _symmetry_equiv_pos_site_id
 _symmetry_equiv_pos_as_xyz
  1  'x, y, z'
loop_
 _atom_site_type_symbol
 _atom_site_label
 _atom_site_symmetry_multiplicity
 _atom_site_fract_x
 _atom_site_fract_y
 _atom_site_fract_z
 _atom_site_occupancy
  K  K0  1  0.056349  0.527469  0.615428  1
  K  K1  1  0.527469  0.056349  0.115428  1
  K  K2  1  0.274864  0.133503  0.813735  1
  K  K3  1  0.871303  0.728358  0.770555  1
  K  K4  1  0.862733  0.144554  0.792691  1
  K  K5  1  0.728358  0.871303  0.270555  1
  K  K6  1  0.133503  0.274864  0.313735  1
  K  K7  1  0.144554  0.862733  0.292691  1
  Ba  Ba8  1  0.466169  0.938521  0.609668  1
  Ba  Ba9  1  0.464692  0.524716  0.616516  1
  Ba  Ba10  1  0.938521  0.466169  0.109668  1
  Ba  Ba11  1  0.524716  0.464692  0.116516  1
  Ti  Ti12  1  0.668454  0.336520  0.509998  1
  Ti  Ti13  1  0.336520  0.668454  0.009998  1
  P  P14  1  0.668301  0.346102  0.817975  1
  P  P15  1  0.346102  0.668301  0.317975  1
  P  P16  1  0.591520  0.790203  0.889990  1
  P  P17  1  0.205910  0.405163  0.922705  1
  P  P18  1  0.203276  0.791319  0.909486  1
  P  P19  1  0.405163  0.205910  0.422705  1
  P  P20  1  0.790203  0.591520  0.389990  1
  P  P21  1  0.791319  0.203276  0.409486  1
