# generated using pymatgen
data_Ho4ReTcB12
_symmetry_space_group_name_H-M   'P 1'
_cell_length_a   3.67191200
_cell_length_b   9.14687519
_cell_length_c   11.52218551
_cell_angle_alpha   90.05857666
_cell_angle_beta   90.00000000
_cell_angle_gamma   90.00000000
_symmetry_Int_Tables_number   1
_chemical_formula_structural   Ho4ReTcB12
_chemical_formula_sum   'Ho8 Re2 Tc2 B24'
_cell_volume   386.98992079
_cell_formula_units_Z   2
loop_
 _symmetry_equiv_pos_site_id
 _symmetry_equiv_pos_as_xyz
  1  'x, y, z'
loop_
 _atom_site_type_symbol
 _atom_site_label
 _atom_site_symmetry_multiplicity
 _atom_site_fract_x
 _atom_site_fract_y
 _atom_site_fract_z
 _atom_site_occupancy
  Ho  Ho0  1  0.000000  0.324016  0.414037  1
  Ho  Ho1  1  0.000000  0.675984  0.585963  1
  Ho  Ho2  1  0.000000  0.823690  0.086025  1
  Ho  Ho3  1  0.000000  0.176310  0.913975  1
  Ho  Ho4  1  0.000000  0.942429  0.369889  1
  Ho  Ho5  1  0.000000  0.057571  0.630111  1
  Ho  Ho6  1  0.000000  0.443851  0.130531  1
  Ho  Ho7  1  0.000000  0.556149  0.869469  1
  Re  Re8  1  0.000000  0.138875  0.179190  1
  Re  Re9  1  0.000000  0.861125  0.820810  1
  Tc  Tc10  1  0.000000  0.638972  0.320751  1
  Tc  Tc11  1  0.000000  0.361028  0.679249  1
  B  B12  1  0.500000  0.553523  0.432963  1
  B  B13  1  0.500000  0.446477  0.567037  1
  B  B14  1  0.500000  0.053429  0.066874  1
  B  B15  1  0.500000  0.946571  0.933126  1
  B  B16  1  0.500000  0.749076  0.418835  1
  B  B17  1  0.500000  0.250924  0.581165  1
  B  B18  1  0.500000  0.249523  0.081052  1
  B  B19  1  0.500000  0.750477  0.918948  1
  B  B20  1  0.500000  0.792260  0.265518  1
  B  B21  1  0.500000  0.207740  0.734482  1
  B  B22  1  0.500000  0.292577  0.234536  1
  B  B23  1  0.500000  0.707423  0.765464  1
  B  B24  1  0.500000  0.631328  0.185661  1
  B  B25  1  0.500000  0.368672  0.814339  1
  B  B26  1  0.500000  0.131068  0.314579  1
  B  B27  1  0.500000  0.868932  0.685421  1
  B  B28  1  0.500000  0.982321  0.211879  1
  B  B29  1  0.500000  0.017679  0.788121  1
  B  B30  1  0.500000  0.482666  0.288214  1
  B  B31  1  0.500000  0.517334  0.711786  1
  B  B32  1  0.500000  0.600388  0.027960  1
  B  B33  1  0.500000  0.399612  0.972040  1
  B  B34  1  0.500000  0.100293  0.471867  1
  B  B35  1  0.500000  0.899707  0.528133  1
