# generated using pymatgen
data_Li3Tb8Sc9Si15As
_symmetry_space_group_name_H-M   'P 1'
_cell_length_a   6.98871348
_cell_length_b   7.40670775
_cell_length_c   14.04918575
_cell_angle_alpha   90.07677011
_cell_angle_beta   89.70458858
_cell_angle_gamma   90.04610783
_symmetry_Int_Tables_number   1
_chemical_formula_structural   Li3Tb8Sc9Si15As
_chemical_formula_sum   'Li3 Tb8 Sc9 Si15 As1'
_cell_volume   727.22248607
_cell_formula_units_Z   1
loop_
 _symmetry_equiv_pos_site_id
 _symmetry_equiv_pos_as_xyz
  1  'x, y, z'
loop_
 _atom_site_type_symbol
 _atom_site_label
 _atom_site_symmetry_multiplicity
 _atom_site_fract_x
 _atom_site_fract_y
 _atom_site_fract_z
 _atom_site_occupancy
  Li  Li0  1  0.160035  0.505995  0.752292  1
  Li  Li1  1  0.841294  0.496144  0.250054  1
  Li  Li2  1  0.341281  0.005120  0.250264  1
  Tb  Tb3  1  0.014999  0.180592  0.100385  1
  Tb  Tb4  1  0.989793  0.817740  0.901543  1
  Tb  Tb5  1  0.483629  0.674907  0.901644  1
  Tb  Tb6  1  0.990151  0.816619  0.597350  1
  Tb  Tb7  1  0.515246  0.317328  0.099924  1
  Tb  Tb8  1  0.013187  0.183288  0.399839  1
  Tb  Tb9  1  0.515526  0.316756  0.399758  1
  Tb  Tb10  1  0.487525  0.673592  0.597913  1
  Sc  Sc11  1  0.660184  0.999113  0.750020  1
  Sc  Sc12  1  0.327625  0.181628  0.626537  1
  Sc  Sc13  1  0.667471  0.821772  0.373320  1
  Sc  Sc14  1  0.165031  0.679033  0.373970  1
  Sc  Sc15  1  0.667514  0.821952  0.126359  1
  Sc  Sc16  1  0.836276  0.326914  0.625337  1
  Sc  Sc17  1  0.325915  0.182809  0.873786  1
  Sc  Sc18  1  0.834569  0.326782  0.873603  1
  Sc  Sc19  1  0.169233  0.680149  0.126912  1
  Si  Si20  1  0.030237  0.104723  0.749174  1
  Si  Si21  1  0.968674  0.895369  0.249986  1
  Si  Si22  1  0.466214  0.606785  0.249452  1
  Si  Si23  1  0.537083  0.385125  0.750301  1
  Si  Si24  1  0.287824  0.882750  0.749589  1
  Si  Si25  1  0.716971  0.114772  0.249899  1
  Si  Si26  1  0.219840  0.383200  0.250354  1
  Si  Si27  1  0.781114  0.624985  0.749665  1
  Si  Si28  1  0.821593  0.541314  0.464938  1
  Si  Si29  1  0.340897  0.963789  0.465741  1
  Si  Si30  1  0.841561  0.537237  0.035929  1
  Si  Si31  1  0.656519  0.033142  0.539556  1
  Si  Si32  1  0.156602  0.462323  0.967250  1
  Si  Si33  1  0.655063  0.032905  0.960254  1
  Si  Si34  1  0.342151  0.963636  0.034398  1
  As  As35  1  0.171169  0.459710  0.532704  1
