# generated using pymatgen
data_Li4TbY3Sn3Bi
_symmetry_space_group_name_H-M   'P 1'
_cell_length_a   9.45407831
_cell_length_b   9.43547467
_cell_length_c   7.31572732
_cell_angle_alpha   90.18295648
_cell_angle_beta   89.63479312
_cell_angle_gamma   120.06524726
_symmetry_Int_Tables_number   1
_chemical_formula_structural   Li4TbY3Sn3Bi
_chemical_formula_sum   'Li8 Tb2 Y6 Sn6 Bi2'
_cell_volume   564.77615701
_cell_formula_units_Z   2
loop_
 _symmetry_equiv_pos_site_id
 _symmetry_equiv_pos_as_xyz
  1  'x, y, z'
loop_
 _atom_site_type_symbol
 _atom_site_label
 _atom_site_symmetry_multiplicity
 _atom_site_fract_x
 _atom_site_fract_y
 _atom_site_fract_z
 _atom_site_occupancy
  Li  Li0  1  0.164502  0.828898  0.196765  1
  Li  Li1  1  0.335602  0.171102  0.696765  1
  Li  Li2  1  0.829369  0.663752  0.692711  1
  Li  Li3  1  0.165619  0.336248  0.192711  1
  Li  Li4  1  0.665742  0.832266  0.197293  1
  Li  Li5  1  0.833475  0.167734  0.697293  1
  Li  Li6  1  0.334543  0.664262  0.813728  1
  Li  Li7  1  0.670282  0.335738  0.313728  1
  Tb  Tb8  1  0.515165  0.492518  0.988853  1
  Tb  Tb9  1  0.022647  0.507482  0.488853  1
  Y  Y10  1  0.495746  0.975769  0.491230  1
  Y  Y11  1  0.519976  0.024231  0.991230  1
  Y  Y12  1  0.972116  0.482278  0.993308  1
  Y  Y13  1  0.489839  0.517722  0.493308  1
  Y  Y14  1  0.992846  0.000446  0.985498  1
  Y  Y15  1  0.992400  0.999554  0.485498  1
  Sn  Sn16  1  0.833633  0.667272  0.254676  1
  Sn  Sn17  1  0.166361  0.332728  0.754676  1
  Sn  Sn18  1  0.667041  0.834009  0.754141  1
  Sn  Sn19  1  0.833031  0.165991  0.254141  1
  Sn  Sn20  1  0.333687  0.667834  0.223784  1
  Sn  Sn21  1  0.665855  0.332166  0.723784  1
  Bi  Bi22  1  0.167413  0.834300  0.753015  1
  Bi  Bi23  1  0.333112  0.165700  0.253015  1
