# generated using pymatgen
data_Sr3Pr2Pa5O18
_symmetry_space_group_name_H-M   'P 1'
_cell_length_a   6.96244987
_cell_length_b   7.86241707
_cell_length_c   8.81070273
_cell_angle_alpha   101.68364493
_cell_angle_beta   97.87659007
_cell_angle_gamma   107.05032102
_symmetry_Int_Tables_number   1
_chemical_formula_structural   Sr3Pr2Pa5O18
_chemical_formula_sum   'Sr3 Pr2 Pa5 O18'
_cell_volume   441.51073122
_cell_formula_units_Z   1
loop_
 _symmetry_equiv_pos_site_id
 _symmetry_equiv_pos_as_xyz
  1  'x, y, z'
loop_
 _atom_site_type_symbol
 _atom_site_label
 _atom_site_symmetry_multiplicity
 _atom_site_fract_x
 _atom_site_fract_y
 _atom_site_fract_z
 _atom_site_occupancy
  Sr  Sr0  1  0.597434  0.697557  0.195996  1
  Sr  Sr1  1  0.402169  0.301864  0.803197  1
  Sr  Sr2  1  0.200196  0.895685  0.412309  1
  Pr  Pr3  1  0.801694  0.111489  0.586387  1
  Pr  Pr4  1  0.003752  0.507272  0.999762  1
  Pa  Pa5  1  0.994252  0.995408  0.994601  1
  Pa  Pa6  1  0.791764  0.585135  0.590275  1
  Pa  Pa7  1  0.628469  0.199186  0.193908  1
  Pa  Pa8  1  0.378341  0.799944  0.802842  1
  Pa  Pa9  1  0.208226  0.422495  0.412979  1
  O  O10  1  0.821654  0.803188  0.480214  1
  O  O11  1  0.989880  0.239294  0.174560  1
  O  O12  1  0.676162  0.403354  0.068931  1
  O  O13  1  0.471923  0.000553  0.678752  1
  O  O14  1  0.857372  0.345013  0.433033  1
  O  O15  1  0.503175  0.397505  0.347900  1
  O  O16  1  0.239701  0.602645  0.265328  1
  O  O17  1  0.975964  0.811323  0.141915  1
  O  O18  1  0.660491  0.941054  0.005051  1
  O  O19  1  0.334878  0.064138  0.004712  1
  O  O20  1  0.016031  0.183309  0.846719  1
  O  O21  1  0.759510  0.391505  0.731565  1
  O  O22  1  0.483652  0.586853  0.646095  1
  O  O23  1  0.140296  0.657745  0.569357  1
  O  O24  1  0.550820  0.006279  0.325435  1
  O  O25  1  0.331719  0.595052  0.931551  1
  O  O26  1  0.019069  0.748955  0.829663  1
  O  O27  1  0.161407  0.206201  0.526962  1
