# generated using pymatgen
data_Er2LuIn3Cu2Pt
_symmetry_space_group_name_H-M   'P 1'
_cell_length_a   7.67083659
_cell_length_b   7.64630526
_cell_length_c   3.69069600
_cell_angle_alpha   90.00000000
_cell_angle_beta   90.00000000
_cell_angle_gamma   119.84006022
_symmetry_Int_Tables_number   1
_chemical_formula_structural   Er2LuIn3Cu2Pt
_chemical_formula_sum   'Er2 Lu1 In3 Cu2 Pt1'
_cell_volume   187.77205098
_cell_formula_units_Z   1
loop_
 _symmetry_equiv_pos_site_id
 _symmetry_equiv_pos_as_xyz
  1  'x, y, z'
loop_
 _atom_site_type_symbol
 _atom_site_label
 _atom_site_symmetry_multiplicity
 _atom_site_fract_x
 _atom_site_fract_y
 _atom_site_fract_z
 _atom_site_occupancy
  Er  Er0  1  0.010028  0.599779  0.500000  1
  Er  Er1  1  0.590029  0.989943  0.500000  1
  Lu  Lu2  1  0.399318  0.411350  0.500000  1
  In  In3  1  0.989787  0.254560  0.000000  1
  In  In4  1  0.265868  0.012181  0.000000  1
  In  In5  1  0.744811  0.733786  0.000000  1
  Cu  Cu6  1  0.000499  0.000377  0.500000  1
  Cu  Cu7  1  0.665357  0.333801  0.000000  1
  Pt  Pt8  1  0.334301  0.664222  0.000000  1
