# generated using pymatgen
data_Sm2IrI
_symmetry_space_group_name_H-M   'P 1'
_cell_length_a   8.35221783
_cell_length_b   8.35221796
_cell_length_c   8.35221806
_cell_angle_alpha   29.14624931
_cell_angle_beta   29.14624885
_cell_angle_gamma   29.14624646
_symmetry_Int_Tables_number   1
_chemical_formula_structural   Sm2IrI
_chemical_formula_sum   'Sm2 Ir1 I1'
_cell_volume   122.27007026
_cell_formula_units_Z   1
loop_
 _symmetry_equiv_pos_site_id
 _symmetry_equiv_pos_as_xyz
  1  'x, y, z'
loop_
 _atom_site_type_symbol
 _atom_site_label
 _atom_site_symmetry_multiplicity
 _atom_site_fract_x
 _atom_site_fract_y
 _atom_site_fract_z
 _atom_site_occupancy
  Sm  Sm0  1  0.226615  0.226615  0.226615  1
  Sm  Sm1  1  0.773385  0.773385  0.773385  1
  Ir  Ir2  1  0.500000  0.500000  0.500000  1
  I  I3  1  0.000000  0.000000  0.000000  1
