# generated using pymatgen
data_Ho2Er3P12Ru19
_symmetry_space_group_name_H-M   'P 1'
_cell_length_a   12.52440300
_cell_length_b   12.52440293
_cell_length_c   3.97140700
_cell_angle_alpha   90.00000000
_cell_angle_beta   90.00000000
_cell_angle_gamma   120.00053622
_symmetry_Int_Tables_number   1
_chemical_formula_structural   Ho2Er3P12Ru19
_chemical_formula_sum   'Ho2 Er3 P12 Ru19'
_cell_volume   539.49415872
_cell_formula_units_Z   1
loop_
 _symmetry_equiv_pos_site_id
 _symmetry_equiv_pos_as_xyz
  1  'x, y, z'
loop_
 _atom_site_type_symbol
 _atom_site_label
 _atom_site_symmetry_multiplicity
 _atom_site_fract_x
 _atom_site_fract_y
 _atom_site_fract_z
 _atom_site_occupancy
  Ho  Ho0  1  0.666656  0.333334  0.000000  1
  Ho  Ho1  1  0.333335  0.666657  0.000000  1
  Er  Er2  1  0.183507  0.000000  0.500001  1
  Er  Er3  1  0.000000  0.183507  0.500001  1
  Er  Er4  1  0.816510  0.816509  0.500001  1
  P  P5  1  0.372033  0.000003  0.000000  1
  P  P6  1  0.816136  0.000000  0.000000  1
  P  P7  1  0.183870  0.183870  0.000000  1
  P  P8  1  0.000003  0.372034  0.000000  1
  P  P9  1  0.627963  0.627963  0.000000  1
  P  P10  1  0.000000  0.816136  0.000000  1
  P  P11  1  0.693053  0.171142  0.500001  1
  P  P12  1  0.478087  0.306950  0.500001  1
  P  P13  1  0.306950  0.478088  0.500001  1
  P  P14  1  0.828866  0.521915  0.500001  1
  P  P15  1  0.171142  0.693053  0.500001  1
  P  P16  1  0.521916  0.828866  0.500001  1
  Ru  Ru17  1  0.999998  0.999998  0.000000  1
  Ru  Ru18  1  0.554505  0.000000  0.000000  1
  Ru  Ru19  1  0.807958  0.184744  0.000000  1
  Ru  Ru20  1  0.376784  0.192045  0.000000  1
  Ru  Ru21  1  0.192045  0.376784  0.000000  1
  Ru  Ru22  1  0.445495  0.445495  0.000000  1
  Ru  Ru23  1  0.000000  0.554505  0.000000  1
  Ru  Ru24  1  0.815259  0.623218  0.000000  1
  Ru  Ru25  1  0.184744  0.807958  0.000000  1
  Ru  Ru26  1  0.623217  0.815259  0.000000  1
  Ru  Ru27  1  0.717541  0.000004  0.500001  1
  Ru  Ru28  1  0.491558  0.126053  0.500001  1
  Ru  Ru29  1  0.282471  0.282471  0.500001  1
  Ru  Ru30  1  0.873955  0.365512  0.500001  1
  Ru  Ru31  1  0.126053  0.491557  0.500001  1
  Ru  Ru32  1  0.634495  0.508448  0.500001  1
  Ru  Ru33  1  0.508448  0.634495  0.500001  1
  Ru  Ru34  1  0.000004  0.717540  0.500001  1
  Ru  Ru35  1  0.365512  0.873955  0.500001  1
