# generated using pymatgen
data_Zr10InBi5B2
_symmetry_space_group_name_H-M   'P 1'
_cell_length_a   8.71344267
_cell_length_b   8.69033468
_cell_length_c   5.87882800
_cell_angle_alpha   90.00000000
_cell_angle_beta   90.00000000
_cell_angle_gamma   119.91231426
_symmetry_Int_Tables_number   1
_chemical_formula_structural   Zr10InBi5B2
_chemical_formula_sum   'Zr10 In1 Bi5 B2'
_cell_volume   385.86085494
_cell_formula_units_Z   1
loop_
 _symmetry_equiv_pos_site_id
 _symmetry_equiv_pos_as_xyz
  1  'x, y, z'
loop_
 _atom_site_type_symbol
 _atom_site_label
 _atom_site_symmetry_multiplicity
 _atom_site_fract_x
 _atom_site_fract_y
 _atom_site_fract_z
 _atom_site_occupancy
  Zr  Zr0  1  0.667353  0.333701  0.001852  1
  Zr  Zr1  1  0.332647  0.666350  0.001852  1
  Zr  Zr2  1  0.332647  0.666350  0.498148  1
  Zr  Zr3  1  0.667353  0.333701  0.498148  1
  Zr  Zr4  1  0.774454  0.772782  0.750000  1
  Zr  Zr5  1  0.225546  0.998328  0.750000  1
  Zr  Zr6  1  0.000000  0.225941  0.750000  1
  Zr  Zr7  1  0.223826  0.229137  0.250000  1
  Zr  Zr8  1  0.776174  0.005311  0.250000  1
  Zr  Zr9  1  0.000000  0.769927  0.250000  1
  In  In10  1  0.000000  0.400140  0.250000  1
  Bi  Bi11  1  0.397838  0.398273  0.750000  1
  Bi  Bi12  1  0.602162  0.000435  0.750000  1
  Bi  Bi13  1  0.000000  0.595222  0.750000  1
  Bi  Bi14  1  0.602541  0.603535  0.250000  1
  Bi  Bi15  1  0.397459  0.000994  0.250000  1
  B  B16  1  0.000000  0.999938  0.000831  1
  B  B17  1  0.000000  0.999938  0.499169  1
