# generated using pymatgen
data_Dy3Th(CoB10)2
_symmetry_space_group_name_H-M   'P 1'
_cell_length_a   4.15567200
_cell_length_b   5.57336388
_cell_length_c   11.11432678
_cell_angle_alpha   90.11667635
_cell_angle_beta   90.00000000
_cell_angle_gamma   90.00000000
_symmetry_Int_Tables_number   1
_chemical_formula_structural   Dy3Th(CoB10)2
_chemical_formula_sum   'Dy3 Th1 Co2 B20'
_cell_volume   257.41919149
_cell_formula_units_Z   1
loop_
 _symmetry_equiv_pos_site_id
 _symmetry_equiv_pos_as_xyz
  1  'x, y, z'
loop_
 _atom_site_type_symbol
 _atom_site_label
 _atom_site_symmetry_multiplicity
 _atom_site_fract_x
 _atom_site_fract_y
 _atom_site_fract_z
 _atom_site_occupancy
  Dy  Dy0  1  0.500000  0.300750  0.866377  1
  Dy  Dy1  1  0.500000  0.700016  0.130194  1
  Dy  Dy2  1  0.500000  0.801764  0.636823  1
  Th  Th3  1  0.500000  0.197599  0.366356  1
  Co  Co4  1  0.000000  0.499061  0.500341  1
  Co  Co5  1  0.000000  0.999564  0.999760  1
  B  B6  1  0.000000  0.126321  0.541737  1
  B  B7  1  0.000000  0.870979  0.461477  1
  B  B8  1  0.000000  0.627641  0.959664  1
  B  B9  1  0.000000  0.372985  0.038720  1
  B  B10  1  0.000000  0.157887  0.699844  1
  B  B11  1  0.000000  0.844930  0.302221  1
  B  B12  1  0.299891  0.202238  0.111279  1
  B  B13  1  0.300185  0.797673  0.886904  1
  B  B14  1  0.700153  0.700597  0.386279  1
  B  B15  1  0.699799  0.297033  0.614788  1
  B  B16  1  0.699815  0.797673  0.886904  1
  B  B17  1  0.700109  0.202238  0.111279  1
  B  B18  1  0.300201  0.297033  0.614788  1
  B  B19  1  0.299847  0.700597  0.386279  1
  B  B20  1  0.000000  0.031835  0.185805  1
  B  B21  1  0.000000  0.969301  0.814487  1
  B  B22  1  0.000000  0.533109  0.312659  1
  B  B23  1  0.000000  0.469666  0.686605  1
  B  B24  1  0.000000  0.344057  0.196327  1
  B  B25  1  0.000000  0.657455  0.802103  1
