# generated using pymatgen
data_PuHf3(PN3)4
_symmetry_space_group_name_H-M   'P 1'
_cell_length_a   6.65977726
_cell_length_b   6.65977589
_cell_length_c   5.32925675
_cell_angle_alpha   78.53297110
_cell_angle_beta   78.53297093
_cell_angle_gamma   84.52407868
_symmetry_Int_Tables_number   1
_chemical_formula_structural   PuHf3(PN3)4
_chemical_formula_sum   'Pu1 Hf3 P4 N12'
_cell_volume   226.63971650
_cell_formula_units_Z   1
loop_
 _symmetry_equiv_pos_site_id
 _symmetry_equiv_pos_as_xyz
  1  'x, y, z'
loop_
 _atom_site_type_symbol
 _atom_site_label
 _atom_site_symmetry_multiplicity
 _atom_site_fract_x
 _atom_site_fract_y
 _atom_site_fract_z
 _atom_site_occupancy
  Pu  Pu0  1  0.682711  0.317289  0.750000  1
  Hf  Hf1  1  0.903417  0.096583  0.250000  1
  Hf  Hf2  1  0.323716  0.676284  0.250000  1
  Hf  Hf3  1  0.105779  0.894221  0.750000  1
  P  P4  1  0.198598  0.383118  0.756733  1
  P  P5  1  0.378404  0.199384  0.259531  1
  P  P6  1  0.800616  0.621596  0.240469  1
  P  P7  1  0.616882  0.801402  0.743267  1
  N  N8  1  0.318190  0.386970  0.009831  1
  N  N9  1  0.025367  0.214012  0.847457  1
  N  N10  1  0.986739  0.776821  0.152267  1
  N  N11  1  0.377105  0.336372  0.494369  1
  N  N12  1  0.612464  0.128508  0.156799  1
  N  N13  1  0.387063  0.874369  0.861174  1
  N  N14  1  0.871492  0.387536  0.343201  1
  N  N15  1  0.663628  0.622895  0.005631  1
  N  N16  1  0.785988  0.974633  0.652543  1
  N  N17  1  0.125631  0.612937  0.638826  1
  N  N18  1  0.223179  0.013261  0.347733  1
  N  N19  1  0.613030  0.681810  0.490169  1
