# generated using pymatgen
data_TbLuFeCoSi2
_symmetry_space_group_name_H-M   'P 1'
_cell_length_a   3.96963000
_cell_length_b   3.96568800
_cell_length_c   6.57466800
_cell_angle_alpha   90.00000000
_cell_angle_beta   90.00000000
_cell_angle_gamma   90.00000000
_symmetry_Int_Tables_number   1
_chemical_formula_structural   TbLuFeCoSi2
_chemical_formula_sum   'Tb1 Lu1 Fe1 Co1 Si2'
_cell_volume   103.50048847
_cell_formula_units_Z   1
loop_
 _symmetry_equiv_pos_site_id
 _symmetry_equiv_pos_as_xyz
  1  'x, y, z'
loop_
 _atom_site_type_symbol
 _atom_site_label
 _atom_site_symmetry_multiplicity
 _atom_site_fract_x
 _atom_site_fract_y
 _atom_site_fract_z
 _atom_site_occupancy
  Tb  Tb0  1  0.000000  0.500000  0.322558  1
  Lu  Lu1  1  0.500000  0.000000  0.688757  1
  Fe  Fe2  1  0.000000  0.000000  0.997154  1
  Co  Co3  1  0.500000  0.500000  0.996698  1
  Si  Si4  1  0.000000  0.500000  0.812183  1
  Si  Si5  1  0.500000  0.000000  0.182649  1
