# generated using pymatgen
data_YHoB6(IrRh2)3
_symmetry_space_group_name_H-M   'P 1'
_cell_length_a   5.61285501
_cell_length_b   5.61852809
_cell_length_c   8.62113200
_cell_angle_alpha   90.00000000
_cell_angle_beta   90.00000000
_cell_angle_gamma   120.03344775
_symmetry_Int_Tables_number   1
_chemical_formula_structural   YHoB6(IrRh2)3
_chemical_formula_sum   'Y1 Ho1 B6 Ir3 Rh6'
_cell_volume   235.37201878
_cell_formula_units_Z   1
loop_
 _symmetry_equiv_pos_site_id
 _symmetry_equiv_pos_as_xyz
  1  'x, y, z'
loop_
 _atom_site_type_symbol
 _atom_site_label
 _atom_site_symmetry_multiplicity
 _atom_site_fract_x
 _atom_site_fract_y
 _atom_site_fract_z
 _atom_site_occupancy
  Y  Y0  1  0.000000  0.000000  0.298526  1
  Ho  Ho1  1  0.000000  0.000000  0.702302  1
  B  B2  1  0.667398  0.333698  0.999849  1
  B  B3  1  0.332602  0.666302  0.999849  1
  B  B4  1  0.666776  0.333387  0.668007  1
  B  B5  1  0.333224  0.666613  0.668007  1
  B  B6  1  0.334807  0.667404  0.331922  1
  B  B7  1  0.665193  0.332596  0.331922  1
  Ir  Ir8  1  0.000000  0.500000  0.836467  1
  Ir  Ir9  1  0.500000  0.500000  0.499852  1
  Ir  Ir10  1  0.500000  0.000000  0.499852  1
  Rh  Rh11  1  0.500000  0.500000  0.836642  1
  Rh  Rh12  1  0.500000  0.000000  0.836642  1
  Rh  Rh13  1  0.500000  0.500000  0.163285  1
  Rh  Rh14  1  0.500000  0.000000  0.163285  1
  Rh  Rh15  1  0.000000  0.500000  0.164468  1
  Rh  Rh16  1  0.000000  0.500000  0.499122  1
