# generated using pymatgen
data_Dy3(Ga2Si)2
_symmetry_space_group_name_H-M   'P 1'
_cell_length_a   4.07434497
_cell_length_b   4.17384028
_cell_length_c   21.60437430
_cell_angle_alpha   84.45675661
_cell_angle_beta   84.58928177
_cell_angle_gamma   90.00000768
_symmetry_Int_Tables_number   1
_chemical_formula_structural   Dy3(Ga2Si)2
_chemical_formula_sum   'Dy6 Ga8 Si4'
_cell_volume   364.03393177
_cell_formula_units_Z   2
loop_
 _symmetry_equiv_pos_site_id
 _symmetry_equiv_pos_as_xyz
  1  'x, y, z'
loop_
 _atom_site_type_symbol
 _atom_site_label
 _atom_site_symmetry_multiplicity
 _atom_site_fract_x
 _atom_site_fract_y
 _atom_site_fract_z
 _atom_site_occupancy
  Dy  Dy0  1  0.957791  0.707791  0.084417  1
  Dy  Dy1  1  0.290174  0.040174  0.419654  1
  Dy  Dy2  1  0.623306  0.373306  0.753386  1
  Dy  Dy3  1  0.377206  0.627206  0.245587  1
  Dy  Dy4  1  0.709750  0.959750  0.580500  1
  Dy  Dy5  1  0.041549  0.291549  0.916902  1
  Ga  Ga6  1  0.820012  0.570012  0.359976  1
  Ga  Ga7  1  0.152828  0.902828  0.694346  1
  Ga  Ga8  1  0.431523  0.181523  0.136954  1
  Ga  Ga9  1  0.764272  0.514272  0.471456  1
  Ga  Ga10  1  0.097114  0.847114  0.805772  1
  Ga  Ga11  1  0.847704  0.097704  0.304592  1
  Ga  Ga12  1  0.180509  0.430509  0.638983  1
  Ga  Ga13  1  0.513187  0.763187  0.973627  1
  Si  Si14  1  0.902566  0.152566  0.194869  1
  Si  Si15  1  0.235465  0.485465  0.529071  1
  Si  Si16  1  0.568421  0.818421  0.863158  1
  Si  Si17  1  0.486625  0.236625  0.026748  1
