# generated using pymatgen
data_Zr18Nb3Fe2Re5
_symmetry_space_group_name_H-M   'P 1'
_cell_length_a   8.78588938
_cell_length_b   8.75464863
_cell_length_c   8.53977900
_cell_angle_alpha   90.00000000
_cell_angle_beta   90.00000000
_cell_angle_gamma   119.88244923
_symmetry_Int_Tables_number   1
_chemical_formula_structural   Zr18Nb3Fe2Re5
_chemical_formula_sum   'Zr18 Nb3 Fe2 Re5'
_cell_volume   569.52779881
_cell_formula_units_Z   1
loop_
 _symmetry_equiv_pos_site_id
 _symmetry_equiv_pos_as_xyz
  1  'x, y, z'
loop_
 _atom_site_type_symbol
 _atom_site_label
 _atom_site_symmetry_multiplicity
 _atom_site_fract_x
 _atom_site_fract_y
 _atom_site_fract_z
 _atom_site_occupancy
  Zr  Zr0  1  0.201468  0.798404  0.440451  1
  Zr  Zr1  1  0.201468  0.403064  0.440451  1
  Zr  Zr2  1  0.595873  0.797937  0.436961  1
  Zr  Zr3  1  0.798291  0.203485  0.556171  1
  Zr  Zr4  1  0.798291  0.594806  0.556171  1
  Zr  Zr5  1  0.402824  0.201412  0.560117  1
  Zr  Zr6  1  0.798291  0.203485  0.943829  1
  Zr  Zr7  1  0.798291  0.594806  0.943829  1
  Zr  Zr8  1  0.402824  0.201412  0.939883  1
  Zr  Zr9  1  0.201468  0.798404  0.059549  1
  Zr  Zr10  1  0.201468  0.403064  0.059549  1
  Zr  Zr11  1  0.595873  0.797937  0.063039  1
  Zr  Zr12  1  0.541920  0.456858  0.250000  1
  Zr  Zr13  1  0.541920  0.085061  0.250000  1
  Zr  Zr14  1  0.916515  0.458258  0.250000  1
  Zr  Zr15  1  0.454273  0.539075  0.750000  1
  Zr  Zr16  1  0.454273  0.915198  0.750000  1
  Zr  Zr17  1  0.082871  0.541435  0.750000  1
  Nb  Nb18  1  0.774974  0.887487  0.750000  1
  Nb  Nb19  1  0.003315  0.001657  0.498009  1
  Nb  Nb20  1  0.003315  0.001657  0.001991  1
  Fe  Fe21  1  0.330917  0.665458  0.250000  1
  Fe  Fe22  1  0.668459  0.334229  0.750000  1
  Re  Re23  1  0.887861  0.113340  0.250000  1
  Re  Re24  1  0.887861  0.774522  0.250000  1
  Re  Re25  1  0.224116  0.112058  0.250000  1
  Re  Re26  1  0.115491  0.889295  0.750000  1
  Re  Re27  1  0.115491  0.226196  0.750000  1
