# generated using pymatgen
data_Sc4Al3Tc2Os3
_symmetry_space_group_name_H-M   'P 1'
_cell_length_a   5.26337500
_cell_length_b   5.24484108
_cell_length_c   8.57063800
_cell_angle_alpha   90.00000000
_cell_angle_beta   90.00000000
_cell_angle_gamma   120.11695799
_symmetry_Int_Tables_number   1
_chemical_formula_structural   Sc4Al3Tc2Os3
_chemical_formula_sum   'Sc4 Al3 Tc2 Os3'
_cell_volume   204.65736909
_cell_formula_units_Z   1
loop_
 _symmetry_equiv_pos_site_id
 _symmetry_equiv_pos_as_xyz
  1  'x, y, z'
loop_
 _atom_site_type_symbol
 _atom_site_label
 _atom_site_symmetry_multiplicity
 _atom_site_fract_x
 _atom_site_fract_y
 _atom_site_fract_z
 _atom_site_occupancy
  Sc  Sc0  1  0.330925  0.661851  0.055301  1
  Sc  Sc1  1  0.665823  0.331645  0.567749  1
  Sc  Sc2  1  0.330925  0.661851  0.444699  1
  Sc  Sc3  1  0.665823  0.331645  0.932251  1
  Al  Al4  1  0.348855  0.197588  0.250000  1
  Al  Al5  1  0.848735  0.197588  0.250000  1
  Al  Al6  1  0.164890  0.329783  0.750000  1
  Tc  Tc7  1  0.988144  0.976289  0.496477  1
  Tc  Tc8  1  0.988144  0.976289  0.003523  1
  Os  Os9  1  0.841142  0.682284  0.250000  1
  Os  Os10  1  0.174152  0.826594  0.750000  1
  Os  Os11  1  0.652440  0.826594  0.750000  1
