# generated using pymatgen
data_Ag2PdCl6
_symmetry_space_group_name_H-M   'P 1'
_cell_length_a   7.06124016
_cell_length_b   7.06123971
_cell_length_c   7.06123937
_cell_angle_alpha   56.24081417
_cell_angle_beta   56.24081494
_cell_angle_gamma   56.24080760
_symmetry_Int_Tables_number   1
_chemical_formula_structural   Ag2PdCl6
_chemical_formula_sum   'Ag2 Pd1 Cl6'
_cell_volume   227.30118382
_cell_formula_units_Z   1
loop_
 _symmetry_equiv_pos_site_id
 _symmetry_equiv_pos_as_xyz
  1  'x, y, z'
loop_
 _atom_site_type_symbol
 _atom_site_label
 _atom_site_symmetry_multiplicity
 _atom_site_fract_x
 _atom_site_fract_y
 _atom_site_fract_z
 _atom_site_occupancy
  Ag  Ag0  1  0.765773  0.765773  0.765773  1
  Ag  Ag1  1  0.234227  0.234227  0.234227  1
  Pd  Pd2  1  0.500000  0.500000  0.500000  1
  Cl  Cl3  1  0.391211  0.150617  0.726650  1
  Cl  Cl4  1  0.150617  0.726650  0.391211  1
  Cl  Cl5  1  0.726650  0.391211  0.150617  1
  Cl  Cl6  1  0.273350  0.608789  0.849383  1
  Cl  Cl7  1  0.849383  0.273350  0.608789  1
  Cl  Cl8  1  0.608789  0.849383  0.273350  1
