# generated using pymatgen
data_PrHo2BiO7
_symmetry_space_group_name_H-M   'P 1'
_cell_length_a   6.62358227
_cell_length_b   6.62937044
_cell_length_c   7.76713604
_cell_angle_alpha   106.97497167
_cell_angle_beta   89.92732948
_cell_angle_gamma   99.18216212
_symmetry_Int_Tables_number   1
_chemical_formula_structural   PrHo2BiO7
_chemical_formula_sum   'Pr2 Ho4 Bi2 O14'
_cell_volume   321.64626942
_cell_formula_units_Z   2
loop_
 _symmetry_equiv_pos_site_id
 _symmetry_equiv_pos_as_xyz
  1  'x, y, z'
loop_
 _atom_site_type_symbol
 _atom_site_label
 _atom_site_symmetry_multiplicity
 _atom_site_fract_x
 _atom_site_fract_y
 _atom_site_fract_z
 _atom_site_occupancy
  Pr  Pr0  1  0.740679  0.481884  0.620774  1
  Pr  Pr1  1  0.259321  0.518116  0.379226  1
  Ho  Ho2  1  0.465432  0.005847  0.250456  1
  Ho  Ho3  1  0.534568  0.994153  0.749544  1
  Ho  Ho4  1  0.274103  0.537782  0.885817  1
  Ho  Ho5  1  0.725897  0.462218  0.114183  1
  Bi  Bi6  1  0.000000  0.000000  0.500000  1
  Bi  Bi7  1  0.000000  0.000000  0.000000  1
  O  O8  1  0.455344  0.654830  0.159243  1
  O  O9  1  0.544656  0.345170  0.840757  1
  O  O10  1  0.300587  0.924079  0.952926  1
  O  O11  1  0.699413  0.075921  0.047074  1
  O  O12  1  0.300037  0.931473  0.513551  1
  O  O13  1  0.699963  0.068527  0.486449  1
  O  O14  1  0.549455  0.358137  0.335037  1
  O  O15  1  0.450545  0.641863  0.664963  1
  O  O16  1  0.926667  0.665385  0.958499  1
  O  O17  1  0.073333  0.334615  0.041501  1
  O  O18  1  0.077741  0.341908  0.625370  1
  O  O19  1  0.922259  0.658092  0.374630  1
  O  O20  1  0.873455  0.906727  0.725927  1
  O  O21  1  0.126545  0.093273  0.274073  1
