# generated using pymatgen
data_YbPr3Er3CoI12
_symmetry_space_group_name_H-M   'P 1'
_cell_length_a   9.83267636
_cell_length_b   9.93945796
_cell_length_c   9.89098834
_cell_angle_alpha   106.50798251
_cell_angle_beta   107.21550091
_cell_angle_gamma   107.02885619
_symmetry_Int_Tables_number   1
_chemical_formula_structural   YbPr3Er3CoI12
_chemical_formula_sum   'Yb1 Pr3 Er3 Co1 I12'
_cell_volume   806.82492182
_cell_formula_units_Z   1
loop_
 _symmetry_equiv_pos_site_id
 _symmetry_equiv_pos_as_xyz
  1  'x, y, z'
loop_
 _atom_site_type_symbol
 _atom_site_label
 _atom_site_symmetry_multiplicity
 _atom_site_fract_x
 _atom_site_fract_y
 _atom_site_fract_z
 _atom_site_occupancy
  Yb  Yb0  1  0.499864  0.500422  0.499503  1
  Pr  Pr1  1  0.290505  0.025103  0.095286  1
  Pr  Pr2  1  0.900330  0.696147  0.976690  1
  Pr  Pr3  1  0.710557  0.976347  0.904765  1
  Er  Er4  1  0.975007  0.906429  0.707433  1
  Er  Er5  1  0.026380  0.098145  0.292765  1
  Er  Er6  1  0.096638  0.291494  0.023985  1
  Co  Co7  1  0.000756  0.001142  0.000637  1
  I  I8  1  0.530783  0.614152  0.839179  1
  I  I9  1  0.456320  0.385981  0.154064  1
  I  I10  1  0.310038  0.924590  0.766960  1
  I  I11  1  0.376184  0.158263  0.464235  1
  I  I12  1  0.932764  0.789814  0.331032  1
  I  I13  1  0.690278  0.075754  0.233357  1
  I  I14  1  0.070488  0.219299  0.682686  1
  I  I15  1  0.782301  0.321926  0.929081  1
  I  I16  1  0.228794  0.672982  0.073389  1
  I  I17  1  0.848955  0.548085  0.615567  1
  I  I18  1  0.149448  0.451349  0.373268  1
  I  I19  1  0.623610  0.842576  0.536118  1
