# generated using pymatgen
data_Nd8Dy7Tm5Si16
_symmetry_space_group_name_H-M   'P 1'
_cell_length_a   7.75232481
_cell_length_b   7.74977275
_cell_length_c   14.28351286
_cell_angle_alpha   90.05046568
_cell_angle_beta   89.94773102
_cell_angle_gamma   89.99958280
_symmetry_Int_Tables_number   1
_chemical_formula_structural   Nd8Dy7Tm5Si16
_chemical_formula_sum   'Nd8 Dy7 Tm5 Si16'
_cell_volume   858.13498815
_cell_formula_units_Z   1
loop_
 _symmetry_equiv_pos_site_id
 _symmetry_equiv_pos_as_xyz
  1  'x, y, z'
loop_
 _atom_site_type_symbol
 _atom_site_label
 _atom_site_symmetry_multiplicity
 _atom_site_fract_x
 _atom_site_fract_y
 _atom_site_fract_z
 _atom_site_occupancy
  Nd  Nd0  1  0.641785  0.992991  0.458555  1
  Nd  Nd1  1  0.358116  0.007143  0.959109  1
  Nd  Nd2  1  0.992887  0.641816  0.541207  1
  Nd  Nd3  1  0.492453  0.858149  0.208684  1
  Nd  Nd4  1  0.507142  0.141817  0.708788  1
  Nd  Nd5  1  0.858187  0.493126  0.791450  1
  Nd  Nd6  1  0.141812  0.507060  0.291068  1
  Nd  Nd7  1  0.006992  0.357810  0.041290  1
  Dy  Dy8  1  0.492703  0.360688  0.124322  1
  Dy  Dy9  1  0.992535  0.139323  0.625685  1
  Dy  Dy10  1  0.860723  0.007493  0.874491  1
  Dy  Dy11  1  0.139309  0.992412  0.374086  1
  Dy  Dy12  1  0.507539  0.639263  0.624181  1
  Dy  Dy13  1  0.360369  0.492738  0.875999  1
  Dy  Dy14  1  0.639634  0.507705  0.375447  1
  Tm  Tm15  1  0.007031  0.860310  0.125698  1
  Tm  Tm16  1  0.317417  0.317361  0.499864  1
  Tm  Tm17  1  0.182580  0.817366  0.750142  1
  Tm  Tm18  1  0.817765  0.181847  0.249883  1
  Tm  Tm19  1  0.682900  0.682749  0.000062  1
  Si  Si20  1  0.290450  0.937134  0.561928  1
  Si  Si21  1  0.710609  0.061900  0.062445  1
  Si  Si22  1  0.937075  0.290253  0.438046  1
  Si  Si23  1  0.437079  0.209360  0.311813  1
  Si  Si24  1  0.562979  0.790496  0.811908  1
  Si  Si25  1  0.209499  0.437132  0.688156  1
  Si  Si26  1  0.791197  0.563973  0.187677  1
  Si  Si27  1  0.062549  0.710535  0.939031  1
  Si  Si28  1  0.795763  0.847676  0.688525  1
  Si  Si29  1  0.203279  0.150823  0.187711  1
  Si  Si30  1  0.848426  0.796071  0.310612  1
  Si  Si31  1  0.347800  0.704213  0.438408  1
  Si  Si32  1  0.652311  0.296096  0.938465  1
  Si  Si33  1  0.704350  0.347623  0.561473  1
  Si  Si34  1  0.294496  0.653266  0.062158  1
  Si  Si35  1  0.152259  0.204283  0.811631  1
