# generated using pymatgen
data_YbDyAlIr2
_symmetry_space_group_name_H-M   'P 1'
_cell_length_a   5.58876678
_cell_length_b   5.58876569
_cell_length_c   5.58876591
_cell_angle_alpha   137.95341818
_cell_angle_beta   117.33725220
_cell_angle_gamma   78.35614109
_symmetry_Int_Tables_number   1
_chemical_formula_structural   YbDyAlIr2
_chemical_formula_sum   'Yb1 Dy1 Al1 Ir2'
_cell_volume   100.97064131
_cell_formula_units_Z   1
loop_
 _symmetry_equiv_pos_site_id
 _symmetry_equiv_pos_as_xyz
  1  'x, y, z'
loop_
 _atom_site_type_symbol
 _atom_site_label
 _atom_site_symmetry_multiplicity
 _atom_site_fract_x
 _atom_site_fract_y
 _atom_site_fract_z
 _atom_site_occupancy
  Yb  Yb0  1  0.296777  0.796778  0.500001  1
  Dy  Dy1  1  0.701102  0.201103  0.499999  1
  Al  Al2  1  0.999949  0.999949  0.000000  1
  Ir  Ir3  1  0.735593  0.501085  0.234507  1
  Ir  Ir4  1  0.266577  0.501086  0.765493  1
