# generated using pymatgen
data_Li5Co17(P6Ru)2
_symmetry_space_group_name_H-M   'P 1'
_cell_length_a   11.76806218
_cell_length_b   11.71284292
_cell_length_c   3.56560800
_cell_angle_alpha   90.00000000
_cell_angle_beta   90.00000000
_cell_angle_gamma   119.84489488
_symmetry_Int_Tables_number   1
_chemical_formula_structural   Li5Co17(P6Ru)2
_chemical_formula_sum   'Li5 Co17 P12 Ru2'
_cell_volume   426.29295756
_cell_formula_units_Z   1
loop_
 _symmetry_equiv_pos_site_id
 _symmetry_equiv_pos_as_xyz
  1  'x, y, z'
loop_
 _atom_site_type_symbol
 _atom_site_label
 _atom_site_symmetry_multiplicity
 _atom_site_fract_x
 _atom_site_fract_y
 _atom_site_fract_z
 _atom_site_occupancy
  Li  Li0  1  0.665259  0.332024  0.000000  1
  Li  Li1  1  0.334741  0.666766  0.000000  1
  Li  Li2  1  0.182268  0.182458  0.500000  1
  Li  Li3  1  0.817732  0.000190  0.500000  1
  Li  Li4  1  0.000000  0.815981  0.500000  1
  Co  Co5  1  0.000000  0.452973  0.000000  1
  Co  Co6  1  0.823206  0.201198  0.000000  1
  Co  Co7  1  0.803907  0.622767  0.000000  1
  Co  Co8  1  0.372396  0.177652  0.000000  1
  Co  Co9  1  0.196093  0.818860  0.000000  1
  Co  Co10  1  0.627604  0.805255  0.000000  1
  Co  Co11  1  0.176794  0.377992  0.000000  1
  Co  Co12  1  0.649055  0.127792  0.500000  1
  Co  Co13  1  0.874146  0.519744  0.500000  1
  Co  Co14  1  0.478264  0.351072  0.500000  1
  Co  Co15  1  0.125854  0.645598  0.500000  1
  Co  Co16  1  0.521736  0.872808  0.500000  1
  Co  Co17  1  0.350945  0.478737  0.500000  1
  Co  Co18  1  0.719521  0.717548  0.500000  1
  Co  Co19  1  0.280479  0.998028  0.500000  1
  Co  Co20  1  0.000000  0.286421  0.500000  1
  Co  Co21  1  0.000000  0.002257  0.000000  1
  P  P22  1  0.354011  0.355744  0.000000  1
  P  P23  1  0.645989  0.001733  0.000000  1
  P  P24  1  0.000000  0.640252  0.000000  1
  P  P25  1  0.833145  0.319676  0.500000  1
  P  P26  1  0.682016  0.512665  0.500000  1
  P  P27  1  0.484185  0.166446  0.500000  1
  P  P28  1  0.317984  0.830649  0.500000  1
  P  P29  1  0.515815  0.682261  0.500000  1
  P  P30  1  0.166855  0.486530  0.500000  1
  P  P31  1  0.825189  0.822838  0.000000  1
  P  P32  1  0.174811  0.997648  0.000000  1
  P  P33  1  0.000000  0.180192  0.000000  1
  Ru  Ru34  1  0.549786  0.549516  0.000000  1
  Ru  Ru35  1  0.450214  0.999730  0.000000  1
