# generated using pymatgen
data_Tb2Dy2Al18(IrPt)3
_symmetry_space_group_name_H-M   'P 1'
_cell_length_a   7.58936719
_cell_length_b   7.58841934
_cell_length_c   9.45332301
_cell_angle_alpha   89.99614228
_cell_angle_beta   90.00148733
_cell_angle_gamma   119.59396118
_symmetry_Int_Tables_number   1
_chemical_formula_structural   Tb2Dy2Al18(IrPt)3
_chemical_formula_sum   'Tb2 Dy2 Al18 Ir3 Pt3'
_cell_volume   473.40674085
_cell_formula_units_Z   1
loop_
 _symmetry_equiv_pos_site_id
 _symmetry_equiv_pos_as_xyz
  1  'x, y, z'
loop_
 _atom_site_type_symbol
 _atom_site_label
 _atom_site_symmetry_multiplicity
 _atom_site_fract_x
 _atom_site_fract_y
 _atom_site_fract_z
 _atom_site_occupancy
  Tb  Tb0  1  0.671304  0.995490  0.250423  1
  Tb  Tb1  1  0.329256  0.005217  0.749562  1
  Dy  Dy2  1  0.994808  0.670681  0.250508  1
  Dy  Dy3  1  0.004552  0.328793  0.749510  1
  Al  Al4  1  0.132261  0.131344  0.250567  1
  Al  Al5  1  0.868606  0.867804  0.749427  1
  Al  Al6  1  0.003571  0.338370  0.076820  1
  Al  Al7  1  0.002617  0.665237  0.923257  1
  Al  Al8  1  0.000073  0.661390  0.574868  1
  Al  Al9  1  0.338284  0.999813  0.424928  1
  Al  Al10  1  0.000320  0.338301  0.424624  1
  Al  Al11  1  0.662074  0.999847  0.575578  1
  Al  Al12  1  0.661969  0.996536  0.922964  1
  Al  Al13  1  0.334351  0.997150  0.076976  1
  Al  Al14  1  0.335465  0.335613  0.553410  1
  Al  Al15  1  0.664526  0.664424  0.446595  1
  Al  Al16  1  0.663586  0.666539  0.056370  1
  Al  Al17  1  0.333286  0.336538  0.943614  1
  Al  Al18  1  0.339353  0.549341  0.250542  1
  Al  Al19  1  0.661264  0.452888  0.747465  1
  Al  Al20  1  0.547390  0.339305  0.252538  1
  Al  Al21  1  0.450389  0.660106  0.749463  1
  Ir  Ir22  1  0.328256  0.671550  0.999986  1
  Ir  Ir23  1  0.328387  0.671453  0.500010  1
  Ir  Ir24  1  0.671988  0.328209  0.499984  1
  Pt  Pt25  1  0.672132  0.327968  0.000017  1
  Pt  Pt26  1  0.999808  0.000205  0.999996  1
  Pt  Pt27  1  0.000122  0.999888  0.499999  1
