# generated using pymatgen
data_CsRb3(Gd3S5)4
_symmetry_space_group_name_H-M   'P 1'
_cell_length_a   4.03010600
_cell_length_b   12.02709538
_cell_length_c   21.54541200
_cell_angle_alpha   90.18453443
_cell_angle_beta   90.00000000
_cell_angle_gamma   90.00000000
_symmetry_Int_Tables_number   1
_chemical_formula_structural   CsRb3(Gd3S5)4
_chemical_formula_sum   'Cs1 Rb3 Gd12 S20'
_cell_volume   1044.31081343
_cell_formula_units_Z   1
loop_
 _symmetry_equiv_pos_site_id
 _symmetry_equiv_pos_as_xyz
  1  'x, y, z'
loop_
 _atom_site_type_symbol
 _atom_site_label
 _atom_site_symmetry_multiplicity
 _atom_site_fract_x
 _atom_site_fract_y
 _atom_site_fract_z
 _atom_site_occupancy
  Cs  Cs0  1  0.250000  0.649948  0.596760  1
  Rb  Rb1  1  0.250000  0.842492  0.104983  1
  Rb  Rb2  1  0.750000  0.156203  0.895370  1
  Rb  Rb3  1  0.750000  0.343202  0.393808  1
  Gd  Gd4  1  0.750000  0.806875  0.829610  1
  Gd  Gd5  1  0.250000  0.192866  0.170610  1
  Gd  Gd6  1  0.250000  0.304100  0.672706  1
  Gd  Gd7  1  0.750000  0.693852  0.328809  1
  Gd  Gd8  1  0.250000  0.965697  0.698398  1
  Gd  Gd9  1  0.750000  0.033316  0.301327  1
  Gd  Gd10  1  0.750000  0.466076  0.802898  1
  Gd  Gd11  1  0.250000  0.532813  0.198241  1
  Gd  Gd12  1  0.750000  0.384900  0.050442  1
  Gd  Gd13  1  0.250000  0.615506  0.950491  1
  Gd  Gd14  1  0.250000  0.888820  0.449010  1
  Gd  Gd15  1  0.750000  0.117311  0.550337  1
  S  S16  1  0.250000  0.958103  0.569249  1
  S  S17  1  0.750000  0.047180  0.429833  1
  S  S18  1  0.750000  0.456050  0.931128  1
  S  S19  1  0.250000  0.544249  0.070182  1
  S  S20  1  0.750000  0.769084  0.956092  1
  S  S21  1  0.250000  0.231156  0.044647  1
  S  S22  1  0.250000  0.270986  0.545422  1
  S  S23  1  0.750000  0.735075  0.454382  1
  S  S24  1  0.250000  0.958462  0.826620  1
  S  S25  1  0.750000  0.041355  0.173494  1
  S  S26  1  0.750000  0.454431  0.675663  1
  S  S27  1  0.250000  0.542217  0.326541  1
  S  S28  1  0.750000  0.133598  0.681158  1
  S  S29  1  0.250000  0.865794  0.318664  1
  S  S30  1  0.250000  0.634902  0.820116  1
  S  S31  1  0.750000  0.364731  0.180987  1
  S  S32  1  0.750000  0.682991  0.201292  1
  S  S33  1  0.250000  0.315710  0.800351  1
  S  S34  1  0.250000  0.183228  0.298464  1
  S  S35  1  0.750000  0.816725  0.701916  1
