# generated using pymatgen
data_DyPu3CoB14
_symmetry_space_group_name_H-M   'P 1'
_cell_length_a   7.19974527
_cell_length_b   7.22484434
_cell_length_c   7.47030100
_cell_angle_alpha   90.00000000
_cell_angle_beta   90.00000000
_cell_angle_gamma   89.96573612
_symmetry_Int_Tables_number   1
_chemical_formula_structural   DyPu3CoB14
_chemical_formula_sum   'Dy2 Pu6 Co2 B28'
_cell_volume   388.58286823
_cell_formula_units_Z   2
loop_
 _symmetry_equiv_pos_site_id
 _symmetry_equiv_pos_as_xyz
  1  'x, y, z'
loop_
 _atom_site_type_symbol
 _atom_site_label
 _atom_site_symmetry_multiplicity
 _atom_site_fract_x
 _atom_site_fract_y
 _atom_site_fract_z
 _atom_site_occupancy
  Dy  Dy0  1  0.829809  0.695298  0.500000  1
  Dy  Dy1  1  0.170191  0.304702  0.500000  1
  Pu  Pu2  1  0.196067  0.329529  0.000000  1
  Pu  Pu3  1  0.670073  0.196716  0.000000  1
  Pu  Pu4  1  0.329927  0.803284  0.000000  1
  Pu  Pu5  1  0.694510  0.172035  0.500000  1
  Pu  Pu6  1  0.305490  0.827965  0.500000  1
  Pu  Pu7  1  0.803933  0.670471  0.000000  1
  Co  Co8  1  0.000000  0.000000  0.000000  1
  Co  Co9  1  0.500000  0.500000  0.500000  1
  B  B10  1  0.175441  0.038303  0.230901  1
  B  B11  1  0.959102  0.174693  0.230740  1
  B  B12  1  0.040898  0.825307  0.230740  1
  B  B13  1  0.675074  0.457608  0.270293  1
  B  B14  1  0.324926  0.542392  0.270293  1
  B  B15  1  0.824559  0.961697  0.230901  1
  B  B16  1  0.537626  0.675333  0.272138  1
  B  B17  1  0.462374  0.324667  0.272138  1
  B  B18  1  0.824559  0.961697  0.769099  1
  B  B19  1  0.040898  0.825307  0.769260  1
  B  B20  1  0.959102  0.174693  0.769260  1
  B  B21  1  0.324926  0.542392  0.729707  1
  B  B22  1  0.675074  0.457608  0.729707  1
  B  B23  1  0.175441  0.038303  0.769099  1
  B  B24  1  0.462374  0.324667  0.727862  1
  B  B25  1  0.537626  0.675333  0.727862  1
  B  B26  1  0.089675  0.590370  0.247722  1
  B  B27  1  0.411594  0.088041  0.255436  1
  B  B28  1  0.588406  0.911959  0.255436  1
  B  B29  1  0.910325  0.409630  0.247722  1
  B  B30  1  0.910325  0.409630  0.752278  1
  B  B31  1  0.588406  0.911959  0.744564  1
  B  B32  1  0.411594  0.088041  0.744564  1
  B  B33  1  0.089675  0.590370  0.752278  1
  B  B34  1  0.000000  0.000000  0.390270  1
  B  B35  1  0.500000  0.500000  0.111158  1
  B  B36  1  0.000000  0.000000  0.609730  1
  B  B37  1  0.500000  0.500000  0.888842  1
