# generated using pymatgen
data_BaSr2Pt9
_symmetry_space_group_name_H-M   'P 1'
_cell_length_a   9.49080984
_cell_length_b   9.49081198
_cell_length_c   9.49081072
_cell_angle_alpha   34.31317705
_cell_angle_beta   34.31318204
_cell_angle_gamma   34.31317911
_symmetry_Int_Tables_number   1
_chemical_formula_structural   BaSr2Pt9
_chemical_formula_sum   'Ba1 Sr2 Pt9'
_cell_volume   242.28084103
_cell_formula_units_Z   1
loop_
 _symmetry_equiv_pos_site_id
 _symmetry_equiv_pos_as_xyz
  1  'x, y, z'
loop_
 _atom_site_type_symbol
 _atom_site_label
 _atom_site_symmetry_multiplicity
 _atom_site_fract_x
 _atom_site_fract_y
 _atom_site_fract_z
 _atom_site_occupancy
  Ba  Ba0  1  0.000000  0.000000  0.000000  1
  Sr  Sr1  1  0.140950  0.140950  0.140950  1
  Sr  Sr2  1  0.859050  0.859050  0.859050  1
  Pt  Pt3  1  0.584134  0.584134  0.081209  1
  Pt  Pt4  1  0.331895  0.331895  0.331895  1
  Pt  Pt5  1  0.918790  0.415866  0.415867  1
  Pt  Pt6  1  0.415866  0.918790  0.415867  1
  Pt  Pt7  1  0.500000  0.500000  0.500000  1
  Pt  Pt8  1  0.584134  0.081210  0.584133  1
  Pt  Pt9  1  0.081210  0.584134  0.584133  1
  Pt  Pt10  1  0.668105  0.668105  0.668105  1
  Pt  Pt11  1  0.415866  0.415866  0.918791  1
