# generated using pymatgen
data_YHo11Tm4(InRh)4
_symmetry_space_group_name_H-M   'P 1'
_cell_length_a   9.60394333
_cell_length_b   9.60369483
_cell_length_c   9.60977056
_cell_angle_alpha   60.01110116
_cell_angle_beta   60.01146146
_cell_angle_gamma   60.01422290
_symmetry_Int_Tables_number   1
_chemical_formula_structural   YHo11Tm4(InRh)4
_chemical_formula_sum   'Y1 Ho11 Tm4 In4 Rh4'
_cell_volume   626.91212627
_cell_formula_units_Z   1
loop_
 _symmetry_equiv_pos_site_id
 _symmetry_equiv_pos_as_xyz
  1  'x, y, z'
loop_
 _atom_site_type_symbol
 _atom_site_label
 _atom_site_symmetry_multiplicity
 _atom_site_fract_x
 _atom_site_fract_y
 _atom_site_fract_z
 _atom_site_occupancy
  Y  Y0  1  0.062055  0.062058  0.438435  1
  Ho  Ho1  1  0.438765  0.061235  0.438637  1
  Ho  Ho2  1  0.061587  0.439125  0.061224  1
  Ho  Ho3  1  0.049482  0.649731  0.650578  1
  Ho  Ho4  1  0.438011  0.438006  0.061744  1
  Ho  Ho5  1  0.649751  0.049497  0.650560  1
  Ho  Ho6  1  0.189520  0.810531  0.188364  1
  Ho  Ho7  1  0.188625  0.188666  0.811014  1
  Ho  Ho8  1  0.810944  0.810944  0.188761  1
  Ho  Ho9  1  0.439128  0.061590  0.061230  1
  Ho  Ho10  1  0.810533  0.189540  0.188341  1
  Ho  Ho11  1  0.061233  0.438760  0.438641  1
  Tm  Tm12  1  0.810925  0.189172  0.811312  1
  Tm  Tm13  1  0.189164  0.810919  0.811314  1
  Tm  Tm14  1  0.650428  0.650408  0.048058  1
  Tm  Tm15  1  0.650153  0.650138  0.651285  1
  In  In16  1  0.416958  0.416958  0.416639  1
  In  In17  1  0.748663  0.417813  0.416860  1
  In  In18  1  0.417812  0.748662  0.416861  1
  In  In19  1  0.416999  0.416998  0.749487  1
  Rh  Rh20  1  0.857078  0.857080  0.427651  1
  Rh  Rh21  1  0.857538  0.857533  0.858187  1
  Rh  Rh22  1  0.427816  0.856847  0.857398  1
  Rh  Rh23  1  0.856836  0.427791  0.857418  1
