# generated using pymatgen
data_Y10Ho6MgCo4Ag3
_symmetry_space_group_name_H-M   'P 1'
_cell_length_a   9.41937039
_cell_length_b   9.45987234
_cell_length_c   9.45987201
_cell_angle_alpha   60.02517446
_cell_angle_beta   60.16835548
_cell_angle_gamma   60.16834898
_symmetry_Int_Tables_number   1
_chemical_formula_structural   Y10Ho6MgCo4Ag3
_chemical_formula_sum   'Y10 Ho6 Mg1 Co4 Ag3'
_cell_volume   597.66915155
_cell_formula_units_Z   1
loop_
 _symmetry_equiv_pos_site_id
 _symmetry_equiv_pos_as_xyz
  1  'x, y, z'
loop_
 _atom_site_type_symbol
 _atom_site_label
 _atom_site_symmetry_multiplicity
 _atom_site_fract_x
 _atom_site_fract_y
 _atom_site_fract_z
 _atom_site_occupancy
  Y  Y0  1  0.185413  0.813137  0.186151  1
  Y  Y1  1  0.808592  0.188576  0.810927  1
  Y  Y2  1  0.185413  0.186151  0.813137  1
  Y  Y3  1  0.808592  0.810927  0.188576  1
  Y  Y4  1  0.935623  0.562445  0.562445  1
  Y  Y5  1  0.563339  0.936736  0.936736  1
  Y  Y6  1  0.561144  0.938445  0.561993  1
  Y  Y7  1  0.937578  0.561279  0.939188  1
  Y  Y8  1  0.561144  0.561993  0.938445  1
  Y  Y9  1  0.937578  0.939188  0.561279  1
  Ho  Ho10  1  0.344991  0.345144  0.345144  1
  Ho  Ho11  1  0.345913  0.345096  0.965584  1
  Ho  Ho12  1  0.345913  0.965584  0.345096  1
  Ho  Ho13  1  0.952380  0.349982  0.349982  1
  Ho  Ho14  1  0.808742  0.188963  0.188963  1
  Ho  Ho15  1  0.185806  0.812771  0.812771  1
  Mg  Mg16  1  0.291633  0.569615  0.569615  1
  Co  Co17  1  0.135092  0.144974  0.144974  1
  Co  Co18  1  0.141052  0.141397  0.574783  1
  Co  Co19  1  0.141052  0.574783  0.141397  1
  Co  Co20  1  0.574677  0.144129  0.144129  1
  Ag  Ag21  1  0.582878  0.582895  0.582895  1
  Ag  Ag22  1  0.582728  0.582366  0.253424  1
  Ag  Ag23  1  0.582728  0.253424  0.582366  1
