# generated using pymatgen
data_Eu2B3PbO9
_symmetry_space_group_name_H-M   'P 1'
_cell_length_a   6.74466901
_cell_length_b   6.74466873
_cell_length_c   9.13497200
_cell_angle_alpha   90.00000000
_cell_angle_beta   90.00000000
_cell_angle_gamma   119.84766804
_symmetry_Int_Tables_number   1
_chemical_formula_structural   Eu2B3PbO9
_chemical_formula_sum   'Eu4 B6 Pb2 O18'
_cell_volume   360.43230932
_cell_formula_units_Z   2
loop_
 _symmetry_equiv_pos_site_id
 _symmetry_equiv_pos_as_xyz
  1  'x, y, z'
loop_
 _atom_site_type_symbol
 _atom_site_label
 _atom_site_symmetry_multiplicity
 _atom_site_fract_x
 _atom_site_fract_y
 _atom_site_fract_z
 _atom_site_occupancy
  Eu  Eu0  1  0.829872  0.170128  0.000000  1
  Eu  Eu1  1  0.829872  0.170128  0.500000  1
  Eu  Eu2  1  0.499982  0.500018  0.000000  1
  Eu  Eu3  1  0.499982  0.500018  0.500000  1
  B  B4  1  0.838037  0.602528  0.250000  1
  B  B5  1  0.397472  0.161963  0.750000  1
  B  B6  1  0.930642  0.931258  0.750000  1
  B  B7  1  0.068742  0.069358  0.250000  1
  B  B8  1  0.595550  0.832996  0.250000  1
  B  B9  1  0.167004  0.404450  0.750000  1
  Pb  Pb10  1  0.170304  0.829696  0.500000  1
  Pb  Pb11  1  0.170304  0.829696  0.000000  1
  O  O12  1  0.829482  0.042837  0.250000  1
  O  O13  1  0.957163  0.170518  0.750000  1
  O  O14  1  0.838848  0.492031  0.387815  1
  O  O15  1  0.838848  0.492031  0.112185  1
  O  O16  1  0.507969  0.161152  0.887815  1
  O  O17  1  0.507969  0.161152  0.612185  1
  O  O18  1  0.820487  0.822476  0.612102  1
  O  O19  1  0.376568  0.376722  0.750000  1
  O  O20  1  0.820487  0.822476  0.887898  1
  O  O21  1  0.177524  0.179513  0.112102  1
  O  O22  1  0.177524  0.179513  0.387898  1
  O  O23  1  0.623278  0.623432  0.250000  1
  O  O24  1  0.488053  0.831742  0.109831  1
  O  O25  1  0.168258  0.511947  0.609831  1
  O  O26  1  0.488053  0.831742  0.390169  1
  O  O27  1  0.168258  0.511947  0.890169  1
  O  O28  1  0.049011  0.835546  0.250000  1
  O  O29  1  0.164454  0.950989  0.750000  1
