# generated using pymatgen
data_NdSm2Mg(Co4P3)2
_symmetry_space_group_name_H-M   'P 1'
_cell_length_a   3.78633200
_cell_length_b   10.75331000
_cell_length_c   12.46997300
_cell_angle_alpha   90.00000000
_cell_angle_beta   90.00000000
_cell_angle_gamma   90.00000000
_symmetry_Int_Tables_number   1
_chemical_formula_structural   NdSm2Mg(Co4P3)2
_chemical_formula_sum   'Nd2 Sm4 Mg2 Co16 P12'
_cell_volume   507.72245461
_cell_formula_units_Z   2
loop_
 _symmetry_equiv_pos_site_id
 _symmetry_equiv_pos_as_xyz
  1  'x, y, z'
loop_
 _atom_site_type_symbol
 _atom_site_label
 _atom_site_symmetry_multiplicity
 _atom_site_fract_x
 _atom_site_fract_y
 _atom_site_fract_z
 _atom_site_occupancy
  Nd  Nd0  1  0.000000  0.500000  0.525731  1
  Nd  Nd1  1  0.500000  0.000000  0.474269  1
  Sm  Sm2  1  0.500000  0.820914  0.206358  1
  Sm  Sm3  1  0.500000  0.179086  0.206358  1
  Sm  Sm4  1  0.000000  0.679086  0.793642  1
  Sm  Sm5  1  0.000000  0.320914  0.793642  1
  Mg  Mg6  1  0.500000  0.500000  0.153775  1
  Mg  Mg7  1  0.000000  0.000000  0.846225  1
  Co  Co8  1  0.500000  0.500000  0.706732  1
  Co  Co9  1  0.000000  0.000000  0.293268  1
  Co  Co10  1  0.000000  0.500000  0.988372  1
  Co  Co11  1  0.500000  0.000000  0.011628  1
  Co  Co12  1  0.500000  0.332746  0.996726  1
  Co  Co13  1  0.500000  0.667254  0.996726  1
  Co  Co14  1  0.000000  0.167254  0.003274  1
  Co  Co15  1  0.000000  0.832746  0.003274  1
  Co  Co16  1  0.500000  0.296788  0.431316  1
  Co  Co17  1  0.500000  0.703212  0.431316  1
  Co  Co18  1  0.000000  0.203212  0.568684  1
  Co  Co19  1  0.000000  0.796788  0.568684  1
  Co  Co20  1  0.500000  0.879456  0.706046  1
  Co  Co21  1  0.500000  0.120544  0.706046  1
  Co  Co22  1  0.000000  0.620544  0.293954  1
  Co  Co23  1  0.000000  0.379456  0.293954  1
  P  P24  1  0.500000  0.500000  0.886582  1
  P  P25  1  0.000000  0.000000  0.113418  1
  P  P26  1  0.500000  0.500000  0.350896  1
  P  P27  1  0.000000  0.000000  0.649104  1
  P  P28  1  0.500000  0.304982  0.614344  1
  P  P29  1  0.500000  0.695018  0.614344  1
  P  P30  1  0.000000  0.195018  0.385656  1
  P  P31  1  0.000000  0.804982  0.385656  1
  P  P32  1  0.500000  0.840117  0.895890  1
  P  P33  1  0.500000  0.159883  0.895890  1
  P  P34  1  0.000000  0.659883  0.104110  1
  P  P35  1  0.000000  0.340117  0.104110  1
