# generated using pymatgen
data_Dy6Cd23Se
_symmetry_space_group_name_H-M   'P 1'
_cell_length_a   9.94687487
_cell_length_b   9.94684908
_cell_length_c   9.94685700
_cell_angle_alpha   59.99996359
_cell_angle_beta   59.99992712
_cell_angle_gamma   59.99994260
_symmetry_Int_Tables_number   1
_chemical_formula_structural   Dy6Cd23Se
_chemical_formula_sum   'Dy6 Cd23 Se1'
_cell_volume   695.89307190
_cell_formula_units_Z   1
loop_
 _symmetry_equiv_pos_site_id
 _symmetry_equiv_pos_as_xyz
  1  'x, y, z'
loop_
 _atom_site_type_symbol
 _atom_site_label
 _atom_site_symmetry_multiplicity
 _atom_site_fract_x
 _atom_site_fract_y
 _atom_site_fract_z
 _atom_site_occupancy
  Dy  Dy0  1  0.794917  0.794917  0.205083  1
  Dy  Dy1  1  0.205082  0.794917  0.205083  1
  Dy  Dy2  1  0.794917  0.205083  0.205083  1
  Dy  Dy3  1  0.205083  0.205083  0.794917  1
  Dy  Dy4  1  0.794918  0.205083  0.794917  1
  Dy  Dy5  1  0.205083  0.794917  0.794917  1
  Cd  Cd6  1  0.838008  0.838007  0.485977  1
  Cd  Cd7  1  0.838008  0.485977  0.838008  1
  Cd  Cd8  1  0.485978  0.838007  0.838007  1
  Cd  Cd9  1  0.838008  0.838008  0.838007  1
  Cd  Cd10  1  0.161992  0.161993  0.514023  1
  Cd  Cd11  1  0.161992  0.514023  0.161992  1
  Cd  Cd12  1  0.514022  0.161993  0.161993  1
  Cd  Cd13  1  0.161992  0.161992  0.161993  1
  Cd  Cd14  1  0.621912  0.621912  0.134264  1
  Cd  Cd15  1  0.621912  0.134264  0.621912  1
  Cd  Cd16  1  0.134264  0.621912  0.621912  1
  Cd  Cd17  1  0.621912  0.621912  0.621912  1
  Cd  Cd18  1  0.378088  0.378088  0.865736  1
  Cd  Cd19  1  0.378088  0.865736  0.378088  1
  Cd  Cd20  1  0.865736  0.378088  0.378088  1
  Cd  Cd21  1  0.378088  0.378088  0.378088  1
  Cd  Cd22  1  0.000000  0.000000  0.500000  1
  Cd  Cd23  1  0.500000  0.000000  0.500000  1
  Cd  Cd24  1  0.000000  0.500000  0.500000  1
  Cd  Cd25  1  0.500000  0.500000  0.000000  1
  Cd  Cd26  1  0.000000  0.500000  0.000000  1
  Cd  Cd27  1  0.500000  0.000000  0.000000  1
  Cd  Cd28  1  0.500000  0.500000  0.500000  1
  Se  Se29  1  0.000000  0.000000  0.000000  1
