# generated using pymatgen
data_HoTm3(ScGa5)2
_symmetry_space_group_name_H-M   'P 1'
_cell_length_a   5.97048912
_cell_length_b   9.45554819
_cell_length_c   11.27732800
_cell_angle_alpha   90.00000000
_cell_angle_beta   90.00000000
_cell_angle_gamma   89.97700704
_symmetry_Int_Tables_number   1
_chemical_formula_structural   HoTm3(ScGa5)2
_chemical_formula_sum   'Ho2 Tm6 Sc4 Ga20'
_cell_volume   636.65301587
_cell_formula_units_Z   2
loop_
 _symmetry_equiv_pos_site_id
 _symmetry_equiv_pos_as_xyz
  1  'x, y, z'
loop_
 _atom_site_type_symbol
 _atom_site_label
 _atom_site_symmetry_multiplicity
 _atom_site_fract_x
 _atom_site_fract_y
 _atom_site_fract_z
 _atom_site_occupancy
  Ho  Ho0  1  0.891328  0.509674  0.352413  1
  Ho  Ho1  1  0.608672  0.990326  0.852413  1
  Tm  Tm2  1  0.108629  0.009635  0.647496  1
  Tm  Tm3  1  0.391371  0.490365  0.147496  1
  Tm  Tm4  1  0.108644  0.490332  0.647837  1
  Tm  Tm5  1  0.391356  0.009668  0.147837  1
  Tm  Tm6  1  0.891464  0.990358  0.352379  1
  Tm  Tm7  1  0.608536  0.509642  0.852379  1
  Sc  Sc8  1  0.849142  0.749940  0.073728  1
  Sc  Sc9  1  0.650858  0.750060  0.573728  1
  Sc  Sc10  1  0.150627  0.249990  0.926305  1
  Sc  Sc11  1  0.349373  0.250010  0.426305  1
  Ga  Ga12  1  0.877445  0.050420  0.089979  1
  Ga  Ga13  1  0.622555  0.449580  0.589979  1
  Ga  Ga14  1  0.122568  0.550358  0.910180  1
  Ga  Ga15  1  0.377432  0.949642  0.410180  1
  Ga  Ga16  1  0.122294  0.949495  0.910270  1
  Ga  Ga17  1  0.377706  0.550505  0.410270  1
  Ga  Ga18  1  0.877371  0.449543  0.089510  1
  Ga  Ga19  1  0.622629  0.050457  0.589510  1
  Ga  Ga20  1  0.164578  0.750257  0.248147  1
  Ga  Ga21  1  0.335422  0.749743  0.748147  1
  Ga  Ga22  1  0.835914  0.250271  0.751556  1
  Ga  Ga23  1  0.664086  0.249729  0.251556  1
  Ga  Ga24  1  0.381719  0.749852  0.004328  1
  Ga  Ga25  1  0.118281  0.750148  0.504328  1
  Ga  Ga26  1  0.618155  0.250363  0.996057  1
  Ga  Ga27  1  0.881845  0.249637  0.496057  1
  Ga  Ga28  1  0.606309  0.750387  0.295370  1
  Ga  Ga29  1  0.893691  0.749613  0.795370  1
  Ga  Ga30  1  0.393181  0.250088  0.704445  1
  Ga  Ga31  1  0.106819  0.249912  0.204445  1
