# generated using pymatgen
data_YbY6CoBr12
_symmetry_space_group_name_H-M   'P 1'
_cell_length_a   9.20688752
_cell_length_b   9.20688710
_cell_length_c   9.20688750
_cell_angle_alpha   107.05704738
_cell_angle_beta   107.05703483
_cell_angle_gamma   107.05703460
_symmetry_Int_Tables_number   1
_chemical_formula_structural   YbY6CoBr12
_chemical_formula_sum   'Yb1 Y6 Co1 Br12'
_cell_volume   648.94240198
_cell_formula_units_Z   1
loop_
 _symmetry_equiv_pos_site_id
 _symmetry_equiv_pos_as_xyz
  1  'x, y, z'
loop_
 _atom_site_type_symbol
 _atom_site_label
 _atom_site_symmetry_multiplicity
 _atom_site_fract_x
 _atom_site_fract_y
 _atom_site_fract_z
 _atom_site_occupancy
  Yb  Yb0  1  0.500000  0.500000  0.500000  1
  Y  Y1  1  0.977001  0.900693  0.693703  1
  Y  Y2  1  0.022999  0.099307  0.306297  1
  Y  Y3  1  0.099307  0.306297  0.022999  1
  Y  Y4  1  0.306297  0.022999  0.099307  1
  Y  Y5  1  0.900693  0.693703  0.977001  1
  Y  Y6  1  0.693703  0.977001  0.900693  1
  Co  Co7  1  0.000000  0.000000  0.000000  1
  Br  Br8  1  0.544254  0.622248  0.843208  1
  Br  Br9  1  0.455746  0.377752  0.156792  1
  Br  Br10  1  0.321226  0.928355  0.777967  1
  Br  Br11  1  0.377752  0.156792  0.455746  1
  Br  Br12  1  0.928355  0.777967  0.321226  1
  Br  Br13  1  0.678774  0.071645  0.222033  1
  Br  Br14  1  0.071645  0.222033  0.678774  1
  Br  Br15  1  0.777967  0.321226  0.928355  1
  Br  Br16  1  0.222033  0.678774  0.071645  1
  Br  Br17  1  0.843208  0.544254  0.622248  1
  Br  Br18  1  0.156792  0.455746  0.377752  1
  Br  Br19  1  0.622248  0.843208  0.544254  1
