# generated using pymatgen
data_ThMg2P4Pd7
_symmetry_space_group_name_H-M   'P 1'
_cell_length_a   7.74232671
_cell_length_b   7.74232683
_cell_length_c   9.30490736
_cell_angle_alpha   56.59059305
_cell_angle_beta   56.59060260
_cell_angle_gamma   30.17243491
_symmetry_Int_Tables_number   1
_chemical_formula_structural   ThMg2P4Pd7
_chemical_formula_sum   'Th1 Mg2 P4 Pd7'
_cell_volume   230.28483033
_cell_formula_units_Z   1
loop_
 _symmetry_equiv_pos_site_id
 _symmetry_equiv_pos_as_xyz
  1  'x, y, z'
loop_
 _atom_site_type_symbol
 _atom_site_label
 _atom_site_symmetry_multiplicity
 _atom_site_fract_x
 _atom_site_fract_y
 _atom_site_fract_z
 _atom_site_occupancy
  Th  Th0  1  0.000000  0.000000  0.500000  1
  Mg  Mg1  1  0.672693  0.672693  0.834322  1
  Mg  Mg2  1  0.327307  0.327307  0.165678  1
  P  P3  1  0.338266  0.338266  0.760046  1
  P  P4  1  0.661734  0.661734  0.239954  1
  P  P5  1  0.107486  0.107486  0.686443  1
  P  P6  1  0.892514  0.892514  0.313557  1
  Pd  Pd7  1  0.699565  0.699565  0.458968  1
  Pd  Pd8  1  0.507299  0.507299  0.210242  1
  Pd  Pd9  1  0.174344  0.174344  0.075034  1
  Pd  Pd10  1  0.300435  0.300435  0.541032  1
  Pd  Pd11  1  0.825656  0.825656  0.924966  1
  Pd  Pd12  1  0.000000  0.000000  0.000000  1
  Pd  Pd13  1  0.492701  0.492701  0.789758  1
