# generated using pymatgen
data_Pr2Sm7EuC4Br15
_symmetry_space_group_name_H-M   'P 1'
_cell_length_a   9.17942784
_cell_length_b   10.31328149
_cell_length_c   11.18687661
_cell_angle_alpha   69.77095894
_cell_angle_beta   65.75890481
_cell_angle_gamma   69.84940458
_symmetry_Int_Tables_number   1
_chemical_formula_structural   Pr2Sm7EuC4Br15
_chemical_formula_sum   'Pr2 Sm7 Eu1 C4 Br15'
_cell_volume   880.36411069
_cell_formula_units_Z   1
loop_
 _symmetry_equiv_pos_site_id
 _symmetry_equiv_pos_as_xyz
  1  'x, y, z'
loop_
 _atom_site_type_symbol
 _atom_site_label
 _atom_site_symmetry_multiplicity
 _atom_site_fract_x
 _atom_site_fract_y
 _atom_site_fract_z
 _atom_site_occupancy
  Pr  Pr0  1  0.029247  0.108475  0.264198  1
  Pr  Pr1  1  0.973942  0.889854  0.737191  1
  Sm  Sm2  1  0.668116  0.257423  0.170026  1
  Sm  Sm3  1  0.163769  0.430719  0.045006  1
  Sm  Sm4  1  0.829876  0.568464  0.955657  1
  Sm  Sm5  1  0.081122  0.191167  0.887628  1
  Sm  Sm6  1  0.916781  0.806556  0.112921  1
  Sm  Sm7  1  0.246034  0.543554  0.648152  1
  Sm  Sm8  1  0.749394  0.455564  0.353668  1
  Eu  Eu9  1  0.346828  0.744524  0.826783  1
  C  C10  1  0.877986  0.364234  0.169983  1
  C  C11  1  0.119436  0.635591  0.830190  1
  C  C12  1  0.955897  0.300168  0.059388  1
  C  C13  1  0.042273  0.699307  0.940815  1
  Br  Br14  1  0.504976  0.496079  0.002936  1
  Br  Br15  1  0.133747  0.808694  0.470298  1
  Br  Br16  1  0.866293  0.190827  0.530472  1
  Br  Br17  1  0.248229  0.030802  0.657631  1
  Br  Br18  1  0.746773  0.978604  0.341162  1
  Br  Br19  1  0.339061  0.176329  0.213314  1
  Br  Br20  1  0.665724  0.829043  0.784164  1
  Br  Br21  1  0.451792  0.371636  0.411459  1
  Br  Br22  1  0.553088  0.621140  0.580249  1
  Br  Br23  1  0.953634  0.443299  0.705264  1
  Br  Br24  1  0.044534  0.554724  0.294151  1
  Br  Br25  1  0.209819  0.915610  0.058941  1
  Br  Br26  1  0.784852  0.087848  0.947185  1
  Br  Br27  1  0.383964  0.274097  0.817791  1
  Br  Br28  1  0.612812  0.725667  0.183376  1
