# generated using pymatgen
data_KMnCrSe4
_symmetry_space_group_name_H-M   'P 1'
_cell_length_a   3.72046900
_cell_length_b   8.18087879
_cell_length_c   6.30851053
_cell_angle_alpha   74.81999078
_cell_angle_beta   90.00000000
_cell_angle_gamma   90.00000000
_symmetry_Int_Tables_number   1
_chemical_formula_structural   KMnCrSe4
_chemical_formula_sum   'K1 Mn1 Cr1 Se4'
_cell_volume   185.31064066
_cell_formula_units_Z   1
loop_
 _symmetry_equiv_pos_site_id
 _symmetry_equiv_pos_as_xyz
  1  'x, y, z'
loop_
 _atom_site_type_symbol
 _atom_site_label
 _atom_site_symmetry_multiplicity
 _atom_site_fract_x
 _atom_site_fract_y
 _atom_site_fract_z
 _atom_site_occupancy
  K  K0  1  0.500000  0.497846  0.654799  1
  Mn  Mn1  1  0.000000  0.999264  0.001264  1
  Cr  Cr2  1  0.500000  0.001728  0.502572  1
  Se  Se3  1  0.000000  0.827108  0.393459  1
  Se  Se4  1  0.500000  0.826568  0.897975  1
  Se  Se5  1  0.000000  0.174642  0.611121  1
  Se  Se6  1  0.500000  0.171964  0.105771  1
