# generated using pymatgen
data_Pr3Th(Pt2Pb)2
_symmetry_space_group_name_H-M   'P 1'
_cell_length_a   8.18816501
_cell_length_b   8.18816505
_cell_length_c   3.74549500
_cell_angle_alpha   90.00000000
_cell_angle_beta   90.00000000
_cell_angle_gamma   91.47303881
_symmetry_Int_Tables_number   1
_chemical_formula_structural   Pr3Th(Pt2Pb)2
_chemical_formula_sum   'Pr3 Th1 Pt4 Pb2'
_cell_volume   251.03764495
_cell_formula_units_Z   1
loop_
 _symmetry_equiv_pos_site_id
 _symmetry_equiv_pos_as_xyz
  1  'x, y, z'
loop_
 _atom_site_type_symbol
 _atom_site_label
 _atom_site_symmetry_multiplicity
 _atom_site_fract_x
 _atom_site_fract_y
 _atom_site_fract_z
 _atom_site_occupancy
  Pr  Pr0  1  0.673235  0.173235  0.500000  1
  Pr  Pr1  1  0.828739  0.670354  0.500000  1
  Pr  Pr2  1  0.170354  0.328739  0.500000  1
  Th  Th3  1  0.330912  0.830912  0.500000  1
  Pt  Pt4  1  0.879641  0.379641  0.000000  1
  Pt  Pt5  1  0.615733  0.867972  0.000000  1
  Pt  Pt6  1  0.367972  0.115733  0.000000  1
  Pt  Pt7  1  0.136091  0.636091  0.000000  1
  Pb  Pb8  1  0.501662  0.495660  0.000000  1
  Pb  Pb9  1  0.995660  0.001662  0.000000  1
