# generated using pymatgen
data_La3PrGeBr6
_symmetry_space_group_name_H-M   'P 1'
_cell_length_a   4.30054000
_cell_length_b   13.94180471
_cell_length_c   14.80692100
_cell_angle_alpha   90.29573091
_cell_angle_beta   90.00000000
_cell_angle_gamma   90.00000000
_symmetry_Int_Tables_number   1
_chemical_formula_structural   La3PrGeBr6
_chemical_formula_sum   'La6 Pr2 Ge2 Br12'
_cell_volume   887.77101345
_cell_formula_units_Z   2
loop_
 _symmetry_equiv_pos_site_id
 _symmetry_equiv_pos_as_xyz
  1  'x, y, z'
loop_
 _atom_site_type_symbol
 _atom_site_label
 _atom_site_symmetry_multiplicity
 _atom_site_fract_x
 _atom_site_fract_y
 _atom_site_fract_z
 _atom_site_occupancy
  La  La0  1  0.500000  0.120697  0.337892  1
  La  La1  1  0.500000  0.879303  0.662108  1
  La  La2  1  0.500000  0.620625  0.161956  1
  La  La3  1  0.500000  0.379375  0.838044  1
  La  La4  1  0.000000  0.121556  0.580587  1
  La  La5  1  0.000000  0.878444  0.419413  1
  Pr  Pr6  1  0.000000  0.619459  0.921300  1
  Pr  Pr7  1  0.000000  0.380541  0.078700  1
  Ge  Ge8  1  0.500000  0.000000  0.500000  1
  Ge  Ge9  1  0.500000  0.500000  0.000000  1
  Br  Br10  1  0.500000  0.244924  0.161589  1
  Br  Br11  1  0.500000  0.755076  0.838411  1
  Br  Br12  1  0.500000  0.743048  0.336927  1
  Br  Br13  1  0.500000  0.256952  0.663073  1
  Br  Br14  1  0.000000  0.254060  0.411978  1
  Br  Br15  1  0.000000  0.745940  0.588022  1
  Br  Br16  1  0.000000  0.753357  0.088553  1
  Br  Br17  1  0.000000  0.246643  0.911447  1
  Br  Br18  1  0.000000  0.001002  0.244837  1
  Br  Br19  1  0.000000  0.998998  0.755163  1
  Br  Br20  1  0.000000  0.501724  0.254361  1
  Br  Br21  1  0.000000  0.498276  0.745639  1
