# generated using pymatgen
data_Ce2Rh6C
_symmetry_space_group_name_H-M   'P 1'
_cell_length_a   5.85107668
_cell_length_b   5.85107644
_cell_length_c   5.85111000
_cell_angle_alpha   59.99982157
_cell_angle_beta   59.99982291
_cell_angle_gamma   60.00038046
_symmetry_Int_Tables_number   1
_chemical_formula_structural   Ce2Rh6C
_chemical_formula_sum   'Ce2 Rh6 C1'
_cell_volume   141.64293207
_cell_formula_units_Z   1
loop_
 _symmetry_equiv_pos_site_id
 _symmetry_equiv_pos_as_xyz
  1  'x, y, z'
loop_
 _atom_site_type_symbol
 _atom_site_label
 _atom_site_symmetry_multiplicity
 _atom_site_fract_x
 _atom_site_fract_y
 _atom_site_fract_z
 _atom_site_occupancy
  Ce  Ce0  1  0.250000  0.250000  0.250000  1
  Ce  Ce1  1  0.750000  0.750000  0.750000  1
  Rh  Rh2  1  0.747786  0.252215  0.252215  1
  Rh  Rh3  1  0.252215  0.747786  0.252215  1
  Rh  Rh4  1  0.747781  0.747781  0.252220  1
  Rh  Rh5  1  0.252219  0.252219  0.747782  1
  Rh  Rh6  1  0.747785  0.252216  0.747785  1
  Rh  Rh7  1  0.252216  0.747785  0.747785  1
  C  C8  1  0.000000  0.000000  0.000000  1
