# generated using pymatgen
data_Li2Tm3Lu(Co3P2)6
_symmetry_space_group_name_H-M   'P 1'
_cell_length_a   3.65259200
_cell_length_b   10.22086117
_cell_length_c   11.77964251
_cell_angle_alpha   89.92526358
_cell_angle_beta   90.00000000
_cell_angle_gamma   90.00000000
_symmetry_Int_Tables_number   1
_chemical_formula_structural   Li2Tm3Lu(Co3P2)6
_chemical_formula_sum   'Li2 Tm3 Lu1 Co18 P12'
_cell_volume   439.76472887
_cell_formula_units_Z   1
loop_
 _symmetry_equiv_pos_site_id
 _symmetry_equiv_pos_as_xyz
  1  'x, y, z'
loop_
 _atom_site_type_symbol
 _atom_site_label
 _atom_site_symmetry_multiplicity
 _atom_site_fract_x
 _atom_site_fract_y
 _atom_site_fract_z
 _atom_site_occupancy
  Li  Li0  1  0.250000  0.702430  0.991043  1
  Li  Li1  1  0.250000  0.796802  0.490074  1
  Tm  Tm2  1  0.250000  0.579044  0.702481  1
  Tm  Tm3  1  0.250000  0.920855  0.202541  1
  Tm  Tm4  1  0.750000  0.079610  0.797473  1
  Lu  Lu5  1  0.750000  0.420667  0.297948  1
  Co  Co6  1  0.750000  0.288070  0.008282  1
  Co  Co7  1  0.750000  0.212096  0.508273  1
  Co  Co8  1  0.250000  0.404237  0.485912  1
  Co  Co9  1  0.250000  0.095624  0.986733  1
  Co  Co10  1  0.750000  0.590907  0.515249  1
  Co  Co11  1  0.750000  0.908756  0.015520  1
  Co  Co12  1  0.250000  0.224654  0.175107  1
  Co  Co13  1  0.250000  0.275852  0.674730  1
  Co  Co14  1  0.750000  0.779739  0.826085  1
  Co  Co15  1  0.750000  0.720057  0.326044  1
  Co  Co16  1  0.250000  0.881084  0.698988  1
  Co  Co17  1  0.250000  0.618322  0.199545  1
  Co  Co18  1  0.750000  0.121289  0.299389  1
  Co  Co19  1  0.750000  0.379324  0.799545  1
  Co  Co20  1  0.250000  0.462986  0.931547  1
  Co  Co21  1  0.250000  0.037225  0.431127  1
  Co  Co22  1  0.750000  0.533151  0.067241  1
  Co  Co23  1  0.750000  0.966724  0.566366  1
  P  P24  1  0.250000  0.422380  0.113427  1
  P  P25  1  0.250000  0.077843  0.612606  1
  P  P26  1  0.750000  0.577221  0.883763  1
  P  P27  1  0.750000  0.922912  0.383414  1
  P  P28  1  0.250000  0.266857  0.866832  1
  P  P29  1  0.250000  0.234057  0.366427  1
  P  P30  1  0.750000  0.731137  0.137987  1
  P  P31  1  0.750000  0.768784  0.637827  1
  P  P32  1  0.250000  0.599958  0.392552  1
  P  P33  1  0.250000  0.899331  0.892805  1
  P  P34  1  0.750000  0.396589  0.607536  1
  P  P35  1  0.750000  0.103428  0.107573  1
