# generated using pymatgen
data_Ti2Nb5V(GaSn2)4
_symmetry_space_group_name_H-M   'P 1'
_cell_length_a   10.24732036
_cell_length_b   10.24522228
_cell_length_c   7.01591270
_cell_angle_alpha   89.85726144
_cell_angle_beta   90.08803409
_cell_angle_gamma   147.11450068
_symmetry_Int_Tables_number   1
_chemical_formula_structural   Ti2Nb5V(GaSn2)4
_chemical_formula_sum   'Ti2 Nb5 V1 Ga4 Sn8'
_cell_volume   399.92972701
_cell_formula_units_Z   1
loop_
 _symmetry_equiv_pos_site_id
 _symmetry_equiv_pos_as_xyz
  1  'x, y, z'
loop_
 _atom_site_type_symbol
 _atom_site_label
 _atom_site_symmetry_multiplicity
 _atom_site_fract_x
 _atom_site_fract_y
 _atom_site_fract_z
 _atom_site_occupancy
  Ti  Ti0  1  0.574746  0.423529  0.462965  1
  Ti  Ti1  1  0.424950  0.577872  0.536839  1
  Nb  Nb2  1  0.075276  0.926642  0.039299  1
  Nb  Nb3  1  0.909767  0.587328  0.749822  1
  Nb  Nb4  1  0.412271  0.090363  0.749909  1
  Nb  Nb5  1  0.587331  0.907752  0.250043  1
  Nb  Nb6  1  0.923412  0.073773  0.960508  1
  V  V7  1  0.093533  0.411728  0.250482  1
  Ga  Ga8  1  0.765134  0.727961  0.746247  1
  Ga  Ga9  1  0.727958  0.765146  0.253773  1
  Ga  Ga10  1  0.232113  0.274979  0.253409  1
  Ga  Ga11  1  0.271915  0.235171  0.746293  1
  Sn  Sn12  1  0.727468  0.280850  0.414789  1
  Sn  Sn13  1  0.382371  0.606939  0.924856  1
  Sn  Sn14  1  0.272985  0.715796  0.576020  1
  Sn  Sn15  1  0.219179  0.770935  0.082474  1
  Sn  Sn16  1  0.783193  0.227988  0.927708  1
  Sn  Sn17  1  0.894413  0.116940  0.567679  1
  Sn  Sn18  1  0.611375  0.388310  0.079300  1
  Sn  Sn19  1  0.110610  0.889998  0.427586  1
