# generated using pymatgen
data_LuZrMn3Ni9P7
_symmetry_space_group_name_H-M   'P 1'
_cell_length_a   9.06102700
_cell_length_b   9.06102786
_cell_length_c   3.61866100
_cell_angle_alpha   90.00000000
_cell_angle_beta   90.00000000
_cell_angle_gamma   120.00000391
_symmetry_Int_Tables_number   1
_chemical_formula_structural   LuZrMn3Ni9P7
_chemical_formula_sum   'Lu1 Zr1 Mn3 Ni9 P7'
_cell_volume   257.29621919
_cell_formula_units_Z   1
loop_
 _symmetry_equiv_pos_site_id
 _symmetry_equiv_pos_as_xyz
  1  'x, y, z'
loop_
 _atom_site_type_symbol
 _atom_site_label
 _atom_site_symmetry_multiplicity
 _atom_site_fract_x
 _atom_site_fract_y
 _atom_site_fract_z
 _atom_site_occupancy
  Lu  Lu0  1  0.000000  0.000000  0.500000  1
  Zr  Zr1  1  0.666667  0.333333  0.000000  1
  Mn  Mn2  1  0.555688  0.764191  0.500000  1
  Mn  Mn3  1  0.235809  0.791498  0.500000  1
  Mn  Mn4  1  0.208502  0.444312  0.500000  1
  Ni  Ni5  1  0.770360  0.727449  0.000000  1
  Ni  Ni6  1  0.272551  0.042912  0.000000  1
  Ni  Ni7  1  0.957088  0.229640  0.000000  1
  Ni  Ni8  1  0.488269  0.946590  0.000000  1
  Ni  Ni9  1  0.053410  0.541678  0.000000  1
  Ni  Ni10  1  0.458322  0.511731  0.000000  1
  Ni  Ni11  1  0.715944  0.104341  0.500000  1
  Ni  Ni12  1  0.895659  0.611604  0.500000  1
  Ni  Ni13  1  0.388396  0.284056  0.500000  1
  P  P14  1  0.451607  0.077962  0.500000  1
  P  P15  1  0.922038  0.373646  0.500000  1
  P  P16  1  0.626354  0.548393  0.500000  1
  P  P17  1  0.741294  0.958147  0.000000  1
  P  P18  1  0.041853  0.783147  0.000000  1
  P  P19  1  0.216853  0.258706  0.000000  1
  P  P20  1  0.333333  0.666667  0.000000  1
