# generated using pymatgen
data_Y4Al18Ir3Pd2Rh
_symmetry_space_group_name_H-M   'P 1'
_cell_length_a   7.57931635
_cell_length_b   7.57931677
_cell_length_c   9.47438105
_cell_angle_alpha   89.96344186
_cell_angle_beta   89.96344027
_cell_angle_gamma   119.59356355
_symmetry_Int_Tables_number   1
_chemical_formula_structural   Y4Al18Ir3Pd2Rh
_chemical_formula_sum   'Y4 Al18 Ir3 Pd2 Rh1'
_cell_volume   473.26605564
_cell_formula_units_Z   1
loop_
 _symmetry_equiv_pos_site_id
 _symmetry_equiv_pos_as_xyz
  1  'x, y, z'
loop_
 _atom_site_type_symbol
 _atom_site_label
 _atom_site_symmetry_multiplicity
 _atom_site_fract_x
 _atom_site_fract_y
 _atom_site_fract_z
 _atom_site_occupancy
  Y  Y0  1  0.995394  0.670541  0.251680  1
  Y  Y1  1  0.004606  0.329459  0.748320  1
  Y  Y2  1  0.670541  0.995394  0.251680  1
  Y  Y3  1  0.329459  0.004606  0.748320  1
  Al  Al4  1  0.127180  0.127180  0.250043  1
  Al  Al5  1  0.872820  0.872820  0.749957  1
  Al  Al6  1  0.001399  0.331135  0.077172  1
  Al  Al7  1  0.998601  0.668865  0.922828  1
  Al  Al8  1  0.000046  0.665089  0.573832  1
  Al  Al9  1  0.334911  0.999954  0.426168  1
  Al  Al10  1  0.999954  0.334911  0.426168  1
  Al  Al11  1  0.665089  0.000046  0.573832  1
  Al  Al12  1  0.668865  0.998601  0.922828  1
  Al  Al13  1  0.331135  0.001399  0.077172  1
  Al  Al14  1  0.332397  0.332397  0.549094  1
  Al  Al15  1  0.667603  0.667603  0.450906  1
  Al  Al16  1  0.669452  0.669452  0.057135  1
  Al  Al17  1  0.330548  0.330548  0.942865  1
  Al  Al18  1  0.340151  0.547025  0.253084  1
  Al  Al19  1  0.659849  0.452975  0.746916  1
  Al  Al20  1  0.547025  0.340151  0.253084  1
  Al  Al21  1  0.452975  0.659849  0.746916  1
  Ir  Ir22  1  0.328139  0.671861  0.500000  1
  Ir  Ir23  1  0.671861  0.328139  0.500000  1
  Ir  Ir24  1  0.000000  0.000000  0.500000  1
  Pd  Pd25  1  0.672306  0.327694  0.000000  1
  Pd  Pd26  1  0.327694  0.672306  0.000000  1
  Rh  Rh27  1  0.000000  0.000000  0.000000  1
