# generated using pymatgen
data_Nb6Zn6Ru7Rh5
_symmetry_space_group_name_H-M   'P 1'
_cell_length_a   4.39652600
_cell_length_b   6.23962806
_cell_length_c   13.13702812
_cell_angle_alpha   89.98432158
_cell_angle_beta   89.99976936
_cell_angle_gamma   90.00070079
_symmetry_Int_Tables_number   1
_chemical_formula_structural   Nb6Zn6Ru7Rh5
_chemical_formula_sum   'Nb6 Zn6 Ru7 Rh5'
_cell_volume   360.38396696
_cell_formula_units_Z   1
loop_
 _symmetry_equiv_pos_site_id
 _symmetry_equiv_pos_as_xyz
  1  'x, y, z'
loop_
 _atom_site_type_symbol
 _atom_site_label
 _atom_site_symmetry_multiplicity
 _atom_site_fract_x
 _atom_site_fract_y
 _atom_site_fract_z
 _atom_site_occupancy
  Nb  Nb0  1  0.999994  0.999896  0.004552  1
  Nb  Nb1  1  0.499918  0.500439  0.166953  1
  Nb  Nb2  1  0.999943  0.001615  0.330479  1
  Nb  Nb3  1  0.499994  0.494918  0.494920  1
  Nb  Nb4  1  0.000051  0.002365  0.664550  1
  Nb  Nb5  1  0.500083  0.500535  0.838662  1
  Zn  Zn6  1  0.000001  0.500025  0.000679  1
  Zn  Zn7  1  0.499872  0.000223  0.166692  1
  Zn  Zn8  1  0.999897  0.499781  0.332913  1
  Zn  Zn9  1  0.499999  0.999571  0.499550  1
  Zn  Zn10  1  0.000098  0.500365  0.666494  1
  Zn  Zn11  1  0.500145  0.999983  0.833716  1
  Ru  Ru12  1  0.499998  0.250555  0.997572  1
  Ru  Ru13  1  0.499999  0.749635  0.997812  1
  Ru  Ru14  1  0.999917  0.249090  0.166186  1
  Ru  Ru15  1  0.999913  0.751064  0.166271  1
  Ru  Ru16  1  0.499945  0.250357  0.334996  1
  Ru  Ru17  1  0.499930  0.749283  0.334484  1
  Ru  Ru18  1  0.000000  0.250352  0.502554  1
  Rh  Rh19  1  0.999998  0.749826  0.502027  1
  Rh  Rh20  1  0.500064  0.248264  0.667341  1
  Rh  Rh21  1  0.500058  0.752317  0.667359  1
  Rh  Rh22  1  0.000095  0.251462  0.831527  1
  Rh  Rh23  1  0.000087  0.748083  0.831711  1
