# generated using pymatgen
data_Zr5Ti3Cr2(Co7P6)2
_symmetry_space_group_name_H-M   'P 1'
_cell_length_a   12.00925797
_cell_length_b   11.98887888
_cell_length_c   3.62428200
_cell_angle_alpha   90.00000000
_cell_angle_beta   90.00000000
_cell_angle_gamma   119.71521610
_symmetry_Int_Tables_number   1
_chemical_formula_structural   Zr5Ti3Cr2(Co7P6)2
_chemical_formula_sum   'Zr5 Ti3 Cr2 Co14 P12'
_cell_volume   453.19645495
_cell_formula_units_Z   1
loop_
 _symmetry_equiv_pos_site_id
 _symmetry_equiv_pos_as_xyz
  1  'x, y, z'
loop_
 _atom_site_type_symbol
 _atom_site_label
 _atom_site_symmetry_multiplicity
 _atom_site_fract_x
 _atom_site_fract_y
 _atom_site_fract_z
 _atom_site_occupancy
  Zr  Zr0  1  0.665568  0.333034  0.000000  1
  Zr  Zr1  1  0.336419  0.671186  0.000000  1
  Zr  Zr2  1  0.819847  0.818971  0.500000  1
  Zr  Zr3  1  0.181410  0.001803  0.500000  1
  Zr  Zr4  1  0.994294  0.174314  0.500000  1
  Ti  Ti5  1  0.445192  0.444129  0.000000  1
  Ti  Ti6  1  0.554703  0.998863  0.000000  1
  Ti  Ti7  1  0.003798  0.557767  0.000000  1
  Cr  Cr8  1  0.196457  0.382623  0.000000  1
  Cr  Cr9  1  0.122773  0.469966  0.500000  1
  Co  Co10  1  0.177701  0.806917  0.000000  1
  Co  Co11  1  0.823421  0.626546  0.000000  1
  Co  Co12  1  0.797709  0.173022  0.000000  1
  Co  Co13  1  0.375230  0.196804  0.000000  1
  Co  Co14  1  0.354961  0.873898  0.500000  1
  Co  Co15  1  0.527453  0.650085  0.500000  1
  Co  Co16  1  0.646853  0.517434  0.500000  1
  Co  Co17  1  0.866692  0.353358  0.500000  1
  Co  Co18  1  0.480113  0.125908  0.500000  1
  Co  Co19  1  0.000250  0.000175  0.000000  1
  Co  Co20  1  0.716691  0.998746  0.500000  1
  Co  Co21  1  0.999961  0.718940  0.500000  1
  Co  Co22  1  0.627969  0.823860  0.000000  1
  Co  Co23  1  0.283656  0.281559  0.500000  1
  P  P24  1  0.647910  0.646405  0.000000  1
  P  P25  1  0.352718  0.000050  0.000000  1
  P  P26  1  0.988354  0.346457  0.000000  1
  P  P27  1  0.482396  0.313182  0.500000  1
  P  P28  1  0.683064  0.167221  0.500000  1
  P  P29  1  0.832451  0.518834  0.500000  1
  P  P30  1  0.518293  0.831668  0.500000  1
  P  P31  1  0.169086  0.684612  0.500000  1
  P  P32  1  0.822877  0.998441  0.000000  1
  P  P33  1  0.000783  0.824527  0.000000  1
  P  P34  1  0.327149  0.490758  0.500000  1
  P  P35  1  0.175797  0.177937  0.000000  1
