# generated using pymatgen
data_Ac4Al14ZnNi
_symmetry_space_group_name_H-M   'P 1'
_cell_length_a   6.29495765
_cell_length_b   6.29261039
_cell_length_c   11.87054043
_cell_angle_alpha   74.62998115
_cell_angle_beta   74.62410863
_cell_angle_gamma   89.99999908
_symmetry_Int_Tables_number   1
_chemical_formula_structural   Ac4Al14ZnNi
_chemical_formula_sum   'Ac4 Al14 Zn1 Ni1'
_cell_volume   435.91585159
_cell_formula_units_Z   1
loop_
 _symmetry_equiv_pos_site_id
 _symmetry_equiv_pos_as_xyz
  1  'x, y, z'
loop_
 _atom_site_type_symbol
 _atom_site_label
 _atom_site_symmetry_multiplicity
 _atom_site_fract_x
 _atom_site_fract_y
 _atom_site_fract_z
 _atom_site_occupancy
  Ac  Ac0  1  0.000183  0.000183  0.999636  1
  Ac  Ac1  1  0.502904  0.502904  0.994192  1
  Ac  Ac2  1  0.751931  0.251931  0.496139  1
  Ac  Ac3  1  0.246905  0.746905  0.506192  1
  Al  Al4  1  0.192778  0.192778  0.614445  1
  Al  Al5  1  0.810703  0.810703  0.378593  1
  Al  Al6  1  0.610719  0.123694  0.248220  1
  Al  Al7  1  0.141059  0.628084  0.248220  1
  Al  Al8  1  0.610719  0.628084  0.248220  1
  Al  Al9  1  0.141059  0.123694  0.248220  1
  Al  Al10  1  0.854560  0.349935  0.756768  1
  Al  Al11  1  0.388672  0.893295  0.756768  1
  Al  Al12  1  0.854560  0.893295  0.756768  1
  Al  Al13  1  0.388672  0.349935  0.756768  1
  Al  Al14  1  0.690558  0.690558  0.618884  1
  Al  Al15  1  0.063082  0.563082  0.873834  1
  Al  Al16  1  0.453333  0.953333  0.093335  1
  Al  Al17  1  0.941707  0.441707  0.116584  1
  Zn  Zn18  1  0.308157  0.308157  0.383685  1
  Ni  Ni19  1  0.562570  0.062570  0.874861  1
