# generated using pymatgen
data_Fe3SiMo2
_symmetry_space_group_name_H-M   'P 1'
_cell_length_a   4.74328100
_cell_length_b   4.74328002
_cell_length_c   7.70588400
_cell_angle_alpha   90.00000000
_cell_angle_beta   90.00000000
_cell_angle_gamma   119.99999986
_symmetry_Int_Tables_number   1
_chemical_formula_structural   Fe3SiMo2
_chemical_formula_sum   'Fe6 Si2 Mo4'
_cell_volume   150.14494568
_cell_formula_units_Z   2
loop_
 _symmetry_equiv_pos_site_id
 _symmetry_equiv_pos_as_xyz
  1  'x, y, z'
loop_
 _atom_site_type_symbol
 _atom_site_label
 _atom_site_symmetry_multiplicity
 _atom_site_fract_x
 _atom_site_fract_y
 _atom_site_fract_z
 _atom_site_occupancy
  Fe  Fe0  1  0.828633  0.171367  0.250000  1
  Fe  Fe1  1  0.828633  0.657267  0.250000  1
  Fe  Fe2  1  0.342733  0.171367  0.250000  1
  Fe  Fe3  1  0.171367  0.828633  0.750000  1
  Fe  Fe4  1  0.171367  0.342733  0.750000  1
  Fe  Fe5  1  0.657267  0.828633  0.750000  1
  Si  Si6  1  0.000000  0.000000  0.500000  1
  Si  Si7  1  0.000000  0.000000  0.000000  1
  Mo  Mo8  1  0.333333  0.666667  0.434973  1
  Mo  Mo9  1  0.666667  0.333333  0.565027  1
  Mo  Mo10  1  0.666667  0.333333  0.934973  1
  Mo  Mo11  1  0.333333  0.666667  0.065027  1
