# generated using pymatgen
data_Zr4Mn4GeAs3
_symmetry_space_group_name_H-M   'P 1'
_cell_length_a   3.75016900
_cell_length_b   6.66268397
_cell_length_c   7.81208813
_cell_angle_alpha   90.06166772
_cell_angle_beta   90.00000000
_cell_angle_gamma   90.00000000
_symmetry_Int_Tables_number   1
_chemical_formula_structural   Zr4Mn4GeAs3
_chemical_formula_sum   'Zr4 Mn4 Ge1 As3'
_cell_volume   195.19421201
_cell_formula_units_Z   1
loop_
 _symmetry_equiv_pos_site_id
 _symmetry_equiv_pos_as_xyz
  1  'x, y, z'
loop_
 _atom_site_type_symbol
 _atom_site_label
 _atom_site_symmetry_multiplicity
 _atom_site_fract_x
 _atom_site_fract_y
 _atom_site_fract_z
 _atom_site_occupancy
  Zr  Zr0  1  0.250000  0.534567  0.676931  1
  Zr  Zr1  1  0.250000  0.034351  0.822723  1
  Zr  Zr2  1  0.750000  0.965688  0.177650  1
  Zr  Zr3  1  0.750000  0.465772  0.322505  1
  Mn  Mn4  1  0.750000  0.865654  0.561792  1
  Mn  Mn5  1  0.250000  0.133243  0.437966  1
  Mn  Mn6  1  0.750000  0.366576  0.939020  1
  Mn  Mn7  1  0.250000  0.633752  0.061988  1
  Ge  Ge8  1  0.750000  0.237318  0.625055  1
  As  As9  1  0.750000  0.737274  0.873761  1
  As  As10  1  0.250000  0.763355  0.373856  1
  As  As11  1  0.250000  0.262452  0.126753  1
