# generated using pymatgen
data_Tm16MgCd3Ni3Os
_symmetry_space_group_name_H-M   'P 1'
_cell_length_a   9.50263973
_cell_length_b   9.50264063
_cell_length_c   9.50264126
_cell_angle_alpha   59.27101113
_cell_angle_beta   59.27100570
_cell_angle_gamma   59.27101745
_symmetry_Int_Tables_number   1
_chemical_formula_structural   Tm16MgCd3Ni3Os
_chemical_formula_sum   'Tm16 Mg1 Cd3 Ni3 Os1'
_cell_volume   596.68789157
_cell_formula_units_Z   1
loop_
 _symmetry_equiv_pos_site_id
 _symmetry_equiv_pos_as_xyz
  1  'x, y, z'
loop_
 _atom_site_type_symbol
 _atom_site_label
 _atom_site_symmetry_multiplicity
 _atom_site_fract_x
 _atom_site_fract_y
 _atom_site_fract_z
 _atom_site_occupancy
  Tm  Tm0  1  0.347483  0.347483  0.347483  1
  Tm  Tm1  1  0.350756  0.350756  0.956169  1
  Tm  Tm2  1  0.350756  0.956169  0.350756  1
  Tm  Tm3  1  0.956169  0.350756  0.350756  1
  Tm  Tm4  1  0.809607  0.188216  0.188216  1
  Tm  Tm5  1  0.185066  0.812311  0.812311  1
  Tm  Tm6  1  0.188216  0.809607  0.188216  1
  Tm  Tm7  1  0.812311  0.185066  0.812311  1
  Tm  Tm8  1  0.188216  0.188216  0.809607  1
  Tm  Tm9  1  0.812311  0.812311  0.185066  1
  Tm  Tm10  1  0.935667  0.566757  0.566757  1
  Tm  Tm11  1  0.557650  0.939605  0.939605  1
  Tm  Tm12  1  0.566757  0.935667  0.566757  1
  Tm  Tm13  1  0.939605  0.557650  0.939605  1
  Tm  Tm14  1  0.566757  0.566757  0.935667  1
  Tm  Tm15  1  0.939605  0.939605  0.557650  1
  Mg  Mg16  1  0.576093  0.576093  0.576093  1
  Cd  Cd17  1  0.579849  0.579849  0.255036  1
  Cd  Cd18  1  0.579849  0.255036  0.579849  1
  Cd  Cd19  1  0.255036  0.579849  0.579849  1
  Ni  Ni20  1  0.141791  0.141791  0.575359  1
  Ni  Ni21  1  0.141791  0.575359  0.141791  1
  Ni  Ni22  1  0.575359  0.141791  0.141791  1
  Os  Os23  1  0.143300  0.143300  0.143300  1
