# generated using pymatgen
data_Tb3Pa(ZnRh)4
_symmetry_space_group_name_H-M   'P 1'
_cell_length_a   3.91206100
_cell_length_b   7.09393351
_cell_length_c   8.31995476
_cell_angle_alpha   90.72985205
_cell_angle_beta   90.00000000
_cell_angle_gamma   90.00000000
_symmetry_Int_Tables_number   1
_chemical_formula_structural   Tb3Pa(ZnRh)4
_chemical_formula_sum   'Tb3 Pa1 Zn4 Rh4'
_cell_volume   230.87582492
_cell_formula_units_Z   1
loop_
 _symmetry_equiv_pos_site_id
 _symmetry_equiv_pos_as_xyz
  1  'x, y, z'
loop_
 _atom_site_type_symbol
 _atom_site_label
 _atom_site_symmetry_multiplicity
 _atom_site_fract_x
 _atom_site_fract_y
 _atom_site_fract_z
 _atom_site_occupancy
  Tb  Tb0  1  0.750000  0.446025  0.808096  1
  Tb  Tb1  1  0.250000  0.049112  0.320126  1
  Tb  Tb2  1  0.750000  0.944248  0.687875  1
  Pa  Pa3  1  0.250000  0.551019  0.179201  1
  Zn  Zn4  1  0.250000  0.130028  0.935790  1
  Zn  Zn5  1  0.750000  0.893341  0.063623  1
  Zn  Zn6  1  0.250000  0.624238  0.562369  1
  Zn  Zn7  1  0.750000  0.365572  0.441394  1
  Rh  Rh8  1  0.750000  0.736544  0.356166  1
  Rh  Rh9  1  0.250000  0.237740  0.625524  1
  Rh  Rh10  1  0.750000  0.281001  0.127956  1
  Rh  Rh11  1  0.250000  0.741131  0.891878  1
