# generated using pymatgen
data_Ho2GaRu2
_symmetry_space_group_name_H-M   'P 1'
_cell_length_a   4.11981524
_cell_length_b   5.50636173
_cell_length_c   5.50636072
_cell_angle_alpha   63.10059983
_cell_angle_beta   68.03154623
_cell_angle_gamma   68.03154089
_symmetry_Int_Tables_number   1
_chemical_formula_structural   Ho2GaRu2
_chemical_formula_sum   'Ho2 Ga1 Ru2'
_cell_volume   100.09000346
_cell_formula_units_Z   1
loop_
 _symmetry_equiv_pos_site_id
 _symmetry_equiv_pos_as_xyz
  1  'x, y, z'
loop_
 _atom_site_type_symbol
 _atom_site_label
 _atom_site_symmetry_multiplicity
 _atom_site_fract_x
 _atom_site_fract_y
 _atom_site_fract_z
 _atom_site_occupancy
  Ho  Ho0  1  0.206593  0.293407  0.293407  1
  Ho  Ho1  1  0.793407  0.706593  0.706593  1
  Ga  Ga2  1  0.000000  0.000000  0.000000  1
  Ru  Ru3  1  0.500000  0.276178  0.723822  1
  Ru  Ru4  1  0.500000  0.723822  0.276178  1
