# generated using pymatgen
data_Y6Sc2TlAu9
_symmetry_space_group_name_H-M   'P 1'
_cell_length_a   8.00387490
_cell_length_b   8.00387578
_cell_length_c   8.00387400
_cell_angle_alpha   65.57523313
_cell_angle_beta   65.57523027
_cell_angle_gamma   65.57522532
_symmetry_Int_Tables_number   1
_chemical_formula_structural   Y6Sc2TlAu9
_chemical_formula_sum   'Y6 Sc2 Tl1 Au9'
_cell_volume   406.47994125
_cell_formula_units_Z   1
loop_
 _symmetry_equiv_pos_site_id
 _symmetry_equiv_pos_as_xyz
  1  'x, y, z'
loop_
 _atom_site_type_symbol
 _atom_site_label
 _atom_site_symmetry_multiplicity
 _atom_site_fract_x
 _atom_site_fract_y
 _atom_site_fract_z
 _atom_site_occupancy
  Y  Y0  1  0.898939  0.184114  0.622206  1
  Y  Y1  1  0.622206  0.898939  0.184114  1
  Y  Y2  1  0.184114  0.622206  0.898939  1
  Y  Y3  1  0.101061  0.815886  0.377794  1
  Y  Y4  1  0.377794  0.101061  0.815886  1
  Y  Y5  1  0.815886  0.377794  0.101061  1
  Sc  Sc6  1  0.663611  0.663611  0.663611  1
  Sc  Sc7  1  0.336389  0.336389  0.336389  1
  Tl  Tl8  1  0.500000  0.500000  0.500000  1
  Au  Au9  1  0.000000  0.000000  0.000000  1
  Au  Au10  1  0.807316  0.807316  0.807316  1
  Au  Au11  1  0.192684  0.192684  0.192684  1
  Au  Au12  1  0.934766  0.548118  0.322915  1
  Au  Au13  1  0.322915  0.934766  0.548118  1
  Au  Au14  1  0.548118  0.322915  0.934766  1
  Au  Au15  1  0.065234  0.451882  0.677085  1
  Au  Au16  1  0.677085  0.065234  0.451882  1
  Au  Au17  1  0.451882  0.677085  0.065234  1
