# generated using pymatgen
data_Y2Si6IrPt9
_symmetry_space_group_name_H-M   'P 1'
_cell_length_a   4.08133800
_cell_length_b   7.26393590
_cell_length_c   19.72435486
_cell_angle_alpha   89.86156685
_cell_angle_beta   90.00000000
_cell_angle_gamma   90.00000000
_symmetry_Int_Tables_number   1
_chemical_formula_structural   Y2Si6IrPt9
_chemical_formula_sum   'Y4 Si12 Ir2 Pt18'
_cell_volume   584.75791028
_cell_formula_units_Z   2
loop_
 _symmetry_equiv_pos_site_id
 _symmetry_equiv_pos_as_xyz
  1  'x, y, z'
loop_
 _atom_site_type_symbol
 _atom_site_label
 _atom_site_symmetry_multiplicity
 _atom_site_fract_x
 _atom_site_fract_y
 _atom_site_fract_z
 _atom_site_occupancy
  Y  Y0  1  0.250000  0.625943  0.643390  1
  Y  Y1  1  0.750000  0.376447  0.355881  1
  Y  Y2  1  0.750000  0.120680  0.857234  1
  Y  Y3  1  0.250000  0.880254  0.142893  1
  Si  Si4  1  0.250000  0.841466  0.925914  1
  Si  Si5  1  0.750000  0.150280  0.075634  1
  Si  Si6  1  0.750000  0.341667  0.577841  1
  Si  Si7  1  0.250000  0.659427  0.424171  1
  Si  Si8  1  0.750000  0.635662  0.759383  1
  Si  Si9  1  0.250000  0.367674  0.239805  1
  Si  Si10  1  0.250000  0.407602  0.916273  1
  Si  Si11  1  0.750000  0.604576  0.083627  1
  Si  Si12  1  0.750000  0.902225  0.581657  1
  Si  Si13  1  0.250000  0.089137  0.417326  1
  Si  Si14  1  0.250000  0.133472  0.740323  1
  Si  Si15  1  0.750000  0.866346  0.259582  1
  Ir  Ir16  1  0.250000  0.879496  0.516124  1
  Ir  Ir17  1  0.750000  0.875856  0.011134  1
  Pt  Pt18  1  0.250000  0.124375  0.985292  1
  Pt  Pt19  1  0.750000  0.380014  0.983791  1
  Pt  Pt20  1  0.750000  0.123009  0.483228  1
  Pt  Pt21  1  0.250000  0.617870  0.018807  1
  Pt  Pt22  1  0.250000  0.324075  0.118149  1
  Pt  Pt23  1  0.750000  0.666488  0.881355  1
  Pt  Pt24  1  0.750000  0.830895  0.381899  1
  Pt  Pt25  1  0.250000  0.173741  0.618344  1
  Pt  Pt26  1  0.250000  0.071945  0.299703  1
  Pt  Pt27  1  0.750000  0.929104  0.699882  1
  Pt  Pt28  1  0.750000  0.571006  0.200789  1
  Pt  Pt29  1  0.250000  0.429957  0.798985  1
  Pt  Pt30  1  0.750000  0.619211  0.513999  1
  Pt  Pt31  1  0.250000  0.376291  0.484798  1
  Pt  Pt32  1  0.250000  0.842978  0.800202  1
  Pt  Pt33  1  0.750000  0.159521  0.201133  1
  Pt  Pt34  1  0.750000  0.341186  0.702034  1
  Pt  Pt35  1  0.250000  0.660121  0.299419  1
