# generated using pymatgen
data_Dy12GaCo2Si2Sn
_symmetry_space_group_name_H-M   'P 1'
_cell_length_a   8.41863596
_cell_length_b   8.41863567
_cell_length_c   8.41863702
_cell_angle_alpha   104.62728098
_cell_angle_beta   110.65663774
_cell_angle_gamma   113.24745250
_symmetry_Int_Tables_number   1
_chemical_formula_structural   Dy12GaCo2Si2Sn
_chemical_formula_sum   'Dy12 Ga1 Co2 Si2 Sn1'
_cell_volume   456.61664664
_cell_formula_units_Z   1
loop_
 _symmetry_equiv_pos_site_id
 _symmetry_equiv_pos_as_xyz
  1  'x, y, z'
loop_
 _atom_site_type_symbol
 _atom_site_label
 _atom_site_symmetry_multiplicity
 _atom_site_fract_x
 _atom_site_fract_y
 _atom_site_fract_z
 _atom_site_occupancy
  Dy  Dy0  1  0.303672  0.264403  0.568074  1
  Dy  Dy1  1  0.696328  0.735597  0.431926  1
  Dy  Dy2  1  0.303672  0.735597  0.039269  1
  Dy  Dy3  1  0.696328  0.264403  0.960731  1
  Dy  Dy4  1  0.188587  0.492014  0.303427  1
  Dy  Dy5  1  0.188587  0.885160  0.696573  1
  Dy  Dy6  1  0.811413  0.507986  0.696573  1
  Dy  Dy7  1  0.811413  0.114840  0.303427  1
  Dy  Dy8  1  0.404040  0.218274  0.185765  1
  Dy  Dy9  1  0.032508  0.218274  0.814235  1
  Dy  Dy10  1  0.967492  0.781726  0.185765  1
  Dy  Dy11  1  0.595960  0.781726  0.814235  1
  Ga  Ga12  1  0.500000  0.500000  0.000000  1
  Co  Co13  1  0.000000  0.106695  0.106695  1
  Co  Co14  1  0.000000  0.893305  0.893305  1
  Si  Si15  1  0.132921  0.500000  0.632921  1
  Si  Si16  1  0.867079  0.500000  0.367079  1
  Sn  Sn17  1  0.500000  0.000000  0.500000  1
