# generated using pymatgen
data_Ta3CrFe2N
_symmetry_space_group_name_H-M   'P 1'
_cell_length_a   8.01764094
_cell_length_b   8.01764102
_cell_length_c   8.01764100
_cell_angle_alpha   60.00000419
_cell_angle_beta   60.00000386
_cell_angle_gamma   60.00000767
_symmetry_Int_Tables_number   1
_chemical_formula_structural   Ta3CrFe2N
_chemical_formula_sum   'Ta12 Cr4 Fe8 N4'
_cell_volume   364.43901993
_cell_formula_units_Z   4
loop_
 _symmetry_equiv_pos_site_id
 _symmetry_equiv_pos_as_xyz
  1  'x, y, z'
loop_
 _atom_site_type_symbol
 _atom_site_label
 _atom_site_symmetry_multiplicity
 _atom_site_fract_x
 _atom_site_fract_y
 _atom_site_fract_z
 _atom_site_occupancy
  Ta  Ta0  1  0.803443  0.803443  0.196557  1
  Ta  Ta1  1  0.196557  0.196557  0.803443  1
  Ta  Ta2  1  0.803443  0.196557  0.803443  1
  Ta  Ta3  1  0.196557  0.803443  0.196557  1
  Ta  Ta4  1  0.196557  0.803443  0.803443  1
  Ta  Ta5  1  0.803443  0.196557  0.196557  1
  Ta  Ta6  1  0.446557  0.446557  0.053443  1
  Ta  Ta7  1  0.053443  0.053443  0.446557  1
  Ta  Ta8  1  0.446557  0.053443  0.446557  1
  Ta  Ta9  1  0.053443  0.446557  0.053443  1
  Ta  Ta10  1  0.053443  0.446557  0.446557  1
  Ta  Ta11  1  0.446557  0.053443  0.053443  1
  Cr  Cr12  1  0.125000  0.625000  0.625000  1
  Cr  Cr13  1  0.625000  0.125000  0.625000  1
  Cr  Cr14  1  0.625000  0.625000  0.125000  1
  Cr  Cr15  1  0.625000  0.625000  0.625000  1
  Fe  Fe16  1  0.729363  0.423545  0.423545  1
  Fe  Fe17  1  0.423545  0.729363  0.423545  1
  Fe  Fe18  1  0.423545  0.423545  0.729363  1
  Fe  Fe19  1  0.423545  0.423545  0.423545  1
  Fe  Fe20  1  0.520637  0.826455  0.826455  1
  Fe  Fe21  1  0.826455  0.520637  0.826455  1
  Fe  Fe22  1  0.826455  0.826455  0.520637  1
  Fe  Fe23  1  0.826455  0.826455  0.826455  1
  N  N24  1  0.625000  0.125000  0.125000  1
  N  N25  1  0.125000  0.625000  0.125000  1
  N  N26  1  0.125000  0.125000  0.625000  1
  N  N27  1  0.125000  0.125000  0.125000  1
