# generated using pymatgen
data_NaOs5O13
_symmetry_space_group_name_H-M   'P 1'
_cell_length_a   5.53473765
_cell_length_b   5.53473830
_cell_length_c   16.52588000
_cell_angle_alpha   90.00000000
_cell_angle_beta   90.00000000
_cell_angle_gamma   108.18361996
_symmetry_Int_Tables_number   1
_chemical_formula_structural   NaOs5O13
_chemical_formula_sum   'Na2 Os10 O26'
_cell_volume   480.96154762
_cell_formula_units_Z   2
loop_
 _symmetry_equiv_pos_site_id
 _symmetry_equiv_pos_as_xyz
  1  'x, y, z'
loop_
 _atom_site_type_symbol
 _atom_site_label
 _atom_site_symmetry_multiplicity
 _atom_site_fract_x
 _atom_site_fract_y
 _atom_site_fract_z
 _atom_site_occupancy
  Na  Na0  1  0.881438  0.141557  0.750000  1
  Na  Na1  1  0.141557  0.881438  0.250000  1
  Os  Os2  1  0.380731  0.620935  0.072704  1
  Os  Os3  1  0.620935  0.380731  0.927296  1
  Os  Os4  1  0.000822  0.000822  0.000000  1
  Os  Os5  1  0.380731  0.620935  0.427296  1
  Os  Os6  1  0.620935  0.380731  0.572704  1
  Os  Os7  1  0.000822  0.000822  0.500000  1
  Os  Os8  1  0.763298  0.238913  0.361718  1
  Os  Os9  1  0.763298  0.238913  0.138282  1
  Os  Os10  1  0.238913  0.763298  0.861718  1
  Os  Os11  1  0.238913  0.763298  0.638282  1
  O  O12  1  0.522440  0.069142  0.868267  1
  O  O13  1  0.069142  0.522440  0.368267  1
  O  O14  1  0.069142  0.522440  0.131733  1
  O  O15  1  0.522440  0.069142  0.631733  1
  O  O16  1  0.305901  0.305901  0.000000  1
  O  O17  1  0.305901  0.305901  0.500000  1
  O  O18  1  0.024968  0.977359  0.617142  1
  O  O19  1  0.223213  0.778654  0.750000  1
  O  O20  1  0.224369  0.777330  0.986208  1
  O  O21  1  0.224369  0.777330  0.513792  1
  O  O22  1  0.452904  0.548332  0.640258  1
  O  O23  1  0.548332  0.452904  0.140258  1
  O  O24  1  0.777330  0.224369  0.486208  1
  O  O25  1  0.977359  0.024968  0.382858  1
  O  O26  1  0.548332  0.452904  0.359742  1
  O  O27  1  0.977359  0.024968  0.117142  1
  O  O28  1  0.778654  0.223213  0.250000  1
  O  O29  1  0.777330  0.224369  0.013792  1
  O  O30  1  0.024968  0.977359  0.882858  1
  O  O31  1  0.452904  0.548332  0.859742  1
  O  O32  1  0.695743  0.695743  0.500000  1
  O  O33  1  0.695743  0.695743  0.000000  1
  O  O34  1  0.479330  0.932576  0.368047  1
  O  O35  1  0.932576  0.479330  0.631953  1
  O  O36  1  0.932576  0.479330  0.868047  1
  O  O37  1  0.479330  0.932576  0.131953  1
