# generated using pymatgen
data_U6Co5CuSb8
_symmetry_space_group_name_H-M   'P 1'
_cell_length_a   8.11327016
_cell_length_b   8.11327070
_cell_length_c   8.11327115
_cell_angle_alpha   109.30745196
_cell_angle_beta   109.79922397
_cell_angle_gamma   109.30747907
_symmetry_Int_Tables_number   1
_chemical_formula_structural   U6Co5CuSb8
_chemical_formula_sum   'U6 Co5 Cu1 Sb8'
_cell_volume   411.10745481
_cell_formula_units_Z   1
loop_
 _symmetry_equiv_pos_site_id
 _symmetry_equiv_pos_as_xyz
  1  'x, y, z'
loop_
 _atom_site_type_symbol
 _atom_site_label
 _atom_site_symmetry_multiplicity
 _atom_site_fract_x
 _atom_site_fract_y
 _atom_site_fract_z
 _atom_site_occupancy
  U  U0  1  0.875000  0.250000  0.125000  1
  U  U1  1  0.625000  0.750000  0.375000  1
  U  U2  1  0.245064  0.120190  0.883056  1
  U  U3  1  0.762866  0.379810  0.624875  1
  U  U4  1  0.116944  0.862010  0.237134  1
  U  U5  1  0.375125  0.637990  0.754936  1
  Co  Co6  1  0.125000  0.750000  0.875000  1
  Co  Co7  1  0.248058  0.624880  0.374351  1
  Co  Co8  1  0.749470  0.875120  0.123178  1
  Co  Co9  1  0.625649  0.373707  0.250530  1
  Co  Co10  1  0.876822  0.126293  0.751942  1
  Cu  Cu11  1  0.375000  0.250000  0.625000  1
  Sb  Sb12  1  0.663530  0.500872  0.001821  1
  Sb  Sb13  1  0.500950  0.999128  0.662659  1
  Sb  Sb14  1  0.999415  0.667211  0.498142  1
  Sb  Sb15  1  0.830931  0.832789  0.832204  1
  Sb  Sb16  1  0.501858  0.001272  0.169069  1
  Sb  Sb17  1  0.167796  0.498728  0.000585  1
  Sb  Sb18  1  0.998179  0.161709  0.499050  1
  Sb  Sb19  1  0.337341  0.338291  0.336470  1
