# generated using pymatgen
data_Pr2B4Os3Rh
_symmetry_space_group_name_H-M   'P 1'
_cell_length_a   6.89092247
_cell_length_b   6.05842130
_cell_length_c   5.65507699
_cell_angle_alpha   71.97784511
_cell_angle_beta   56.72565219
_cell_angle_gamma   51.20587041
_symmetry_Int_Tables_number   1
_chemical_formula_structural   Pr2B4Os3Rh
_chemical_formula_sum   'Pr2 B4 Os3 Rh1'
_cell_volume   153.62656532
_cell_formula_units_Z   1
loop_
 _symmetry_equiv_pos_site_id
 _symmetry_equiv_pos_as_xyz
  1  'x, y, z'
loop_
 _atom_site_type_symbol
 _atom_site_label
 _atom_site_symmetry_multiplicity
 _atom_site_fract_x
 _atom_site_fract_y
 _atom_site_fract_z
 _atom_site_occupancy
  Pr  Pr0  1  0.001001  0.001001  0.998999  1
  Pr  Pr1  1  0.247433  0.247433  0.252567  1
  B  B2  1  0.678534  0.318586  0.676526  1
  B  B3  1  0.318586  0.678534  0.326354  1
  B  B4  1  0.934879  0.572749  0.937701  1
  B  B5  1  0.572749  0.934879  0.554671  1
  Os  Os6  1  0.635406  0.635406  0.364594  1
  Os  Os7  1  0.363596  0.363596  0.636404  1
  Os  Os8  1  0.883862  0.883862  0.616138  1
  Rh  Rh9  1  0.613954  0.613954  0.886046  1
