# generated using pymatgen
data_ErCu2Pt2Au
_symmetry_space_group_name_H-M   'P 1'
_cell_length_a   5.03568736
_cell_length_b   5.16907282
_cell_length_c   5.16907343
_cell_angle_alpha   63.98578940
_cell_angle_beta   60.84999275
_cell_angle_gamma   60.84999366
_symmetry_Int_Tables_number   1
_chemical_formula_structural   ErCu2Pt2Au
_chemical_formula_sum   'Er1 Cu2 Pt2 Au1'
_cell_volume   98.98648153
_cell_formula_units_Z   1
loop_
 _symmetry_equiv_pos_site_id
 _symmetry_equiv_pos_as_xyz
  1  'x, y, z'
loop_
 _atom_site_type_symbol
 _atom_site_label
 _atom_site_symmetry_multiplicity
 _atom_site_fract_x
 _atom_site_fract_y
 _atom_site_fract_z
 _atom_site_occupancy
  Er  Er0  1  0.995127  0.004873  0.004873  1
  Cu  Cu1  1  0.129138  0.620152  0.620152  1
  Cu  Cu2  1  0.630558  0.620152  0.620152  1
  Pt  Pt3  1  0.627119  0.623693  0.122069  1
  Pt  Pt4  1  0.627119  0.122069  0.623693  1
  Au  Au5  1  0.240938  0.259062  0.259062  1
