# generated using pymatgen
data_Ho16Mg3InIr3Pt
_symmetry_space_group_name_H-M   'P 1'
_cell_length_a   9.63487329
_cell_length_b   9.70009542
_cell_length_c   9.70009700
_cell_angle_alpha   59.99999801
_cell_angle_beta   59.77581488
_cell_angle_gamma   59.77581695
_symmetry_Int_Tables_number   1
_chemical_formula_structural   Ho16Mg3InIr3Pt
_chemical_formula_sum   'Ho16 Mg3 In1 Ir3 Pt1'
_cell_volume   638.85620985
_cell_formula_units_Z   1
loop_
 _symmetry_equiv_pos_site_id
 _symmetry_equiv_pos_as_xyz
  1  'x, y, z'
loop_
 _atom_site_type_symbol
 _atom_site_label
 _atom_site_symmetry_multiplicity
 _atom_site_fract_x
 _atom_site_fract_y
 _atom_site_fract_z
 _atom_site_occupancy
  Ho  Ho0  1  0.438717  0.432870  0.064206  1
  Ho  Ho1  1  0.653854  0.650306  0.045536  1
  Ho  Ho2  1  0.184328  0.812533  0.190605  1
  Ho  Ho3  1  0.062021  0.436801  0.064378  1
  Ho  Ho4  1  0.184328  0.812533  0.812533  1
  Ho  Ho5  1  0.062021  0.436801  0.436801  1
  Ho  Ho6  1  0.812159  0.188930  0.188930  1
  Ho  Ho7  1  0.653854  0.650306  0.650306  1
  Ho  Ho8  1  0.812159  0.188930  0.809983  1
  Ho  Ho9  1  0.184328  0.190605  0.812533  1
  Ho  Ho10  1  0.037656  0.654115  0.654115  1
  Ho  Ho11  1  0.438717  0.064206  0.064206  1
  Ho  Ho12  1  0.062021  0.064378  0.436801  1
  Ho  Ho13  1  0.653854  0.045536  0.650306  1
  Ho  Ho14  1  0.812159  0.809983  0.188930  1
  Ho  Ho15  1  0.438717  0.064206  0.432870  1
  Mg  Mg16  1  0.422380  0.420018  0.420018  1
  Mg  Mg17  1  0.422380  0.420018  0.737585  1
  Mg  Mg18  1  0.422380  0.737585  0.420018  1
  In  In19  1  0.745629  0.418124  0.418124  1
  Ir  Ir20  1  0.856771  0.859585  0.859585  1
  Ir  Ir21  1  0.856771  0.424058  0.859585  1
  Ir  Ir22  1  0.856771  0.859585  0.424058  1
  Pt  Pt23  1  0.426026  0.857991  0.857991  1
