# generated using pymatgen
data_Dy4Y7Er5(CdNi)4
_symmetry_space_group_name_H-M   'P 1'
_cell_length_a   9.52485515
_cell_length_b   9.52485627
_cell_length_c   9.50367500
_cell_angle_alpha   60.07353166
_cell_angle_beta   60.07352778
_cell_angle_gamma   60.30544889
_symmetry_Int_Tables_number   1
_chemical_formula_structural   Dy4Y7Er5(CdNi)4
_chemical_formula_sum   'Dy4 Y7 Er5 Cd4 Ni4'
_cell_volume   611.74429260
_cell_formula_units_Z   1
loop_
 _symmetry_equiv_pos_site_id
 _symmetry_equiv_pos_as_xyz
  1  'x, y, z'
loop_
 _atom_site_type_symbol
 _atom_site_label
 _atom_site_symmetry_multiplicity
 _atom_site_fract_x
 _atom_site_fract_y
 _atom_site_fract_z
 _atom_site_occupancy
  Dy  Dy0  1  0.598336  0.598336  0.598594  1
  Dy  Dy1  1  0.598336  0.598336  0.204732  1
  Dy  Dy2  1  0.599576  0.201486  0.599469  1
  Dy  Dy3  1  0.201486  0.599576  0.599469  1
  Y  Y4  1  0.062845  0.062845  0.437155  1
  Y  Y5  1  0.187846  0.811971  0.813662  1
  Y  Y6  1  0.811971  0.187846  0.186520  1
  Y  Y7  1  0.811971  0.187846  0.813662  1
  Y  Y8  1  0.187846  0.811971  0.186520  1
  Y  Y9  1  0.813123  0.813123  0.186877  1
  Y  Y10  1  0.188178  0.188178  0.811822  1
  Er  Er11  1  0.062530  0.438713  0.437984  1
  Er  Er12  1  0.438713  0.062530  0.060772  1
  Er  Er13  1  0.438713  0.062530  0.437984  1
  Er  Er14  1  0.062530  0.438713  0.060772  1
  Er  Er15  1  0.438599  0.438599  0.061401  1
  Cd  Cd16  1  0.830354  0.830354  0.831247  1
  Cd  Cd17  1  0.830354  0.830354  0.508043  1
  Cd  Cd18  1  0.830265  0.506786  0.831474  1
  Cd  Cd19  1  0.506786  0.830265  0.831474  1
  Ni  Ni20  1  0.391565  0.391565  0.393827  1
  Ni  Ni21  1  0.391565  0.391565  0.823046  1
  Ni  Ni22  1  0.394120  0.822387  0.391747  1
  Ni  Ni23  1  0.822387  0.394120  0.391747  1
