# generated using pymatgen
data_Tb3MgSc2Ir3
_symmetry_space_group_name_H-M   'P 1'
_cell_length_a   7.28126431
_cell_length_b   7.33501943
_cell_length_c   4.23761500
_cell_angle_alpha   90.00000000
_cell_angle_beta   90.00000000
_cell_angle_gamma   120.24452253
_symmetry_Int_Tables_number   1
_chemical_formula_structural   Tb3MgSc2Ir3
_chemical_formula_sum   'Tb3 Mg1 Sc2 Ir3'
_cell_volume   195.51713402
_cell_formula_units_Z   1
loop_
 _symmetry_equiv_pos_site_id
 _symmetry_equiv_pos_as_xyz
  1  'x, y, z'
loop_
 _atom_site_type_symbol
 _atom_site_label
 _atom_site_symmetry_multiplicity
 _atom_site_fract_x
 _atom_site_fract_y
 _atom_site_fract_z
 _atom_site_occupancy
  Tb  Tb0  1  0.403903  0.993267  0.500000  1
  Tb  Tb1  1  0.000000  0.421552  0.500000  1
  Tb  Tb2  1  0.596097  0.589362  0.500000  1
  Mg  Mg3  1  0.000000  0.751672  0.000000  1
  Sc  Sc4  1  0.750110  0.998100  0.000000  1
  Sc  Sc5  1  0.249889  0.247989  0.000000  1
  Ir  Ir6  1  0.658366  0.318287  0.000000  1
  Ir  Ir7  1  0.341633  0.659921  0.000000  1
  Ir  Ir8  1  0.000000  0.019850  0.500000  1
