# generated using pymatgen
data_Sc3Al3ZnPd2
_symmetry_space_group_name_H-M   'P 1'
_cell_length_a   7.08603400
_cell_length_b   7.08603534
_cell_length_c   3.68886400
_cell_angle_alpha   90.00000000
_cell_angle_beta   90.00000000
_cell_angle_gamma   119.99999376
_symmetry_Int_Tables_number   1
_chemical_formula_structural   Sc3Al3ZnPd2
_chemical_formula_sum   'Sc3 Al3 Zn1 Pd2'
_cell_volume   160.40941267
_cell_formula_units_Z   1
loop_
 _symmetry_equiv_pos_site_id
 _symmetry_equiv_pos_as_xyz
  1  'x, y, z'
loop_
 _atom_site_type_symbol
 _atom_site_label
 _atom_site_symmetry_multiplicity
 _atom_site_fract_x
 _atom_site_fract_y
 _atom_site_fract_z
 _atom_site_occupancy
  Sc  Sc0  1  0.407084  0.414865  0.500000  1
  Sc  Sc1  1  0.585135  0.992220  0.500000  1
  Sc  Sc2  1  0.007780  0.592916  0.500000  1
  Al  Al3  1  0.746634  0.746827  0.000000  1
  Al  Al4  1  0.253173  0.999806  0.000000  1
  Al  Al5  1  0.000194  0.253366  0.000000  1
  Zn  Zn6  1  0.666667  0.333333  0.000000  1
  Pd  Pd7  1  0.333333  0.666667  0.000000  1
  Pd  Pd8  1  0.000000  0.000000  0.500000  1
