# generated using pymatgen
data_TmLu5Al24ZnRu7
_symmetry_space_group_name_H-M   'P 1'
_cell_length_a   8.77252714
_cell_length_b   8.77217246
_cell_length_c   9.52594902
_cell_angle_alpha   90.00450860
_cell_angle_beta   89.99253900
_cell_angle_gamma   119.82842380
_symmetry_Int_Tables_number   1
_chemical_formula_structural   TmLu5Al24ZnRu7
_chemical_formula_sum   'Tm1 Lu5 Al24 Zn1 Ru7'
_cell_volume   635.94422463
_cell_formula_units_Z   1
loop_
 _symmetry_equiv_pos_site_id
 _symmetry_equiv_pos_as_xyz
  1  'x, y, z'
loop_
 _atom_site_type_symbol
 _atom_site_label
 _atom_site_symmetry_multiplicity
 _atom_site_fract_x
 _atom_site_fract_y
 _atom_site_fract_z
 _atom_site_occupancy
  Tm  Tm0  1  0.191909  0.386799  0.247367  1
  Lu  Lu1  1  0.803563  0.196564  0.746046  1
  Lu  Lu2  1  0.196515  0.803594  0.253982  1
  Lu  Lu3  1  0.387902  0.192186  0.752384  1
  Lu  Lu4  1  0.612116  0.807889  0.247601  1
  Lu  Lu5  1  0.807795  0.612122  0.752434  1
  Al  Al6  1  0.670817  0.329211  0.975824  1
  Al  Al7  1  0.329245  0.671115  0.023962  1
  Al  Al8  1  0.333944  0.666422  0.478590  1
  Al  Al9  1  0.666210  0.333849  0.521582  1
  Al  Al10  1  0.836918  0.162826  0.420859  1
  Al  Al11  1  0.162861  0.837096  0.579304  1
  Al  Al12  1  0.324950  0.162858  0.423978  1
  Al  Al13  1  0.163262  0.836750  0.920255  1
  Al  Al14  1  0.675195  0.837037  0.576220  1
  Al  Al15  1  0.836521  0.163194  0.079552  1
  Al  Al16  1  0.837094  0.675211  0.423910  1
  Al  Al17  1  0.677300  0.848415  0.918285  1
  Al  Al18  1  0.162969  0.324827  0.576379  1
  Al  Al19  1  0.322815  0.151480  0.081547  1
  Al  Al20  1  0.151590  0.322744  0.918084  1
  Al  Al21  1  0.848428  0.677297  0.081619  1
  Al  Al22  1  0.436902  0.563131  0.745592  1
  Al  Al23  1  0.563520  0.436976  0.254525  1
  Al  Al24  1  0.121015  0.561529  0.750987  1
  Al  Al25  1  0.878699  0.438601  0.248969  1
  Al  Al26  1  0.438512  0.878995  0.751010  1
  Al  Al27  1  0.561457  0.120966  0.248995  1
  Al  Al28  1  0.000860  0.999148  0.749602  1
  Al  Al29  1  0.998787  0.000259  0.250399  1
  Zn  Zn30  1  0.499997  0.500043  0.999983  1
  Ru  Ru31  1  0.999844  0.500146  0.999726  1
  Ru  Ru32  1  0.500297  0.500090  0.500201  1
  Ru  Ru33  1  0.500125  0.000187  0.999936  1
  Ru  Ru34  1  0.999862  0.500094  0.500203  1
  Ru  Ru35  1  0.500083  0.000198  0.500105  1
  Ru  Ru36  1  0.000080  0.000070  0.000019  1
  Ru  Ru37  1  0.000046  0.000081  0.499984  1
