# generated using pymatgen
data_CaDyTm2(B6Os)2
_symmetry_space_group_name_H-M   'P 1'
_cell_length_a   3.62871600
_cell_length_b   9.12649648
_cell_length_c   11.53094101
_cell_angle_alpha   89.82873635
_cell_angle_beta   90.00000000
_cell_angle_gamma   90.00000000
_symmetry_Int_Tables_number   1
_chemical_formula_structural   CaDyTm2(B6Os)2
_chemical_formula_sum   'Ca2 Dy2 Tm4 B24 Os4'
_cell_volume   381.87381554
_cell_formula_units_Z   2
loop_
 _symmetry_equiv_pos_site_id
 _symmetry_equiv_pos_as_xyz
  1  'x, y, z'
loop_
 _atom_site_type_symbol
 _atom_site_label
 _atom_site_symmetry_multiplicity
 _atom_site_fract_x
 _atom_site_fract_y
 _atom_site_fract_z
 _atom_site_occupancy
  Ca  Ca0  1  0.000000  0.323320  0.414756  1
  Ca  Ca1  1  0.000000  0.676680  0.585244  1
  Dy  Dy2  1  0.000000  0.821748  0.086257  1
  Dy  Dy3  1  0.000000  0.178252  0.913743  1
  Tm  Tm4  1  0.000000  0.942301  0.370339  1
  Tm  Tm5  1  0.000000  0.057699  0.629662  1
  Tm  Tm6  1  0.000000  0.443023  0.129884  1
  Tm  Tm7  1  0.000000  0.556977  0.870115  1
  B  B8  1  0.500000  0.554149  0.431941  1
  B  B9  1  0.500000  0.445851  0.568059  1
  B  B10  1  0.500000  0.053796  0.066879  1
  B  B11  1  0.500000  0.946204  0.933121  1
  B  B12  1  0.500000  0.748908  0.417201  1
  B  B13  1  0.500000  0.251092  0.582799  1
  B  B14  1  0.500000  0.249007  0.081337  1
  B  B15  1  0.500000  0.750993  0.918663  1
  B  B16  1  0.500000  0.791587  0.264456  1
  B  B17  1  0.500000  0.208413  0.735544  1
  B  B18  1  0.500000  0.290530  0.233781  1
  B  B19  1  0.500000  0.709469  0.766219  1
  B  B20  1  0.500000  0.630862  0.184717  1
  B  B21  1  0.500000  0.369138  0.815283  1
  B  B22  1  0.500000  0.129952  0.313817  1
  B  B23  1  0.500000  0.870048  0.686183  1
  B  B24  1  0.500000  0.982648  0.211899  1
  B  B25  1  0.500000  0.017352  0.788101  1
  B  B26  1  0.500000  0.483500  0.287192  1
  B  B27  1  0.500000  0.516500  0.712808  1
  B  B28  1  0.500000  0.602012  0.027998  1
  B  B29  1  0.500000  0.397988  0.972002  1
  B  B30  1  0.500000  0.098006  0.472925  1
  B  B31  1  0.500000  0.901994  0.527075  1
  Os  Os32  1  0.000000  0.640321  0.317720  1
  Os  Os33  1  0.000000  0.359679  0.682280  1
  Os  Os34  1  0.000000  0.136967  0.177951  1
  Os  Os35  1  0.000000  0.863033  0.822049  1
