# generated using pymatgen
data_LaU3Al17GaIr6
_symmetry_space_group_name_H-M   'P 1'
_cell_length_a   7.59647087
_cell_length_b   7.62002497
_cell_length_c   9.45815800
_cell_angle_alpha   90.00000000
_cell_angle_beta   90.00000000
_cell_angle_gamma   119.39606994
_symmetry_Int_Tables_number   1
_chemical_formula_structural   LaU3Al17GaIr6
_chemical_formula_sum   'La1 U3 Al17 Ga1 Ir6'
_cell_volume   476.99779520
_cell_formula_units_Z   1
loop_
 _symmetry_equiv_pos_site_id
 _symmetry_equiv_pos_as_xyz
  1  'x, y, z'
loop_
 _atom_site_type_symbol
 _atom_site_label
 _atom_site_symmetry_multiplicity
 _atom_site_fract_x
 _atom_site_fract_y
 _atom_site_fract_z
 _atom_site_occupancy
  La  La0  1  0.995483  0.672026  0.750000  1
  U  U1  1  0.004051  0.327436  0.250000  1
  U  U2  1  0.672571  0.995966  0.750000  1
  U  U3  1  0.328625  0.004483  0.250000  1
  Al  Al4  1  0.867002  0.869663  0.250000  1
  Al  Al5  1  0.003338  0.334581  0.571760  1
  Al  Al6  1  0.997677  0.664006  0.420728  1
  Al  Al7  1  0.997677  0.664006  0.079272  1
  Al  Al8  1  0.337260  0.003454  0.928107  1
  Al  Al9  1  0.003338  0.334581  0.928240  1
  Al  Al10  1  0.662998  0.997527  0.074178  1
  Al  Al11  1  0.662998  0.997527  0.425822  1
  Al  Al12  1  0.337260  0.003454  0.571893  1
  Al  Al13  1  0.335161  0.335085  0.056096  1
  Al  Al14  1  0.664409  0.665295  0.949353  1
  Al  Al15  1  0.664409  0.665295  0.550647  1
  Al  Al16  1  0.335161  0.335085  0.443904  1
  Al  Al17  1  0.344536  0.549673  0.750000  1
  Al  Al18  1  0.657923  0.452147  0.250000  1
  Al  Al19  1  0.544904  0.334143  0.750000  1
  Al  Al20  1  0.449452  0.659957  0.250000  1
  Ga  Ga21  1  0.132235  0.135958  0.750000  1
  Ir  Ir22  1  0.671755  0.326932  0.498299  1
  Ir  Ir23  1  0.328109  0.671348  0.498445  1
  Ir  Ir24  1  0.328109  0.671348  0.001555  1
  Ir  Ir25  1  0.671755  0.326932  0.001701  1
  Ir  Ir26  1  0.000902  0.001045  0.494656  1
  Ir  Ir27  1  0.000902  0.001045  0.005344  1
