# generated using pymatgen
data_Cs2Rb2As4PdPt
_symmetry_space_group_name_H-M   'P 1'
_cell_length_a   8.09199422
_cell_length_b   8.09199464
_cell_length_c   6.46205923
_cell_angle_alpha   90.24430540
_cell_angle_beta   89.75569529
_cell_angle_gamma   127.45727853
_symmetry_Int_Tables_number   1
_chemical_formula_structural   Cs2Rb2As4PdPt
_chemical_formula_sum   'Cs2 Rb2 As4 Pd1 Pt1'
_cell_volume   335.88616520
_cell_formula_units_Z   1
loop_
 _symmetry_equiv_pos_site_id
 _symmetry_equiv_pos_as_xyz
  1  'x, y, z'
loop_
 _atom_site_type_symbol
 _atom_site_label
 _atom_site_symmetry_multiplicity
 _atom_site_fract_x
 _atom_site_fract_y
 _atom_site_fract_z
 _atom_site_occupancy
  Cs  Cs0  1  0.408556  0.591444  0.252041  1
  Cs  Cs1  1  0.591444  0.408556  0.747959  1
  Rb  Rb2  1  0.793668  0.206332  0.250692  1
  Rb  Rb3  1  0.206332  0.793668  0.749308  1
  As  As4  1  0.934224  0.723574  0.250219  1
  As  As5  1  0.065776  0.276426  0.749781  1
  As  As6  1  0.276426  0.065776  0.250219  1
  As  As7  1  0.723574  0.934224  0.749781  1
  Pd  Pd8  1  0.000000  0.000000  0.000000  1
  Pt  Pt9  1  0.000000  0.000000  0.500000  1
