# generated using pymatgen
data_Rb2Fe(CuSe2)2
_symmetry_space_group_name_H-M   'P 1'
_cell_length_a   5.81770500
_cell_length_b   5.81770500
_cell_length_c   13.73593000
_cell_angle_alpha   90.00000000
_cell_angle_beta   90.00000000
_cell_angle_gamma   90.00000000
_symmetry_Int_Tables_number   1
_chemical_formula_structural   Rb2Fe(CuSe2)2
_chemical_formula_sum   'Rb4 Fe2 Cu4 Se8'
_cell_volume   464.90204879
_cell_formula_units_Z   2
loop_
 _symmetry_equiv_pos_site_id
 _symmetry_equiv_pos_as_xyz
  1  'x, y, z'
loop_
 _atom_site_type_symbol
 _atom_site_label
 _atom_site_symmetry_multiplicity
 _atom_site_fract_x
 _atom_site_fract_y
 _atom_site_fract_z
 _atom_site_occupancy
  Rb  Rb0  1  0.752207  0.752207  0.000000  1
  Rb  Rb1  1  0.247793  0.752207  0.500000  1
  Rb  Rb2  1  0.752207  0.247793  0.500000  1
  Rb  Rb3  1  0.247793  0.247793  0.000000  1
  Fe  Fe4  1  0.500000  0.500000  0.250000  1
  Fe  Fe5  1  0.500000  0.500000  0.750000  1
  Cu  Cu6  1  0.000000  0.500000  0.750000  1
  Cu  Cu7  1  0.500000  0.000000  0.750000  1
  Cu  Cu8  1  0.500000  0.000000  0.250000  1
  Cu  Cu9  1  0.000000  0.500000  0.250000  1
  Se  Se10  1  0.741419  0.258581  0.152189  1
  Se  Se11  1  0.741419  0.741419  0.347811  1
  Se  Se12  1  0.258581  0.258581  0.652189  1
  Se  Se13  1  0.741419  0.741419  0.652189  1
  Se  Se14  1  0.258581  0.258581  0.347811  1
  Se  Se15  1  0.741419  0.258581  0.847811  1
  Se  Se16  1  0.258581  0.741419  0.847811  1
  Se  Se17  1  0.258581  0.741419  0.152189  1
