# generated using pymatgen
data_HoLu2Hf3(GaPt)6
_symmetry_space_group_name_H-M   'P 1'
_cell_length_a   7.25942045
_cell_length_b   7.24904032
_cell_length_c   7.27031800
_cell_angle_alpha   90.00000000
_cell_angle_beta   90.00000000
_cell_angle_gamma   119.95320622
_symmetry_Int_Tables_number   1
_chemical_formula_structural   HoLu2Hf3(GaPt)6
_chemical_formula_sum   'Ho1 Lu2 Hf3 Ga6 Pt6'
_cell_volume   331.49050436
_cell_formula_units_Z   1
loop_
 _symmetry_equiv_pos_site_id
 _symmetry_equiv_pos_as_xyz
  1  'x, y, z'
loop_
 _atom_site_type_symbol
 _atom_site_label
 _atom_site_symmetry_multiplicity
 _atom_site_fract_x
 _atom_site_fract_y
 _atom_site_fract_z
 _atom_site_occupancy
  Ho  Ho0  1  0.000327  0.592406  0.750000  1
  Lu  Lu1  1  0.592952  0.999397  0.750000  1
  Lu  Lu2  1  0.406725  0.406782  0.750000  1
  Hf  Hf3  1  0.390598  0.390301  0.250000  1
  Hf  Hf4  1  0.999692  0.609131  0.250000  1
  Hf  Hf5  1  0.609732  0.000337  0.250000  1
  Ga  Ga6  1  0.264549  0.000493  0.005548  1
  Ga  Ga7  1  0.264549  0.000493  0.494452  1
  Ga  Ga8  1  0.000109  0.263822  0.493236  1
  Ga  Ga9  1  0.000109  0.263822  0.006764  1
  Ga  Ga10  1  0.735342  0.736054  0.005546  1
  Ga  Ga11  1  0.735342  0.736054  0.494454  1
  Pt  Pt12  1  0.665544  0.332546  0.474976  1
  Pt  Pt13  1  0.999987  0.002074  0.750000  1
  Pt  Pt14  1  0.665544  0.332546  0.025024  1
  Pt  Pt15  1  0.334453  0.667002  0.025869  1
  Pt  Pt16  1  0.334453  0.667002  0.474131  1
  Pt  Pt17  1  0.999994  0.999734  0.250000  1
