# generated using pymatgen
data_Nb2FeB2Ru4W
_symmetry_space_group_name_H-M   'P 1'
_cell_length_a   9.37156100
_cell_length_b   9.37156100
_cell_length_c   2.95692300
_cell_angle_alpha   90.00000000
_cell_angle_beta   90.00000000
_cell_angle_gamma   90.00000000
_symmetry_Int_Tables_number   1
_chemical_formula_structural   Nb2FeB2Ru4W
_chemical_formula_sum   'Nb4 Fe2 B4 Ru8 W2'
_cell_volume   259.69517943
_cell_formula_units_Z   2
loop_
 _symmetry_equiv_pos_site_id
 _symmetry_equiv_pos_as_xyz
  1  'x, y, z'
loop_
 _atom_site_type_symbol
 _atom_site_label
 _atom_site_symmetry_multiplicity
 _atom_site_fract_x
 _atom_site_fract_y
 _atom_site_fract_z
 _atom_site_occupancy
  Nb  Nb0  1  0.827068  0.672932  0.000000  1
  Nb  Nb1  1  0.172932  0.327068  0.000000  1
  Nb  Nb2  1  0.327068  0.827068  0.000000  1
  Nb  Nb3  1  0.672932  0.172932  0.000000  1
  Fe  Fe4  1  0.500000  0.000000  0.500000  1
  Fe  Fe5  1  0.000000  0.500000  0.500000  1
  B  B6  1  0.610481  0.889519  0.000000  1
  B  B7  1  0.389519  0.110481  0.000000  1
  B  B8  1  0.110481  0.610481  0.000000  1
  B  B9  1  0.889519  0.389519  0.000000  1
  Ru  Ru10  1  0.568340  0.723768  0.500000  1
  Ru  Ru11  1  0.431660  0.276232  0.500000  1
  Ru  Ru12  1  0.068340  0.776232  0.500000  1
  Ru  Ru13  1  0.931660  0.223768  0.500000  1
  Ru  Ru14  1  0.276232  0.568340  0.500000  1
  Ru  Ru15  1  0.723768  0.431660  0.500000  1
  Ru  Ru16  1  0.223768  0.068340  0.500000  1
  Ru  Ru17  1  0.776232  0.931660  0.500000  1
  W  W18  1  0.500000  0.500000  0.000000  1
  W  W19  1  0.000000  0.000000  0.000000  1
