# generated using pymatgen
data_Tm6MgCo16NiP12
_symmetry_space_group_name_H-M   'P 1'
_cell_length_a   3.69513200
_cell_length_b   10.51721600
_cell_length_c   12.18306000
_cell_angle_alpha   90.00000000
_cell_angle_beta   90.00000000
_cell_angle_gamma   90.00000000
_symmetry_Int_Tables_number   1
_chemical_formula_structural   Tm6MgCo16NiP12
_chemical_formula_sum   'Tm6 Mg1 Co16 Ni1 P12'
_cell_volume   473.46418622
_cell_formula_units_Z   1
loop_
 _symmetry_equiv_pos_site_id
 _symmetry_equiv_pos_as_xyz
  1  'x, y, z'
loop_
 _atom_site_type_symbol
 _atom_site_label
 _atom_site_symmetry_multiplicity
 _atom_site_fract_x
 _atom_site_fract_y
 _atom_site_fract_z
 _atom_site_occupancy
  Tm  Tm0  1  0.000000  0.500000  0.524138  1
  Tm  Tm1  1  0.500000  0.000000  0.477517  1
  Tm  Tm2  1  0.500000  0.821776  0.207647  1
  Tm  Tm3  1  0.500000  0.178224  0.207647  1
  Tm  Tm4  1  0.000000  0.683712  0.795521  1
  Tm  Tm5  1  0.000000  0.316288  0.795521  1
  Mg  Mg6  1  0.500000  0.500000  0.154169  1
  Co  Co7  1  0.000000  0.000000  0.836865  1
  Co  Co8  1  0.000000  0.000000  0.296298  1
  Co  Co9  1  0.000000  0.500000  0.986905  1
  Co  Co10  1  0.500000  0.000000  0.013227  1
  Co  Co11  1  0.500000  0.328885  0.992430  1
  Co  Co12  1  0.500000  0.671115  0.992430  1
  Co  Co13  1  0.000000  0.163100  0.001769  1
  Co  Co14  1  0.000000  0.836900  0.001769  1
  Co  Co15  1  0.500000  0.295972  0.433396  1
  Co  Co16  1  0.500000  0.704028  0.433396  1
  Co  Co17  1  0.000000  0.201513  0.570033  1
  Co  Co18  1  0.000000  0.798487  0.570033  1
  Co  Co19  1  0.500000  0.878934  0.708294  1
  Co  Co20  1  0.500000  0.121066  0.708294  1
  Co  Co21  1  0.000000  0.623605  0.293576  1
  Co  Co22  1  0.000000  0.376395  0.293576  1
  Ni  Ni23  1  0.500000  0.500000  0.703665  1
  P  P24  1  0.500000  0.500000  0.883886  1
  P  P25  1  0.000000  0.000000  0.117244  1
  P  P26  1  0.500000  0.500000  0.355041  1
  P  P27  1  0.000000  0.000000  0.653287  1
  P  P28  1  0.500000  0.309999  0.616956  1
  P  P29  1  0.500000  0.690001  0.616956  1
  P  P30  1  0.000000  0.187830  0.385074  1
  P  P31  1  0.000000  0.812170  0.385074  1
  P  P32  1  0.500000  0.849785  0.889660  1
  P  P33  1  0.500000  0.150215  0.889660  1
  P  P34  1  0.000000  0.663688  0.104521  1
  P  P35  1  0.000000  0.336312  0.104521  1
