# generated using pymatgen
data_Tb2CdPt2Au
_symmetry_space_group_name_H-M   'P 1'
_cell_length_a   7.29278700
_cell_length_b   4.00715000
_cell_length_c   8.86726900
_cell_angle_alpha   90.00000000
_cell_angle_beta   90.00000000
_cell_angle_gamma   90.00000000
_symmetry_Int_Tables_number   1
_chemical_formula_structural   Tb2CdPt2Au
_chemical_formula_sum   'Tb4 Cd2 Pt4 Au2'
_cell_volume   259.13078615
_cell_formula_units_Z   2
loop_
 _symmetry_equiv_pos_site_id
 _symmetry_equiv_pos_as_xyz
  1  'x, y, z'
loop_
 _atom_site_type_symbol
 _atom_site_label
 _atom_site_symmetry_multiplicity
 _atom_site_fract_x
 _atom_site_fract_y
 _atom_site_fract_z
 _atom_site_occupancy
  Tb  Tb0  1  0.567985  0.249999  0.185077  1
  Tb  Tb1  1  0.067985  0.249999  0.314923  1
  Tb  Tb2  1  0.941672  0.749999  0.682083  1
  Tb  Tb3  1  0.441672  0.749999  0.817918  1
  Cd  Cd4  1  0.619685  0.249999  0.557870  1
  Cd  Cd5  1  0.119685  0.249999  0.942131  1
  Pt  Pt6  1  0.279987  0.749999  0.123082  1
  Pt  Pt7  1  0.779986  0.749999  0.376918  1
  Pt  Pt8  1  0.228527  0.249999  0.639488  1
  Pt  Pt9  1  0.728528  0.249999  0.860513  1
  Au  Au10  1  0.862142  0.749999  0.067913  1
  Au  Au11  1  0.362143  0.749999  0.432087  1
