# generated using pymatgen
data_Ho16In6RePd
_symmetry_space_group_name_H-M   'P 1'
_cell_length_a   10.41290300
_cell_length_b   10.41290366
_cell_length_c   6.98891600
_cell_angle_alpha   90.00000000
_cell_angle_beta   90.00000000
_cell_angle_gamma   120.00000108
_symmetry_Int_Tables_number   1
_chemical_formula_structural   Ho16In6RePd
_chemical_formula_sum   'Ho16 In6 Re1 Pd1'
_cell_volume   656.27237097
_cell_formula_units_Z   1
loop_
 _symmetry_equiv_pos_site_id
 _symmetry_equiv_pos_as_xyz
  1  'x, y, z'
loop_
 _atom_site_type_symbol
 _atom_site_label
 _atom_site_symmetry_multiplicity
 _atom_site_fract_x
 _atom_site_fract_y
 _atom_site_fract_z
 _atom_site_occupancy
  Ho  Ho0  1  0.531517  0.063033  0.507452  1
  Ho  Ho1  1  0.936967  0.468483  0.507452  1
  Ho  Ho2  1  0.531517  0.468483  0.507452  1
  Ho  Ho3  1  0.472438  0.944876  0.010215  1
  Ho  Ho4  1  0.055124  0.527562  0.010215  1
  Ho  Ho5  1  0.472438  0.527562  0.010215  1
  Ho  Ho6  1  0.174910  0.349818  0.715306  1
  Ho  Ho7  1  0.650182  0.825090  0.715306  1
  Ho  Ho8  1  0.174910  0.825090  0.715306  1
  Ho  Ho9  1  0.823912  0.647825  0.216820  1
  Ho  Ho10  1  0.352175  0.176088  0.216820  1
  Ho  Ho11  1  0.823912  0.176088  0.216820  1
  Ho  Ho12  1  0.666667  0.333333  0.878833  1
  Ho  Ho13  1  0.333333  0.666667  0.379732  1
  Ho  Ho14  1  0.000000  0.000000  0.490759  1
  Ho  Ho15  1  0.000000  0.000000  0.990099  1
  In  In16  1  0.837288  0.674575  0.751291  1
  In  In17  1  0.325425  0.162712  0.751291  1
  In  In18  1  0.837288  0.162712  0.751291  1
  In  In19  1  0.163131  0.326263  0.250780  1
  In  In20  1  0.673737  0.836869  0.250780  1
  In  In21  1  0.163131  0.836869  0.250780  1
  Re  Re22  1  0.666667  0.333333  0.282263  1
  Pd  Pd23  1  0.333333  0.666667  0.780769  1
