# generated using pymatgen
data_PaCrF7
_symmetry_space_group_name_H-M   'P 1'
_cell_length_a   5.87214300
_cell_length_b   6.07297284
_cell_length_c   8.16258046
_cell_angle_alpha   100.70032078
_cell_angle_beta   90.00000000
_cell_angle_gamma   90.00000000
_symmetry_Int_Tables_number   1
_chemical_formula_structural   PaCrF7
_chemical_formula_sum   'Pa2 Cr2 F14'
_cell_volume   286.02723858
_cell_formula_units_Z   2
loop_
 _symmetry_equiv_pos_site_id
 _symmetry_equiv_pos_as_xyz
  1  'x, y, z'
loop_
 _atom_site_type_symbol
 _atom_site_label
 _atom_site_symmetry_multiplicity
 _atom_site_fract_x
 _atom_site_fract_y
 _atom_site_fract_z
 _atom_site_occupancy
  Pa  Pa0  1  0.703807  0.669140  0.702396  1
  Pa  Pa1  1  0.203807  0.330860  0.297604  1
  Cr  Cr2  1  0.705919  0.804772  0.230171  1
  Cr  Cr3  1  0.205919  0.195228  0.769829  1
  F  F4  1  0.885848  0.458570  0.485511  1
  F  F5  1  0.385848  0.541430  0.514489  1
  F  F6  1  0.433947  0.913714  0.760651  1
  F  F7  1  0.933947  0.086286  0.239349  1
  F  F8  1  0.947851  0.933804  0.755061  1
  F  F9  1  0.447851  0.066196  0.244939  1
  F  F10  1  0.981612  0.474726  0.790428  1
  F  F11  1  0.481612  0.525274  0.209572  1
  F  F12  1  0.698871  0.765760  0.981079  1
  F  F13  1  0.198871  0.234240  0.018921  1
  F  F14  1  0.704199  0.849190  0.479878  1
  F  F15  1  0.204199  0.150810  0.520122  1
  F  F16  1  0.514305  0.402085  0.778994  1
  F  F17  1  0.014305  0.597915  0.221006  1
