# generated using pymatgen
data_Fe2AgI9
_symmetry_space_group_name_H-M   'P 1'
_cell_length_a   8.47252014
_cell_length_b   8.57286424
_cell_length_c   18.49573514
_cell_angle_alpha   84.92843665
_cell_angle_beta   88.41300404
_cell_angle_gamma   75.65809726
_symmetry_Int_Tables_number   1
_chemical_formula_structural   Fe2AgI9
_chemical_formula_sum   'Fe4 Ag2 I18'
_cell_volume   1296.42825690
_cell_formula_units_Z   2
loop_
 _symmetry_equiv_pos_site_id
 _symmetry_equiv_pos_as_xyz
  1  'x, y, z'
loop_
 _atom_site_type_symbol
 _atom_site_label
 _atom_site_symmetry_multiplicity
 _atom_site_fract_x
 _atom_site_fract_y
 _atom_site_fract_z
 _atom_site_occupancy
  Fe  Fe0  1  0.128587  0.706977  0.574832  1
  Fe  Fe1  1  0.871413  0.293023  0.425168  1
  Fe  Fe2  1  0.714654  0.305749  0.874871  1
  Fe  Fe3  1  0.285346  0.694251  0.125129  1
  Ag  Ag4  1  0.085321  0.224502  0.575029  1
  Ag  Ag5  1  0.914679  0.775498  0.424971  1
  I  I6  1  0.540435  0.866502  0.842188  1
  I  I7  1  0.459565  0.133498  0.157812  1
  I  I8  1  0.215439  0.434858  0.652640  1
  I  I9  1  0.784561  0.565142  0.347360  1
  I  I10  1  0.630206  0.555463  0.778155  1
  I  I11  1  0.369794  0.444537  0.221845  1
  I  I12  1  0.241552  0.909332  0.639895  1
  I  I13  1  0.758448  0.090668  0.360105  1
  I  I14  1  0.928153  0.112937  0.809565  1
  I  I15  1  0.071847  0.887063  0.190435  1
  I  I16  1  0.197782  0.620985  0.008020  1
  I  I17  1  0.802218  0.379015  0.991980  1
  I  I18  1  0.743901  0.315438  0.553511  1
  I  I19  1  0.256099  0.684562  0.446489  1
  I  I20  1  0.816672  0.793321  0.574812  1
  I  I21  1  0.183328  0.206679  0.425188  1
  I  I22  1  0.457297  0.186153  0.899858  1
  I  I23  1  0.542703  0.813847  0.100142  1
