# generated using pymatgen
data_Nd(Al10V)2
_symmetry_space_group_name_H-M   'P 1'
_cell_length_a   10.19566037
_cell_length_b   10.19566052
_cell_length_c   10.19566100
_cell_angle_alpha   60.00000169
_cell_angle_beta   60.00000121
_cell_angle_gamma   59.99999941
_symmetry_Int_Tables_number   1
_chemical_formula_structural   Nd(Al10V)2
_chemical_formula_sum   'Nd2 Al40 V4'
_cell_volume   749.43008556
_cell_formula_units_Z   2
loop_
 _symmetry_equiv_pos_site_id
 _symmetry_equiv_pos_as_xyz
  1  'x, y, z'
loop_
 _atom_site_type_symbol
 _atom_site_label
 _atom_site_symmetry_multiplicity
 _atom_site_fract_x
 _atom_site_fract_y
 _atom_site_fract_z
 _atom_site_occupancy
  Nd  Nd0  1  0.500000  0.500000  0.500000  1
  Nd  Nd1  1  0.750000  0.750000  0.750000  1
  Al  Al2  1  0.861979  0.861979  0.138021  1
  Al  Al3  1  0.138021  0.138021  0.861979  1
  Al  Al4  1  0.861979  0.138021  0.861979  1
  Al  Al5  1  0.138021  0.861979  0.138021  1
  Al  Al6  1  0.138021  0.861979  0.861979  1
  Al  Al7  1  0.861979  0.138021  0.138021  1
  Al  Al8  1  0.388021  0.388021  0.111979  1
  Al  Al9  1  0.111979  0.111979  0.388021  1
  Al  Al10  1  0.388021  0.111979  0.388021  1
  Al  Al11  1  0.111979  0.388021  0.111979  1
  Al  Al12  1  0.111979  0.388021  0.388021  1
  Al  Al13  1  0.388021  0.111979  0.111979  1
  Al  Al14  1  0.568597  0.298880  0.298880  1
  Al  Al15  1  0.298880  0.568597  0.833643  1
  Al  Al16  1  0.298880  0.833643  0.568597  1
  Al  Al17  1  0.833643  0.298880  0.298880  1
  Al  Al18  1  0.298880  0.298880  0.568597  1
  Al  Al19  1  0.568597  0.833643  0.298880  1
  Al  Al20  1  0.833643  0.568597  0.298880  1
  Al  Al21  1  0.298880  0.298880  0.833643  1
  Al  Al22  1  0.298880  0.568597  0.298880  1
  Al  Al23  1  0.833643  0.298880  0.568597  1
  Al  Al24  1  0.568597  0.298880  0.833643  1
  Al  Al25  1  0.298880  0.833643  0.298880  1
  Al  Al26  1  0.681403  0.951120  0.951120  1
  Al  Al27  1  0.951120  0.681403  0.416357  1
  Al  Al28  1  0.951120  0.416357  0.681403  1
  Al  Al29  1  0.416357  0.951120  0.951120  1
  Al  Al30  1  0.951120  0.951120  0.681403  1
  Al  Al31  1  0.681403  0.416357  0.951120  1
  Al  Al32  1  0.416357  0.681403  0.951120  1
  Al  Al33  1  0.951120  0.951120  0.416357  1
  Al  Al34  1  0.951120  0.681403  0.951120  1
  Al  Al35  1  0.416357  0.951120  0.681403  1
  Al  Al36  1  0.681403  0.951120  0.416357  1
  Al  Al37  1  0.951120  0.416357  0.951120  1
  Al  Al38  1  0.125000  0.625000  0.625000  1
  Al  Al39  1  0.625000  0.125000  0.625000  1
  Al  Al40  1  0.625000  0.625000  0.125000  1
  Al  Al41  1  0.625000  0.625000  0.625000  1
  V  V42  1  0.625000  0.125000  0.125000  1
  V  V43  1  0.125000  0.625000  0.125000  1
  V  V44  1  0.125000  0.125000  0.625000  1
  V  V45  1  0.125000  0.125000  0.125000  1
