# generated using pymatgen
data_Nb2ZnSnRu4
_symmetry_space_group_name_H-M   'P 1'
_cell_length_a   4.46223400
_cell_length_b   6.30413200
_cell_length_c   13.37606300
_cell_angle_alpha   90.00000000
_cell_angle_beta   89.99910083
_cell_angle_gamma   90.00069205
_symmetry_Int_Tables_number   1
_chemical_formula_structural   Nb2ZnSnRu4
_chemical_formula_sum   'Nb6 Zn3 Sn3 Ru12'
_cell_volume   376.27550272
_cell_formula_units_Z   3
loop_
 _symmetry_equiv_pos_site_id
 _symmetry_equiv_pos_as_xyz
  1  'x, y, z'
loop_
 _atom_site_type_symbol
 _atom_site_label
 _atom_site_symmetry_multiplicity
 _atom_site_fract_x
 _atom_site_fract_y
 _atom_site_fract_z
 _atom_site_occupancy
  Nb  Nb0  1  0.999989  0.999996  0.988417  1
  Nb  Nb1  1  0.499852  0.500004  0.166682  1
  Nb  Nb2  1  0.999837  0.999996  0.344919  1
  Nb  Nb3  1  0.499988  0.500004  0.510445  1
  Nb  Nb4  1  0.000167  0.999996  0.666661  1
  Nb  Nb5  1  0.500140  0.500005  0.822901  1
  Zn  Zn6  1  0.499989  0.000000  0.501848  1
  Zn  Zn7  1  0.000171  0.500000  0.666663  1
  Zn  Zn8  1  0.500147  0.000000  0.831496  1
  Sn  Sn9  1  0.999991  0.500000  0.996486  1
  Sn  Sn10  1  0.499864  0.999999  0.166654  1
  Sn  Sn11  1  0.999868  0.500001  0.336857  1
  Ru  Ru12  1  0.499992  0.247308  0.998452  1
  Ru  Ru13  1  0.499993  0.752694  0.998451  1
  Ru  Ru14  1  0.999880  0.251938  0.166664  1
  Ru  Ru15  1  0.999879  0.748063  0.166664  1
  Ru  Ru16  1  0.499872  0.247283  0.334895  1
  Ru  Ru17  1  0.499872  0.752716  0.334895  1
  Ru  Ru18  1  0.000001  0.247525  0.502799  1
  Ru  Ru19  1  0.999998  0.752474  0.502799  1
  Ru  Ru20  1  0.500140  0.248579  0.666660  1
  Ru  Ru21  1  0.500142  0.751421  0.666660  1
  Ru  Ru22  1  0.000112  0.247580  0.830516  1
  Ru  Ru23  1  0.000110  0.752421  0.830516  1
