# generated using pymatgen
data_Sc22CoOs4Rh3
_symmetry_space_group_name_H-M   'P 1'
_cell_length_a   9.46788897
_cell_length_b   9.44468077
_cell_length_c   9.47905842
_cell_angle_alpha   60.04176653
_cell_angle_beta   59.79897801
_cell_angle_gamma   59.91549034
_symmetry_Int_Tables_number   1
_chemical_formula_structural   Sc22CoOs4Rh3
_chemical_formula_sum   'Sc22 Co1 Os4 Rh3'
_cell_volume   598.25385067
_cell_formula_units_Z   1
loop_
 _symmetry_equiv_pos_site_id
 _symmetry_equiv_pos_as_xyz
  1  'x, y, z'
loop_
 _atom_site_type_symbol
 _atom_site_label
 _atom_site_symmetry_multiplicity
 _atom_site_fract_x
 _atom_site_fract_y
 _atom_site_fract_z
 _atom_site_occupancy
  Sc  Sc0  1  0.844285  0.842818  0.842882  1
  Sc  Sc1  1  0.529606  0.156406  0.157776  1
  Sc  Sc2  1  0.157182  0.155715  0.529984  1
  Sc  Sc3  1  0.156406  0.529606  0.156211  1
  Sc  Sc4  1  0.842818  0.844285  0.470016  1
  Sc  Sc5  1  0.843594  0.470394  0.843789  1
  Sc  Sc6  1  0.470394  0.843594  0.842224  1
  Sc  Sc7  1  0.155715  0.157182  0.157118  1
  Sc  Sc8  1  0.195910  0.804090  0.199018  1
  Sc  Sc9  1  0.196199  0.803801  0.800858  1
  Sc  Sc10  1  0.803801  0.196199  0.199142  1
  Sc  Sc11  1  0.802687  0.802687  0.197313  1
  Sc  Sc12  1  0.197313  0.197313  0.802687  1
  Sc  Sc13  1  0.804090  0.195910  0.800982  1
  Sc  Sc14  1  0.386878  0.381004  0.387187  1
  Sc  Sc15  1  0.153165  0.617755  0.617058  1
  Sc  Sc16  1  0.617755  0.153165  0.612022  1
  Sc  Sc17  1  0.618996  0.613122  0.155070  1
  Sc  Sc18  1  0.382245  0.846835  0.387978  1
  Sc  Sc19  1  0.381004  0.386878  0.844930  1
  Sc  Sc20  1  0.846835  0.382245  0.382942  1
  Sc  Sc21  1  0.613122  0.618996  0.612813  1
  Co  Co22  1  0.500000  0.500000  0.500000  1
  Os  Os23  1  0.000000  0.000000  0.500000  1
  Os  Os24  1  0.500000  0.000000  0.500000  1
  Os  Os25  1  0.000000  0.500000  0.000000  1
  Os  Os26  1  0.000000  0.000000  0.000000  1
  Rh  Rh27  1  0.500000  0.500000  0.000000  1
  Rh  Rh28  1  0.000000  0.500000  0.500000  1
  Rh  Rh29  1  0.500000  0.000000  0.000000  1
