# generated using pymatgen
data_TbHo3(CdNi2)2
_symmetry_space_group_name_H-M   'P 1'
_cell_length_a   7.37366297
_cell_length_b   7.37366370
_cell_length_c   3.61982900
_cell_angle_alpha   90.00000000
_cell_angle_beta   90.00000000
_cell_angle_gamma   90.03222571
_symmetry_Int_Tables_number   1
_chemical_formula_structural   TbHo3(CdNi2)2
_chemical_formula_sum   'Tb1 Ho3 Cd2 Ni4'
_cell_volume   196.81336911
_cell_formula_units_Z   1
loop_
 _symmetry_equiv_pos_site_id
 _symmetry_equiv_pos_as_xyz
  1  'x, y, z'
loop_
 _atom_site_type_symbol
 _atom_site_label
 _atom_site_symmetry_multiplicity
 _atom_site_fract_x
 _atom_site_fract_y
 _atom_site_fract_z
 _atom_site_occupancy
  Tb  Tb0  1  0.825932  0.674068  0.500000  1
  Ho  Ho1  1  0.673760  0.174518  0.500000  1
  Ho  Ho2  1  0.325482  0.826240  0.500000  1
  Ho  Ho3  1  0.174623  0.325377  0.500000  1
  Cd  Cd4  1  0.000328  0.000265  0.000000  1
  Cd  Cd5  1  0.499735  0.499672  0.000000  1
  Ni  Ni6  1  0.121021  0.617799  0.000000  1
  Ni  Ni7  1  0.882201  0.378979  0.000000  1
  Ni  Ni8  1  0.617151  0.882849  0.000000  1
  Ni  Ni9  1  0.379770  0.120230  0.000000  1
