# generated using pymatgen
data_Tb20Ir7Ru4Pt
_symmetry_space_group_name_H-M   'P 1'
_cell_length_a   10.89019298
_cell_length_b   10.89019298
_cell_length_c   6.48895098
_cell_angle_alpha   90.13531334
_cell_angle_beta   90.13531334
_cell_angle_gamma   89.92474728
_symmetry_Int_Tables_number   1
_chemical_formula_structural   Tb20Ir7Ru4Pt
_chemical_formula_sum   'Tb20 Ir7 Ru4 Pt1'
_cell_volume   769.56064756
_cell_formula_units_Z   1
loop_
 _symmetry_equiv_pos_site_id
 _symmetry_equiv_pos_as_xyz
  1  'x, y, z'
loop_
 _atom_site_type_symbol
 _atom_site_label
 _atom_site_symmetry_multiplicity
 _atom_site_fract_x
 _atom_site_fract_y
 _atom_site_fract_z
 _atom_site_occupancy
  Tb  Tb0  1  0.293075  0.086636  0.378646  1
  Tb  Tb1  1  0.293914  0.913282  0.878859  1
  Tb  Tb2  1  0.704222  0.085696  0.874033  1
  Tb  Tb3  1  0.705367  0.910659  0.380490  1
  Tb  Tb4  1  0.586988  0.793362  0.879029  1
  Tb  Tb5  1  0.583775  0.206575  0.379004  1
  Tb  Tb6  1  0.412820  0.793282  0.379105  1
  Tb  Tb7  1  0.413003  0.206753  0.879534  1
  Tb  Tb8  1  0.206638  0.413012  0.620971  1
  Tb  Tb9  1  0.206718  0.587180  0.120895  1
  Tb  Tb10  1  0.793425  0.416225  0.120996  1
  Tb  Tb11  1  0.793247  0.586997  0.620466  1
  Tb  Tb12  1  0.913364  0.706925  0.121354  1
  Tb  Tb13  1  0.914304  0.295778  0.625967  1
  Tb  Tb14  1  0.086718  0.706086  0.621141  1
  Tb  Tb15  1  0.089341  0.294633  0.119510  1
  Tb  Tb16  1  0.001369  0.998405  0.501111  1
  Tb  Tb17  1  0.001595  0.998631  0.998889  1
  Tb  Tb18  1  0.499875  0.500055  0.999677  1
  Tb  Tb19  1  0.499945  0.500125  0.500323  1
  Ir  Ir20  1  0.848194  0.848772  0.750144  1
  Ir  Ir21  1  0.151228  0.151806  0.749856  1
  Ir  Ir22  1  0.152090  0.847910  0.250000  1
  Ir  Ir23  1  0.653120  0.346880  0.750000  1
  Ir  Ir24  1  0.652082  0.651974  0.250112  1
  Ir  Ir25  1  0.348026  0.347918  0.249888  1
  Ir  Ir26  1  0.347758  0.652242  0.750000  1
  Ru  Ru27  1  0.500192  0.000024  0.122590  1
  Ru  Ru28  1  0.500445  0.999832  0.622027  1
  Ru  Ru29  1  0.000168  0.499555  0.877973  1
  Ru  Ru30  1  0.999976  0.499808  0.377410  1
  Pt  Pt31  1  0.847017  0.152983  0.250000  1
