# generated using pymatgen
data_ThCrN3
_symmetry_space_group_name_H-M   'P 1'
_cell_length_a   7.06280356
_cell_length_b   7.06280324
_cell_length_c   6.06513223
_cell_angle_alpha   77.59040600
_cell_angle_beta   77.59041390
_cell_angle_gamma   88.22757600
_symmetry_Int_Tables_number   1
_chemical_formula_structural   ThCrN3
_chemical_formula_sum   'Th4 Cr4 N12'
_cell_volume   288.53913405
_cell_formula_units_Z   4
loop_
 _symmetry_equiv_pos_site_id
 _symmetry_equiv_pos_as_xyz
  1  'x, y, z'
loop_
 _atom_site_type_symbol
 _atom_site_label
 _atom_site_symmetry_multiplicity
 _atom_site_fract_x
 _atom_site_fract_y
 _atom_site_fract_z
 _atom_site_occupancy
  Th  Th0  1  0.329162  0.670838  0.750000  1
  Th  Th1  1  0.670838  0.329162  0.250000  1
  Th  Th2  1  0.096867  0.903133  0.250000  1
  Th  Th3  1  0.903133  0.096867  0.750000  1
  Cr  Cr4  1  0.379672  0.202547  0.760365  1
  Cr  Cr5  1  0.620328  0.797453  0.239635  1
  Cr  Cr6  1  0.797453  0.620328  0.739635  1
  Cr  Cr7  1  0.202547  0.379672  0.260365  1
  N  N8  1  0.003605  0.775537  0.650577  1
  N  N9  1  0.860790  0.392142  0.865033  1
  N  N10  1  0.775537  0.003605  0.150577  1
  N  N11  1  0.139210  0.607858  0.134967  1
  N  N12  1  0.996395  0.224463  0.349423  1
  N  N13  1  0.224463  0.996395  0.849423  1
  N  N14  1  0.607858  0.139210  0.634967  1
  N  N15  1  0.628111  0.682796  0.988093  1
  N  N16  1  0.371889  0.317204  0.011907  1
  N  N17  1  0.392142  0.860790  0.365033  1
  N  N18  1  0.682796  0.628111  0.488093  1
  N  N19  1  0.317204  0.371889  0.511907  1
