# generated using pymatgen
data_Tb6Ho4AlBi5
_symmetry_space_group_name_H-M   'P 1'
_cell_length_a   9.12038615
_cell_length_b   9.12038487
_cell_length_c   6.42104600
_cell_angle_alpha   90.00000000
_cell_angle_beta   90.00000000
_cell_angle_gamma   119.79679439
_symmetry_Int_Tables_number   1
_chemical_formula_structural   Tb6Ho4AlBi5
_chemical_formula_sum   'Tb6 Ho4 Al1 Bi5'
_cell_volume   463.49861912
_cell_formula_units_Z   1
loop_
 _symmetry_equiv_pos_site_id
 _symmetry_equiv_pos_as_xyz
  1  'x, y, z'
loop_
 _atom_site_type_symbol
 _atom_site_label
 _atom_site_symmetry_multiplicity
 _atom_site_fract_x
 _atom_site_fract_y
 _atom_site_fract_z
 _atom_site_occupancy
  Tb  Tb0  1  0.750060  0.750060  0.750000  1
  Tb  Tb1  1  0.243935  0.012727  0.750000  1
  Tb  Tb2  1  0.012727  0.243935  0.750000  1
  Tb  Tb3  1  0.240239  0.240239  0.250000  1
  Tb  Tb4  1  0.758168  0.000392  0.250000  1
  Tb  Tb5  1  0.000392  0.758168  0.250000  1
  Ho  Ho6  1  0.659395  0.335484  0.996736  1
  Ho  Ho7  1  0.335484  0.659395  0.996736  1
  Ho  Ho8  1  0.335484  0.659395  0.503264  1
  Ho  Ho9  1  0.659395  0.335484  0.503264  1
  Al  Al10  1  0.396481  0.396481  0.750000  1
  Bi  Bi11  1  0.610905  0.002786  0.750000  1
  Bi  Bi12  1  0.002786  0.610905  0.750000  1
  Bi  Bi13  1  0.607202  0.607202  0.250000  1
  Bi  Bi14  1  0.391289  0.996059  0.250000  1
  Bi  Bi15  1  0.996059  0.391289  0.250000  1
