# generated using pymatgen
data_Nd2PaIn3PdPt2
_symmetry_space_group_name_H-M   'P 1'
_cell_length_a   7.70437369
_cell_length_b   7.78786063
_cell_length_c   4.01474400
_cell_angle_alpha   90.00000000
_cell_angle_beta   90.00000000
_cell_angle_gamma   120.35910313
_symmetry_Int_Tables_number   1
_chemical_formula_structural   Nd2PaIn3PdPt2
_chemical_formula_sum   'Nd2 Pa1 In3 Pd1 Pt2'
_cell_volume   207.85528799
_cell_formula_units_Z   1
loop_
 _symmetry_equiv_pos_site_id
 _symmetry_equiv_pos_as_xyz
  1  'x, y, z'
loop_
 _atom_site_type_symbol
 _atom_site_label
 _atom_site_symmetry_multiplicity
 _atom_site_fract_x
 _atom_site_fract_y
 _atom_site_fract_z
 _atom_site_occupancy
  Nd  Nd0  1  0.588293  0.002177  0.500000  1
  Nd  Nd1  1  0.411707  0.413883  0.500000  1
  Pa  Pa2  1  0.000000  0.581364  0.500000  1
  In  In3  1  0.000000  0.241418  0.000000  1
  In  In4  1  0.261575  0.009498  0.000000  1
  In  In5  1  0.738425  0.747922  0.000000  1
  Pd  Pd6  1  0.000000  0.981196  0.500000  1
  Pt  Pt7  1  0.697366  0.359953  0.000000  1
  Pt  Pt8  1  0.302634  0.662588  0.000000  1
