# generated using pymatgen
data_Pr5Nd5(Bi3Br)2
_symmetry_space_group_name_H-M   'P 1'
_cell_length_a   9.68381900
_cell_length_b   9.68442475
_cell_length_c   6.76957500
_cell_angle_alpha   90.00000000
_cell_angle_beta   90.00000000
_cell_angle_gamma   119.99792751
_symmetry_Int_Tables_number   1
_chemical_formula_structural   Pr5Nd5(Bi3Br)2
_chemical_formula_sum   'Pr5 Nd5 Bi6 Br2'
_cell_volume   549.82134711
_cell_formula_units_Z   1
loop_
 _symmetry_equiv_pos_site_id
 _symmetry_equiv_pos_as_xyz
  1  'x, y, z'
loop_
 _atom_site_type_symbol
 _atom_site_label
 _atom_site_symmetry_multiplicity
 _atom_site_fract_x
 _atom_site_fract_y
 _atom_site_fract_z
 _atom_site_occupancy
  Pr  Pr0  1  0.726321  0.000000  0.250000  1
  Pr  Pr1  1  0.999928  0.273785  0.750000  1
  Pr  Pr2  1  0.000139  0.726367  0.250000  1
  Pr  Pr3  1  0.726143  0.726215  0.750000  1
  Pr  Pr4  1  0.273773  0.273633  0.250000  1
  Nd  Nd5  1  0.273796  0.000000  0.750000  1
  Nd  Nd6  1  0.333301  0.666789  0.500046  1
  Nd  Nd7  1  0.666513  0.333211  0.500046  1
  Nd  Nd8  1  0.666513  0.333211  0.999954  1
  Nd  Nd9  1  0.333301  0.666789  0.999954  1
  Bi  Bi10  1  0.614451  0.000000  0.750000  1
  Bi  Bi11  1  0.384790  0.000000  0.250000  1
  Bi  Bi12  1  0.000503  0.615727  0.750000  1
  Bi  Bi13  1  0.999914  0.384867  0.250000  1
  Bi  Bi14  1  0.384776  0.384273  0.750000  1
  Bi  Bi15  1  0.615047  0.615133  0.250000  1
  Br  Br16  1  0.000396  0.000000  0.500373  1
  Br  Br17  1  0.000396  0.000000  0.999627  1
