# generated using pymatgen
data_Ti8Nb8(As3P)3
_symmetry_space_group_name_H-M   'P 1'
_cell_length_a   7.38910761
_cell_length_b   7.38910643
_cell_length_c   18.78353258
_cell_angle_alpha   90.13344405
_cell_angle_beta   89.86655592
_cell_angle_gamma   152.62344140
_symmetry_Int_Tables_number   1
_chemical_formula_structural   Ti8Nb8(As3P)3
_chemical_formula_sum   'Ti8 Nb8 As9 P3'
_cell_volume   471.58870264
_cell_formula_units_Z   1
loop_
 _symmetry_equiv_pos_site_id
 _symmetry_equiv_pos_as_xyz
  1  'x, y, z'
loop_
 _atom_site_type_symbol
 _atom_site_label
 _atom_site_symmetry_multiplicity
 _atom_site_fract_x
 _atom_site_fract_y
 _atom_site_fract_z
 _atom_site_occupancy
  Ti  Ti0  1  0.738904  0.261096  0.156777  1
  Ti  Ti1  1  0.261162  0.738838  0.842407  1
  Ti  Ti2  1  0.260746  0.739254  0.658405  1
  Ti  Ti3  1  0.734144  0.265856  0.339527  1
  Ti  Ti4  1  0.529376  0.470624  0.119412  1
  Ti  Ti5  1  0.470549  0.529451  0.879520  1
  Ti  Ti6  1  0.471050  0.528950  0.621347  1
  Ti  Ti7  1  0.533905  0.466095  0.379967  1
  Nb  Nb8  1  0.665826  0.334174  0.969979  1
  Nb  Nb9  1  0.333741  0.666259  0.029014  1
  Nb  Nb10  1  0.332151  0.667849  0.474837  1
  Nb  Nb11  1  0.666939  0.333061  0.530950  1
  Nb  Nb12  1  0.000090  0.999910  0.999401  1
  Nb  Nb13  1  0.001035  0.998965  0.501824  1
  Nb  Nb14  1  0.060231  0.939769  0.750434  1
  Nb  Nb15  1  0.940227  0.059773  0.246457  1
  As  As16  1  0.901202  0.098798  0.381489  1
  As  As17  1  0.844085  0.155915  0.920048  1
  As  As18  1  0.155884  0.844116  0.079177  1
  As  As19  1  0.157088  0.842912  0.421625  1
  As  As20  1  0.844719  0.155281  0.581944  1
  As  As21  1  0.701990  0.298010  0.750507  1
  As  As22  1  0.297733  0.702267  0.248566  1
  As  As23  1  0.415466  0.584534  0.750393  1
  As  As24  1  0.584287  0.415713  0.248831  1
  P  P25  1  0.902279  0.097721  0.116414  1
  P  P26  1  0.097597  0.902403  0.881925  1
  P  P27  1  0.097593  0.902407  0.618824  1
