# generated using pymatgen
data_Y3ErSi4(NiRu)2
_symmetry_space_group_name_H-M   'P 1'
_cell_length_a   4.22526000
_cell_length_b   6.90835001
_cell_length_c   7.20991339
_cell_angle_alpha   91.51560215
_cell_angle_beta   90.00000000
_cell_angle_gamma   90.00000000
_symmetry_Int_Tables_number   1
_chemical_formula_structural   Y3ErSi4(NiRu)2
_chemical_formula_sum   'Y3 Er1 Si4 Ni2 Ru2'
_cell_volume   210.38068172
_cell_formula_units_Z   1
loop_
 _symmetry_equiv_pos_site_id
 _symmetry_equiv_pos_as_xyz
  1  'x, y, z'
loop_
 _atom_site_type_symbol
 _atom_site_label
 _atom_site_symmetry_multiplicity
 _atom_site_fract_x
 _atom_site_fract_y
 _atom_site_fract_z
 _atom_site_occupancy
  Y  Y0  1  0.250000  0.992642  0.799087  1
  Y  Y1  1  0.750000  0.007968  0.201323  1
  Y  Y2  1  0.250000  0.491671  0.682338  1
  Er  Er3  1  0.750000  0.510080  0.313764  1
  Si  Si4  1  0.250000  0.300238  0.098801  1
  Si  Si5  1  0.750000  0.699039  0.903663  1
  Si  Si6  1  0.250000  0.803829  0.399400  1
  Si  Si7  1  0.750000  0.197080  0.599801  1
  Ni  Ni8  1  0.750000  0.832583  0.574109  1
  Ni  Ni9  1  0.250000  0.166042  0.424027  1
  Ru  Ru10  1  0.750000  0.343850  0.931577  1
  Ru  Ru11  1  0.250000  0.654978  0.072110  1
