# generated using pymatgen
data_HfZr9Si2(Sn2Sb)2
_symmetry_space_group_name_H-M   'P 1'
_cell_length_a   8.68958513
_cell_length_b   8.69224760
_cell_length_c   5.86833869
_cell_angle_alpha   90.05540613
_cell_angle_beta   89.97228181
_cell_angle_gamma   120.01013659
_symmetry_Int_Tables_number   1
_chemical_formula_structural   HfZr9Si2(Sn2Sb)2
_chemical_formula_sum   'Hf1 Zr9 Si2 Sn4 Sb2'
_cell_volume   383.82420723
_cell_formula_units_Z   1
loop_
 _symmetry_equiv_pos_site_id
 _symmetry_equiv_pos_as_xyz
  1  'x, y, z'
loop_
 _atom_site_type_symbol
 _atom_site_label
 _atom_site_symmetry_multiplicity
 _atom_site_fract_x
 _atom_site_fract_y
 _atom_site_fract_z
 _atom_site_occupancy
  Hf  Hf0  1  0.334050  0.667025  0.000000  1
  Zr  Zr1  1  0.258632  0.999562  0.249460  1
  Zr  Zr2  1  0.258632  0.259070  0.750540  1
  Zr  Zr3  1  0.000817  0.742353  0.750389  1
  Zr  Zr4  1  0.000817  0.258463  0.249611  1
  Zr  Zr5  1  0.740545  0.740845  0.249513  1
  Zr  Zr6  1  0.740545  0.999699  0.750487  1
  Zr  Zr7  1  0.665107  0.332553  0.500000  1
  Zr  Zr8  1  0.665056  0.332528  0.000000  1
  Zr  Zr9  1  0.334075  0.667038  0.500000  1
  Si  Si10  1  0.998747  0.999373  0.000000  1
  Si  Si11  1  0.998693  0.999346  0.500000  1
  Sn  Sn12  1  0.606510  0.999048  0.249144  1
  Sn  Sn13  1  0.606510  0.607463  0.750856  1
  Sn  Sn14  1  0.000119  0.395011  0.750840  1
  Sn  Sn15  1  0.000119  0.605108  0.249160  1
  Sb  Sb16  1  0.395514  0.396867  0.249151  1
  Sb  Sb17  1  0.395514  0.998647  0.750849  1
