# generated using pymatgen
data_Nd2DyY3CoI10
_symmetry_space_group_name_H-M   'P 1'
_cell_length_a   7.78659246
_cell_length_b   9.79768716
_cell_length_c   9.76388801
_cell_angle_alpha   106.95375218
_cell_angle_beta   96.39355985
_cell_angle_gamma   105.15760714
_symmetry_Int_Tables_number   1
_chemical_formula_structural   Nd2DyY3CoI10
_chemical_formula_sum   'Nd2 Dy1 Y3 Co1 I10'
_cell_volume   673.38430830
_cell_formula_units_Z   1
loop_
 _symmetry_equiv_pos_site_id
 _symmetry_equiv_pos_as_xyz
  1  'x, y, z'
loop_
 _atom_site_type_symbol
 _atom_site_label
 _atom_site_symmetry_multiplicity
 _atom_site_fract_x
 _atom_site_fract_y
 _atom_site_fract_z
 _atom_site_occupancy
  Nd  Nd0  1  0.887827  0.958636  0.231323  1
  Nd  Nd1  1  0.112092  0.041233  0.768627  1
  Dy  Dy2  1  0.029361  0.718795  0.915448  1
  Y  Y3  1  0.970507  0.282297  0.084697  1
  Y  Y4  1  0.655929  0.876685  0.836866  1
  Y  Y5  1  0.344070  0.123246  0.163131  1
  Co  Co6  1  0.999940  0.999296  0.999776  1
  I  I7  1  0.650227  0.551259  0.729413  1
  I  I8  1  0.350340  0.448818  0.270840  1
  I  I9  1  0.734015  0.910326  0.540632  1
  I  I10  1  0.265957  0.089732  0.459377  1
  I  I11  1  0.084147  0.376376  0.822336  1
  I  I12  1  0.915883  0.623497  0.177519  1
  I  I13  1  0.449024  0.815833  0.090458  1
  I  I14  1  0.550758  0.184122  0.909392  1
  I  I15  1  0.223597  0.738771  0.655951  1
  I  I16  1  0.776327  0.261078  0.344216  1
