# generated using pymatgen
data_Rb12Na8Ta(VP4)3
_symmetry_space_group_name_H-M   'P 1'
_cell_length_a   10.33849693
_cell_length_b   10.33849587
_cell_length_c   15.53772380
_cell_angle_alpha   90.01205706
_cell_angle_beta   90.01205509
_cell_angle_gamma   141.82645874
_symmetry_Int_Tables_number   1
_chemical_formula_structural   Rb12Na8Ta(VP4)3
_chemical_formula_sum   'Rb12 Na8 Ta1 V3 P12'
_cell_volume   1026.41376268
_cell_formula_units_Z   1
loop_
 _symmetry_equiv_pos_site_id
 _symmetry_equiv_pos_as_xyz
  1  'x, y, z'
loop_
 _atom_site_type_symbol
 _atom_site_label
 _atom_site_symmetry_multiplicity
 _atom_site_fract_x
 _atom_site_fract_y
 _atom_site_fract_z
 _atom_site_occupancy
  Rb  Rb0  1  0.942338  0.608749  0.824742  1
  Rb  Rb1  1  0.561122  0.892882  0.326945  1
  Rb  Rb2  1  0.391251  0.057662  0.175258  1
  Rb  Rb3  1  0.060893  0.392403  0.173562  1
  Rb  Rb4  1  0.892892  0.560977  0.327197  1
  Rb  Rb5  1  0.439023  0.107108  0.672803  1
  Rb  Rb6  1  0.607597  0.939107  0.826438  1
  Rb  Rb7  1  0.274473  0.274566  0.314481  1
  Rb  Rb8  1  0.775457  0.776936  0.187153  1
  Rb  Rb9  1  0.223064  0.224543  0.812847  1
  Rb  Rb10  1  0.725434  0.725527  0.685519  1
  Rb  Rb11  1  0.107118  0.438878  0.673055  1
  Na  Na12  1  0.921004  0.078996  0.000000  1
  Na  Na13  1  0.578555  0.421445  0.500000  1
  Na  Na14  1  0.078482  0.921518  0.000000  1
  Na  Na15  1  0.421467  0.578533  0.500000  1
  Na  Na16  1  0.755955  0.244045  0.000000  1
  Na  Na17  1  0.744969  0.255031  0.500000  1
  Na  Na18  1  0.245280  0.754720  0.000000  1
  Na  Na19  1  0.255048  0.744952  0.500000  1
  Ta  Ta20  1  0.580341  0.419659  0.000000  1
  V  V21  1  0.919725  0.080275  0.500000  1
  V  V22  1  0.418202  0.581798  0.000000  1
  V  V23  1  0.080156  0.919844  0.500000  1
  P  P24  1  0.857616  0.552875  0.093088  1
  P  P25  1  0.447125  0.142384  0.906912  1
  P  P26  1  0.652314  0.951572  0.589519  1
  P  P27  1  0.951263  0.651619  0.589850  1
  P  P28  1  0.151455  0.451869  0.910130  1
  P  P29  1  0.548131  0.848545  0.089870  1
  P  P30  1  0.348381  0.048737  0.410150  1
  P  P31  1  0.185708  0.186026  0.581334  1
  P  P32  1  0.690437  0.694678  0.915553  1
  P  P33  1  0.305322  0.309563  0.084447  1
  P  P34  1  0.048428  0.347686  0.410481  1
  P  P35  1  0.813974  0.814292  0.418666  1
