# generated using pymatgen
data_Yb3Mn2(GeO4)3
_symmetry_space_group_name_H-M   'P 1'
_cell_length_a   10.53809376
_cell_length_b   10.53809465
_cell_length_c   10.53809400
_cell_angle_alpha   109.54778634
_cell_angle_beta   109.54778806
_cell_angle_gamma   109.31819696
_symmetry_Int_Tables_number   1
_chemical_formula_structural   Yb3Mn2(GeO4)3
_chemical_formula_sum   'Yb12 Mn8 Ge12 O48'
_cell_volume   900.86974472
_cell_formula_units_Z   4
loop_
 _symmetry_equiv_pos_site_id
 _symmetry_equiv_pos_as_xyz
  1  'x, y, z'
loop_
 _atom_site_type_symbol
 _atom_site_label
 _atom_site_symmetry_multiplicity
 _atom_site_fract_x
 _atom_site_fract_y
 _atom_site_fract_z
 _atom_site_occupancy
  Yb  Yb0  1  0.499576  0.877166  0.127241  1
  Yb  Yb1  1  0.250424  0.372834  0.372759  1
  Yb  Yb2  1  0.497780  0.997781  0.500000  1
  Yb  Yb3  1  0.747781  0.747781  0.000001  1
  Yb  Yb4  1  0.002219  0.502219  0.499999  1
  Yb  Yb5  1  0.000076  0.877665  0.627242  1
  Yb  Yb6  1  0.627166  0.999924  0.877590  1
  Yb  Yb7  1  0.122335  0.749576  0.122410  1
  Yb  Yb8  1  0.122834  0.250076  0.622410  1
  Yb  Yb9  1  0.749924  0.372335  0.872758  1
  Yb  Yb10  1  0.252220  0.252219  0.000000  1
  Yb  Yb11  1  0.627665  0.500424  0.377590  1
  Mn  Mn12  1  0.375000  0.625000  0.250000  1
  Mn  Mn13  1  0.875000  0.125000  0.250000  1
  Mn  Mn14  1  0.875000  0.625000  0.250000  1
  Mn  Mn15  1  0.375000  0.125000  0.750000  1
  Mn  Mn16  1  0.375000  0.625000  0.750000  1
  Mn  Mn17  1  0.875000  0.125000  0.750000  1
  Mn  Mn18  1  0.875000  0.625000  0.750000  1
  Mn  Mn19  1  0.375000  0.125000  0.250000  1
  Ge  Ge20  1  0.743286  0.871064  0.377401  1
  Ge  Ge21  1  0.621070  0.743663  0.627785  1
  Ge  Ge22  1  0.006714  0.378936  0.122599  1
  Ge  Ge23  1  0.000000  0.000000  0.000001  1
  Ge  Ge24  1  0.499999  0.500000  0.000000  1
  Ge  Ge25  1  0.493664  0.365882  0.622595  1
  Ge  Ge26  1  0.750000  0.250000  0.499999  1
  Ge  Ge27  1  0.128930  0.506337  0.872215  1
  Ge  Ge28  1  0.250001  0.750000  0.500000  1
  Ge  Ge29  1  0.256336  0.884118  0.877405  1
  Ge  Ge30  1  0.634119  0.256714  0.127784  1
  Ge  Ge31  1  0.115881  0.993286  0.372216  1
  O  O32  1  0.072053  0.141087  0.360915  1
  O  O33  1  0.597940  0.216017  0.939898  1
  O  O34  1  0.783983  0.723884  0.381923  1
  O  O35  1  0.276117  0.658039  0.060099  1
  O  O36  1  0.747763  0.909698  0.228938  1
  O  O37  1  0.288861  0.927948  0.069035  1
  O  O38  1  0.691238  0.538331  0.046708  1
  O  O39  1  0.461669  0.508377  0.152908  1
  O  O40  1  0.258377  0.605470  0.546709  1
  O  O41  1  0.288331  0.741623  0.347092  1
  O  O42  1  0.258973  0.036380  0.837659  1
  O  O43  1  0.190339  0.150533  0.152125  1
  O  O44  1  0.969823  0.538860  0.860912  1
  O  O45  1  0.491623  0.644530  0.953291  1
  O  O46  1  0.788215  0.440341  0.539807  1
  O  O47  1  0.966017  0.526116  0.118077  1
  O  O48  1  0.069236  0.731172  0.728935  1
  O  O49  1  0.559661  0.099467  0.347875  1
  O  O50  1  0.090301  0.319238  0.838065  1
  O  O51  1  0.900533  0.248409  0.460194  1
  O  O52  1  0.058762  0.711669  0.453292  1
  O  O53  1  0.963622  0.801281  0.222593  1
  O  O54  1  0.461139  0.322052  0.430965  1
  O  O55  1  0.961785  0.809659  0.960193  1
  O  O56  1  0.677947  0.108913  0.139085  1
  O  O57  1  0.491027  0.213620  0.662341  1
  O  O58  1  0.171312  0.508971  0.722589  1
  O  O59  1  0.394530  0.941238  0.652906  1
  O  O60  1  0.408043  0.847940  0.881923  1
  O  O61  1  0.998409  0.038214  0.847874  1
  O  O62  1  0.659699  0.930762  0.661935  1
  O  O63  1  0.786378  0.448719  0.277407  1
  O  O64  1  0.551278  0.828688  0.337659  1
  O  O65  1  0.268826  0.997763  0.338065  1
  O  O66  1  0.891088  0.030177  0.569037  1
  O  O67  1  0.858912  0.219823  0.930963  1
  O  O68  1  0.780177  0.711140  0.639088  1
  O  O69  1  0.152060  0.033983  0.560102  1
  O  O70  1  0.849467  0.001591  0.039806  1
  O  O71  1  0.481174  0.252237  0.161935  1
  O  O72  1  0.002237  0.340302  0.271062  1
  O  O73  1  0.355470  0.308762  0.847094  1
  O  O74  1  0.341957  0.402060  0.618077  1
  O  O75  1  0.198722  0.421312  0.162341  1
  O  O76  1  0.751591  0.211786  0.652126  1
  O  O77  1  0.680764  0.518828  0.771065  1
  O  O78  1  0.473883  0.591961  0.439901  1
  O  O79  1  0.578688  0.741029  0.777411  1
