# generated using pymatgen
data_Ac3Nd(Zn5Ge)2
_symmetry_space_group_name_H-M   'P 1'
_cell_length_a   8.69823700
_cell_length_b   8.69823658
_cell_length_c   9.18299700
_cell_angle_alpha   90.00000000
_cell_angle_beta   90.00000000
_cell_angle_gamma   149.18197683
_symmetry_Int_Tables_number   1
_chemical_formula_structural   Ac3Nd(Zn5Ge)2
_chemical_formula_sum   'Ac3 Nd1 Zn10 Ge2'
_cell_volume   355.94451303
_cell_formula_units_Z   1
loop_
 _symmetry_equiv_pos_site_id
 _symmetry_equiv_pos_as_xyz
  1  'x, y, z'
loop_
 _atom_site_type_symbol
 _atom_site_label
 _atom_site_symmetry_multiplicity
 _atom_site_fract_x
 _atom_site_fract_y
 _atom_site_fract_z
 _atom_site_occupancy
  Ac  Ac0  1  0.205805  0.794195  0.250000  1
  Ac  Ac1  1  0.999587  0.000413  0.500683  1
  Ac  Ac2  1  0.999587  0.000413  0.999317  1
  Nd  Nd3  1  0.793115  0.206885  0.750000  1
  Zn  Zn4  1  0.814027  0.185973  0.396440  1
  Zn  Zn5  1  0.187957  0.812043  0.611544  1
  Zn  Zn6  1  0.814027  0.185973  0.103560  1
  Zn  Zn7  1  0.187957  0.812043  0.888456  1
  Zn  Zn8  1  0.653801  0.346199  0.486930  1
  Zn  Zn9  1  0.346047  0.653953  0.523299  1
  Zn  Zn10  1  0.653801  0.346199  0.013070  1
  Zn  Zn11  1  0.346047  0.653953  0.976701  1
  Zn  Zn12  1  0.404749  0.595251  0.250000  1
  Zn  Zn13  1  0.595259  0.404741  0.750000  1
  Ge  Ge14  1  0.559703  0.440297  0.250000  1
  Ge  Ge15  1  0.438531  0.561469  0.750000  1
