# generated using pymatgen
data_YAlCoNi2B
_symmetry_space_group_name_H-M   'P 1'
_cell_length_a   5.17704635
_cell_length_b   5.15009106
_cell_length_c   6.76629600
_cell_angle_alpha   90.00000000
_cell_angle_beta   90.00000000
_cell_angle_gamma   119.82790790
_symmetry_Int_Tables_number   1
_chemical_formula_structural   YAlCoNi2B
_chemical_formula_sum   'Y2 Al2 Co2 Ni4 B2'
_cell_volume   156.50531576
_cell_formula_units_Z   2
loop_
 _symmetry_equiv_pos_site_id
 _symmetry_equiv_pos_as_xyz
  1  'x, y, z'
loop_
 _atom_site_type_symbol
 _atom_site_label
 _atom_site_symmetry_multiplicity
 _atom_site_fract_x
 _atom_site_fract_y
 _atom_site_fract_z
 _atom_site_occupancy
  Y  Y0  1  0.000000  0.000000  0.500000  1
  Y  Y1  1  0.000000  0.000000  0.000000  1
  Al  Al2  1  0.329148  0.664574  0.000000  1
  Al  Al3  1  0.670852  0.335426  0.000000  1
  Co  Co4  1  0.000000  0.500000  0.298307  1
  Co  Co5  1  0.000000  0.500000  0.701693  1
  Ni  Ni6  1  0.500000  0.000000  0.293927  1
  Ni  Ni7  1  0.500000  0.500000  0.293927  1
  Ni  Ni8  1  0.500000  0.000000  0.706073  1
  Ni  Ni9  1  0.500000  0.500000  0.706073  1
  B  B10  1  0.674459  0.337229  0.500000  1
  B  B11  1  0.325541  0.662771  0.500000  1
