# generated using pymatgen
data_Tb4Pr(FeO6)2
_symmetry_space_group_name_H-M   'P 1'
_cell_length_a   6.85642084
_cell_length_b   6.85641953
_cell_length_c   7.36676179
_cell_angle_alpha   74.60247668
_cell_angle_beta   74.60247770
_cell_angle_gamma   50.72566213
_symmetry_Int_Tables_number   1
_chemical_formula_structural   Tb4Pr(FeO6)2
_chemical_formula_sum   'Tb4 Pr1 Fe2 O12'
_cell_volume   256.25612886
_cell_formula_units_Z   1
loop_
 _symmetry_equiv_pos_site_id
 _symmetry_equiv_pos_as_xyz
  1  'x, y, z'
loop_
 _atom_site_type_symbol
 _atom_site_label
 _atom_site_symmetry_multiplicity
 _atom_site_fract_x
 _atom_site_fract_y
 _atom_site_fract_z
 _atom_site_occupancy
  Tb  Tb0  1  0.306486  0.306486  0.357928  1
  Tb  Tb1  1  0.693514  0.693514  0.642072  1
  Tb  Tb2  1  0.304012  0.304012  0.836307  1
  Tb  Tb3  1  0.695988  0.695988  0.163693  1
  Pr  Pr4  1  0.000000  0.000000  0.500000  1
  Fe  Fe5  1  0.755269  0.244731  0.000000  1
  Fe  Fe6  1  0.244731  0.755269  0.000000  1
  O  O7  1  0.896309  0.419917  0.923941  1
  O  O8  1  0.419917  0.896309  0.923941  1
  O  O9  1  0.103691  0.580083  0.076059  1
  O  O10  1  0.580083  0.103691  0.076059  1
  O  O11  1  0.094071  0.585864  0.583689  1
  O  O12  1  0.585864  0.094071  0.583689  1
  O  O13  1  0.905929  0.414136  0.416311  1
  O  O14  1  0.414136  0.905929  0.416311  1
  O  O15  1  0.001747  0.001747  0.823219  1
  O  O16  1  0.998253  0.998253  0.176781  1
  O  O17  1  0.499228  0.499228  0.817486  1
  O  O18  1  0.500772  0.500772  0.182514  1
