# generated using pymatgen
data_Pa3Al12Zn2Co
_symmetry_space_group_name_H-M   'P 1'
_cell_length_a   9.49801400
_cell_length_b   9.49801278
_cell_length_c   4.03771400
_cell_angle_alpha   90.00000000
_cell_angle_beta   90.00000000
_cell_angle_gamma   120.00000425
_symmetry_Int_Tables_number   1
_chemical_formula_structural   Pa3Al12Zn2Co
_chemical_formula_sum   'Pa3 Al12 Zn2 Co1'
_cell_volume   315.45086436
_cell_formula_units_Z   1
loop_
 _symmetry_equiv_pos_site_id
 _symmetry_equiv_pos_as_xyz
  1  'x, y, z'
loop_
 _atom_site_type_symbol
 _atom_site_label
 _atom_site_symmetry_multiplicity
 _atom_site_fract_x
 _atom_site_fract_y
 _atom_site_fract_z
 _atom_site_occupancy
  Pa  Pa0  1  0.000000  0.403314  0.000000  1
  Pa  Pa1  1  0.596686  0.596686  0.000000  1
  Pa  Pa2  1  0.403314  0.000000  0.000000  1
  Al  Al3  1  0.000000  0.747800  0.000000  1
  Al  Al4  1  0.252200  0.252200  0.000000  1
  Al  Al5  1  0.747800  0.000000  0.000000  1
  Al  Al6  1  0.000000  0.164495  0.500000  1
  Al  Al7  1  0.835505  0.835505  0.500000  1
  Al  Al8  1  0.164495  0.000000  0.500000  1
  Al  Al9  1  0.294254  0.470736  0.500000  1
  Al  Al10  1  0.176483  0.705746  0.500000  1
  Al  Al11  1  0.529264  0.823517  0.500000  1
  Al  Al12  1  0.823517  0.529264  0.500000  1
  Al  Al13  1  0.705746  0.176483  0.500000  1
  Al  Al14  1  0.470736  0.294254  0.500000  1
  Zn  Zn15  1  0.666667  0.333333  0.000000  1
  Zn  Zn16  1  0.333333  0.666667  0.000000  1
  Co  Co17  1  0.000000  0.000000  0.000000  1
