# generated using pymatgen
data_Ta4Cu4Pt7Rh
_symmetry_space_group_name_H-M   'P 1'
_cell_length_a   5.55604878
_cell_length_b   4.76991175
_cell_length_c   9.20424573
_cell_angle_alpha   81.69764880
_cell_angle_beta   89.97622720
_cell_angle_gamma   90.18019177
_symmetry_Int_Tables_number   1
_chemical_formula_structural   Ta4Cu4Pt7Rh
_chemical_formula_sum   'Ta4 Cu4 Pt7 Rh1'
_cell_volume   241.37195046
_cell_formula_units_Z   1
loop_
 _symmetry_equiv_pos_site_id
 _symmetry_equiv_pos_as_xyz
  1  'x, y, z'
loop_
 _atom_site_type_symbol
 _atom_site_label
 _atom_site_symmetry_multiplicity
 _atom_site_fract_x
 _atom_site_fract_y
 _atom_site_fract_z
 _atom_site_occupancy
  Ta  Ta0  1  0.255999  0.381810  0.877582  1
  Ta  Ta1  1  0.747327  0.625724  0.118278  1
  Ta  Ta2  1  0.249493  0.209502  0.374699  1
  Ta  Ta3  1  0.747339  0.789250  0.629866  1
  Cu  Cu4  1  0.250240  0.632163  0.127109  1
  Cu  Cu5  1  0.750831  0.368053  0.871808  1
  Cu  Cu6  1  0.249831  0.794482  0.625171  1
  Cu  Cu7  1  0.749704  0.206041  0.375602  1
  Pt  Pt8  1  0.000453  0.140297  0.125658  1
  Pt  Pt9  1  0.500657  0.138087  0.124752  1
  Pt  Pt10  1  0.001133  0.859726  0.874234  1
  Pt  Pt11  1  0.500805  0.709057  0.375465  1
  Pt  Pt12  1  0.000691  0.290434  0.624858  1
  Pt  Pt13  1  0.499283  0.288524  0.625517  1
  Pt  Pt14  1  0.998292  0.708992  0.375396  1
  Rh  Rh15  1  0.497924  0.857861  0.874002  1
