# generated using pymatgen
data_Yb2OsRuI
_symmetry_space_group_name_H-M   'P 1'
_cell_length_a   4.15120100
_cell_length_b   4.15120216
_cell_length_c   17.64940000
_cell_angle_alpha   90.00000000
_cell_angle_beta   90.00000000
_cell_angle_gamma   120.00001463
_symmetry_Int_Tables_number   1
_chemical_formula_structural   Yb2OsRuI
_chemical_formula_sum   'Yb4 Os2 Ru2 I2'
_cell_volume   263.39538416
_cell_formula_units_Z   2
loop_
 _symmetry_equiv_pos_site_id
 _symmetry_equiv_pos_as_xyz
  1  'x, y, z'
loop_
 _atom_site_type_symbol
 _atom_site_label
 _atom_site_symmetry_multiplicity
 _atom_site_fract_x
 _atom_site_fract_y
 _atom_site_fract_z
 _atom_site_occupancy
  Yb  Yb0  1  0.000000  0.000000  0.117032  1
  Yb  Yb1  1  0.000000  0.000000  0.882968  1
  Yb  Yb2  1  0.000000  0.000000  0.614005  1
  Yb  Yb3  1  0.000000  0.000000  0.385995  1
  Os  Os4  1  0.666667  0.333333  0.008562  1
  Os  Os5  1  0.333333  0.666667  0.991438  1
  Ru  Ru6  1  0.333333  0.666667  0.506987  1
  Ru  Ru7  1  0.666667  0.333333  0.493013  1
  I  I8  1  0.333333  0.666667  0.250064  1
  I  I9  1  0.666667  0.333333  0.749936  1
