# generated using pymatgen
data_Tb8Lu2(IrPt)3
_symmetry_space_group_name_H-M   'P 1'
_cell_length_a   11.01575120
_cell_length_b   11.01213300
_cell_length_c   6.34766569
_cell_angle_alpha   90.00046905
_cell_angle_beta   90.05341997
_cell_angle_gamma   89.99901149
_symmetry_Int_Tables_number   1
_chemical_formula_structural   Tb8Lu2(IrPt)3
_chemical_formula_sum   'Tb16 Lu4 Ir6 Pt6'
_cell_volume   770.01542197
_cell_formula_units_Z   2
loop_
 _symmetry_equiv_pos_site_id
 _symmetry_equiv_pos_as_xyz
  1  'x, y, z'
loop_
 _atom_site_type_symbol
 _atom_site_label
 _atom_site_symmetry_multiplicity
 _atom_site_fract_x
 _atom_site_fract_y
 _atom_site_fract_z
 _atom_site_occupancy
  Tb  Tb0  1  0.293440  0.089276  0.375688  1
  Tb  Tb1  1  0.293437  0.910720  0.875682  1
  Tb  Tb2  1  0.706979  0.086477  0.876037  1
  Tb  Tb3  1  0.706979  0.913526  0.376024  1
  Tb  Tb4  1  0.583757  0.790766  0.875771  1
  Tb  Tb5  1  0.583755  0.209233  0.375775  1
  Tb  Tb6  1  0.412160  0.790769  0.380458  1
  Tb  Tb7  1  0.412159  0.209231  0.880456  1
  Tb  Tb8  1  0.210900  0.414746  0.620887  1
  Tb  Tb9  1  0.210902  0.585250  0.120884  1
  Tb  Tb10  1  0.792714  0.413451  0.122860  1
  Tb  Tb11  1  0.792705  0.586542  0.622862  1
  Tb  Tb12  1  0.913923  0.706978  0.124030  1
  Tb  Tb13  1  0.913923  0.293031  0.624035  1
  Tb  Tb14  1  0.089597  0.706623  0.624376  1
  Tb  Tb15  1  0.089602  0.293372  0.124384  1
  Lu  Lu16  1  0.000043  0.999854  0.500013  1
  Lu  Lu17  1  0.000043  0.000155  0.999999  1
  Lu  Lu18  1  0.497228  0.499628  0.999996  1
  Lu  Lu19  1  0.497233  0.500369  0.499991  1
  Ir  Ir20  1  0.349614  0.349072  0.249892  1
  Ir  Ir21  1  0.349615  0.650927  0.749884  1
  Ir  Ir22  1  0.500392  0.999902  0.122404  1
  Ir  Ir23  1  0.500392  0.000101  0.622404  1
  Ir  Ir24  1  0.998988  0.500081  0.877534  1
  Ir  Ir25  1  0.998985  0.499921  0.377537  1
  Pt  Pt26  1  0.849860  0.150060  0.250118  1
  Pt  Pt27  1  0.849858  0.849941  0.750119  1
  Pt  Pt28  1  0.149590  0.149744  0.749828  1
  Pt  Pt29  1  0.149588  0.850256  0.249825  1
  Pt  Pt30  1  0.650817  0.349470  0.750125  1
  Pt  Pt31  1  0.650820  0.650529  0.250125  1
