# generated using pymatgen
data_Ho4Tc2NiRu5
_symmetry_space_group_name_H-M   'P 1'
_cell_length_a   5.31194908
_cell_length_b   5.31194899
_cell_length_c   8.97506200
_cell_angle_alpha   90.00000000
_cell_angle_beta   90.00000000
_cell_angle_gamma   122.90690875
_symmetry_Int_Tables_number   1
_chemical_formula_structural   Ho4Tc2NiRu5
_chemical_formula_sum   'Ho4 Tc2 Ni1 Ru5'
_cell_volume   212.61508729
_cell_formula_units_Z   1
loop_
 _symmetry_equiv_pos_site_id
 _symmetry_equiv_pos_as_xyz
  1  'x, y, z'
loop_
 _atom_site_type_symbol
 _atom_site_label
 _atom_site_symmetry_multiplicity
 _atom_site_fract_x
 _atom_site_fract_y
 _atom_site_fract_z
 _atom_site_occupancy
  Ho  Ho0  1  0.334919  0.665081  0.431132  1
  Ho  Ho1  1  0.664525  0.335475  0.561002  1
  Ho  Ho2  1  0.664525  0.335475  0.938998  1
  Ho  Ho3  1  0.334919  0.665081  0.068868  1
  Tc  Tc4  1  0.174776  0.338083  0.750000  1
  Tc  Tc5  1  0.661917  0.825224  0.750000  1
  Ni  Ni6  1  0.832510  0.167490  0.250000  1
  Ru  Ru7  1  0.995980  0.004020  0.496830  1
  Ru  Ru8  1  0.995980  0.004020  0.003170  1
  Ru  Ru9  1  0.826907  0.660764  0.250000  1
  Ru  Ru10  1  0.339236  0.173093  0.250000  1
  Ru  Ru11  1  0.173807  0.826193  0.750000  1
