# generated using pymatgen
data_Y10GaSn3Bi2
_symmetry_space_group_name_H-M   'P 1'
_cell_length_a   8.96245047
_cell_length_b   8.98106753
_cell_length_c   6.56176000
_cell_angle_alpha   90.00000000
_cell_angle_beta   90.00000000
_cell_angle_gamma   119.78346622
_symmetry_Int_Tables_number   1
_chemical_formula_structural   Y10GaSn3Bi2
_chemical_formula_sum   'Y10 Ga1 Sn3 Bi2'
_cell_volume   458.40482287
_cell_formula_units_Z   1
loop_
 _symmetry_equiv_pos_site_id
 _symmetry_equiv_pos_as_xyz
  1  'x, y, z'
loop_
 _atom_site_type_symbol
 _atom_site_label
 _atom_site_symmetry_multiplicity
 _atom_site_fract_x
 _atom_site_fract_y
 _atom_site_fract_z
 _atom_site_occupancy
  Y  Y0  1  0.760771  0.754696  0.250000  1
  Y  Y1  1  0.005877  0.243303  0.250000  1
  Y  Y2  1  0.761604  0.989978  0.750000  1
  Y  Y3  1  0.334729  0.657991  0.502545  1
  Y  Y4  1  0.234595  0.000158  0.250000  1
  Y  Y5  1  0.670074  0.347235  0.502386  1
  Y  Y6  1  0.984988  0.753673  0.750000  1
  Y  Y7  1  0.334729  0.657991  0.997455  1
  Y  Y8  1  0.242885  0.249077  0.750000  1
  Y  Y9  1  0.670074  0.347235  0.997614  1
  Ga  Ga10  1  0.604353  0.606316  0.750000  1
  Sn  Sn11  1  0.996235  0.391448  0.750000  1
  Sn  Sn12  1  0.395022  0.392676  0.250000  1
  Sn  Sn13  1  0.005249  0.607119  0.250000  1
  Bi  Bi14  1  0.390609  0.998551  0.750000  1
  Bi  Bi15  1  0.608204  0.002557  0.250000  1
