# generated using pymatgen
data_RbZr2(H6Ir)2
_symmetry_space_group_name_H-M   'P 1'
_cell_length_a   4.71227600
_cell_length_b   4.71227710
_cell_length_c   9.46613800
_cell_angle_alpha   90.00000000
_cell_angle_beta   90.00000000
_cell_angle_gamma   119.99999225
_symmetry_Int_Tables_number   1
_chemical_formula_structural   RbZr2(H6Ir)2
_chemical_formula_sum   'Rb1 Zr2 H12 Ir2'
_cell_volume   182.03924995
_cell_formula_units_Z   1
loop_
 _symmetry_equiv_pos_site_id
 _symmetry_equiv_pos_as_xyz
  1  'x, y, z'
loop_
 _atom_site_type_symbol
 _atom_site_label
 _atom_site_symmetry_multiplicity
 _atom_site_fract_x
 _atom_site_fract_y
 _atom_site_fract_z
 _atom_site_occupancy
  Rb  Rb0  1  0.000000  0.000000  0.000000  1
  Zr  Zr1  1  0.666667  0.333333  0.385414  1
  Zr  Zr2  1  0.333333  0.666667  0.614586  1
  H  H3  1  0.163571  0.836429  0.401431  1
  H  H4  1  0.672857  0.836429  0.401431  1
  H  H5  1  0.163571  0.327143  0.401431  1
  H  H6  1  0.836429  0.163571  0.598569  1
  H  H7  1  0.327143  0.163571  0.598569  1
  H  H8  1  0.836429  0.672857  0.598569  1
  H  H9  1  0.496595  0.993190  0.808017  1
  H  H10  1  0.496595  0.503405  0.808017  1
  H  H11  1  0.006810  0.503405  0.808017  1
  H  H12  1  0.503405  0.006810  0.191983  1
  H  H13  1  0.503405  0.496595  0.191983  1
  H  H14  1  0.993190  0.496595  0.191983  1
  Ir  Ir15  1  0.666667  0.333333  0.707287  1
  Ir  Ir16  1  0.333333  0.666667  0.292713  1
