# generated using pymatgen
data_Ta6B4(OsRu)5
_symmetry_space_group_name_H-M   'P 1'
_cell_length_a   9.48151506
_cell_length_b   9.54923704
_cell_length_c   3.01226400
_cell_angle_alpha   90.00000000
_cell_angle_beta   90.00000000
_cell_angle_gamma   90.07522628
_symmetry_Int_Tables_number   1
_chemical_formula_structural   Ta6B4(OsRu)5
_chemical_formula_sum   'Ta6 B4 Os5 Ru5'
_cell_volume   272.73386707
_cell_formula_units_Z   1
loop_
 _symmetry_equiv_pos_site_id
 _symmetry_equiv_pos_as_xyz
  1  'x, y, z'
loop_
 _atom_site_type_symbol
 _atom_site_label
 _atom_site_symmetry_multiplicity
 _atom_site_fract_x
 _atom_site_fract_y
 _atom_site_fract_z
 _atom_site_occupancy
  Ta  Ta0  1  0.823864  0.676956  0.000000  1
  Ta  Ta1  1  0.176674  0.323624  0.000000  1
  Ta  Ta2  1  0.323794  0.823009  0.000000  1
  Ta  Ta3  1  0.676448  0.176783  0.000000  1
  Ta  Ta4  1  0.501972  0.499375  0.000000  1
  Ta  Ta5  1  0.999897  0.000207  0.000000  1
  B  B6  1  0.620950  0.879187  0.000000  1
  B  B7  1  0.378672  0.120958  0.000000  1
  B  B8  1  0.120417  0.621149  0.000000  1
  B  B9  1  0.878772  0.378653  0.000000  1
  Os  Os10  1  0.571713  0.719814  0.500000  1
  Os  Os11  1  0.428471  0.280160  0.500000  1
  Os  Os12  1  0.070631  0.780850  0.500000  1
  Os  Os13  1  0.928472  0.219508  0.500000  1
  Os  Os14  1  0.281572  0.570654  0.500000  1
  Ru  Ru15  1  0.718674  0.428964  0.500000  1
  Ru  Ru16  1  0.218365  0.070428  0.500000  1
  Ru  Ru17  1  0.781461  0.929471  0.500000  1
  Ru  Ru18  1  0.500068  0.000266  0.500000  1
  Ru  Ru19  1  0.999111  0.499985  0.500000  1
