# generated using pymatgen
data_Zr18TaRe7Pt2
_symmetry_space_group_name_H-M   'P 1'
_cell_length_a   8.84419500
_cell_length_b   8.84431758
_cell_length_c   8.58364000
_cell_angle_alpha   89.99946493
_cell_angle_beta   90.00018042
_cell_angle_gamma   119.99986006
_symmetry_Int_Tables_number   1
_chemical_formula_structural   Zr18TaRe7Pt2
_chemical_formula_sum   'Zr18 Ta1 Re7 Pt2'
_cell_volume   581.46740807
_cell_formula_units_Z   1
loop_
 _symmetry_equiv_pos_site_id
 _symmetry_equiv_pos_as_xyz
  1  'x, y, z'
loop_
 _atom_site_type_symbol
 _atom_site_label
 _atom_site_symmetry_multiplicity
 _atom_site_fract_x
 _atom_site_fract_y
 _atom_site_fract_z
 _atom_site_occupancy
  Zr  Zr0  1  0.195297  0.804716  0.446930  1
  Zr  Zr1  1  0.195287  0.390581  0.446930  1
  Zr  Zr2  1  0.609418  0.804712  0.446925  1
  Zr  Zr3  1  0.804708  0.195287  0.553071  1
  Zr  Zr4  1  0.804715  0.609426  0.553071  1
  Zr  Zr5  1  0.390578  0.195289  0.553079  1
  Zr  Zr6  1  0.806105  0.193898  0.946427  1
  Zr  Zr7  1  0.806100  0.612201  0.946429  1
  Zr  Zr8  1  0.387801  0.193901  0.946423  1
  Zr  Zr9  1  0.193896  0.806097  0.053572  1
  Zr  Zr10  1  0.193902  0.387803  0.053569  1
  Zr  Zr11  1  0.612197  0.806100  0.053570  1
  Zr  Zr12  1  0.542603  0.457402  0.249654  1
  Zr  Zr13  1  0.542598  0.085200  0.249658  1
  Zr  Zr14  1  0.914804  0.457404  0.249659  1
  Zr  Zr15  1  0.457396  0.542603  0.750339  1
  Zr  Zr16  1  0.457403  0.914798  0.750342  1
  Zr  Zr17  1  0.085201  0.542592  0.750336  1
  Ta  Ta18  1  0.999999  0.000000  0.499997  1
  Re  Re19  1  0.891801  0.108202  0.249168  1
  Re  Re20  1  0.891807  0.783598  0.249172  1
  Re  Re21  1  0.216400  0.108201  0.249179  1
  Re  Re22  1  0.108190  0.891801  0.750830  1
  Re  Re23  1  0.108181  0.216382  0.750823  1
  Re  Re24  1  0.783611  0.891809  0.750829  1
  Re  Re25  1  0.999999  0.999996  0.000025  1
  Pt  Pt26  1  0.333326  0.666661  0.248607  1
  Pt  Pt27  1  0.666674  0.333340  0.751390  1
