# generated using pymatgen
data_TbPr8YSi8
_symmetry_space_group_name_H-M   'P 1'
_cell_length_a   7.84035403
_cell_length_b   7.84022900
_cell_length_c   15.36268906
_cell_angle_alpha   90.00000000
_cell_angle_beta   90.00993706
_cell_angle_gamma   90.00000000
_symmetry_Int_Tables_number   1
_chemical_formula_structural   TbPr8YSi8
_chemical_formula_sum   'Tb2 Pr16 Y2 Si16'
_cell_volume   944.34710969
_cell_formula_units_Z   2
loop_
 _symmetry_equiv_pos_site_id
 _symmetry_equiv_pos_as_xyz
  1  'x, y, z'
loop_
 _atom_site_type_symbol
 _atom_site_label
 _atom_site_symmetry_multiplicity
 _atom_site_fract_x
 _atom_site_fract_y
 _atom_site_fract_z
 _atom_site_occupancy
  Tb  Tb0  1  0.309300  0.309141  0.999986  1
  Tb  Tb1  1  0.190700  0.809141  0.250014  1
  Pr  Pr2  1  0.378225  0.013374  0.445209  1
  Pr  Pr3  1  0.486608  0.878396  0.695235  1
  Pr  Pr4  1  0.513136  0.121472  0.195253  1
  Pr  Pr5  1  0.878697  0.486840  0.304720  1
  Pr  Pr6  1  0.121775  0.513374  0.804791  1
  Pr  Pr7  1  0.621303  0.986840  0.945280  1
  Pr  Pr8  1  0.013392  0.378396  0.554765  1
  Pr  Pr9  1  0.986864  0.621472  0.054747  1
  Pr  Pr10  1  0.125451  0.975952  0.878743  1
  Pr  Pr11  1  0.524076  0.625063  0.128698  1
  Pr  Pr12  1  0.475628  0.374712  0.628617  1
  Pr  Pr13  1  0.624898  0.524390  0.871429  1
  Pr  Pr14  1  0.374549  0.475952  0.371257  1
  Pr  Pr15  1  0.875102  0.024390  0.378571  1
  Pr  Pr16  1  0.975924  0.125063  0.121302  1
  Pr  Pr17  1  0.024372  0.874712  0.621383  1
  Y  Y18  1  0.809475  0.190371  0.749983  1
  Y  Y19  1  0.690525  0.690371  0.500017  1
  Si  Si20  1  0.188078  0.171803  0.708781  1
  Si  Si21  1  0.328246  0.688240  0.958787  1
  Si  Si22  1  0.671764  0.312011  0.458830  1
  Si  Si23  1  0.688146  0.328287  0.041165  1
  Si  Si24  1  0.311922  0.671803  0.541219  1
  Si  Si25  1  0.811854  0.828287  0.208835  1
  Si  Si26  1  0.171754  0.188240  0.291213  1
  Si  Si27  1  0.828236  0.812011  0.791170  1
  Si  Si28  1  0.286938  0.921117  0.063254  1
  Si  Si29  1  0.578979  0.786877  0.313537  1
  Si  Si30  1  0.421205  0.213065  0.813249  1
  Si  Si31  1  0.786872  0.578890  0.686471  1
  Si  Si32  1  0.213062  0.421117  0.186746  1
  Si  Si33  1  0.713128  0.078890  0.563529  1
  Si  Si34  1  0.921021  0.286877  0.936463  1
  Si  Si35  1  0.078795  0.713065  0.436751  1
