# generated using pymatgen
data_HoTm4Fe3(P3Ru4)4
_symmetry_space_group_name_H-M   'P 1'
_cell_length_a   12.46453400
_cell_length_b   12.46453392
_cell_length_c   3.88207400
_cell_angle_alpha   90.00000000
_cell_angle_beta   90.00000000
_cell_angle_gamma   120.00000021
_symmetry_Int_Tables_number   1
_chemical_formula_structural   HoTm4Fe3(P3Ru4)4
_chemical_formula_sum   'Ho1 Tm4 Fe3 P12 Ru16'
_cell_volume   522.33187698
_cell_formula_units_Z   1
loop_
 _symmetry_equiv_pos_site_id
 _symmetry_equiv_pos_as_xyz
  1  'x, y, z'
loop_
 _atom_site_type_symbol
 _atom_site_label
 _atom_site_symmetry_multiplicity
 _atom_site_fract_x
 _atom_site_fract_y
 _atom_site_fract_z
 _atom_site_occupancy
  Ho  Ho0  1  0.333333  0.666667  0.000000  1
  Tm  Tm1  1  0.999995  0.181548  0.500000  1
  Tm  Tm2  1  0.818452  0.818446  0.500000  1
  Tm  Tm3  1  0.181554  0.000005  0.500000  1
  Tm  Tm4  1  0.666667  0.333333  0.000000  1
  Fe  Fe5  1  0.999964  0.716921  0.500000  1
  Fe  Fe6  1  0.283079  0.283042  0.500000  1
  Fe  Fe7  1  0.716958  0.000036  0.500000  1
  P  P8  1  0.999967  0.813889  0.000000  1
  P  P9  1  0.186111  0.186078  0.000000  1
  P  P10  1  0.813922  0.000033  0.000000  1
  P  P11  1  0.689839  0.163180  0.500000  1
  P  P12  1  0.836820  0.526659  0.500000  1
  P  P13  1  0.473341  0.310161  0.500000  1
  P  P14  1  0.162984  0.689893  0.500000  1
  P  P15  1  0.526908  0.837016  0.500000  1
  P  P16  1  0.310107  0.473092  0.500000  1
  P  P17  1  0.000030  0.372948  0.000000  1
  P  P18  1  0.627052  0.627081  0.000000  1
  P  P19  1  0.372919  0.999970  0.000000  1
  Ru  Ru20  1  0.000021  0.558004  0.000000  1
  Ru  Ru21  1  0.441996  0.442017  0.000000  1
  Ru  Ru22  1  0.557983  0.999979  0.000000  1
  Ru  Ru23  1  0.807335  0.181921  0.000000  1
  Ru  Ru24  1  0.818079  0.625415  0.000000  1
  Ru  Ru25  1  0.374585  0.192665  0.000000  1
  Ru  Ru26  1  0.181769  0.807425  0.000000  1
  Ru  Ru27  1  0.625657  0.818231  0.000000  1
  Ru  Ru28  1  0.192575  0.374343  0.000000  1
  Ru  Ru29  1  0.873087  0.363177  0.500000  1
  Ru  Ru30  1  0.636823  0.509909  0.500000  1
  Ru  Ru31  1  0.490091  0.126913  0.500000  1
  Ru  Ru32  1  0.363179  0.873594  0.500000  1
  Ru  Ru33  1  0.510415  0.636821  0.500000  1
  Ru  Ru34  1  0.126406  0.489585  0.500000  1
  Ru  Ru35  1  0.000000  0.000000  0.000000  1
