# generated using pymatgen
data_RbAcGeS4
_symmetry_space_group_name_H-M   'P 1'
_cell_length_a   6.91042637
_cell_length_b   6.94577900
_cell_length_c   18.53452384
_cell_angle_alpha   89.99966326
_cell_angle_beta   107.47941246
_cell_angle_gamma   89.99875543
_symmetry_Int_Tables_number   1
_chemical_formula_structural   RbAcGeS4
_chemical_formula_sum   'Rb4 Ac4 Ge4 S16'
_cell_volume   848.54701705
_cell_formula_units_Z   4
loop_
 _symmetry_equiv_pos_site_id
 _symmetry_equiv_pos_as_xyz
  1  'x, y, z'
loop_
 _atom_site_type_symbol
 _atom_site_label
 _atom_site_symmetry_multiplicity
 _atom_site_fract_x
 _atom_site_fract_y
 _atom_site_fract_z
 _atom_site_occupancy
  Rb  Rb0  1  0.276117  0.748889  0.034595  1
  Rb  Rb1  1  0.723884  0.248874  0.465410  1
  Rb  Rb2  1  0.276094  0.751092  0.534588  1
  Rb  Rb3  1  0.723880  0.251137  0.965412  1
  Ac  Ac4  1  0.766487  0.230730  0.223768  1
  Ac  Ac5  1  0.233522  0.730722  0.276232  1
  Ac  Ac6  1  0.766484  0.269282  0.723770  1
  Ac  Ac7  1  0.233517  0.769270  0.776233  1
  Ge  Ge8  1  0.213677  0.261199  0.159262  1
  Ge  Ge9  1  0.786337  0.761209  0.340742  1
  Ge  Ge10  1  0.213667  0.238789  0.659257  1
  Ge  Ge11  1  0.786324  0.738804  0.840738  1
  S  S12  1  0.406715  0.258527  0.083641  1
  S  S13  1  0.984046  0.498471  0.137495  1
  S  S14  1  0.020829  0.996515  0.144924  1
  S  S15  1  0.596768  0.806664  0.219822  1
  S  S16  1  0.403243  0.306657  0.280180  1
  S  S17  1  0.979184  0.496506  0.355074  1
  S  S18  1  0.015957  0.998470  0.362506  1
  S  S19  1  0.593290  0.758530  0.416359  1
  S  S20  1  0.406713  0.241468  0.583640  1
  S  S21  1  0.984043  0.001530  0.637493  1
  S  S22  1  0.020820  0.503493  0.644924  1
  S  S23  1  0.596759  0.693342  0.719819  1
  S  S24  1  0.403234  0.193335  0.780177  1
  S  S25  1  0.979171  0.003489  0.855076  1
  S  S26  1  0.015957  0.501534  0.862506  1
  S  S27  1  0.593285  0.741471  0.916359  1
