# generated using pymatgen
data_Pr5MnNbO12
_symmetry_space_group_name_H-M   'P 1'
_cell_length_a   7.11363194
_cell_length_b   7.11363142
_cell_length_c   7.70308668
_cell_angle_alpha   74.38944362
_cell_angle_beta   74.38945483
_cell_angle_gamma   50.70999160
_symmetry_Int_Tables_number   1
_chemical_formula_structural   Pr5MnNbO12
_chemical_formula_sum   'Pr5 Mn1 Nb1 O12'
_cell_volume   288.00343399
_cell_formula_units_Z   1
loop_
 _symmetry_equiv_pos_site_id
 _symmetry_equiv_pos_as_xyz
  1  'x, y, z'
loop_
 _atom_site_type_symbol
 _atom_site_label
 _atom_site_symmetry_multiplicity
 _atom_site_fract_x
 _atom_site_fract_y
 _atom_site_fract_z
 _atom_site_occupancy
  Pr  Pr0  1  0.316023  0.294958  0.357684  1
  Pr  Pr1  1  0.705042  0.683977  0.642316  1
  Pr  Pr2  1  0.699676  0.689226  0.164452  1
  Pr  Pr3  1  0.310774  0.300324  0.835548  1
  Pr  Pr4  1  0.997363  0.002637  0.500000  1
  Mn  Mn5  1  0.734165  0.265835  0.000000  1
  Nb  Nb6  1  0.214017  0.785983  0.000000  1
  O  O7  1  0.101991  0.593689  0.577171  1
  O  O8  1  0.989730  0.008418  0.178305  1
  O  O9  1  0.406311  0.898009  0.422829  1
  O  O10  1  0.506452  0.495108  0.170634  1
  O  O11  1  0.105696  0.575452  0.078613  1
  O  O12  1  0.910798  0.400838  0.421479  1
  O  O13  1  0.991582  0.010270  0.821695  1
  O  O14  1  0.599162  0.089201  0.578521  1
  O  O15  1  0.504892  0.493548  0.829366  1
  O  O16  1  0.584883  0.103106  0.077468  1
  O  O17  1  0.424548  0.894304  0.921387  1
  O  O18  1  0.896894  0.415117  0.922532  1
