# generated using pymatgen
data_HfCr(Co7B2)3
_symmetry_space_group_name_H-M   'P 1'
_cell_length_a   7.39445176
_cell_length_b   7.39445124
_cell_length_c   7.39445100
_cell_angle_alpha   59.99999662
_cell_angle_beta   59.99999892
_cell_angle_gamma   59.99999956
_symmetry_Int_Tables_number   1
_chemical_formula_structural   HfCr(Co7B2)3
_chemical_formula_sum   'Hf1 Cr1 Co21 B6'
_cell_volume   285.89255839
_cell_formula_units_Z   1
loop_
 _symmetry_equiv_pos_site_id
 _symmetry_equiv_pos_as_xyz
  1  'x, y, z'
loop_
 _atom_site_type_symbol
 _atom_site_label
 _atom_site_symmetry_multiplicity
 _atom_site_fract_x
 _atom_site_fract_y
 _atom_site_fract_z
 _atom_site_occupancy
  Hf  Hf0  1  0.750000  0.750000  0.750000  1
  Cr  Cr1  1  0.250000  0.250000  0.250000  1
  Co  Co2  1  0.000000  0.000000  0.000000  1
  Co  Co3  1  0.610039  0.610039  0.169885  1
  Co  Co4  1  0.610039  0.169885  0.610039  1
  Co  Co5  1  0.169885  0.610039  0.610039  1
  Co  Co6  1  0.610039  0.610039  0.610039  1
  Co  Co7  1  0.375607  0.375607  0.873178  1
  Co  Co8  1  0.375607  0.873178  0.375607  1
  Co  Co9  1  0.873178  0.375607  0.375607  1
  Co  Co10  1  0.375607  0.375607  0.375607  1
  Co  Co11  1  0.001362  0.001362  0.336332  1
  Co  Co12  1  0.660945  0.001362  0.336332  1
  Co  Co13  1  0.001362  0.660945  0.336332  1
  Co  Co14  1  0.660945  0.336332  0.001362  1
  Co  Co15  1  0.001362  0.336332  0.001362  1
  Co  Co16  1  0.001362  0.336332  0.660945  1
  Co  Co17  1  0.336332  0.660945  0.001362  1
  Co  Co18  1  0.336332  0.001362  0.660945  1
  Co  Co19  1  0.336332  0.001362  0.001362  1
  Co  Co20  1  0.001362  0.001362  0.660945  1
  Co  Co21  1  0.001362  0.660945  0.001362  1
  Co  Co22  1  0.660945  0.001362  0.001362  1
  B  B23  1  0.725962  0.725962  0.274038  1
  B  B24  1  0.274038  0.725962  0.274038  1
  B  B25  1  0.725962  0.274038  0.274038  1
  B  B26  1  0.274038  0.274038  0.725962  1
  B  B27  1  0.725962  0.274038  0.725962  1
  B  B28  1  0.274038  0.725962  0.725962  1
