# generated using pymatgen
data_Yb5SnPd2
_symmetry_space_group_name_H-M   'P 1'
_cell_length_a   9.04164046
_cell_length_b   9.04164162
_cell_length_c   9.04164207
_cell_angle_alpha   128.84678224
_cell_angle_beta   128.84678427
_cell_angle_gamma   75.25723114
_symmetry_Int_Tables_number   1
_chemical_formula_structural   Yb5SnPd2
_chemical_formula_sum   'Yb10 Sn2 Pd4'
_cell_volume   436.43346780
_cell_formula_units_Z   2
loop_
 _symmetry_equiv_pos_site_id
 _symmetry_equiv_pos_as_xyz
  1  'x, y, z'
loop_
 _atom_site_type_symbol
 _atom_site_label
 _atom_site_symmetry_multiplicity
 _atom_site_fract_x
 _atom_site_fract_y
 _atom_site_fract_z
 _atom_site_occupancy
  Yb  Yb0  1  0.000000  0.000000  0.000000  1
  Yb  Yb1  1  0.500000  0.500000  0.000000  1
  Yb  Yb2  1  0.801751  0.301751  0.835529  1
  Yb  Yb3  1  0.198249  0.698249  0.164471  1
  Yb  Yb4  1  0.466222  0.966222  0.164471  1
  Yb  Yb5  1  0.301751  0.466222  0.500000  1
  Yb  Yb6  1  0.033778  0.198249  0.500000  1
  Yb  Yb7  1  0.533778  0.033778  0.835529  1
  Yb  Yb8  1  0.698249  0.533778  0.500000  1
  Yb  Yb9  1  0.966222  0.801751  0.500000  1
  Sn  Sn10  1  0.250000  0.250000  0.000000  1
  Sn  Sn11  1  0.750000  0.750000  0.000000  1
  Pd  Pd12  1  0.128901  0.628901  0.757802  1
  Pd  Pd13  1  0.871099  0.371099  0.242198  1
  Pd  Pd14  1  0.628901  0.871099  0.500000  1
  Pd  Pd15  1  0.371099  0.128901  0.500000  1
