# generated using pymatgen
data_Zn12CoCu
_symmetry_space_group_name_H-M   'P 1'
_cell_length_a   6.61785203
_cell_length_b   6.61785333
_cell_length_c   4.96491894
_cell_angle_alpha   80.90813050
_cell_angle_beta   80.90813653
_cell_angle_gamma   70.35984108
_symmetry_Int_Tables_number   1
_chemical_formula_structural   Zn12CoCu
_chemical_formula_sum   'Zn12 Co1 Cu1'
_cell_volume   200.92937720
_cell_formula_units_Z   1
loop_
 _symmetry_equiv_pos_site_id
 _symmetry_equiv_pos_as_xyz
  1  'x, y, z'
loop_
 _atom_site_type_symbol
 _atom_site_label
 _atom_site_symmetry_multiplicity
 _atom_site_fract_x
 _atom_site_fract_y
 _atom_site_fract_z
 _atom_site_occupancy
  Zn  Zn0  1  0.999933  0.999933  0.000071  1
  Zn  Zn1  1  0.612069  0.612069  0.070100  1
  Zn  Zn2  1  0.778135  0.778135  0.372680  1
  Zn  Zn3  1  0.223489  0.223489  0.635741  1
  Zn  Zn4  1  0.219228  0.626464  0.310961  1
  Zn  Zn5  1  0.368181  0.777407  0.684143  1
  Zn  Zn6  1  0.777407  0.368181  0.684143  1
  Zn  Zn7  1  0.626464  0.219228  0.310961  1
  Zn  Zn8  1  0.008697  0.643486  0.802291  1
  Zn  Zn9  1  0.353388  0.002777  0.196897  1
  Zn  Zn10  1  0.002777  0.353388  0.196897  1
  Zn  Zn11  1  0.643486  0.008697  0.802291  1
  Co  Co12  1  0.999900  0.999900  0.499391  1
  Cu  Cu13  1  0.386848  0.386848  0.933433  1
