# generated using pymatgen
data_Nd10ZnSn6I
_symmetry_space_group_name_H-M   'P 1'
_cell_length_a   9.60647300
_cell_length_b   9.60655002
_cell_length_c   6.74038200
_cell_angle_alpha   90.00031579
_cell_angle_beta   89.99984239
_cell_angle_gamma   120.00026671
_symmetry_Int_Tables_number   1
_chemical_formula_structural   Nd10ZnSn6I
_chemical_formula_sum   'Nd10 Zn1 Sn6 I1'
_cell_volume   538.69803277
_cell_formula_units_Z   1
loop_
 _symmetry_equiv_pos_site_id
 _symmetry_equiv_pos_as_xyz
  1  'x, y, z'
loop_
 _atom_site_type_symbol
 _atom_site_label
 _atom_site_symmetry_multiplicity
 _atom_site_fract_x
 _atom_site_fract_y
 _atom_site_fract_z
 _atom_site_occupancy
  Nd  Nd0  1  0.728855  0.728846  0.240944  1
  Nd  Nd1  1  0.333319  0.666661  0.500000  1
  Nd  Nd2  1  0.271145  0.271154  0.759056  1
  Nd  Nd3  1  0.000000  0.271153  0.240948  1
  Nd  Nd4  1  0.666681  0.333339  0.500000  1
  Nd  Nd5  1  0.271145  0.999990  0.240944  1
  Nd  Nd6  1  0.728855  0.000010  0.759056  1
  Nd  Nd7  1  0.333316  0.666658  0.000000  1
  Nd  Nd8  1  0.666684  0.333342  0.000000  1
  Nd  Nd9  1  0.000000  0.728847  0.759052  1
  Zn  Zn10  1  0.000000  0.000000  0.000000  1
  Sn  Sn11  1  0.381417  0.381416  0.249638  1
  Sn  Sn12  1  0.618583  0.618584  0.750362  1
  Sn  Sn13  1  0.381417  0.000001  0.750362  1
  Sn  Sn14  1  0.000000  0.618584  0.249636  1
  Sn  Sn15  1  0.618583  0.999999  0.249638  1
  Sn  Sn16  1  0.000000  0.381416  0.750364  1
  I  I17  1  0.000000  0.000000  0.500000  1
