# generated using pymatgen
data_Ta3SiOsN
_symmetry_space_group_name_H-M   'P 1'
_cell_length_a   6.98085400
_cell_length_b   6.98085400
_cell_length_c   6.98085400
_cell_angle_alpha   90.00000000
_cell_angle_beta   90.00000000
_cell_angle_gamma   90.00000000
_symmetry_Int_Tables_number   1
_chemical_formula_structural   Ta3SiOsN
_chemical_formula_sum   'Ta12 Si4 Os4 N4'
_cell_volume   340.19322894
_cell_formula_units_Z   4
loop_
 _symmetry_equiv_pos_site_id
 _symmetry_equiv_pos_as_xyz
  1  'x, y, z'
loop_
 _atom_site_type_symbol
 _atom_site_label
 _atom_site_symmetry_multiplicity
 _atom_site_fract_x
 _atom_site_fract_y
 _atom_site_fract_z
 _atom_site_occupancy
  Ta  Ta0  1  0.793708  0.952650  0.380572  1
  Ta  Ta1  1  0.706292  0.047350  0.880572  1
  Ta  Ta2  1  0.206292  0.452650  0.119428  1
  Ta  Ta3  1  0.293708  0.547350  0.619428  1
  Ta  Ta4  1  0.952650  0.380572  0.793708  1
  Ta  Ta5  1  0.047350  0.880572  0.706292  1
  Ta  Ta6  1  0.452650  0.119428  0.206292  1
  Ta  Ta7  1  0.547350  0.619428  0.293708  1
  Ta  Ta8  1  0.380572  0.793708  0.952650  1
  Ta  Ta9  1  0.880572  0.706292  0.047350  1
  Ta  Ta10  1  0.119428  0.206292  0.452650  1
  Ta  Ta11  1  0.619428  0.293708  0.547350  1
  Si  Si12  1  0.569883  0.430117  0.930117  1
  Si  Si13  1  0.430117  0.930117  0.569883  1
  Si  Si14  1  0.930117  0.569883  0.430117  1
  Si  Si15  1  0.069883  0.069883  0.069883  1
  Os  Os16  1  0.175825  0.824175  0.324175  1
  Os  Os17  1  0.324175  0.175825  0.824175  1
  Os  Os18  1  0.824175  0.324175  0.175825  1
  Os  Os19  1  0.675825  0.675825  0.675825  1
  N  N20  1  0.871972  0.128028  0.628028  1
  N  N21  1  0.628028  0.871972  0.128028  1
  N  N22  1  0.128028  0.628028  0.871972  1
  N  N23  1  0.371972  0.371972  0.371972  1
