# generated using pymatgen
data_TbPr5OsI10
_symmetry_space_group_name_H-M   'P 1'
_cell_length_a   8.00699022
_cell_length_b   10.02097535
_cell_length_c   10.09761062
_cell_angle_alpha   107.63586033
_cell_angle_beta   97.54051806
_cell_angle_gamma   104.80870531
_symmetry_Int_Tables_number   1
_chemical_formula_structural   TbPr5OsI10
_chemical_formula_sum   'Tb1 Pr5 Os1 I10'
_cell_volume   727.08882708
_cell_formula_units_Z   1
loop_
 _symmetry_equiv_pos_site_id
 _symmetry_equiv_pos_as_xyz
  1  'x, y, z'
loop_
 _atom_site_type_symbol
 _atom_site_label
 _atom_site_symmetry_multiplicity
 _atom_site_fract_x
 _atom_site_fract_y
 _atom_site_fract_z
 _atom_site_occupancy
  Tb  Tb0  1  0.114588  0.040767  0.758933  1
  Pr  Pr1  1  0.349216  0.126189  0.167390  1
  Pr  Pr2  1  0.651576  0.874490  0.831534  1
  Pr  Pr3  1  0.969718  0.285247  0.083741  1
  Pr  Pr4  1  0.030591  0.714343  0.912540  1
  Pr  Pr5  1  0.882380  0.958102  0.248788  1
  Os  Os6  1  0.000318  0.999635  0.999209  1
  I  I7  1  0.356020  0.455939  0.274070  1
  I  I8  1  0.642989  0.544192  0.726137  1
  I  I9  1  0.788570  0.261941  0.349489  1
  I  I10  1  0.209554  0.747672  0.649544  1
  I  I11  1  0.538995  0.182326  0.906186  1
  I  I12  1  0.453758  0.814677  0.089392  1
  I  I13  1  0.748876  0.915360  0.543956  1
  I  I14  1  0.260692  0.088065  0.464728  1
  I  I15  1  0.913404  0.630077  0.178999  1
  I  I16  1  0.088754  0.360978  0.815364  1
