# generated using pymatgen
data_TmPaIrPt5
_symmetry_space_group_name_H-M   'P 1'
_cell_length_a   5.83174046
_cell_length_b   5.83174049
_cell_length_c   4.77763800
_cell_angle_alpha   90.00000000
_cell_angle_beta   90.00000000
_cell_angle_gamma   120.18325174
_symmetry_Int_Tables_number   1
_chemical_formula_structural   TmPaIrPt5
_chemical_formula_sum   'Tm1 Pa1 Ir1 Pt5'
_cell_volume   140.45439413
_cell_formula_units_Z   1
loop_
 _symmetry_equiv_pos_site_id
 _symmetry_equiv_pos_as_xyz
  1  'x, y, z'
loop_
 _atom_site_type_symbol
 _atom_site_label
 _atom_site_symmetry_multiplicity
 _atom_site_fract_x
 _atom_site_fract_y
 _atom_site_fract_z
 _atom_site_occupancy
  Tm  Tm0  1  0.667723  0.332277  0.250000  1
  Pa  Pa1  1  0.330581  0.669419  0.750000  1
  Ir  Ir2  1  0.163395  0.836605  0.250000  1
  Pt  Pt3  1  0.837066  0.162934  0.750000  1
  Pt  Pt4  1  0.321840  0.158714  0.750000  1
  Pt  Pt5  1  0.841286  0.678160  0.750000  1
  Pt  Pt6  1  0.672736  0.834626  0.250000  1
  Pt  Pt7  1  0.165374  0.327264  0.250000  1
