# generated using pymatgen
data_K4HoPaBr12
_symmetry_space_group_name_H-M   'P 1'
_cell_length_a   7.70616000
_cell_length_b   7.70616000
_cell_length_c   11.47654800
_cell_angle_alpha   90.00000000
_cell_angle_beta   90.00000000
_cell_angle_gamma   90.00000000
_symmetry_Int_Tables_number   1
_chemical_formula_structural   K4HoPaBr12
_chemical_formula_sum   'K4 Ho1 Pa1 Br12'
_cell_volume   681.53367765
_cell_formula_units_Z   1
loop_
 _symmetry_equiv_pos_site_id
 _symmetry_equiv_pos_as_xyz
  1  'x, y, z'
loop_
 _atom_site_type_symbol
 _atom_site_label
 _atom_site_symmetry_multiplicity
 _atom_site_fract_x
 _atom_site_fract_y
 _atom_site_fract_z
 _atom_site_occupancy
  K  K0  1  0.500000  0.000000  0.802185  1
  K  K1  1  0.500000  0.000000  0.197815  1
  K  K2  1  0.000000  0.500000  0.197815  1
  K  K3  1  0.000000  0.500000  0.802185  1
  Ho  Ho4  1  0.000000  0.000000  0.000000  1
  Pa  Pa5  1  0.500000  0.500000  0.500000  1
  Br  Br6  1  0.744671  0.254339  0.000000  1
  Br  Br7  1  0.255329  0.745661  0.000000  1
  Br  Br8  1  0.500000  0.500000  0.261288  1
  Br  Br9  1  0.315032  0.200442  0.500000  1
  Br  Br10  1  0.254339  0.255329  0.000000  1
  Br  Br11  1  0.799558  0.315032  0.500000  1
  Br  Br12  1  0.000000  0.000000  0.242647  1
  Br  Br13  1  0.684968  0.799558  0.500000  1
  Br  Br14  1  0.200442  0.684968  0.500000  1
  Br  Br15  1  0.500000  0.500000  0.738712  1
  Br  Br16  1  0.745661  0.744671  0.000000  1
  Br  Br17  1  0.000000  0.000000  0.757353  1
