# generated using pymatgen
data_Pr15NdCd4Ir3Au
_symmetry_space_group_name_H-M   'P 1'
_cell_length_a   10.05902749
_cell_length_b   10.05902488
_cell_length_c   10.05902647
_cell_angle_alpha   60.23502939
_cell_angle_beta   60.23504108
_cell_angle_gamma   60.23502744
_symmetry_Int_Tables_number   1
_chemical_formula_structural   Pr15NdCd4Ir3Au
_chemical_formula_sum   'Pr15 Nd1 Cd4 Ir3 Au1'
_cell_volume   723.53160990
_cell_formula_units_Z   1
loop_
 _symmetry_equiv_pos_site_id
 _symmetry_equiv_pos_as_xyz
  1  'x, y, z'
loop_
 _atom_site_type_symbol
 _atom_site_label
 _atom_site_symmetry_multiplicity
 _atom_site_fract_x
 _atom_site_fract_y
 _atom_site_fract_z
 _atom_site_occupancy
  Pr  Pr0  1  0.356646  0.356646  0.945028  1
  Pr  Pr1  1  0.356646  0.945028  0.356646  1
  Pr  Pr2  1  0.945028  0.356646  0.356646  1
  Pr  Pr3  1  0.799446  0.191314  0.191314  1
  Pr  Pr4  1  0.188982  0.809693  0.809693  1
  Pr  Pr5  1  0.191314  0.799446  0.191314  1
  Pr  Pr6  1  0.809693  0.188982  0.809693  1
  Pr  Pr7  1  0.191314  0.191314  0.799446  1
  Pr  Pr8  1  0.809693  0.809693  0.188982  1
  Pr  Pr9  1  0.941360  0.562420  0.562420  1
  Pr  Pr10  1  0.561646  0.939957  0.939957  1
  Pr  Pr11  1  0.562420  0.941360  0.562420  1
  Pr  Pr12  1  0.939957  0.561646  0.939957  1
  Pr  Pr13  1  0.562420  0.562420  0.941360  1
  Pr  Pr14  1  0.939957  0.939957  0.561646  1
  Nd  Nd15  1  0.345643  0.345643  0.345643  1
  Cd  Cd16  1  0.580906  0.580906  0.580906  1
  Cd  Cd17  1  0.579279  0.579279  0.259637  1
  Cd  Cd18  1  0.579279  0.259637  0.579279  1
  Cd  Cd19  1  0.259637  0.579279  0.579279  1
  Ir  Ir20  1  0.141180  0.141180  0.572316  1
  Ir  Ir21  1  0.141180  0.572316  0.141180  1
  Ir  Ir22  1  0.572316  0.141180  0.141180  1
  Au  Au23  1  0.144056  0.144056  0.144056  1
