# generated using pymatgen
data_PuNpB6W
_symmetry_space_group_name_H-M   'P 1'
_cell_length_a   3.64216300
_cell_length_b   9.33766400
_cell_length_c   11.37171600
_cell_angle_alpha   90.00000000
_cell_angle_beta   90.00000000
_cell_angle_gamma   90.00000000
_symmetry_Int_Tables_number   1
_chemical_formula_structural   PuNpB6W
_chemical_formula_sum   'Pu4 Np4 B24 W4'
_cell_volume   386.74403645
_cell_formula_units_Z   4
loop_
 _symmetry_equiv_pos_site_id
 _symmetry_equiv_pos_as_xyz
  1  'x, y, z'
loop_
 _atom_site_type_symbol
 _atom_site_label
 _atom_site_symmetry_multiplicity
 _atom_site_fract_x
 _atom_site_fract_y
 _atom_site_fract_z
 _atom_site_occupancy
  Pu  Pu0  1  0.000000  0.336663  0.406981  1
  Pu  Pu1  1  0.000000  0.663337  0.593019  1
  Pu  Pu2  1  0.000000  0.836663  0.093019  1
  Pu  Pu3  1  0.000000  0.163337  0.906981  1
  Np  Np4  1  0.000000  0.958625  0.400416  1
  Np  Np5  1  0.000000  0.041375  0.599584  1
  Np  Np6  1  0.000000  0.458625  0.099584  1
  Np  Np7  1  0.000000  0.541375  0.900416  1
  B  B8  1  0.500000  0.551708  0.432418  1
  B  B9  1  0.500000  0.448292  0.567582  1
  B  B10  1  0.500000  0.051708  0.067582  1
  B  B11  1  0.500000  0.948292  0.932418  1
  B  B12  1  0.500000  0.745671  0.424181  1
  B  B13  1  0.500000  0.254329  0.575819  1
  B  B14  1  0.500000  0.245671  0.075819  1
  B  B15  1  0.500000  0.754329  0.924181  1
  B  B16  1  0.500000  0.806120  0.274611  1
  B  B17  1  0.500000  0.193880  0.725389  1
  B  B18  1  0.500000  0.306120  0.225389  1
  B  B19  1  0.500000  0.693880  0.774611  1
  B  B20  1  0.500000  0.644786  0.186713  1
  B  B21  1  0.500000  0.355214  0.813287  1
  B  B22  1  0.500000  0.144786  0.313287  1
  B  B23  1  0.500000  0.855214  0.686713  1
  B  B24  1  0.500000  0.987682  0.221331  1
  B  B25  1  0.500000  0.012318  0.778669  1
  B  B26  1  0.500000  0.487682  0.278669  1
  B  B27  1  0.500000  0.512318  0.721331  1
  B  B28  1  0.500000  0.639799  0.038759  1
  B  B29  1  0.500000  0.360201  0.961241  1
  B  B30  1  0.500000  0.139799  0.461241  1
  B  B31  1  0.500000  0.860201  0.538759  1
  W  W32  1  0.000000  0.647038  0.318760  1
  W  W33  1  0.000000  0.352962  0.681240  1
  W  W34  1  0.000000  0.147038  0.181240  1
  W  W35  1  0.000000  0.852962  0.818760  1
