# generated using pymatgen
data_Y5Tm3(SiPt)8
_symmetry_space_group_name_H-M   'P 1'
_cell_length_a   4.29521100
_cell_length_b   7.39229435
_cell_length_c   14.15768900
_cell_angle_alpha   89.98233605
_cell_angle_beta   90.00000000
_cell_angle_gamma   90.00000000
_symmetry_Int_Tables_number   1
_chemical_formula_structural   Y5Tm3(SiPt)8
_chemical_formula_sum   'Y5 Tm3 Si8 Pt8'
_cell_volume   449.52733143
_cell_formula_units_Z   1
loop_
 _symmetry_equiv_pos_site_id
 _symmetry_equiv_pos_as_xyz
  1  'x, y, z'
loop_
 _atom_site_type_symbol
 _atom_site_label
 _atom_site_symmetry_multiplicity
 _atom_site_fract_x
 _atom_site_fract_y
 _atom_site_fract_z
 _atom_site_occupancy
  Y  Y0  1  0.000000  0.201436  0.249644  1
  Y  Y1  1  0.500000  0.704730  0.999639  1
  Y  Y2  1  0.000000  0.295581  0.500514  1
  Y  Y3  1  0.500000  0.700078  0.500303  1
  Y  Y4  1  0.000000  0.300347  0.999450  1
  Tm  Tm5  1  0.500000  0.797427  0.749063  1
  Tm  Tm6  1  0.000000  0.202699  0.750830  1
  Tm  Tm7  1  0.500000  0.794629  0.250812  1
  Si  Si8  1  0.500000  0.408782  0.651543  1
  Si  Si9  1  0.000000  0.591902  0.848966  1
  Si  Si10  1  0.500000  0.409200  0.349189  1
  Si  Si11  1  0.000000  0.591216  0.149830  1
  Si  Si12  1  0.500000  0.090569  0.091964  1
  Si  Si13  1  0.000000  0.908835  0.408192  1
  Si  Si14  1  0.500000  0.090770  0.907614  1
  Si  Si15  1  0.000000  0.909832  0.592401  1
  Pt  Pt16  1  0.500000  0.077435  0.609445  1
  Pt  Pt17  1  0.000000  0.923525  0.890582  1
  Pt  Pt18  1  0.500000  0.075337  0.391977  1
  Pt  Pt19  1  0.000000  0.920855  0.108142  1
  Pt  Pt20  1  0.500000  0.420758  0.154382  1
  Pt  Pt21  1  0.000000  0.583081  0.345958  1
  Pt  Pt22  1  0.500000  0.418222  0.844016  1
  Pt  Pt23  1  0.000000  0.582751  0.655545  1
