# generated using pymatgen
data_Y16Al4CoPd3
_symmetry_space_group_name_H-M   'P 1'
_cell_length_a   9.63068104
_cell_length_b   9.63068189
_cell_length_c   9.63068140
_cell_angle_alpha   59.73227951
_cell_angle_beta   59.73227684
_cell_angle_gamma   59.73227480
_symmetry_Int_Tables_number   1
_chemical_formula_structural   Y16Al4CoPd3
_chemical_formula_sum   'Y16 Al4 Co1 Pd3'
_cell_volume   627.77995752
_cell_formula_units_Z   1
loop_
 _symmetry_equiv_pos_site_id
 _symmetry_equiv_pos_as_xyz
  1  'x, y, z'
loop_
 _atom_site_type_symbol
 _atom_site_label
 _atom_site_symmetry_multiplicity
 _atom_site_fract_x
 _atom_site_fract_y
 _atom_site_fract_z
 _atom_site_occupancy
  Y  Y0  1  0.356394  0.356394  0.356394  1
  Y  Y1  1  0.349391  0.349391  0.939247  1
  Y  Y2  1  0.349391  0.939247  0.349391  1
  Y  Y3  1  0.939247  0.349391  0.349391  1
  Y  Y4  1  0.817948  0.190655  0.190655  1
  Y  Y5  1  0.193286  0.806942  0.806942  1
  Y  Y6  1  0.190655  0.817948  0.190655  1
  Y  Y7  1  0.806942  0.193286  0.806942  1
  Y  Y8  1  0.190655  0.190655  0.817948  1
  Y  Y9  1  0.806942  0.806942  0.193286  1
  Y  Y10  1  0.934674  0.563840  0.563840  1
  Y  Y11  1  0.561725  0.935926  0.935926  1
  Y  Y12  1  0.563840  0.934674  0.563840  1
  Y  Y13  1  0.935926  0.561725  0.935926  1
  Y  Y14  1  0.563840  0.563840  0.934674  1
  Y  Y15  1  0.935926  0.935926  0.561725  1
  Al  Al16  1  0.578458  0.578458  0.578458  1
  Al  Al17  1  0.578743  0.578743  0.266286  1
  Al  Al18  1  0.578743  0.266286  0.578743  1
  Al  Al19  1  0.266286  0.578743  0.578743  1
  Co  Co20  1  0.142990  0.142990  0.142990  1
  Pd  Pd21  1  0.145427  0.145427  0.567145  1
  Pd  Pd22  1  0.145427  0.567145  0.145427  1
  Pd  Pd23  1  0.567145  0.145427  0.145427  1
