# generated using pymatgen
data_HoTm3As6Rh7
_symmetry_space_group_name_H-M   'P 1'
_cell_length_a   7.25823516
_cell_length_b   7.25823422
_cell_length_c   7.24251600
_cell_angle_alpha   109.42735833
_cell_angle_beta   109.42735573
_cell_angle_gamma   109.51504462
_symmetry_Int_Tables_number   1
_chemical_formula_structural   HoTm3As6Rh7
_chemical_formula_sum   'Ho1 Tm3 As6 Rh7'
_cell_volume   293.87620332
_cell_formula_units_Z   1
loop_
 _symmetry_equiv_pos_site_id
 _symmetry_equiv_pos_as_xyz
  1  'x, y, z'
loop_
 _atom_site_type_symbol
 _atom_site_label
 _atom_site_symmetry_multiplicity
 _atom_site_fract_x
 _atom_site_fract_y
 _atom_site_fract_z
 _atom_site_occupancy
  Ho  Ho0  1  0.000000  0.000000  0.500000  1
  Tm  Tm1  1  0.500000  0.500000  0.500000  1
  Tm  Tm2  1  0.000000  0.500000  0.000000  1
  Tm  Tm3  1  0.500000  0.000000  0.000000  1
  As  As4  1  0.682437  0.000000  0.683403  1
  As  As5  1  0.682437  0.682437  0.999034  1
  As  As6  1  0.317563  0.317563  0.000966  1
  As  As7  1  0.000000  0.682437  0.683403  1
  As  As8  1  0.000000  0.317563  0.316597  1
  As  As9  1  0.317563  0.000000  0.316597  1
  Rh  Rh10  1  0.498435  0.749218  0.249218  1
  Rh  Rh11  1  0.749218  0.250782  0.500000  1
  Rh  Rh12  1  0.250782  0.749218  0.500000  1
  Rh  Rh13  1  0.250782  0.501565  0.750782  1
  Rh  Rh14  1  0.000000  0.000000  0.000000  1
  Rh  Rh15  1  0.501565  0.250782  0.750782  1
  Rh  Rh16  1  0.749218  0.498435  0.249218  1
