# generated using pymatgen
data_Pa2Si5Ru3
_symmetry_space_group_name_H-M   'P 1'
_cell_length_a   8.13202321
_cell_length_b   8.13202280
_cell_length_c   5.74102647
_cell_angle_alpha   70.33186494
_cell_angle_beta   70.33186986
_cell_angle_gamma   92.96820583
_symmetry_Int_Tables_number   1
_chemical_formula_structural   Pa2Si5Ru3
_chemical_formula_sum   'Pa4 Si10 Ru6'
_cell_volume   330.76160794
_cell_formula_units_Z   2
loop_
 _symmetry_equiv_pos_site_id
 _symmetry_equiv_pos_as_xyz
  1  'x, y, z'
loop_
 _atom_site_type_symbol
 _atom_site_label
 _atom_site_symmetry_multiplicity
 _atom_site_fract_x
 _atom_site_fract_y
 _atom_site_fract_z
 _atom_site_occupancy
  Pa  Pa0  1  0.870192  0.594875  0.764278  1
  Pa  Pa1  1  0.405125  0.129808  0.735722  1
  Pa  Pa2  1  0.129808  0.405125  0.235722  1
  Pa  Pa3  1  0.594875  0.870192  0.264278  1
  Si  Si4  1  0.061050  0.263135  0.837966  1
  Si  Si5  1  0.736865  0.938950  0.662034  1
  Si  Si6  1  0.938950  0.736865  0.162034  1
  Si  Si7  1  0.263135  0.061050  0.337966  1
  Si  Si8  1  0.206174  0.793826  0.750000  1
  Si  Si9  1  0.793826  0.206174  0.250000  1
  Si  Si10  1  0.513891  0.486109  0.750000  1
  Si  Si11  1  0.486109  0.513891  0.250000  1
  Si  Si12  1  0.778510  0.221490  0.750000  1
  Si  Si13  1  0.221490  0.778510  0.250000  1
  Ru  Ru14  1  0.255410  0.542148  0.633059  1
  Ru  Ru15  1  0.457852  0.744590  0.866941  1
  Ru  Ru16  1  0.744590  0.457852  0.366941  1
  Ru  Ru17  1  0.542148  0.255410  0.133059  1
  Ru  Ru18  1  0.999268  0.000732  0.750000  1
  Ru  Ru19  1  0.000732  0.999268  0.250000  1
