# generated using pymatgen
data_RbTc6S7
_symmetry_space_group_name_H-M   'P 1'
_cell_length_a   9.52281226
_cell_length_b   9.52281177
_cell_length_c   9.52281254
_cell_angle_alpha   59.66912137
_cell_angle_beta   59.66912057
_cell_angle_gamma   59.66912166
_symmetry_Int_Tables_number   1
_chemical_formula_structural   RbTc6S7
_chemical_formula_sum   'Rb2 Tc12 S14'
_cell_volume   606.04322816
_cell_formula_units_Z   2
loop_
 _symmetry_equiv_pos_site_id
 _symmetry_equiv_pos_as_xyz
  1  'x, y, z'
loop_
 _atom_site_type_symbol
 _atom_site_label
 _atom_site_symmetry_multiplicity
 _atom_site_fract_x
 _atom_site_fract_y
 _atom_site_fract_z
 _atom_site_occupancy
  Rb  Rb0  1  0.130453  0.130453  0.130453  1
  Rb  Rb1  1  0.869547  0.869547  0.869547  1
  Tc  Tc2  1  0.620906  0.299943  0.437129  1
  Tc  Tc3  1  0.299943  0.437129  0.620906  1
  Tc  Tc4  1  0.437129  0.620906  0.299943  1
  Tc  Tc5  1  0.379094  0.700057  0.562871  1
  Tc  Tc6  1  0.700057  0.562871  0.379094  1
  Tc  Tc7  1  0.562871  0.379094  0.700057  1
  Tc  Tc8  1  0.373641  0.187024  0.509974  1
  Tc  Tc9  1  0.187024  0.509974  0.373641  1
  Tc  Tc10  1  0.509974  0.373641  0.187024  1
  Tc  Tc11  1  0.626359  0.812976  0.490026  1
  Tc  Tc12  1  0.812976  0.490026  0.626359  1
  Tc  Tc13  1  0.490026  0.626359  0.812976  1
  S  S14  1  0.668629  0.321088  0.911004  1
  S  S15  1  0.088996  0.331371  0.678912  1
  S  S16  1  0.282323  0.282323  0.282323  1
  S  S17  1  0.717677  0.717677  0.717677  1
  S  S18  1  0.851941  0.264769  0.514858  1
  S  S19  1  0.264769  0.514858  0.851941  1
  S  S20  1  0.514858  0.851941  0.264769  1
  S  S21  1  0.148059  0.735231  0.485142  1
  S  S22  1  0.735231  0.485142  0.148059  1
  S  S23  1  0.485142  0.148059  0.735231  1
  S  S24  1  0.331371  0.678912  0.088996  1
  S  S25  1  0.678912  0.088996  0.331371  1
  S  S26  1  0.911004  0.668629  0.321088  1
  S  S27  1  0.321088  0.911004  0.668629  1
