# generated using pymatgen
data_LaYb11Pr4(MgRu)4
_symmetry_space_group_name_H-M   'P 1'
_cell_length_a   10.06668372
_cell_length_b   9.98635538
_cell_length_c   9.98481400
_cell_angle_alpha   60.00509904
_cell_angle_beta   60.26865963
_cell_angle_gamma   59.89487860
_symmetry_Int_Tables_number   1
_chemical_formula_structural   LaYb11Pr4(MgRu)4
_chemical_formula_sum   'La1 Yb11 Pr4 Mg4 Ru4'
_cell_volume   710.65957857
_cell_formula_units_Z   1
loop_
 _symmetry_equiv_pos_site_id
 _symmetry_equiv_pos_as_xyz
  1  'x, y, z'
loop_
 _atom_site_type_symbol
 _atom_site_label
 _atom_site_symmetry_multiplicity
 _atom_site_fract_x
 _atom_site_fract_y
 _atom_site_fract_z
 _atom_site_occupancy
  La  La0  1  0.197070  0.176022  0.813455  1
  Yb  Yb1  1  0.046202  0.453046  0.450444  1
  Yb  Yb2  1  0.189668  0.808892  0.190480  1
  Yb  Yb3  1  0.658849  0.660519  0.659376  1
  Yb  Yb4  1  0.451558  0.448627  0.049907  1
  Yb  Yb5  1  0.046202  0.453046  0.050308  1
  Yb  Yb6  1  0.452709  0.047734  0.048854  1
  Yb  Yb7  1  0.048969  0.051046  0.449993  1
  Yb  Yb8  1  0.658849  0.660519  0.021255  1
  Yb  Yb9  1  0.659308  0.020968  0.659862  1
  Yb  Yb10  1  0.189668  0.808892  0.810960  1
  Yb  Yb11  1  0.452709  0.047734  0.450702  1
  Pr  Pr12  1  0.027205  0.659095  0.656850  1
  Pr  Pr13  1  0.802648  0.813557  0.191898  1
  Pr  Pr14  1  0.804881  0.189983  0.193955  1
  Pr  Pr15  1  0.804881  0.189983  0.811182  1
  Mg  Mg16  1  0.422147  0.422431  0.422219  1
  Mg  Mg17  1  0.422924  0.733456  0.421811  1
  Mg  Mg18  1  0.733266  0.422496  0.422120  1
  Mg  Mg19  1  0.422147  0.422431  0.733204  1
  Ru  Ru20  1  0.867229  0.861084  0.868575  1
  Ru  Ru21  1  0.391972  0.892585  0.857721  1
  Ru  Ru22  1  0.881711  0.394771  0.861758  1
  Ru  Ru23  1  0.867229  0.861084  0.403112  1
