# generated using pymatgen
data_Hf16Nb3TcNi4
_symmetry_space_group_name_H-M   'P 1'
_cell_length_a   8.73952517
_cell_length_b   8.73952440
_cell_length_c   8.73952538
_cell_angle_alpha   60.16139819
_cell_angle_beta   60.16140030
_cell_angle_gamma   60.16140205
_symmetry_Int_Tables_number   1
_chemical_formula_structural   Hf16Nb3TcNi4
_chemical_formula_sum   'Hf16 Nb3 Tc1 Ni4'
_cell_volume   473.73252209
_cell_formula_units_Z   1
loop_
 _symmetry_equiv_pos_site_id
 _symmetry_equiv_pos_as_xyz
  1  'x, y, z'
loop_
 _atom_site_type_symbol
 _atom_site_label
 _atom_site_symmetry_multiplicity
 _atom_site_fract_x
 _atom_site_fract_y
 _atom_site_fract_z
 _atom_site_occupancy
  Hf  Hf0  1  0.695711  0.101870  0.101870  1
  Hf  Hf1  1  0.101870  0.695711  0.101870  1
  Hf  Hf2  1  0.101870  0.101870  0.695711  1
  Hf  Hf3  1  0.101087  0.101087  0.101087  1
  Hf  Hf4  1  0.314584  0.314584  0.681128  1
  Hf  Hf5  1  0.684850  0.684850  0.315246  1
  Hf  Hf6  1  0.314584  0.681128  0.314584  1
  Hf  Hf7  1  0.684850  0.315246  0.684850  1
  Hf  Hf8  1  0.681128  0.314584  0.314584  1
  Hf  Hf9  1  0.315246  0.684850  0.684850  1
  Hf  Hf10  1  0.949070  0.949070  0.550611  1
  Hf  Hf11  1  0.550582  0.550582  0.950409  1
  Hf  Hf12  1  0.949070  0.550611  0.949070  1
  Hf  Hf13  1  0.550582  0.950409  0.550582  1
  Hf  Hf14  1  0.550611  0.949070  0.949070  1
  Hf  Hf15  1  0.950409  0.550582  0.550582  1
  Nb  Nb16  1  0.000135  0.334369  0.334369  1
  Nb  Nb17  1  0.334369  0.000135  0.334369  1
  Nb  Nb18  1  0.334369  0.334369  0.000135  1
  Tc  Tc19  1  0.336358  0.336358  0.336358  1
  Ni  Ni20  1  0.324246  0.891209  0.891209  1
  Ni  Ni21  1  0.891209  0.324246  0.891209  1
  Ni  Ni22  1  0.891209  0.891209  0.324246  1
  Ni  Ni23  1  0.891998  0.891998  0.891998  1
