# generated using pymatgen
data_Eu16Mg3CdNi4
_symmetry_space_group_name_H-M   'P 1'
_cell_length_a   10.19233154
_cell_length_b   10.21535440
_cell_length_c   10.21535500
_cell_angle_alpha   60.00000131
_cell_angle_beta   59.92525127
_cell_angle_gamma   59.92524656
_symmetry_Int_Tables_number   1
_chemical_formula_structural   Eu16Mg3CdNi4
_chemical_formula_sum   'Eu16 Mg3 Cd1 Ni4'
_cell_volume   751.23157357
_cell_formula_units_Z   1
loop_
 _symmetry_equiv_pos_site_id
 _symmetry_equiv_pos_as_xyz
  1  'x, y, z'
loop_
 _atom_site_type_symbol
 _atom_site_label
 _atom_site_symmetry_multiplicity
 _atom_site_fract_x
 _atom_site_fract_y
 _atom_site_fract_z
 _atom_site_occupancy
  Eu  Eu0  1  0.593856  0.594893  0.594893  1
  Eu  Eu1  1  0.593856  0.594893  0.216359  1
  Eu  Eu2  1  0.593856  0.216359  0.594893  1
  Eu  Eu3  1  0.217916  0.594028  0.594028  1
  Eu  Eu4  1  0.060678  0.439476  0.439476  1
  Eu  Eu5  1  0.440053  0.059358  0.059358  1
  Eu  Eu6  1  0.440053  0.059358  0.441232  1
  Eu  Eu7  1  0.060678  0.439476  0.060370  1
  Eu  Eu8  1  0.440053  0.441232  0.059358  1
  Eu  Eu9  1  0.060678  0.060370  0.439476  1
  Eu  Eu10  1  0.194013  0.808859  0.808859  1
  Eu  Eu11  1  0.808885  0.191084  0.191084  1
  Eu  Eu12  1  0.808885  0.191084  0.808947  1
  Eu  Eu13  1  0.194013  0.808859  0.188269  1
  Eu  Eu14  1  0.808885  0.808947  0.191084  1
  Eu  Eu15  1  0.194013  0.188269  0.808859  1
  Mg  Mg16  1  0.824607  0.826537  0.826537  1
  Mg  Mg17  1  0.824607  0.826537  0.522320  1
  Mg  Mg18  1  0.824607  0.522320  0.826537  1
  Cd  Cd19  1  0.515467  0.828178  0.828178  1
  Ni  Ni20  1  0.390631  0.390622  0.390622  1
  Ni  Ni21  1  0.390631  0.390622  0.828127  1
  Ni  Ni22  1  0.390631  0.828127  0.390622  1
  Ni  Ni23  1  0.828454  0.390516  0.390516  1
