# generated using pymatgen
data_LiAl4CuNi
_symmetry_space_group_name_H-M   'P 1'
_cell_length_a   4.00957700
_cell_length_b   4.00957700
_cell_length_c   6.03882100
_cell_angle_alpha   90.00000000
_cell_angle_beta   90.00000000
_cell_angle_gamma   90.00000000
_symmetry_Int_Tables_number   1
_chemical_formula_structural   LiAl4CuNi
_chemical_formula_sum   'Li1 Al4 Cu1 Ni1'
_cell_volume   97.08436018
_cell_formula_units_Z   1
loop_
 _symmetry_equiv_pos_site_id
 _symmetry_equiv_pos_as_xyz
  1  'x, y, z'
loop_
 _atom_site_type_symbol
 _atom_site_label
 _atom_site_symmetry_multiplicity
 _atom_site_fract_x
 _atom_site_fract_y
 _atom_site_fract_z
 _atom_site_occupancy
  Li  Li0  1  0.000000  0.000000  0.000000  1
  Al  Al1  1  0.000000  0.500000  0.275437  1
  Al  Al2  1  0.000000  0.500000  0.724563  1
  Al  Al3  1  0.500000  0.000000  0.275437  1
  Al  Al4  1  0.500000  0.000000  0.724563  1
  Cu  Cu5  1  0.500000  0.500000  0.000000  1
  Ni  Ni6  1  0.000000  0.000000  0.500000  1
