# generated using pymatgen
data_Lu4ScIr2Rh
_symmetry_space_group_name_H-M   'P 1'
_cell_length_a   10.54325300
_cell_length_b   10.54325300
_cell_length_c   6.14280900
_cell_angle_alpha   90.00000000
_cell_angle_beta   90.00000000
_cell_angle_gamma   90.00000000
_symmetry_Int_Tables_number   1
_chemical_formula_structural   Lu4ScIr2Rh
_chemical_formula_sum   'Lu16 Sc4 Ir8 Rh4'
_cell_volume   682.83577762
_cell_formula_units_Z   4
loop_
 _symmetry_equiv_pos_site_id
 _symmetry_equiv_pos_as_xyz
  1  'x, y, z'
loop_
 _atom_site_type_symbol
 _atom_site_label
 _atom_site_symmetry_multiplicity
 _atom_site_fract_x
 _atom_site_fract_y
 _atom_site_fract_z
 _atom_site_occupancy
  Lu  Lu0  1  0.288145  0.086477  0.377054  1
  Lu  Lu1  1  0.288145  0.913523  0.877054  1
  Lu  Lu2  1  0.711855  0.086477  0.877054  1
  Lu  Lu3  1  0.711855  0.913523  0.377054  1
  Lu  Lu4  1  0.586477  0.788145  0.877054  1
  Lu  Lu5  1  0.586477  0.211855  0.377054  1
  Lu  Lu6  1  0.413523  0.788145  0.377054  1
  Lu  Lu7  1  0.413523  0.211855  0.877054  1
  Lu  Lu8  1  0.211855  0.413523  0.622946  1
  Lu  Lu9  1  0.211855  0.586477  0.122946  1
  Lu  Lu10  1  0.788145  0.413523  0.122946  1
  Lu  Lu11  1  0.788145  0.586477  0.622946  1
  Lu  Lu12  1  0.913523  0.711855  0.122946  1
  Lu  Lu13  1  0.913523  0.288145  0.622946  1
  Lu  Lu14  1  0.086477  0.711855  0.622946  1
  Lu  Lu15  1  0.086477  0.288145  0.122946  1
  Sc  Sc16  1  0.000000  0.000000  0.500000  1
  Sc  Sc17  1  0.000000  0.000000  0.000000  1
  Sc  Sc18  1  0.500000  0.500000  0.000000  1
  Sc  Sc19  1  0.500000  0.500000  0.500000  1
  Ir  Ir20  1  0.849570  0.150430  0.250000  1
  Ir  Ir21  1  0.849570  0.849570  0.750000  1
  Ir  Ir22  1  0.150430  0.150430  0.750000  1
  Ir  Ir23  1  0.150430  0.849570  0.250000  1
  Ir  Ir24  1  0.650430  0.349570  0.750000  1
  Ir  Ir25  1  0.650430  0.650430  0.250000  1
  Ir  Ir26  1  0.349570  0.349570  0.250000  1
  Ir  Ir27  1  0.349570  0.650430  0.750000  1
  Rh  Rh28  1  0.500000  0.000000  0.125419  1
  Rh  Rh29  1  0.500000  0.000000  0.625419  1
  Rh  Rh30  1  0.000000  0.500000  0.874581  1
  Rh  Rh31  1  0.000000  0.500000  0.374581  1
