# generated using pymatgen
data_Tb8Zr5Sc7Ga16
_symmetry_space_group_name_H-M   'P 1'
_cell_length_a   7.25949929
_cell_length_b   7.59270804
_cell_length_c   14.49983249
_cell_angle_alpha   89.99909948
_cell_angle_beta   89.97026890
_cell_angle_gamma   89.98759819
_symmetry_Int_Tables_number   1
_chemical_formula_structural   Tb8Zr5Sc7Ga16
_chemical_formula_sum   'Tb8 Zr5 Sc7 Ga16'
_cell_volume   799.21989069
_cell_formula_units_Z   1
loop_
 _symmetry_equiv_pos_site_id
 _symmetry_equiv_pos_as_xyz
  1  'x, y, z'
loop_
 _atom_site_type_symbol
 _atom_site_label
 _atom_site_symmetry_multiplicity
 _atom_site_fract_x
 _atom_site_fract_y
 _atom_site_fract_z
 _atom_site_occupancy
  Tb  Tb0  1  0.010976  0.177384  0.093610  1
  Tb  Tb1  1  0.989243  0.822366  0.906528  1
  Tb  Tb2  1  0.488853  0.677047  0.906052  1
  Tb  Tb3  1  0.989237  0.824559  0.594181  1
  Tb  Tb4  1  0.509900  0.323331  0.093981  1
  Tb  Tb5  1  0.010858  0.175502  0.406286  1
  Tb  Tb6  1  0.510508  0.324732  0.405870  1
  Tb  Tb7  1  0.489566  0.675518  0.594377  1
  Zr  Zr8  1  0.328808  0.176139  0.623737  1
  Zr  Zr9  1  0.671341  0.824149  0.376659  1
  Zr  Zr10  1  0.171320  0.675508  0.376852  1
  Zr  Zr11  1  0.670736  0.826959  0.123151  1
  Zr  Zr12  1  0.829020  0.323585  0.623885  1
  Sc  Sc13  1  0.161562  0.504542  0.751007  1
  Sc  Sc14  1  0.838869  0.495442  0.249392  1
  Sc  Sc15  1  0.338188  0.003940  0.249358  1
  Sc  Sc16  1  0.661832  0.995733  0.750998  1
  Sc  Sc17  1  0.328325  0.172667  0.876602  1
  Sc  Sc18  1  0.828582  0.327946  0.876701  1
  Sc  Sc19  1  0.172008  0.673329  0.122236  1
  Ga  Ga20  1  0.030763  0.118609  0.748336  1
  Ga  Ga21  1  0.968189  0.880304  0.250713  1
  Ga  Ga22  1  0.469159  0.619946  0.250989  1
  Ga  Ga23  1  0.530869  0.381668  0.748274  1
  Ga  Ga24  1  0.284486  0.875350  0.748309  1
  Ga  Ga25  1  0.715404  0.123986  0.250744  1
  Ga  Ga26  1  0.215450  0.374467  0.251670  1
  Ga  Ga27  1  0.784519  0.625335  0.748515  1
  Ga  Ga28  1  0.160361  0.462162  0.540180  1
  Ga  Ga29  1  0.839417  0.538382  0.459879  1
  Ga  Ga30  1  0.339857  0.961881  0.459854  1
  Ga  Ga31  1  0.838645  0.537331  0.041449  1
  Ga  Ga32  1  0.660541  0.038340  0.539915  1
  Ga  Ga33  1  0.160502  0.463831  0.958704  1
  Ga  Ga34  1  0.661005  0.034912  0.959517  1
  Ga  Ga35  1  0.341101  0.963114  0.041488  1
