# generated using pymatgen
data_Ta6MnAl4CrC2
_symmetry_space_group_name_H-M   'P 1'
_cell_length_a   8.26612742
_cell_length_b   8.26612807
_cell_length_c   8.26309900
_cell_angle_alpha   60.01211713
_cell_angle_beta   60.01211451
_cell_angle_gamma   60.02053480
_symmetry_Int_Tables_number   1
_chemical_formula_structural   Ta6MnAl4CrC2
_chemical_formula_sum   'Ta12 Mn2 Al8 Cr2 C4'
_cell_volume   399.37333976
_cell_formula_units_Z   2
loop_
 _symmetry_equiv_pos_site_id
 _symmetry_equiv_pos_as_xyz
  1  'x, y, z'
loop_
 _atom_site_type_symbol
 _atom_site_label
 _atom_site_symmetry_multiplicity
 _atom_site_fract_x
 _atom_site_fract_y
 _atom_site_fract_z
 _atom_site_occupancy
  Ta  Ta0  1  0.555266  0.944022  0.556615  1
  Ta  Ta1  1  0.305978  0.694734  0.693385  1
  Ta  Ta2  1  0.694734  0.305978  0.305903  1
  Ta  Ta3  1  0.305978  0.694734  0.305903  1
  Ta  Ta4  1  0.693602  0.693602  0.306398  1
  Ta  Ta5  1  0.305837  0.305837  0.694163  1
  Ta  Ta6  1  0.556398  0.556398  0.943602  1
  Ta  Ta7  1  0.944022  0.555266  0.556615  1
  Ta  Ta8  1  0.555266  0.944022  0.944097  1
  Ta  Ta9  1  0.944163  0.944163  0.555837  1
  Ta  Ta10  1  0.694734  0.305978  0.693385  1
  Ta  Ta11  1  0.944022  0.555266  0.944097  1
  Mn  Mn12  1  0.625000  0.125000  0.125000  1
  Mn  Mn13  1  0.125000  0.625000  0.125000  1
  Al  Al14  1  0.915515  0.915515  0.917974  1
  Al  Al15  1  0.998513  0.335300  0.333093  1
  Al  Al16  1  0.335300  0.998513  0.333093  1
  Al  Al17  1  0.334485  0.334485  0.999002  1
  Al  Al18  1  0.914700  0.251487  0.916907  1
  Al  Al19  1  0.915515  0.915515  0.250998  1
  Al  Al20  1  0.251487  0.914700  0.916907  1
  Al  Al21  1  0.334485  0.334485  0.332026  1
  Cr  Cr22  1  0.125000  0.125000  0.125000  1
  Cr  Cr23  1  0.125000  0.125000  0.625000  1
  C  C24  1  0.625000  0.625000  0.625000  1
  C  C25  1  0.125000  0.625000  0.625000  1
  C  C26  1  0.625000  0.125000  0.625000  1
  C  C27  1  0.625000  0.625000  0.125000  1
