# generated using pymatgen
data_Dy5Y15Ir11Os
_symmetry_space_group_name_H-M   'P 1'
_cell_length_a   10.90937413
_cell_length_b   10.90933836
_cell_length_c   6.41459915
_cell_angle_alpha   90.02434009
_cell_angle_beta   90.00631125
_cell_angle_gamma   89.98322449
_symmetry_Int_Tables_number   1
_chemical_formula_structural   Dy5Y15Ir11Os
_chemical_formula_sum   'Dy5 Y15 Ir11 Os1'
_cell_volume   763.42734232
_cell_formula_units_Z   1
loop_
 _symmetry_equiv_pos_site_id
 _symmetry_equiv_pos_as_xyz
  1  'x, y, z'
loop_
 _atom_site_type_symbol
 _atom_site_label
 _atom_site_symmetry_multiplicity
 _atom_site_fract_x
 _atom_site_fract_y
 _atom_site_fract_z
 _atom_site_occupancy
  Dy  Dy0  1  0.088084  0.291486  0.120734  1
  Dy  Dy1  1  0.000020  0.999993  0.499338  1
  Dy  Dy2  1  0.000017  0.000035  0.999218  1
  Dy  Dy3  1  0.500014  0.500043  0.999184  1
  Dy  Dy4  1  0.499977  0.499974  0.499281  1
  Y  Y5  1  0.292419  0.087335  0.376728  1
  Y  Y6  1  0.293112  0.912745  0.880414  1
  Y  Y7  1  0.706865  0.087222  0.880434  1
  Y  Y8  1  0.707450  0.912725  0.376582  1
  Y  Y9  1  0.587235  0.793128  0.880422  1
  Y  Y10  1  0.587293  0.207451  0.376587  1
  Y  Y11  1  0.412714  0.792567  0.376647  1
  Y  Y12  1  0.412760  0.206900  0.880356  1
  Y  Y13  1  0.208978  0.411558  0.621588  1
  Y  Y14  1  0.208920  0.588151  0.121129  1
  Y  Y15  1  0.791140  0.411841  0.121057  1
  Y  Y16  1  0.791110  0.588431  0.621512  1
  Y  Y17  1  0.911818  0.708946  0.121123  1
  Y  Y18  1  0.911581  0.291027  0.621631  1
  Y  Y19  1  0.088351  0.708898  0.621459  1
  Ir  Ir20  1  0.848616  0.153355  0.250095  1
  Ir  Ir21  1  0.848290  0.847218  0.749769  1
  Ir  Ir22  1  0.151611  0.153137  0.750624  1
  Ir  Ir23  1  0.151696  0.846873  0.250213  1
  Ir  Ir24  1  0.652845  0.348270  0.749839  1
  Ir  Ir25  1  0.653153  0.651649  0.250230  1
  Ir  Ir26  1  0.346390  0.348265  0.249945  1
  Ir  Ir27  1  0.347168  0.651709  0.749818  1
  Ir  Ir28  1  0.499996  0.999985  0.624614  1
  Ir  Ir29  1  0.000230  0.499524  0.876872  1
  Ir  Ir30  1  0.000171  0.499566  0.376120  1
  Os  Os31  1  0.499975  0.999995  0.126433  1
