# generated using pymatgen
data_LuCuTeO6
_symmetry_space_group_name_H-M   'P 1'
_cell_length_a   5.11669800
_cell_length_b   5.11643151
_cell_length_c   9.62642400
_cell_angle_alpha   90.00375520
_cell_angle_beta   89.99812994
_cell_angle_gamma   119.99824522
_symmetry_Int_Tables_number   1
_chemical_formula_structural   LuCuTeO6
_chemical_formula_sum   'Lu2 Cu2 Te2 O12'
_cell_volume   218.25301211
_cell_formula_units_Z   2
loop_
 _symmetry_equiv_pos_site_id
 _symmetry_equiv_pos_as_xyz
  1  'x, y, z'
loop_
 _atom_site_type_symbol
 _atom_site_label
 _atom_site_symmetry_multiplicity
 _atom_site_fract_x
 _atom_site_fract_y
 _atom_site_fract_z
 _atom_site_occupancy
  Lu  Lu0  1  0.000000  0.000000  0.000000  1
  Lu  Lu1  1  0.000000  0.000000  0.500000  1
  Cu  Cu2  1  0.333230  0.666616  0.250000  1
  Cu  Cu3  1  0.666770  0.333384  0.750000  1
  Te  Te4  1  0.333444  0.666721  0.750000  1
  Te  Te5  1  0.666556  0.333279  0.250000  1
  O  O6  1  0.361189  0.350951  0.136528  1
  O  O7  1  0.648923  0.010209  0.136514  1
  O  O8  1  0.989624  0.638671  0.136515  1
  O  O9  1  0.638811  0.649049  0.863472  1
  O  O10  1  0.351077  0.989791  0.863486  1
  O  O11  1  0.010376  0.361329  0.863485  1
  O  O12  1  0.648923  0.638712  0.363486  1
  O  O13  1  0.361189  0.010237  0.363472  1
  O  O14  1  0.989624  0.350955  0.363485  1
  O  O15  1  0.351077  0.361288  0.636514  1
  O  O16  1  0.638811  0.989763  0.636528  1
  O  O17  1  0.010376  0.649045  0.636515  1
