# generated using pymatgen
data_Ti8HgO7
_symmetry_space_group_name_H-M   'P 1'
_cell_length_a   9.27597789
_cell_length_b   9.27597627
_cell_length_c   2.99147700
_cell_angle_alpha   90.00000000
_cell_angle_beta   90.00000000
_cell_angle_gamma   129.51468763
_symmetry_Int_Tables_number   1
_chemical_formula_structural   Ti8HgO7
_chemical_formula_sum   'Ti8 Hg1 O7'
_cell_volume   198.57257140
_cell_formula_units_Z   1
loop_
 _symmetry_equiv_pos_site_id
 _symmetry_equiv_pos_as_xyz
  1  'x, y, z'
loop_
 _atom_site_type_symbol
 _atom_site_label
 _atom_site_symmetry_multiplicity
 _atom_site_fract_x
 _atom_site_fract_y
 _atom_site_fract_z
 _atom_site_occupancy
  Ti  Ti0  1  0.487119  0.147950  0.500000  1
  Ti  Ti1  1  0.512881  0.852050  0.500000  1
  Ti  Ti2  1  0.147950  0.487119  0.500000  1
  Ti  Ti3  1  0.852050  0.512881  0.500000  1
  Ti  Ti4  1  0.178113  0.178113  0.000000  1
  Ti  Ti5  1  0.821887  0.821887  0.000000  1
  Ti  Ti6  1  0.203383  0.796617  0.000000  1
  Ti  Ti7  1  0.796617  0.203383  0.000000  1
  Hg  Hg8  1  0.500000  0.500000  0.500000  1
  O  O9  1  0.295353  0.055531  0.000000  1
  O  O10  1  0.704647  0.944469  0.000000  1
  O  O11  1  0.055531  0.295353  0.000000  1
  O  O12  1  0.944469  0.704647  0.000000  1
  O  O13  1  0.323488  0.676512  0.000000  1
  O  O14  1  0.676512  0.323488  0.000000  1
  O  O15  1  0.000000  0.000000  0.500000  1
