# generated using pymatgen
data_Li6Zr11ScOs6
_symmetry_space_group_name_H-M   'P 1'
_cell_length_a   4.60613700
_cell_length_b   6.61367500
_cell_length_c   14.20691700
_cell_angle_alpha   90.00114445
_cell_angle_beta   89.99957076
_cell_angle_gamma   89.99976677
_symmetry_Int_Tables_number   1
_chemical_formula_structural   Li6Zr11ScOs6
_chemical_formula_sum   'Li6 Zr11 Sc1 Os6'
_cell_volume   432.79231828
_cell_formula_units_Z   1
loop_
 _symmetry_equiv_pos_site_id
 _symmetry_equiv_pos_as_xyz
  1  'x, y, z'
loop_
 _atom_site_type_symbol
 _atom_site_label
 _atom_site_symmetry_multiplicity
 _atom_site_fract_x
 _atom_site_fract_y
 _atom_site_fract_z
 _atom_site_occupancy
  Li  Li0  1  0.999994  0.501045  0.999210  1
  Li  Li1  1  0.499867  0.999611  0.166309  1
  Li  Li2  1  0.999892  0.500553  0.333329  1
  Li  Li3  1  0.499992  0.999603  0.500390  1
  Li  Li4  1  0.000119  0.501035  0.667457  1
  Li  Li5  1  0.500101  0.998277  0.833307  1
  Zr  Zr6  1  0.500000  0.248789  0.999517  1
  Zr  Zr7  1  0.500003  0.752178  0.998195  1
  Zr  Zr8  1  0.999863  0.252748  0.166977  1
  Zr  Zr9  1  0.999857  0.749096  0.165835  1
  Zr  Zr10  1  0.499867  0.247812  0.333329  1
  Zr  Zr11  1  0.499854  0.751492  0.333325  1
  Zr  Zr12  1  0.000000  0.252745  0.499680  1
  Zr  Zr13  1  0.000004  0.749089  0.500823  1
  Zr  Zr14  1  0.500137  0.248802  0.667161  1
  Zr  Zr15  1  0.500152  0.752163  0.668477  1
  Zr  Zr16  1  0.000133  0.250518  0.833347  1
  Sc  Sc17  1  0.000190  0.746906  0.833320  1
  Os  Os18  1  0.999989  0.002532  0.002154  1
  Os  Os19  1  0.499809  0.500806  0.166504  1
  Os  Os20  1  0.999810  0.999152  0.333338  1
  Os  Os21  1  0.500001  0.500802  0.500167  1
  Os  Os22  1  0.000185  0.002537  0.664518  1
  Os  Os23  1  0.500184  0.491711  0.833331  1
