# generated using pymatgen
data_Th2Sc3P7Pd9
_symmetry_space_group_name_H-M   'P 1'
_cell_length_a   9.95454100
_cell_length_b   9.95454041
_cell_length_c   4.03379100
_cell_angle_alpha   90.00000000
_cell_angle_beta   90.00000000
_cell_angle_gamma   119.99999863
_symmetry_Int_Tables_number   1
_chemical_formula_structural   Th2Sc3P7Pd9
_chemical_formula_sum   'Th2 Sc3 P7 Pd9'
_cell_volume   346.16765342
_cell_formula_units_Z   1
loop_
 _symmetry_equiv_pos_site_id
 _symmetry_equiv_pos_as_xyz
  1  'x, y, z'
loop_
 _atom_site_type_symbol
 _atom_site_label
 _atom_site_symmetry_multiplicity
 _atom_site_fract_x
 _atom_site_fract_y
 _atom_site_fract_z
 _atom_site_occupancy
  Th  Th0  1  0.333333  0.666667  0.000000  1
  Th  Th1  1  0.000000  0.000000  0.500000  1
  Sc  Sc2  1  0.789116  0.230142  0.500000  1
  Sc  Sc3  1  0.769858  0.558974  0.500000  1
  Sc  Sc4  1  0.441026  0.210884  0.500000  1
  P  P5  1  0.779075  0.030328  0.000000  1
  P  P6  1  0.969672  0.748746  0.000000  1
  P  P7  1  0.251254  0.220925  0.000000  1
  P  P8  1  0.382332  0.921982  0.500000  1
  P  P9  1  0.078018  0.460350  0.500000  1
  P  P10  1  0.539650  0.617668  0.500000  1
  P  P11  1  0.666667  0.333333  0.000000  1
  Pd  Pd12  1  0.029274  0.260724  0.000000  1
  Pd  Pd13  1  0.739276  0.768549  0.000000  1
  Pd  Pd14  1  0.231451  0.970726  0.000000  1
  Pd  Pd15  1  0.541687  0.052825  0.000000  1
  Pd  Pd16  1  0.947175  0.488863  0.000000  1
  Pd  Pd17  1  0.511137  0.458313  0.000000  1
  Pd  Pd18  1  0.617443  0.890467  0.500000  1
  Pd  Pd19  1  0.109533  0.726974  0.500000  1
  Pd  Pd20  1  0.273026  0.382557  0.500000  1
