# generated using pymatgen
data_Tb16In6FePd
_symmetry_space_group_name_H-M   'P 1'
_cell_length_a   10.48452000
_cell_length_b   10.48443577
_cell_length_c   7.05754401
_cell_angle_alpha   89.99999022
_cell_angle_beta   90.00028494
_cell_angle_gamma   119.99973458
_symmetry_Int_Tables_number   1
_chemical_formula_structural   Tb16In6FePd
_chemical_formula_sum   'Tb16 In6 Fe1 Pd1'
_cell_volume   671.86033775
_cell_formula_units_Z   1
loop_
 _symmetry_equiv_pos_site_id
 _symmetry_equiv_pos_as_xyz
  1  'x, y, z'
loop_
 _atom_site_type_symbol
 _atom_site_label
 _atom_site_symmetry_multiplicity
 _atom_site_fract_x
 _atom_site_fract_y
 _atom_site_fract_z
 _atom_site_occupancy
  Tb  Tb0  1  0.825623  0.651246  0.492807  1
  Tb  Tb1  1  0.348753  0.174376  0.492810  1
  Tb  Tb2  1  0.825619  0.174378  0.492791  1
  Tb  Tb3  1  0.177352  0.354701  0.997598  1
  Tb  Tb4  1  0.645289  0.822645  0.997597  1
  Tb  Tb5  1  0.177352  0.822655  0.997588  1
  Tb  Tb6  1  0.666676  0.333337  0.162541  1
  Tb  Tb7  1  0.333331  0.666662  0.677626  1
  Tb  Tb8  1  0.529400  0.058789  0.790208  1
  Tb  Tb9  1  0.941207  0.470598  0.790213  1
  Tb  Tb10  1  0.529391  0.470607  0.790214  1
  Tb  Tb11  1  0.461933  0.923880  0.288130  1
  Tb  Tb12  1  0.076118  0.538068  0.288134  1
  Tb  Tb13  1  0.461938  0.538062  0.288140  1
  Tb  Tb14  1  0.999999  0.000003  0.775438  1
  Tb  Tb15  1  0.000002  0.999994  0.272839  1
  In  In16  1  0.837322  0.674645  0.032600  1
  In  In17  1  0.325411  0.162703  0.032591  1
  In  In18  1  0.837309  0.162675  0.032606  1
  In  In19  1  0.163341  0.326697  0.537866  1
  In  In20  1  0.673287  0.836649  0.537884  1
  In  In21  1  0.163358  0.836641  0.537885  1
  Fe  Fe22  1  0.333332  0.666665  0.060203  1
  Pd  Pd23  1  0.666660  0.333329  0.559765  1
