# generated using pymatgen
data_BeSi3Pd8
_symmetry_space_group_name_H-M   'P 1'
_cell_length_a   3.84182900
_cell_length_b   5.96048865
_cell_length_c   7.39505307
_cell_angle_alpha   89.36332193
_cell_angle_beta   90.00000000
_cell_angle_gamma   90.00000000
_symmetry_Int_Tables_number   1
_chemical_formula_structural   BeSi3Pd8
_chemical_formula_sum   'Be1 Si3 Pd8'
_cell_volume   169.33018289
_cell_formula_units_Z   1
loop_
 _symmetry_equiv_pos_site_id
 _symmetry_equiv_pos_as_xyz
  1  'x, y, z'
loop_
 _atom_site_type_symbol
 _atom_site_label
 _atom_site_symmetry_multiplicity
 _atom_site_fract_x
 _atom_site_fract_y
 _atom_site_fract_z
 _atom_site_occupancy
  Be  Be0  1  0.250000  0.254255  0.881341  1
  Si  Si1  1  0.750000  0.244067  0.377882  1
  Si  Si2  1  0.250000  0.753220  0.626863  1
  Si  Si3  1  0.750000  0.738876  0.113253  1
  Pd  Pd4  1  0.750000  0.148906  0.063702  1
  Pd  Pd5  1  0.250000  0.858189  0.934301  1
  Pd  Pd6  1  0.750000  0.647707  0.430182  1
  Pd  Pd7  1  0.250000  0.352887  0.572019  1
  Pd  Pd8  1  0.750000  0.030671  0.672368  1
  Pd  Pd9  1  0.250000  0.974354  0.334623  1
  Pd  Pd10  1  0.750000  0.531258  0.826200  1
  Pd  Pd11  1  0.250000  0.465612  0.167266  1
