# generated using pymatgen
data_Y7Ho(Sc3Si4)4
_symmetry_space_group_name_H-M   'P 1'
_cell_length_a   7.10559903
_cell_length_b   7.39604745
_cell_length_c   14.01639818
_cell_angle_alpha   89.99422521
_cell_angle_beta   89.99871146
_cell_angle_gamma   90.01417386
_symmetry_Int_Tables_number   1
_chemical_formula_structural   Y7Ho(Sc3Si4)4
_chemical_formula_sum   'Y7 Ho1 Sc12 Si16'
_cell_volume   736.60861875
_cell_formula_units_Z   1
loop_
 _symmetry_equiv_pos_site_id
 _symmetry_equiv_pos_as_xyz
  1  'x, y, z'
loop_
 _atom_site_type_symbol
 _atom_site_label
 _atom_site_symmetry_multiplicity
 _atom_site_fract_x
 _atom_site_fract_y
 _atom_site_fract_z
 _atom_site_occupancy
  Y  Y0  1  0.011915  0.175121  0.096995  1
  Y  Y1  1  0.988083  0.824853  0.902915  1
  Y  Y2  1  0.488086  0.675110  0.903088  1
  Y  Y3  1  0.988012  0.824733  0.596983  1
  Y  Y4  1  0.511924  0.324910  0.096981  1
  Y  Y5  1  0.012026  0.175124  0.403112  1
  Y  Y6  1  0.511882  0.324984  0.403183  1
  Ho  Ho7  1  0.487947  0.675452  0.597158  1
  Sc  Sc8  1  0.160648  0.502241  0.749895  1
  Sc  Sc9  1  0.839540  0.497935  0.250013  1
  Sc  Sc10  1  0.339490  0.002104  0.250030  1
  Sc  Sc11  1  0.660417  0.997749  0.749869  1
  Sc  Sc12  1  0.330806  0.176859  0.625264  1
  Sc  Sc13  1  0.669137  0.823045  0.374825  1
  Sc  Sc14  1  0.169367  0.676699  0.374806  1
  Sc  Sc15  1  0.669278  0.823259  0.125276  1
  Sc  Sc16  1  0.830536  0.323468  0.625225  1
  Sc  Sc17  1  0.330718  0.176732  0.874647  1
  Sc  Sc18  1  0.830654  0.323282  0.874652  1
  Sc  Sc19  1  0.169292  0.676740  0.125272  1
  Si  Si20  1  0.033331  0.117828  0.749954  1
  Si  Si21  1  0.966648  0.882167  0.250031  1
  Si  Si22  1  0.466630  0.617798  0.250020  1
  Si  Si23  1  0.533243  0.382620  0.749818  1
  Si  Si24  1  0.285835  0.873934  0.749703  1
  Si  Si25  1  0.714558  0.125627  0.250020  1
  Si  Si26  1  0.214560  0.374338  0.250011  1
  Si  Si27  1  0.784969  0.625817  0.749723  1
  Si  Si28  1  0.158150  0.464881  0.539582  1
  Si  Si29  1  0.842454  0.535620  0.460639  1
  Si  Si30  1  0.342847  0.963990  0.460762  1
  Si  Si31  1  0.842665  0.535576  0.039424  1
  Si  Si32  1  0.657069  0.034961  0.539599  1
  Si  Si33  1  0.157257  0.464417  0.960540  1
  Si  Si34  1  0.657363  0.035555  0.960559  1
  Si  Si35  1  0.342661  0.964469  0.039427  1
