# generated using pymatgen
data_SmPa2(ZnPd)3
_symmetry_space_group_name_H-M   'P 1'
_cell_length_a   7.36086790
_cell_length_b   7.36086815
_cell_length_c   3.85640800
_cell_angle_alpha   90.00000000
_cell_angle_beta   90.00000000
_cell_angle_gamma   119.76180730
_symmetry_Int_Tables_number   1
_chemical_formula_structural   SmPa2(ZnPd)3
_chemical_formula_sum   'Sm1 Pa2 Zn3 Pd3'
_cell_volume   181.38821272
_cell_formula_units_Z   1
loop_
 _symmetry_equiv_pos_site_id
 _symmetry_equiv_pos_as_xyz
  1  'x, y, z'
loop_
 _atom_site_type_symbol
 _atom_site_label
 _atom_site_symmetry_multiplicity
 _atom_site_fract_x
 _atom_site_fract_y
 _atom_site_fract_z
 _atom_site_occupancy
  Sm  Sm0  1  0.595689  0.595689  0.000000  1
  Pa  Pa1  1  0.407517  0.996728  0.000000  1
  Pa  Pa2  1  0.996728  0.407517  0.000000  1
  Zn  Zn3  1  0.749597  0.994121  0.500000  1
  Zn  Zn4  1  0.994121  0.749597  0.500000  1
  Zn  Zn5  1  0.257847  0.257847  0.500000  1
  Pd  Pd6  1  0.013156  0.013156  0.000000  1
  Pd  Pd7  1  0.316695  0.668650  0.500000  1
  Pd  Pd8  1  0.668650  0.316695  0.500000  1
