# generated using pymatgen
data_TbPr5CoBr10
_symmetry_space_group_name_H-M   'P 1'
_cell_length_a   7.60952997
_cell_length_b   9.46296035
_cell_length_c   9.63611169
_cell_angle_alpha   108.77236992
_cell_angle_beta   96.56042651
_cell_angle_gamma   105.51241993
_symmetry_Int_Tables_number   1
_chemical_formula_structural   TbPr5CoBr10
_chemical_formula_sum   'Tb1 Pr5 Co1 Br10'
_cell_volume   617.59197950
_cell_formula_units_Z   1
loop_
 _symmetry_equiv_pos_site_id
 _symmetry_equiv_pos_as_xyz
  1  'x, y, z'
loop_
 _atom_site_type_symbol
 _atom_site_label
 _atom_site_symmetry_multiplicity
 _atom_site_fract_x
 _atom_site_fract_y
 _atom_site_fract_z
 _atom_site_occupancy
  Tb  Tb0  1  0.645518  0.868135  0.324836  1
  Pr  Pr1  1  0.028193  0.711501  0.407758  1
  Pr  Pr2  1  0.967289  0.286693  0.588968  1
  Pr  Pr3  1  0.868622  0.950024  0.745239  1
  Pr  Pr4  1  0.124867  0.045782  0.252077  1
  Pr  Pr5  1  0.363705  0.137889  0.681907  1
  Co  Co6  1  0.999371  0.999436  0.500234  1
  Br  Br7  1  0.453512  0.820670  0.572325  1
  Br  Br8  1  0.549116  0.169050  0.414255  1
  Br  Br9  1  0.914456  0.630822  0.670091  1
  Br  Br10  1  0.084912  0.367514  0.327654  1
  Br  Br11  1  0.248577  0.082305  0.952488  1
  Br  Br12  1  0.739378  0.912253  0.053659  1
  Br  Br13  1  0.351391  0.456829  0.770019  1
  Br  Br14  1  0.640149  0.555132  0.228634  1
  Br  Br15  1  0.792373  0.258207  0.850629  1
  Br  Br16  1  0.228569  0.747758  0.159227  1
