# generated using pymatgen
data_Al2TeSeBr14
_symmetry_space_group_name_H-M   'P 1'
_cell_length_a   6.90709803
_cell_length_b   7.23527591
_cell_length_c   15.40960388
_cell_angle_alpha   75.13435054
_cell_angle_beta   89.96865836
_cell_angle_gamma   89.57037723
_symmetry_Int_Tables_number   1
_chemical_formula_structural   Al2TeSeBr14
_chemical_formula_sum   'Al2 Te1 Se1 Br14'
_cell_volume   744.29467077
_cell_formula_units_Z   1
loop_
 _symmetry_equiv_pos_site_id
 _symmetry_equiv_pos_as_xyz
  1  'x, y, z'
loop_
 _atom_site_type_symbol
 _atom_site_label
 _atom_site_symmetry_multiplicity
 _atom_site_fract_x
 _atom_site_fract_y
 _atom_site_fract_z
 _atom_site_occupancy
  Al  Al0  1  0.000285  0.693725  0.666280  1
  Al  Al1  1  0.009154  0.704808  0.159431  1
  Te  Te2  1  0.588765  0.985414  0.509524  1
  Se  Se3  1  0.398030  0.996381  0.005743  1
  Br  Br4  1  0.386708  0.889746  0.392238  1
  Br  Br5  1  0.382550  0.256036  0.535847  1
  Br  Br6  1  0.177523  0.197132  0.903754  1
  Br  Br7  1  0.821329  0.193850  0.402061  1
  Br  Br8  1  0.119410  0.013095  0.157952  1
  Br  Br9  1  0.594184  0.238632  0.038205  1
  Br  Br10  1  0.132767  0.653465  0.024770  1
  Br  Br11  1  0.881944  0.635125  0.532819  1
  Br  Br12  1  0.674878  0.681067  0.163109  1
  Br  Br13  1  0.336545  0.677771  0.669899  1
  Br  Br14  1  0.145130  0.488403  0.281445  1
  Br  Br15  1  0.872308  0.471838  0.788918  1
  Br  Br16  1  0.594423  0.895704  0.899357  1
  Br  Br17  1  0.884067  0.998404  0.668443  1
