# generated using pymatgen
data_CaYb4SnSb2
_symmetry_space_group_name_H-M   'P 1'
_cell_length_a   9.17732554
_cell_length_b   9.20012789
_cell_length_c   6.90788100
_cell_angle_alpha   90.00000000
_cell_angle_beta   90.00000000
_cell_angle_gamma   120.08222608
_symmetry_Int_Tables_number   1
_chemical_formula_structural   CaYb4SnSb2
_chemical_formula_sum   'Ca2 Yb8 Sn2 Sb4'
_cell_volume   504.69039952
_cell_formula_units_Z   2
loop_
 _symmetry_equiv_pos_site_id
 _symmetry_equiv_pos_as_xyz
  1  'x, y, z'
loop_
 _atom_site_type_symbol
 _atom_site_label
 _atom_site_symmetry_multiplicity
 _atom_site_fract_x
 _atom_site_fract_y
 _atom_site_fract_z
 _atom_site_occupancy
  Ca  Ca0  1  0.004406  0.726196  0.750000  1
  Ca  Ca1  1  0.004406  0.278210  0.250000  1
  Yb  Yb2  1  0.721516  0.721295  0.250000  1
  Yb  Yb3  1  0.721516  0.000223  0.750000  1
  Yb  Yb4  1  0.275768  0.271647  0.750000  1
  Yb  Yb5  1  0.275768  0.004122  0.250000  1
  Yb  Yb6  1  0.332710  0.666356  0.500000  1
  Yb  Yb7  1  0.661821  0.330909  0.000000  1
  Yb  Yb8  1  0.661821  0.330909  0.500000  1
  Yb  Yb9  1  0.332710  0.666356  0.000000  1
  Sn  Sn10  1  0.378056  0.998376  0.750000  1
  Sn  Sn11  1  0.378056  0.379680  0.250000  1
  Sb  Sb12  1  0.998420  0.622700  0.250000  1
  Sb  Sb13  1  0.998420  0.375720  0.750000  1
  Sb  Sb14  1  0.627301  0.626492  0.750000  1
  Sb  Sb15  1  0.627301  0.000810  0.250000  1
