# generated using pymatgen
data_Yb4Sc(AlSb3)2
_symmetry_space_group_name_H-M   'P 1'
_cell_length_a   4.40687200
_cell_length_b   7.39333600
_cell_length_c   22.53126900
_cell_angle_alpha   90.00000000
_cell_angle_beta   90.00000000
_cell_angle_gamma   90.00000000
_symmetry_Int_Tables_number   1
_chemical_formula_structural   Yb4Sc(AlSb3)2
_chemical_formula_sum   'Yb8 Sc2 Al4 Sb12'
_cell_volume   734.10221208
_cell_formula_units_Z   2
loop_
 _symmetry_equiv_pos_site_id
 _symmetry_equiv_pos_as_xyz
  1  'x, y, z'
loop_
 _atom_site_type_symbol
 _atom_site_label
 _atom_site_symmetry_multiplicity
 _atom_site_fract_x
 _atom_site_fract_y
 _atom_site_fract_z
 _atom_site_occupancy
  Yb  Yb0  1  0.000000  0.462971  0.914584  1
  Yb  Yb1  1  0.000000  0.274307  0.746597  1
  Yb  Yb2  1  0.000000  0.774307  0.753403  1
  Yb  Yb3  1  0.000000  0.537029  0.085416  1
  Yb  Yb4  1  0.000000  0.962971  0.585416  1
  Yb  Yb5  1  0.000000  0.725693  0.253403  1
  Yb  Yb6  1  0.000000  0.037029  0.414584  1
  Yb  Yb7  1  0.000000  0.225693  0.246597  1
  Sc  Sc8  1  0.000000  0.000000  0.000000  1
  Sc  Sc9  1  0.000000  0.500000  0.500000  1
  Al  Al10  1  0.500000  0.824499  0.880740  1
  Al  Al11  1  0.500000  0.175501  0.119260  1
  Al  Al12  1  0.500000  0.675501  0.380740  1
  Al  Al13  1  0.500000  0.324499  0.619260  1
  Sb  Sb14  1  0.500000  0.772393  0.498260  1
  Sb  Sb15  1  0.000000  0.462547  0.367037  1
  Sb  Sb16  1  0.000000  0.962547  0.132963  1
  Sb  Sb17  1  0.500000  0.519266  0.813083  1
  Sb  Sb18  1  0.500000  0.480734  0.186917  1
  Sb  Sb19  1  0.000000  0.037453  0.867037  1
  Sb  Sb20  1  0.000000  0.537453  0.632963  1
  Sb  Sb21  1  0.500000  0.980734  0.313083  1
  Sb  Sb22  1  0.500000  0.227607  0.501740  1
  Sb  Sb23  1  0.500000  0.019266  0.686917  1
  Sb  Sb24  1  0.500000  0.272393  0.001740  1
  Sb  Sb25  1  0.500000  0.727607  0.998260  1
