# generated using pymatgen
data_Y3ErLu4(CoB6)4
_symmetry_space_group_name_H-M   'P 1'
_cell_length_a   3.53156400
_cell_length_b   9.03055500
_cell_length_c   11.40227400
_cell_angle_alpha   89.99992173
_cell_angle_beta   90.00000000
_cell_angle_gamma   90.00000000
_symmetry_Int_Tables_number   1
_chemical_formula_structural   Y3ErLu4(CoB6)4
_chemical_formula_sum   'Y3 Er1 Lu4 Co4 B24'
_cell_volume   363.64112786
_cell_formula_units_Z   1
loop_
 _symmetry_equiv_pos_site_id
 _symmetry_equiv_pos_as_xyz
  1  'x, y, z'
loop_
 _atom_site_type_symbol
 _atom_site_label
 _atom_site_symmetry_multiplicity
 _atom_site_fract_x
 _atom_site_fract_y
 _atom_site_fract_z
 _atom_site_occupancy
  Y  Y0  1  0.000000  0.823998  0.085339  1
  Y  Y1  1  0.000000  0.175914  0.914558  1
  Y  Y2  1  0.000000  0.324240  0.414776  1
  Er  Er3  1  0.000000  0.676069  0.585185  1
  Lu  Lu4  1  0.000000  0.443952  0.129450  1
  Lu  Lu5  1  0.000000  0.556362  0.870386  1
  Lu  Lu6  1  0.000000  0.943457  0.370967  1
  Lu  Lu7  1  0.000000  0.055780  0.629345  1
  Co  Co8  1  0.000000  0.140650  0.180839  1
  Co  Co9  1  0.000000  0.859084  0.818795  1
  Co  Co10  1  0.000000  0.640670  0.319682  1
  Co  Co11  1  0.000000  0.359952  0.680649  1
  B  B12  1  0.500000  0.054299  0.067852  1
  B  B13  1  0.500000  0.945560  0.932047  1
  B  B14  1  0.500000  0.554701  0.432796  1
  B  B15  1  0.500000  0.446346  0.567866  1
  B  B16  1  0.500000  0.248690  0.082455  1
  B  B17  1  0.500000  0.751352  0.917270  1
  B  B18  1  0.500000  0.748464  0.418293  1
  B  B19  1  0.500000  0.251550  0.582509  1
  B  B20  1  0.500000  0.292299  0.235451  1
  B  B21  1  0.500000  0.707435  0.763954  1
  B  B22  1  0.500000  0.792063  0.264930  1
  B  B23  1  0.500000  0.207774  0.735243  1
  B  B24  1  0.500000  0.132862  0.315926  1
  B  B25  1  0.500000  0.866442  0.683740  1
  B  B26  1  0.500000  0.632946  0.184187  1
  B  B27  1  0.500000  0.367225  0.815612  1
  B  B28  1  0.500000  0.486277  0.288040  1
  B  B29  1  0.500000  0.514642  0.711751  1
  B  B30  1  0.500000  0.985956  0.212288  1
  B  B31  1  0.500000  0.013706  0.787703  1
  B  B32  1  0.500000  0.104706  0.471842  1
  B  B33  1  0.500000  0.894503  0.528448  1
  B  B34  1  0.500000  0.604487  0.028082  1
  B  B35  1  0.500000  0.395588  0.971746  1
