# generated using pymatgen
data_HfZr2MnSi3Ru2
_symmetry_space_group_name_H-M   'P 1'
_cell_length_a   7.63802084
_cell_length_b   7.63802140
_cell_length_c   7.63802102
_cell_angle_alpha   128.15279135
_cell_angle_beta   123.33791198
_cell_angle_gamma   80.36700802
_symmetry_Int_Tables_number   1
_chemical_formula_structural   HfZr2MnSi3Ru2
_chemical_formula_sum   'Hf2 Zr4 Mn2 Si6 Ru4'
_cell_volume   282.51021100
_cell_formula_units_Z   2
loop_
 _symmetry_equiv_pos_site_id
 _symmetry_equiv_pos_as_xyz
  1  'x, y, z'
loop_
 _atom_site_type_symbol
 _atom_site_label
 _atom_site_symmetry_multiplicity
 _atom_site_fract_x
 _atom_site_fract_y
 _atom_site_fract_z
 _atom_site_occupancy
  Hf  Hf0  1  0.051301  0.253880  0.702578  1
  Hf  Hf1  1  0.948699  0.651277  0.202578  1
  Zr  Zr2  1  0.462815  0.680577  0.717762  1
  Zr  Zr3  1  0.537185  0.254946  0.217762  1
  Zr  Zr4  1  0.747172  0.831685  0.584513  1
  Zr  Zr5  1  0.252828  0.837340  0.084513  1
  Mn  Mn6  1  0.500000  0.499522  0.999522  1
  Mn  Mn7  1  0.000000  0.499522  0.499522  1
  Si  Si8  1  0.265068  0.271731  0.506663  1
  Si  Si9  1  0.734932  0.241594  0.006663  1
  Si  Si10  1  0.328544  0.585765  0.245982  1
  Si  Si11  1  0.671456  0.917438  0.257222  1
  Si  Si12  1  0.160216  0.917438  0.745982  1
  Si  Si13  1  0.839784  0.585765  0.757222  1
  Ru  Ru14  1  0.102584  0.255940  0.112202  1
  Ru  Ru15  1  0.897416  0.009619  0.153357  1
  Ru  Ru16  1  0.356261  0.009619  0.612202  1
  Ru  Ru17  1  0.643739  0.255940  0.653357  1
