# generated using pymatgen
data_Ti2BeB3Ru5
_symmetry_space_group_name_H-M   'P 1'
_cell_length_a   2.97755400
_cell_length_b   8.45762250
_cell_length_c   10.03988040
_cell_angle_alpha   90.04317660
_cell_angle_beta   90.00000000
_cell_angle_gamma   90.00000000
_symmetry_Int_Tables_number   1
_chemical_formula_structural   Ti2BeB3Ru5
_chemical_formula_sum   'Ti4 Be2 B6 Ru10'
_cell_volume   252.83451453
_cell_formula_units_Z   2
loop_
 _symmetry_equiv_pos_site_id
 _symmetry_equiv_pos_as_xyz
  1  'x, y, z'
loop_
 _atom_site_type_symbol
 _atom_site_label
 _atom_site_symmetry_multiplicity
 _atom_site_fract_x
 _atom_site_fract_y
 _atom_site_fract_z
 _atom_site_occupancy
  Ti  Ti0  1  0.500000  0.845480  0.185902  1
  Ti  Ti1  1  0.500000  0.154520  0.814098  1
  Ti  Ti2  1  0.500000  0.657558  0.678517  1
  Ti  Ti3  1  0.500000  0.342442  0.321483  1
  Be  Be4  1  0.500000  0.959739  0.593198  1
  Be  Be5  1  0.500000  0.040261  0.406802  1
  B  B6  1  0.500000  0.850812  0.899036  1
  B  B7  1  0.500000  0.149188  0.100964  1
  B  B8  1  0.500000  0.651697  0.400419  1
  B  B9  1  0.500000  0.348303  0.599581  1
  B  B10  1  0.500000  0.464636  0.910157  1
  B  B11  1  0.500000  0.535364  0.089843  1
  Ru  Ru12  1  0.000000  0.660373  0.955227  1
  Ru  Ru13  1  0.000000  0.339627  0.044773  1
  Ru  Ru14  1  0.000000  0.829236  0.444710  1
  Ru  Ru15  1  0.000000  0.170764  0.555290  1
  Ru  Ru16  1  0.000000  0.000000  0.000000  1
  Ru  Ru17  1  0.000000  0.405433  0.761647  1
  Ru  Ru18  1  0.000000  0.594567  0.238353  1
  Ru  Ru19  1  0.000000  0.500000  0.500000  1
  Ru  Ru20  1  0.000000  0.894556  0.747155  1
  Ru  Ru21  1  0.000000  0.105444  0.252845  1
