# generated using pymatgen
data_Ba6TbEr(BO3)6
_symmetry_space_group_name_H-M   'P 1'
_cell_length_a   8.21927897
_cell_length_b   8.21927897
_cell_length_c   8.21927856
_cell_angle_alpha   105.61020286
_cell_angle_beta   105.61019709
_cell_angle_gamma   105.61019931
_symmetry_Int_Tables_number   1
_chemical_formula_structural   Ba6TbEr(BO3)6
_chemical_formula_sum   'Ba6 Tb1 Er1 B6 O18'
_cell_volume   478.88272208
_cell_formula_units_Z   1
loop_
 _symmetry_equiv_pos_site_id
 _symmetry_equiv_pos_as_xyz
  1  'x, y, z'
loop_
 _atom_site_type_symbol
 _atom_site_label
 _atom_site_symmetry_multiplicity
 _atom_site_fract_x
 _atom_site_fract_y
 _atom_site_fract_z
 _atom_site_occupancy
  Ba  Ba0  1  0.348743  0.734959  0.840580  1
  Ba  Ba1  1  0.840580  0.348743  0.734959  1
  Ba  Ba2  1  0.734959  0.840580  0.348743  1
  Ba  Ba3  1  0.651257  0.265041  0.159420  1
  Ba  Ba4  1  0.159420  0.651257  0.265041  1
  Ba  Ba5  1  0.265041  0.159420  0.651257  1
  Tb  Tb6  1  0.000000  0.000000  0.000000  1
  Er  Er7  1  0.500000  0.500000  0.500000  1
  B  B8  1  0.708984  0.624060  0.954985  1
  B  B9  1  0.954985  0.708984  0.624060  1
  B  B10  1  0.624060  0.954985  0.708984  1
  B  B11  1  0.045015  0.291016  0.375940  1
  B  B12  1  0.375940  0.045015  0.291016  1
  B  B13  1  0.291016  0.375940  0.045015  1
  O  O14  1  0.063418  0.803149  0.551815  1
  O  O15  1  0.551815  0.063418  0.803149  1
  O  O16  1  0.426930  0.489970  0.214426  1
  O  O17  1  0.489970  0.214426  0.426930  1
  O  O18  1  0.214426  0.426930  0.489970  1
  O  O19  1  0.785574  0.573070  0.510030  1
  O  O20  1  0.573070  0.510030  0.785574  1
  O  O21  1  0.510030  0.785574  0.573070  1
  O  O22  1  0.258167  0.189682  0.985701  1
  O  O23  1  0.189682  0.985701  0.258167  1
  O  O24  1  0.985701  0.258167  0.189682  1
  O  O25  1  0.741833  0.810318  0.014299  1
  O  O26  1  0.810318  0.014299  0.741833  1
  O  O27  1  0.014299  0.741833  0.810318  1
  O  O28  1  0.196851  0.448185  0.936582  1
  O  O29  1  0.448185  0.936582  0.196851  1
  O  O30  1  0.936582  0.196851  0.448185  1
  O  O31  1  0.803149  0.551815  0.063418  1
