# generated using pymatgen
data_Tb3YAl4Ga13SiIr6
_symmetry_space_group_name_H-M   'P 1'
_cell_length_a   7.56856931
_cell_length_b   7.57727074
_cell_length_c   9.50927826
_cell_angle_alpha   89.83319174
_cell_angle_beta   90.02790852
_cell_angle_gamma   119.78531360
_symmetry_Int_Tables_number   1
_chemical_formula_structural   Tb3YAl4Ga13SiIr6
_chemical_formula_sum   'Tb3 Y1 Al4 Ga13 Si1 Ir6'
_cell_volume   473.30178145
_cell_formula_units_Z   1
loop_
 _symmetry_equiv_pos_site_id
 _symmetry_equiv_pos_as_xyz
  1  'x, y, z'
loop_
 _atom_site_type_symbol
 _atom_site_label
 _atom_site_symmetry_multiplicity
 _atom_site_fract_x
 _atom_site_fract_y
 _atom_site_fract_z
 _atom_site_occupancy
  Tb  Tb0  1  0.004701  0.673771  0.248315  1
  Tb  Tb1  1  0.998969  0.329419  0.750180  1
  Tb  Tb2  1  0.667143  0.001142  0.248138  1
  Y  Y3  1  0.329692  0.998933  0.750163  1
  Al  Al4  1  0.331579  0.331959  0.553723  1
  Al  Al5  1  0.668733  0.668612  0.445939  1
  Al  Al6  1  0.668628  0.667991  0.055825  1
  Al  Al7  1  0.332024  0.335714  0.944987  1
  Ga  Ga8  1  0.128360  0.128226  0.250910  1
  Ga  Ga9  1  0.874845  0.874101  0.750779  1
  Ga  Ga10  1  0.000236  0.334972  0.080863  1
  Ga  Ga11  1  0.994321  0.658814  0.918445  1
  Ga  Ga12  1  0.998749  0.664219  0.579786  1
  Ga  Ga13  1  0.335355  0.000507  0.421143  1
  Ga  Ga14  1  0.999732  0.334898  0.420163  1
  Ga  Ga15  1  0.665242  0.999053  0.579594  1
  Ga  Ga16  1  0.669329  0.998636  0.918349  1
  Ga  Ga17  1  0.348762  0.551697  0.250587  1
  Ga  Ga18  1  0.650870  0.448312  0.750538  1
  Ga  Ga19  1  0.550235  0.349521  0.251582  1
  Ga  Ga20  1  0.448165  0.652010  0.751286  1
  Si  Si21  1  0.334772  0.001377  0.071649  1
  Ir  Ir22  1  0.656609  0.317459  0.001949  1
  Ir  Ir23  1  0.331249  0.681225  0.002903  1
  Ir  Ir24  1  0.330177  0.669438  0.500355  1
  Ir  Ir25  1  0.669201  0.329804  0.500432  1
  Ir  Ir26  1  0.012019  0.998590  0.001527  1
  Ir  Ir27  1  0.000307  0.999599  0.499887  1
