# generated using pymatgen
data_Tb2YAl5Ga4
_symmetry_space_group_name_H-M   'P 1'
_cell_length_a   7.82049338
_cell_length_b   7.82875621
_cell_length_c   7.82875567
_cell_angle_alpha   47.01179054
_cell_angle_beta   47.17274220
_cell_angle_gamma   47.17276357
_symmetry_Int_Tables_number   1
_chemical_formula_structural   Tb2YAl5Ga4
_chemical_formula_sum   'Tb2 Y1 Al5 Ga4'
_cell_volume   235.32192505
_cell_formula_units_Z   1
loop_
 _symmetry_equiv_pos_site_id
 _symmetry_equiv_pos_as_xyz
  1  'x, y, z'
loop_
 _atom_site_type_symbol
 _atom_site_label
 _atom_site_symmetry_multiplicity
 _atom_site_fract_x
 _atom_site_fract_y
 _atom_site_fract_z
 _atom_site_occupancy
  Tb  Tb0  1  0.213145  0.217144  0.217144  1
  Tb  Tb1  1  0.996512  0.998300  0.998300  1
  Y  Y2  1  0.787732  0.785195  0.785195  1
  Al  Al3  1  0.498535  0.501986  0.000580  1
  Al  Al4  1  0.498535  0.000580  0.501986  1
  Al  Al5  1  0.000556  0.501057  0.501057  1
  Al  Al6  1  0.302898  0.296106  0.727928  1
  Al  Al7  1  0.302898  0.727928  0.296106  1
  Ga  Ga8  1  0.698030  0.703336  0.272812  1
  Ga  Ga9  1  0.269842  0.700416  0.700416  1
  Ga  Ga10  1  0.698030  0.272812  0.703336  1
  Ga  Ga11  1  0.733287  0.295139  0.295139  1
