# generated using pymatgen
data_Fe4P4RuW3
_symmetry_space_group_name_H-M   'P 1'
_cell_length_a   3.72486700
_cell_length_b   5.84107282
_cell_length_c   6.67392955
_cell_angle_alpha   90.11707986
_cell_angle_beta   90.00000000
_cell_angle_gamma   90.00000000
_symmetry_Int_Tables_number   1
_chemical_formula_structural   Fe4P4RuW3
_chemical_formula_sum   'Fe4 P4 Ru1 W3'
_cell_volume   145.20584630
_cell_formula_units_Z   1
loop_
 _symmetry_equiv_pos_site_id
 _symmetry_equiv_pos_as_xyz
  1  'x, y, z'
loop_
 _atom_site_type_symbol
 _atom_site_label
 _atom_site_symmetry_multiplicity
 _atom_site_fract_x
 _atom_site_fract_y
 _atom_site_fract_z
 _atom_site_occupancy
  Fe  Fe0  1  0.250000  0.638787  0.072185  1
  Fe  Fe1  1  0.750000  0.360188  0.932281  1
  Fe  Fe2  1  0.250000  0.138971  0.435447  1
  Fe  Fe3  1  0.750000  0.857690  0.564235  1
  P  P4  1  0.250000  0.268702  0.122406  1
  P  P5  1  0.750000  0.728333  0.875780  1
  P  P6  1  0.250000  0.769610  0.381504  1
  P  P7  1  0.750000  0.234085  0.620422  1
  Ru  Ru8  1  0.250000  0.537346  0.666443  1
  W  W9  1  0.750000  0.973221  0.169430  1
  W  W10  1  0.250000  0.022214  0.827726  1
  W  W11  1  0.750000  0.470854  0.332140  1
