# generated using pymatgen
data_Y2Ni12AsP6
_symmetry_space_group_name_H-M   'P 1'
_cell_length_a   9.14480000
_cell_length_b   9.14479954
_cell_length_c   3.67648400
_cell_angle_alpha   90.00000000
_cell_angle_beta   90.00000000
_cell_angle_gamma   120.00000891
_symmetry_Int_Tables_number   1
_chemical_formula_structural   Y2Ni12AsP6
_chemical_formula_sum   'Y2 Ni12 As1 P6'
_cell_volume   266.26352329
_cell_formula_units_Z   1
loop_
 _symmetry_equiv_pos_site_id
 _symmetry_equiv_pos_as_xyz
  1  'x, y, z'
loop_
 _atom_site_type_symbol
 _atom_site_label
 _atom_site_symmetry_multiplicity
 _atom_site_fract_x
 _atom_site_fract_y
 _atom_site_fract_z
 _atom_site_occupancy
  Y  Y0  1  0.666667  0.333333  0.000000  1
  Y  Y1  1  0.333333  0.666667  0.500000  1
  Ni  Ni2  1  0.062438  0.626074  0.000000  1
  Ni  Ni3  1  0.563637  0.937562  0.000000  1
  Ni  Ni4  1  0.373926  0.436363  0.000000  1
  Ni  Ni5  1  0.285350  0.128566  0.000000  1
  Ni  Ni6  1  0.843216  0.714650  0.000000  1
  Ni  Ni7  1  0.871434  0.156784  0.000000  1
  Ni  Ni8  1  0.433732  0.051614  0.500000  1
  Ni  Ni9  1  0.617882  0.566268  0.500000  1
  Ni  Ni10  1  0.948386  0.382118  0.500000  1
  Ni  Ni11  1  0.107927  0.864721  0.500000  1
  Ni  Ni12  1  0.756795  0.892073  0.500000  1
  Ni  Ni13  1  0.135279  0.243205  0.500000  1
  As  As14  1  0.000000  0.000000  0.000000  1
  P  P15  1  0.294210  0.887871  0.000000  1
  P  P16  1  0.593661  0.705790  0.000000  1
  P  P17  1  0.112129  0.406339  0.000000  1
  P  P18  1  0.407122  0.296345  0.500000  1
  P  P19  1  0.889225  0.592878  0.500000  1
  P  P20  1  0.703655  0.110775  0.500000  1
