# generated using pymatgen
data_Rb2Zr7BBr18
_symmetry_space_group_name_H-M   'P 1'
_cell_length_a   11.06327317
_cell_length_b   11.06327365
_cell_length_c   11.06327200
_cell_angle_alpha   55.80958166
_cell_angle_beta   55.80958695
_cell_angle_gamma   55.80957931
_symmetry_Int_Tables_number   1
_chemical_formula_structural   Rb2Zr7BBr18
_chemical_formula_sum   'Rb2 Zr7 B1 Br18'
_cell_volume   864.46118844
_cell_formula_units_Z   1
loop_
 _symmetry_equiv_pos_site_id
 _symmetry_equiv_pos_as_xyz
  1  'x, y, z'
loop_
 _atom_site_type_symbol
 _atom_site_label
 _atom_site_symmetry_multiplicity
 _atom_site_fract_x
 _atom_site_fract_y
 _atom_site_fract_z
 _atom_site_occupancy
  Rb  Rb0  1  0.775777  0.775777  0.775777  1
  Rb  Rb1  1  0.224223  0.224223  0.224223  1
  Zr  Zr2  1  0.156058  0.901456  0.798843  1
  Zr  Zr3  1  0.843942  0.098544  0.201157  1
  Zr  Zr4  1  0.098544  0.201157  0.843942  1
  Zr  Zr5  1  0.201157  0.843942  0.098544  1
  Zr  Zr6  1  0.901456  0.798843  0.156058  1
  Zr  Zr7  1  0.798843  0.156058  0.901456  1
  Zr  Zr8  1  0.500000  0.500000  0.500000  1
  B  B9  1  0.000000  0.000000  0.000000  1
  Br  Br10  1  0.220710  0.467795  0.645406  1
  Br  Br11  1  0.779290  0.532205  0.354594  1
  Br  Br12  1  0.346496  0.053710  0.934496  1
  Br  Br13  1  0.653504  0.946290  0.065504  1
  Br  Br14  1  0.934496  0.346496  0.053710  1
  Br  Br15  1  0.711631  0.877350  0.414611  1
  Br  Br16  1  0.354594  0.779290  0.532205  1
  Br  Br17  1  0.585389  0.288369  0.122650  1
  Br  Br18  1  0.288369  0.122650  0.585389  1
  Br  Br19  1  0.122650  0.585389  0.288369  1
  Br  Br20  1  0.946290  0.065504  0.653504  1
  Br  Br21  1  0.414611  0.711631  0.877350  1
  Br  Br22  1  0.877350  0.414611  0.711631  1
  Br  Br23  1  0.065504  0.653504  0.946290  1
  Br  Br24  1  0.467795  0.645406  0.220710  1
  Br  Br25  1  0.645406  0.220710  0.467795  1
  Br  Br26  1  0.532205  0.354594  0.779290  1
  Br  Br27  1  0.053710  0.934496  0.346496  1
