# generated using pymatgen
data_Zr4TiRe7
_symmetry_space_group_name_H-M   'P 1'
_cell_length_a   5.32165000
_cell_length_b   5.32164992
_cell_length_c   8.69386500
_cell_angle_alpha   90.00000000
_cell_angle_beta   90.00000000
_cell_angle_gamma   120.00000048
_symmetry_Int_Tables_number   1
_chemical_formula_structural   Zr4TiRe7
_chemical_formula_sum   'Zr4 Ti1 Re7'
_cell_volume   213.22402211
_cell_formula_units_Z   1
loop_
 _symmetry_equiv_pos_site_id
 _symmetry_equiv_pos_as_xyz
  1  'x, y, z'
loop_
 _atom_site_type_symbol
 _atom_site_label
 _atom_site_symmetry_multiplicity
 _atom_site_fract_x
 _atom_site_fract_y
 _atom_site_fract_z
 _atom_site_occupancy
  Zr  Zr0  1  0.333333  0.666667  0.433650  1
  Zr  Zr1  1  0.666667  0.333333  0.941304  1
  Zr  Zr2  1  0.666667  0.333333  0.566350  1
  Zr  Zr3  1  0.333333  0.666667  0.058696  1
  Ti  Ti4  1  0.000000  0.000000  0.500000  1
  Re  Re5  1  0.659244  0.829622  0.750498  1
  Re  Re6  1  0.340756  0.170378  0.249502  1
  Re  Re7  1  0.829622  0.170378  0.249502  1
  Re  Re8  1  0.170378  0.340756  0.750498  1
  Re  Re9  1  0.170378  0.829622  0.750498  1
  Re  Re10  1  0.829622  0.659244  0.249502  1
  Re  Re11  1  0.000000  0.000000  0.000000  1
