# generated using pymatgen
data_La8HoU3S20
_symmetry_space_group_name_H-M   'P 1'
_cell_length_a   7.53165789
_cell_length_b   8.12842300
_cell_length_c   11.91828100
_cell_angle_alpha   90.00000000
_cell_angle_beta   90.43881009
_cell_angle_gamma   90.00000000
_symmetry_Int_Tables_number   1
_chemical_formula_structural   La8HoU3S20
_chemical_formula_sum   'La8 Ho1 U3 S20'
_cell_volume   729.62173739
_cell_formula_units_Z   1
loop_
 _symmetry_equiv_pos_site_id
 _symmetry_equiv_pos_as_xyz
  1  'x, y, z'
loop_
 _atom_site_type_symbol
 _atom_site_label
 _atom_site_symmetry_multiplicity
 _atom_site_fract_x
 _atom_site_fract_y
 _atom_site_fract_z
 _atom_site_occupancy
  La  La0  1  0.532458  0.502745  0.325610  1
  La  La1  1  0.968665  0.998619  0.823379  1
  La  La2  1  0.469131  0.001249  0.672782  1
  La  La3  1  0.029353  0.500378  0.178375  1
  La  La4  1  0.469131  0.498751  0.672782  1
  La  La5  1  0.029353  0.999622  0.178375  1
  La  La6  1  0.532458  0.997255  0.325610  1
  La  La7  1  0.968665  0.501381  0.823379  1
  Ho  Ho8  1  0.069042  0.750000  0.494784  1
  U  U9  1  0.428754  0.750000  0.989250  1
  U  U10  1  0.940096  0.250000  0.505926  1
  U  U11  1  0.568619  0.250000  0.009496  1
  S  S12  1  0.833239  0.967037  0.592560  1
  S  S13  1  0.662178  0.541677  0.090637  1
  S  S14  1  0.164713  0.457105  0.409854  1
  S  S15  1  0.336801  0.042519  0.907742  1
  S  S16  1  0.164713  0.042895  0.409854  1
  S  S17  1  0.336801  0.457481  0.907742  1
  S  S18  1  0.833239  0.532963  0.592560  1
  S  S19  1  0.662178  0.958323  0.090637  1
  S  S20  1  0.835122  0.750000  0.312047  1
  S  S21  1  0.662305  0.750000  0.812538  1
  S  S22  1  0.163743  0.250000  0.686531  1
  S  S23  1  0.338256  0.250000  0.186670  1
  S  S24  1  0.452020  0.750000  0.496960  1
  S  S25  1  0.047070  0.750000  0.998717  1
  S  S26  1  0.550511  0.250000  0.499877  1
  S  S27  1  0.951495  0.250000  0.002458  1
  S  S28  1  0.190737  0.750000  0.715721  1
  S  S29  1  0.311910  0.750000  0.210979  1
  S  S30  1  0.810147  0.250000  0.286756  1
  S  S31  1  0.687095  0.250000  0.789411  1
