# generated using pymatgen
data_UV(SeO3)4
_symmetry_space_group_name_H-M   'P 1'
_cell_length_a   8.50374200
_cell_length_b   8.64315164
_cell_length_c   8.59879287
_cell_angle_alpha   88.11363920
_cell_angle_beta   90.00000000
_cell_angle_gamma   90.00000000
_symmetry_Int_Tables_number   1
_chemical_formula_structural   UV(SeO3)4
_chemical_formula_sum   'U2 V2 Se8 O24'
_cell_volume   631.66131315
_cell_formula_units_Z   2
loop_
 _symmetry_equiv_pos_site_id
 _symmetry_equiv_pos_as_xyz
  1  'x, y, z'
loop_
 _atom_site_type_symbol
 _atom_site_label
 _atom_site_symmetry_multiplicity
 _atom_site_fract_x
 _atom_site_fract_y
 _atom_site_fract_z
 _atom_site_occupancy
  U  U0  1  0.000000  0.000000  0.500000  1
  U  U1  1  0.500000  0.000000  0.000000  1
  V  V2  1  0.000000  0.500000  0.000000  1
  V  V3  1  0.500000  0.500000  0.500000  1
  Se  Se4  1  0.305142  0.643097  0.189870  1
  Se  Se5  1  0.805142  0.356903  0.310130  1
  Se  Se6  1  0.657186  0.792085  0.662662  1
  Se  Se7  1  0.157186  0.207915  0.837338  1
  Se  Se8  1  0.694858  0.356903  0.810130  1
  Se  Se9  1  0.194858  0.643097  0.689870  1
  Se  Se10  1  0.342814  0.207915  0.337338  1
  Se  Se11  1  0.842814  0.792085  0.162662  1
  O  O12  1  0.234526  0.528273  0.046758  1
  O  O13  1  0.734526  0.471727  0.453242  1
  O  O14  1  0.761291  0.934418  0.554650  1
  O  O15  1  0.261291  0.065582  0.945350  1
  O  O16  1  0.535233  0.914386  0.766504  1
  O  O17  1  0.450247  0.525920  0.266890  1
  O  O18  1  0.950247  0.474080  0.233110  1
  O  O19  1  0.035233  0.085614  0.733496  1
  O  O20  1  0.924191  0.223898  0.423054  1
  O  O21  1  0.530616  0.732685  0.523521  1
  O  O22  1  0.424191  0.776102  0.076946  1
  O  O23  1  0.030616  0.267315  0.976479  1
  O  O24  1  0.765474  0.471727  0.953242  1
  O  O25  1  0.265474  0.528273  0.546758  1
  O  O26  1  0.238709  0.065582  0.445350  1
  O  O27  1  0.738709  0.934418  0.054650  1
  O  O28  1  0.464767  0.085614  0.233496  1
  O  O29  1  0.549753  0.474080  0.733110  1
  O  O30  1  0.049753  0.525920  0.766890  1
  O  O31  1  0.964767  0.914386  0.266504  1
  O  O32  1  0.075809  0.776102  0.576946  1
  O  O33  1  0.469384  0.267315  0.476479  1
  O  O34  1  0.575809  0.223898  0.923054  1
  O  O35  1  0.969384  0.732685  0.023521  1
