# generated using pymatgen
data_Y3TmFe4(Ni4P3)4
_symmetry_space_group_name_H-M   'P 1'
_cell_length_a   3.69663000
_cell_length_b   10.30441400
_cell_length_c   11.87066122
_cell_angle_alpha   90.05118950
_cell_angle_beta   90.00000000
_cell_angle_gamma   90.00000000
_symmetry_Int_Tables_number   1
_chemical_formula_structural   Y3TmFe4(Ni4P3)4
_chemical_formula_sum   'Y3 Tm1 Fe4 Ni16 P12'
_cell_volume   452.17236870
_cell_formula_units_Z   1
loop_
 _symmetry_equiv_pos_site_id
 _symmetry_equiv_pos_as_xyz
  1  'x, y, z'
loop_
 _atom_site_type_symbol
 _atom_site_label
 _atom_site_symmetry_multiplicity
 _atom_site_fract_x
 _atom_site_fract_y
 _atom_site_fract_z
 _atom_site_occupancy
  Y  Y0  1  0.250000  0.579470  0.704753  1
  Y  Y1  1  0.250000  0.920711  0.204891  1
  Y  Y2  1  0.750000  0.420476  0.295102  1
  Tm  Tm3  1  0.750000  0.079051  0.795460  1
  Fe  Fe4  1  0.250000  0.462960  0.931456  1
  Fe  Fe5  1  0.250000  0.036194  0.432960  1
  Fe  Fe6  1  0.750000  0.535896  0.067785  1
  Fe  Fe7  1  0.750000  0.964435  0.569536  1
  Ni  Ni8  1  0.250000  0.713348  0.993503  1
  Ni  Ni9  1  0.250000  0.786495  0.495147  1
  Ni  Ni10  1  0.750000  0.286088  0.005018  1
  Ni  Ni11  1  0.750000  0.213393  0.505670  1
  Ni  Ni12  1  0.250000  0.407686  0.488095  1
  Ni  Ni13  1  0.250000  0.092743  0.986172  1
  Ni  Ni14  1  0.750000  0.592833  0.511712  1
  Ni  Ni15  1  0.750000  0.908375  0.011532  1
  Ni  Ni16  1  0.250000  0.224651  0.176610  1
  Ni  Ni17  1  0.250000  0.274088  0.677147  1
  Ni  Ni18  1  0.750000  0.775258  0.823027  1
  Ni  Ni19  1  0.750000  0.725243  0.323140  1
  Ni  Ni20  1  0.250000  0.878724  0.702641  1
  Ni  Ni21  1  0.250000  0.623358  0.201277  1
  Ni  Ni22  1  0.750000  0.122630  0.298878  1
  Ni  Ni23  1  0.750000  0.375928  0.798353  1
  P  P24  1  0.250000  0.425842  0.111628  1
  P  P25  1  0.250000  0.074038  0.613268  1
  P  P26  1  0.750000  0.573659  0.887892  1
  P  P27  1  0.750000  0.926049  0.388990  1
  P  P28  1  0.250000  0.267483  0.868324  1
  P  P29  1  0.250000  0.230860  0.369277  1
  P  P30  1  0.750000  0.731268  0.130486  1
  P  P31  1  0.750000  0.769282  0.630807  1
  P  P32  1  0.250000  0.604319  0.392866  1
  P  P33  1  0.250000  0.896851  0.892806  1
  P  P34  1  0.750000  0.395990  0.606812  1
  P  P35  1  0.750000  0.104323  0.106981  1
