# generated using pymatgen
data_Pr3Tm2Be3P9Ir19
_symmetry_space_group_name_H-M   'P 1'
_cell_length_a   12.68678700
_cell_length_b   12.68678739
_cell_length_c   3.97320200
_cell_angle_alpha   90.00000000
_cell_angle_beta   90.00000000
_cell_angle_gamma   120.00000158
_symmetry_Int_Tables_number   1
_chemical_formula_structural   Pr3Tm2Be3P9Ir19
_chemical_formula_sum   'Pr3 Tm2 Be3 P9 Ir19'
_cell_volume   553.82758170
_cell_formula_units_Z   1
loop_
 _symmetry_equiv_pos_site_id
 _symmetry_equiv_pos_as_xyz
  1  'x, y, z'
loop_
 _atom_site_type_symbol
 _atom_site_label
 _atom_site_symmetry_multiplicity
 _atom_site_fract_x
 _atom_site_fract_y
 _atom_site_fract_z
 _atom_site_occupancy
  Pr  Pr0  1  0.813515  0.808932  0.500000  1
  Pr  Pr1  1  0.191068  0.004584  0.500000  1
  Pr  Pr2  1  0.995416  0.186485  0.500000  1
  Tm  Tm3  1  0.666667  0.333333  0.000000  1
  Tm  Tm4  1  0.333333  0.666667  0.000000  1
  Be  Be5  1  0.683566  0.164484  0.500000  1
  Be  Be6  1  0.835516  0.519081  0.500000  1
  Be  Be7  1  0.480919  0.316434  0.500000  1
  P  P8  1  0.180598  0.697574  0.500000  1
  P  P9  1  0.516977  0.819402  0.500000  1
  P  P10  1  0.302426  0.483023  0.500000  1
  P  P11  1  0.637385  0.623165  0.000000  1
  P  P12  1  0.376835  0.014218  0.000000  1
  P  P13  1  0.985782  0.362615  0.000000  1
  P  P14  1  0.182476  0.184516  0.000000  1
  P  P15  1  0.815484  0.997961  0.000000  1
  P  P16  1  0.002039  0.817524  0.000000  1
  Ir  Ir17  1  0.798073  0.176541  0.000000  1
  Ir  Ir18  1  0.823459  0.621532  0.000000  1
  Ir  Ir19  1  0.378468  0.201927  0.000000  1
  Ir  Ir20  1  0.189868  0.806722  0.000000  1
  Ir  Ir21  1  0.616855  0.810132  0.000000  1
  Ir  Ir22  1  0.193278  0.383145  0.000000  1
  Ir  Ir23  1  0.454191  0.446346  0.000000  1
  Ir  Ir24  1  0.553654  0.007845  0.000000  1
  Ir  Ir25  1  0.992155  0.545809  0.000000  1
  Ir  Ir26  1  0.284955  0.291529  0.500000  1
  Ir  Ir27  1  0.708471  0.993426  0.500000  1
  Ir  Ir28  1  0.006574  0.715045  0.500000  1
  Ir  Ir29  1  0.870206  0.355516  0.500000  1
  Ir  Ir30  1  0.644484  0.514691  0.500000  1
  Ir  Ir31  1  0.485309  0.129794  0.500000  1
  Ir  Ir32  1  0.370794  0.870588  0.500000  1
  Ir  Ir33  1  0.499796  0.629206  0.500000  1
  Ir  Ir34  1  0.129412  0.500204  0.500000  1
  Ir  Ir35  1  0.000000  0.000000  0.000000  1
