# generated using pymatgen
data_ErSc9(Si5Ir2)4
_symmetry_space_group_name_H-M   'P 1'
_cell_length_a   12.42456656
_cell_length_b   12.42456656
_cell_length_c   4.11767400
_cell_angle_alpha   90.00000000
_cell_angle_beta   90.00000000
_cell_angle_gamma   89.94250393
_symmetry_Int_Tables_number   1
_chemical_formula_structural   ErSc9(Si5Ir2)4
_chemical_formula_sum   'Er1 Sc9 Si20 Ir8'
_cell_volume   635.64441539
_cell_formula_units_Z   1
loop_
 _symmetry_equiv_pos_site_id
 _symmetry_equiv_pos_as_xyz
  1  'x, y, z'
loop_
 _atom_site_type_symbol
 _atom_site_label
 _atom_site_symmetry_multiplicity
 _atom_site_fract_x
 _atom_site_fract_y
 _atom_site_fract_z
 _atom_site_occupancy
  Er  Er0  1  0.616554  0.883446  0.500000  1
  Sc  Sc1  1  0.500173  0.499608  0.000000  1
  Sc  Sc2  1  0.000392  0.999827  0.000000  1
  Sc  Sc3  1  0.673135  0.174258  0.500000  1
  Sc  Sc4  1  0.325742  0.826865  0.500000  1
  Sc  Sc5  1  0.173273  0.326727  0.500000  1
  Sc  Sc6  1  0.827708  0.672292  0.500000  1
  Sc  Sc7  1  0.882645  0.382827  0.500000  1
  Sc  Sc8  1  0.117173  0.617355  0.500000  1
  Sc  Sc9  1  0.383139  0.116861  0.500000  1
  Si  Si10  1  0.565872  0.067177  0.000000  1
  Si  Si11  1  0.432823  0.934128  0.000000  1
  Si  Si12  1  0.066212  0.433788  0.000000  1
  Si  Si13  1  0.934245  0.565755  0.000000  1
  Si  Si14  1  0.666781  0.698240  0.000000  1
  Si  Si15  1  0.333575  0.300526  0.000000  1
  Si  Si16  1  0.166098  0.800657  0.000000  1
  Si  Si17  1  0.834100  0.200163  0.000000  1
  Si  Si18  1  0.299837  0.665900  0.000000  1
  Si  Si19  1  0.699343  0.333902  0.000000  1
  Si  Si20  1  0.199474  0.166425  0.000000  1
  Si  Si21  1  0.801760  0.833219  0.000000  1
  Si  Si22  1  0.652000  0.505773  0.500000  1
  Si  Si23  1  0.348051  0.493682  0.500000  1
  Si  Si24  1  0.151788  0.994793  0.500000  1
  Si  Si25  1  0.849702  0.008033  0.500000  1
  Si  Si26  1  0.491967  0.650298  0.500000  1
  Si  Si27  1  0.505207  0.348212  0.500000  1
  Si  Si28  1  0.006318  0.151949  0.500000  1
  Si  Si29  1  0.994227  0.848000  0.500000  1
  Ir  Ir30  1  0.747177  0.518070  0.000000  1
  Ir  Ir31  1  0.252919  0.481250  0.000000  1
  Ir  Ir32  1  0.245895  0.981545  0.000000  1
  Ir  Ir33  1  0.754971  0.019412  0.000000  1
  Ir  Ir34  1  0.480588  0.745029  0.000000  1
  Ir  Ir35  1  0.518455  0.254105  0.000000  1
  Ir  Ir36  1  0.018750  0.247081  0.000000  1
  Ir  Ir37  1  0.981930  0.752823  0.000000  1
