# generated using pymatgen
data_Dy17(HoPt4)3
_symmetry_space_group_name_H-M   'P 1'
_cell_length_a   11.03525200
_cell_length_b   11.03577900
_cell_length_c   6.41108800
_cell_angle_alpha   90.00000000
_cell_angle_beta   90.00000000
_cell_angle_gamma   89.99887857
_symmetry_Int_Tables_number   1
_chemical_formula_structural   Dy17(HoPt4)3
_chemical_formula_sum   'Dy17 Ho3 Pt12'
_cell_volume   780.75898009
_cell_formula_units_Z   1
loop_
 _symmetry_equiv_pos_site_id
 _symmetry_equiv_pos_as_xyz
  1  'x, y, z'
loop_
 _atom_site_type_symbol
 _atom_site_label
 _atom_site_symmetry_multiplicity
 _atom_site_fract_x
 _atom_site_fract_y
 _atom_site_fract_z
 _atom_site_occupancy
  Dy  Dy0  1  0.292288  0.088935  0.376117  1
  Dy  Dy1  1  0.292279  0.911111  0.876140  1
  Dy  Dy2  1  0.707721  0.088889  0.876140  1
  Dy  Dy3  1  0.707712  0.911065  0.376117  1
  Dy  Dy4  1  0.588923  0.792452  0.876064  1
  Dy  Dy5  1  0.589025  0.207466  0.375957  1
  Dy  Dy6  1  0.410975  0.792534  0.375957  1
  Dy  Dy7  1  0.411077  0.207548  0.876064  1
  Dy  Dy8  1  0.206555  0.411109  0.623752  1
  Dy  Dy9  1  0.206665  0.588795  0.123621  1
  Dy  Dy10  1  0.793335  0.411205  0.123621  1
  Dy  Dy11  1  0.793445  0.588891  0.623752  1
  Dy  Dy12  1  0.911226  0.706868  0.123571  1
  Dy  Dy13  1  0.911178  0.293154  0.623573  1
  Dy  Dy14  1  0.088822  0.706846  0.623573  1
  Dy  Dy15  1  0.088774  0.293132  0.123571  1
  Dy  Dy16  1  0.500000  0.500000  0.500952  1
  Ho  Ho17  1  0.000000  0.000000  0.500950  1
  Ho  Ho18  1  0.000000  0.000000  0.000956  1
  Ho  Ho19  1  0.500000  0.500000  0.000915  1
  Pt  Pt20  1  0.000000  0.500000  0.881201  1
  Pt  Pt21  1  0.000000  0.500000  0.381196  1
  Pt  Pt22  1  0.846556  0.152858  0.250465  1
  Pt  Pt23  1  0.846565  0.847138  0.750465  1
  Pt  Pt24  1  0.153435  0.152862  0.750465  1
  Pt  Pt25  1  0.153444  0.847142  0.250465  1
  Pt  Pt26  1  0.653193  0.346157  0.751026  1
  Pt  Pt27  1  0.653235  0.653773  0.249869  1
  Pt  Pt28  1  0.346765  0.346227  0.249869  1
  Pt  Pt29  1  0.346807  0.653843  0.751026  1
  Pt  Pt30  1  0.500000  0.000000  0.116315  1
  Pt  Pt31  1  0.500000  0.000000  0.616279  1
