# generated using pymatgen
data_TbLu2Pa3(Ni3Bi4)2
_symmetry_space_group_name_H-M   'P 1'
_cell_length_a   8.31259868
_cell_length_b   8.35191629
_cell_length_c   8.31259836
_cell_angle_alpha   109.17659526
_cell_angle_beta   109.38659117
_cell_angle_gamma   109.65975052
_symmetry_Int_Tables_number   1
_chemical_formula_structural   TbLu2Pa3(Ni3Bi4)2
_chemical_formula_sum   'Tb1 Lu2 Pa3 Ni6 Bi8'
_cell_volume   445.29731055
_cell_formula_units_Z   1
loop_
 _symmetry_equiv_pos_site_id
 _symmetry_equiv_pos_as_xyz
  1  'x, y, z'
loop_
 _atom_site_type_symbol
 _atom_site_label
 _atom_site_symmetry_multiplicity
 _atom_site_fract_x
 _atom_site_fract_y
 _atom_site_fract_z
 _atom_site_occupancy
  Tb  Tb0  1  0.626410  0.750000  0.376410  1
  Lu  Lu1  1  0.251694  0.125169  0.876529  1
  Lu  Lu2  1  0.751361  0.374831  0.626524  1
  Pa  Pa3  1  0.124983  0.877595  0.249559  1
  Pa  Pa4  1  0.371963  0.622405  0.747388  1
  Pa  Pa5  1  0.872754  0.250000  0.122754  1
  Ni  Ni6  1  0.634845  0.363487  0.242626  1
  Ni  Ni7  1  0.879139  0.136513  0.771358  1
  Ni  Ni8  1  0.370154  0.250000  0.620154  1
  Ni  Ni9  1  0.127716  0.750000  0.877716  1
  Ni  Ni10  1  0.235509  0.615912  0.372737  1
  Ni  Ni11  1  0.756826  0.884088  0.119596  1
  Bi  Bi12  1  0.340103  0.336022  0.332611  1
  Bi  Bi13  1  0.168183  0.501447  0.000080  1
  Bi  Bi14  1  0.996588  0.163978  0.504080  1
  Bi  Bi15  1  0.835104  0.831975  0.829455  1
  Bi  Bi16  1  0.498632  0.998553  0.166736  1
  Bi  Bi17  1  0.662113  0.499458  0.997903  1
  Bi  Bi18  1  0.498446  0.000542  0.662656  1
  Bi  Bi19  1  0.997480  0.668025  0.503128  1
