# generated using pymatgen
data_PrSmZn5Sn
_symmetry_space_group_name_H-M   'P 1'
_cell_length_a   8.55607700
_cell_length_b   8.55607774
_cell_length_c   9.07789600
_cell_angle_alpha   90.00000000
_cell_angle_beta   90.00000000
_cell_angle_gamma   149.63427889
_symmetry_Int_Tables_number   1
_chemical_formula_structural   PrSmZn5Sn
_chemical_formula_sum   'Pr2 Sm2 Zn10 Sn2'
_cell_volume   335.94712760
_cell_formula_units_Z   2
loop_
 _symmetry_equiv_pos_site_id
 _symmetry_equiv_pos_as_xyz
  1  'x, y, z'
loop_
 _atom_site_type_symbol
 _atom_site_label
 _atom_site_symmetry_multiplicity
 _atom_site_fract_x
 _atom_site_fract_y
 _atom_site_fract_z
 _atom_site_occupancy
  Pr  Pr0  1  0.000000  0.000000  0.500000  1
  Pr  Pr1  1  0.000000  0.000000  0.000000  1
  Sm  Sm2  1  0.205681  0.794319  0.250000  1
  Sm  Sm3  1  0.794319  0.205681  0.750000  1
  Zn  Zn4  1  0.813454  0.186546  0.391066  1
  Zn  Zn5  1  0.186546  0.813454  0.608934  1
  Zn  Zn6  1  0.813454  0.186546  0.108934  1
  Zn  Zn7  1  0.186546  0.813454  0.891066  1
  Zn  Zn8  1  0.656975  0.343025  0.483135  1
  Zn  Zn9  1  0.343025  0.656975  0.516865  1
  Zn  Zn10  1  0.656975  0.343025  0.016865  1
  Zn  Zn11  1  0.343025  0.656975  0.983135  1
  Zn  Zn12  1  0.395101  0.604899  0.250000  1
  Zn  Zn13  1  0.604899  0.395101  0.750000  1
  Sn  Sn14  1  0.556618  0.443382  0.250000  1
  Sn  Sn15  1  0.443382  0.556618  0.750000  1
