# generated using pymatgen
data_GdLuSe2(BrO3)2
_symmetry_space_group_name_H-M   'P 1'
_cell_length_a   6.95481100
_cell_length_b   7.63735681
_cell_length_c   8.98295356
_cell_angle_alpha   90.04667812
_cell_angle_beta   90.00000000
_cell_angle_gamma   90.00000000
_symmetry_Int_Tables_number   1
_chemical_formula_structural   GdLuSe2(BrO3)2
_chemical_formula_sum   'Gd2 Lu2 Se4 Br4 O12'
_cell_volume   477.14175512
_cell_formula_units_Z   2
loop_
 _symmetry_equiv_pos_site_id
 _symmetry_equiv_pos_as_xyz
  1  'x, y, z'
loop_
 _atom_site_type_symbol
 _atom_site_label
 _atom_site_symmetry_multiplicity
 _atom_site_fract_x
 _atom_site_fract_y
 _atom_site_fract_z
 _atom_site_occupancy
  Gd  Gd0  1  0.250000  0.894848  0.030521  1
  Gd  Gd1  1  0.750000  0.105152  0.969479  1
  Lu  Lu2  1  0.750000  0.599354  0.526870  1
  Lu  Lu3  1  0.250000  0.400646  0.473130  1
  Se  Se4  1  0.250000  0.778142  0.625630  1
  Se  Se5  1  0.750000  0.221858  0.374370  1
  Se  Se6  1  0.750000  0.713563  0.133071  1
  Se  Se7  1  0.250000  0.286437  0.866929  1
  Br  Br8  1  0.250000  0.551317  0.182680  1
  Br  Br9  1  0.750000  0.448683  0.817320  1
  Br  Br10  1  0.750000  0.935053  0.673682  1
  Br  Br11  1  0.250000  0.064947  0.326318  1
  O  O12  1  0.071470  0.630750  0.564801  1
  O  O13  1  0.928530  0.369250  0.435199  1
  O  O14  1  0.927780  0.860360  0.072766  1
  O  O15  1  0.571470  0.369250  0.435199  1
  O  O16  1  0.072220  0.139640  0.927234  1
  O  O17  1  0.428530  0.630750  0.564801  1
  O  O18  1  0.427780  0.139640  0.927234  1
  O  O19  1  0.572220  0.860360  0.072766  1
  O  O20  1  0.250000  0.748921  0.813335  1
  O  O21  1  0.750000  0.251079  0.186665  1
  O  O22  1  0.750000  0.742518  0.320920  1
  O  O23  1  0.250000  0.257482  0.679080  1
