# generated using pymatgen
data_Hf8Ti3Nb9Si16
_symmetry_space_group_name_H-M   'P 1'
_cell_length_a   6.84748042
_cell_length_b   6.84747985
_cell_length_c   12.64962913
_cell_angle_alpha   90.05157231
_cell_angle_beta   89.94842689
_cell_angle_gamma   89.96349997
_symmetry_Int_Tables_number   1
_chemical_formula_structural   Hf8Ti3Nb9Si16
_chemical_formula_sum   'Hf8 Ti3 Nb9 Si16'
_cell_volume   593.11500950
_cell_formula_units_Z   1
loop_
 _symmetry_equiv_pos_site_id
 _symmetry_equiv_pos_as_xyz
  1  'x, y, z'
loop_
 _atom_site_type_symbol
 _atom_site_label
 _atom_site_symmetry_multiplicity
 _atom_site_fract_x
 _atom_site_fract_y
 _atom_site_fract_z
 _atom_site_occupancy
  Hf  Hf0  1  0.999206  0.656343  0.031666  1
  Hf  Hf1  1  0.000937  0.343766  0.531557  1
  Hf  Hf2  1  0.656343  0.999206  0.968334  1
  Hf  Hf3  1  0.157120  0.500582  0.782118  1
  Hf  Hf4  1  0.843220  0.500638  0.281285  1
  Hf  Hf5  1  0.500582  0.157120  0.217882  1
  Hf  Hf6  1  0.500638  0.843220  0.718715  1
  Hf  Hf7  1  0.343766  0.000937  0.468443  1
  Ti  Ti8  1  0.829012  0.170411  0.750383  1
  Ti  Ti9  1  0.170411  0.829012  0.249617  1
  Ti  Ti10  1  0.328927  0.328927  0.000000  1
  Nb  Nb11  1  0.348302  0.503040  0.375883  1
  Nb  Nb12  1  0.849248  0.996505  0.373513  1
  Nb  Nb13  1  0.003464  0.150464  0.125857  1
  Nb  Nb14  1  0.996505  0.849248  0.626487  1
  Nb  Nb15  1  0.503040  0.348302  0.624117  1
  Nb  Nb16  1  0.150464  0.003464  0.874143  1
  Nb  Nb17  1  0.670887  0.670887  0.500000  1
  Nb  Nb18  1  0.496579  0.650794  0.123561  1
  Nb  Nb19  1  0.650794  0.496579  0.876439  1
  Si  Si20  1  0.046387  0.702198  0.434811  1
  Si  Si21  1  0.956051  0.299227  0.935854  1
  Si  Si22  1  0.702198  0.046387  0.565189  1
  Si  Si23  1  0.200494  0.456033  0.185166  1
  Si  Si24  1  0.800335  0.542200  0.687578  1
  Si  Si25  1  0.456033  0.200494  0.814834  1
  Si  Si26  1  0.542200  0.800335  0.312422  1
  Si  Si27  1  0.299227  0.956051  0.064146  1
  Si  Si28  1  0.795954  0.860814  0.177907  1
  Si  Si29  1  0.293508  0.638647  0.573145  1
  Si  Si30  1  0.704628  0.360454  0.071457  1
  Si  Si31  1  0.638647  0.293508  0.426855  1
  Si  Si32  1  0.360454  0.704628  0.928543  1
  Si  Si33  1  0.139030  0.204593  0.321027  1
  Si  Si34  1  0.204593  0.139030  0.678973  1
  Si  Si35  1  0.860814  0.795954  0.822093  1
