# generated using pymatgen
data_CaLu(Re2Si)4
_symmetry_space_group_name_H-M   'P 1'
_cell_length_a   7.38118101
_cell_length_b   7.38118017
_cell_length_c   4.16165100
_cell_angle_alpha   90.00000000
_cell_angle_beta   90.00000000
_cell_angle_gamma   90.60297234
_symmetry_Int_Tables_number   1
_chemical_formula_structural   CaLu(Re2Si)4
_chemical_formula_sum   'Ca1 Lu1 Re8 Si4'
_cell_volume   226.72179393
_cell_formula_units_Z   1
loop_
 _symmetry_equiv_pos_site_id
 _symmetry_equiv_pos_as_xyz
  1  'x, y, z'
loop_
 _atom_site_type_symbol
 _atom_site_label
 _atom_site_symmetry_multiplicity
 _atom_site_fract_x
 _atom_site_fract_y
 _atom_site_fract_z
 _atom_site_occupancy
  Ca  Ca0  1  0.000000  0.000000  0.500000  1
  Lu  Lu1  1  0.500000  0.500000  0.000000  1
  Re  Re2  1  0.655533  0.901003  0.000000  1
  Re  Re3  1  0.159668  0.591351  0.500000  1
  Re  Re4  1  0.098997  0.344467  0.000000  1
  Re  Re5  1  0.901003  0.655533  0.000000  1
  Re  Re6  1  0.408649  0.840332  0.500000  1
  Re  Re7  1  0.591351  0.159668  0.500000  1
  Re  Re8  1  0.344467  0.098997  0.000000  1
  Re  Re9  1  0.840332  0.408649  0.500000  1
  Si  Si10  1  0.209350  0.790650  0.000000  1
  Si  Si11  1  0.790650  0.209350  0.000000  1
  Si  Si12  1  0.707716  0.707716  0.500000  1
  Si  Si13  1  0.292284  0.292284  0.500000  1
