# generated using pymatgen
data_Zr2V2ReOs
_symmetry_space_group_name_H-M   'P 1'
_cell_length_a   5.21898155
_cell_length_b   5.23584042
_cell_length_c   5.21898109
_cell_angle_alpha   119.03952898
_cell_angle_beta   119.85393261
_cell_angle_gamma   90.86975507
_symmetry_Int_Tables_number   1
_chemical_formula_structural   Zr2V2ReOs
_chemical_formula_sum   'Zr2 V2 Re1 Os1'
_cell_volume   101.74713292
_cell_formula_units_Z   1
loop_
 _symmetry_equiv_pos_site_id
 _symmetry_equiv_pos_as_xyz
  1  'x, y, z'
loop_
 _atom_site_type_symbol
 _atom_site_label
 _atom_site_symmetry_multiplicity
 _atom_site_fract_x
 _atom_site_fract_y
 _atom_site_fract_z
 _atom_site_occupancy
  Zr  Zr0  1  0.372842  0.122581  0.249737  1
  Zr  Zr1  1  0.627158  0.877419  0.750263  1
  V  V2  1  0.500000  0.500000  0.000000  1
  V  V3  1  0.000000  0.500000  0.500000  1
  Re  Re4  1  0.000000  0.500000  0.000000  1
  Os  Os5  1  0.000000  0.000000  0.500000  1
