# generated using pymatgen
data_LiTm3Th6(Bi3C)2
_symmetry_space_group_name_H-M   'P 1'
_cell_length_a   9.29476000
_cell_length_b   9.29476199
_cell_length_c   6.42614800
_cell_angle_alpha   90.00000000
_cell_angle_beta   90.00000000
_cell_angle_gamma   120.00000004
_symmetry_Int_Tables_number   1
_chemical_formula_structural   LiTm3Th6(Bi3C)2
_chemical_formula_sum   'Li1 Tm3 Th6 Bi6 C2'
_cell_volume   480.79263749
_cell_formula_units_Z   1
loop_
 _symmetry_equiv_pos_site_id
 _symmetry_equiv_pos_as_xyz
  1  'x, y, z'
loop_
 _atom_site_type_symbol
 _atom_site_label
 _atom_site_symmetry_multiplicity
 _atom_site_fract_x
 _atom_site_fract_y
 _atom_site_fract_z
 _atom_site_occupancy
  Li  Li0  1  0.666667  0.333333  0.000000  1
  Tm  Tm1  1  0.333333  0.666667  0.000000  1
  Tm  Tm2  1  0.333333  0.666667  0.500000  1
  Tm  Tm3  1  0.666667  0.333333  0.500000  1
  Th  Th4  1  0.778166  0.779910  0.748072  1
  Th  Th5  1  0.220090  0.998255  0.748072  1
  Th  Th6  1  0.001745  0.221834  0.748072  1
  Th  Th7  1  0.220090  0.221834  0.251928  1
  Th  Th8  1  0.778166  0.998255  0.251928  1
  Th  Th9  1  0.001745  0.779910  0.251928  1
  Bi  Bi10  1  0.409954  0.406634  0.751532  1
  Bi  Bi11  1  0.593366  0.003320  0.751532  1
  Bi  Bi12  1  0.996680  0.590046  0.751532  1
  Bi  Bi13  1  0.593366  0.590046  0.248468  1
  Bi  Bi14  1  0.409954  0.003320  0.248468  1
  Bi  Bi15  1  0.996680  0.406634  0.248468  1
  C  C16  1  0.000000  0.000000  0.000000  1
  C  C17  1  0.000000  0.000000  0.500000  1
