# generated using pymatgen
data_Cs3Li2O6
_symmetry_space_group_name_H-M   'P 1'
_cell_length_a   9.98601000
_cell_length_b   9.98601002
_cell_length_c   5.72493400
_cell_angle_alpha   90.00000000
_cell_angle_beta   90.00000000
_cell_angle_gamma   133.72786503
_symmetry_Int_Tables_number   1
_chemical_formula_structural   Cs3Li2O6
_chemical_formula_sum   'Cs6 Li4 O12'
_cell_volume   412.54478584
_cell_formula_units_Z   2
loop_
 _symmetry_equiv_pos_site_id
 _symmetry_equiv_pos_as_xyz
  1  'x, y, z'
loop_
 _atom_site_type_symbol
 _atom_site_label
 _atom_site_symmetry_multiplicity
 _atom_site_fract_x
 _atom_site_fract_y
 _atom_site_fract_z
 _atom_site_occupancy
  Cs  Cs0  1  0.206167  0.206167  0.750000  1
  Cs  Cs1  1  0.793833  0.793833  0.250000  1
  Cs  Cs2  1  0.008509  0.635109  0.750000  1
  Cs  Cs3  1  0.364891  0.991491  0.250000  1
  Cs  Cs4  1  0.991491  0.364891  0.250000  1
  Cs  Cs5  1  0.635109  0.008509  0.750000  1
  Li  Li6  1  0.403651  0.596349  0.500000  1
  Li  Li7  1  0.403651  0.596349  0.000000  1
  Li  Li8  1  0.596349  0.403651  0.500000  1
  Li  Li9  1  0.596349  0.403651  0.000000  1
  O  O10  1  0.527405  0.226566  0.750000  1
  O  O11  1  0.773434  0.472595  0.250000  1
  O  O12  1  0.472595  0.773434  0.250000  1
  O  O13  1  0.226566  0.527405  0.750000  1
  O  O14  1  0.035728  0.348828  0.750000  1
  O  O15  1  0.651172  0.964272  0.250000  1
  O  O16  1  0.964272  0.651172  0.250000  1
  O  O17  1  0.348828  0.035728  0.750000  1
  O  O18  1  0.656330  0.577335  0.750000  1
  O  O19  1  0.422665  0.343670  0.250000  1
  O  O20  1  0.343670  0.422665  0.250000  1
  O  O21  1  0.577335  0.656330  0.750000  1
