# generated using pymatgen
data_EuCoP3Ru4
_symmetry_space_group_name_H-M   'P 1'
_cell_length_a   3.86742800
_cell_length_b   10.73712200
_cell_length_c   12.46323700
_cell_angle_alpha   90.00000000
_cell_angle_beta   90.00000000
_cell_angle_gamma   90.00000000
_symmetry_Int_Tables_number   1
_chemical_formula_structural   EuCoP3Ru4
_chemical_formula_sum   'Eu4 Co4 P12 Ru16'
_cell_volume   517.53649300
_cell_formula_units_Z   4
loop_
 _symmetry_equiv_pos_site_id
 _symmetry_equiv_pos_as_xyz
  1  'x, y, z'
loop_
 _atom_site_type_symbol
 _atom_site_label
 _atom_site_symmetry_multiplicity
 _atom_site_fract_x
 _atom_site_fract_y
 _atom_site_fract_z
 _atom_site_occupancy
  Eu  Eu0  1  0.250000  0.584338  0.707331  1
  Eu  Eu1  1  0.250000  0.915662  0.207331  1
  Eu  Eu2  1  0.750000  0.415662  0.292669  1
  Eu  Eu3  1  0.750000  0.084338  0.792669  1
  Co  Co4  1  0.250000  0.463686  0.938133  1
  Co  Co5  1  0.250000  0.036314  0.438133  1
  Co  Co6  1  0.750000  0.536314  0.061867  1
  Co  Co7  1  0.750000  0.963686  0.561867  1
  P  P8  1  0.250000  0.423451  0.107880  1
  P  P9  1  0.250000  0.076549  0.607880  1
  P  P10  1  0.750000  0.576549  0.892120  1
  P  P11  1  0.750000  0.923451  0.392120  1
  P  P12  1  0.250000  0.274725  0.869238  1
  P  P13  1  0.250000  0.225275  0.369238  1
  P  P14  1  0.750000  0.725275  0.130762  1
  P  P15  1  0.750000  0.774725  0.630762  1
  P  P16  1  0.250000  0.605327  0.393993  1
  P  P17  1  0.250000  0.894673  0.893993  1
  P  P18  1  0.750000  0.394673  0.606007  1
  P  P19  1  0.750000  0.105327  0.106007  1
  Ru  Ru20  1  0.250000  0.704155  0.985333  1
  Ru  Ru21  1  0.250000  0.795845  0.485333  1
  Ru  Ru22  1  0.750000  0.295845  0.014667  1
  Ru  Ru23  1  0.750000  0.204155  0.514667  1
  Ru  Ru24  1  0.250000  0.404229  0.486253  1
  Ru  Ru25  1  0.250000  0.095771  0.986253  1
  Ru  Ru26  1  0.750000  0.595771  0.513747  1
  Ru  Ru27  1  0.750000  0.904229  0.013747  1
  Ru  Ru28  1  0.250000  0.224657  0.175445  1
  Ru  Ru29  1  0.250000  0.275343  0.675445  1
  Ru  Ru30  1  0.750000  0.775343  0.824555  1
  Ru  Ru31  1  0.750000  0.724657  0.324555  1
  Ru  Ru32  1  0.250000  0.885446  0.697323  1
  Ru  Ru33  1  0.250000  0.614554  0.197323  1
  Ru  Ru34  1  0.750000  0.114554  0.302677  1
  Ru  Ru35  1  0.750000  0.385446  0.802677  1
