# generated using pymatgen
data_Na4TmP12Ir10Rh9
_symmetry_space_group_name_H-M   'P 1'
_cell_length_a   12.62721900
_cell_length_b   12.62721787
_cell_length_c   3.94507200
_cell_angle_alpha   90.00000000
_cell_angle_beta   90.00000000
_cell_angle_gamma   119.99999509
_symmetry_Int_Tables_number   1
_chemical_formula_structural   Na4TmP12Ir10Rh9
_chemical_formula_sum   'Na4 Tm1 P12 Ir10 Rh9'
_cell_volume   544.75468466
_cell_formula_units_Z   1
loop_
 _symmetry_equiv_pos_site_id
 _symmetry_equiv_pos_as_xyz
  1  'x, y, z'
loop_
 _atom_site_type_symbol
 _atom_site_label
 _atom_site_symmetry_multiplicity
 _atom_site_fract_x
 _atom_site_fract_y
 _atom_site_fract_z
 _atom_site_occupancy
  Na  Na0  1  0.333333  0.666667  0.500000  1
  Na  Na1  1  0.181160  0.180816  0.000000  1
  Na  Na2  1  0.819184  0.000344  0.000000  1
  Na  Na3  1  0.999656  0.818840  0.000000  1
  Tm  Tm4  1  0.666667  0.333333  0.500000  1
  P  P5  1  0.314261  0.829397  0.000000  1
  P  P6  1  0.170603  0.484864  0.000000  1
  P  P7  1  0.515136  0.685739  0.000000  1
  P  P8  1  0.830764  0.310760  0.000000  1
  P  P9  1  0.479996  0.169236  0.000000  1
  P  P10  1  0.689240  0.520004  0.000000  1
  P  P11  1  0.361893  0.365049  0.500000  1
  P  P12  1  0.634951  0.996844  0.500000  1
  P  P13  1  0.003156  0.638107  0.500000  1
  P  P14  1  0.820479  0.821290  0.500000  1
  P  P15  1  0.178710  0.999189  0.500000  1
  P  P16  1  0.000811  0.179521  0.500000  1
  Ir  Ir17  1  0.127245  0.641294  0.000000  1
  Ir  Ir18  1  0.358706  0.485950  0.000000  1
  Ir  Ir19  1  0.514050  0.872755  0.000000  1
  Ir  Ir20  1  0.639055  0.133349  0.000000  1
  Ir  Ir21  1  0.494294  0.360945  0.000000  1
  Ir  Ir22  1  0.866651  0.505706  0.000000  1
  Ir  Ir23  1  0.715213  0.715866  0.000000  1
  Ir  Ir24  1  0.284134  0.999346  0.000000  1
  Ir  Ir25  1  0.000654  0.284787  0.000000  1
  Ir  Ir26  1  0.000000  0.000000  0.500000  1
  Rh  Rh27  1  0.197073  0.818756  0.500000  1
  Rh  Rh28  1  0.181244  0.378318  0.500000  1
  Rh  Rh29  1  0.621682  0.802927  0.500000  1
  Rh  Rh30  1  0.816369  0.193167  0.500000  1
  Rh  Rh31  1  0.376799  0.183631  0.500000  1
  Rh  Rh32  1  0.806833  0.623201  0.500000  1
  Rh  Rh33  1  0.544387  0.542829  0.500000  1
  Rh  Rh34  1  0.457171  0.001558  0.500000  1
  Rh  Rh35  1  0.998442  0.455613  0.500000  1
