# generated using pymatgen
data_YbHo6CoCl12
_symmetry_space_group_name_H-M   'P 1'
_cell_length_a   8.74023939
_cell_length_b   8.74023880
_cell_length_c   8.74023902
_cell_angle_alpha   106.65839762
_cell_angle_beta   106.65840226
_cell_angle_gamma   106.65839383
_symmetry_Int_Tables_number   1
_chemical_formula_structural   YbHo6CoCl12
_chemical_formula_sum   'Yb1 Ho6 Co1 Cl12'
_cell_volume   561.15326472
_cell_formula_units_Z   1
loop_
 _symmetry_equiv_pos_site_id
 _symmetry_equiv_pos_as_xyz
  1  'x, y, z'
loop_
 _atom_site_type_symbol
 _atom_site_label
 _atom_site_symmetry_multiplicity
 _atom_site_fract_x
 _atom_site_fract_y
 _atom_site_fract_z
 _atom_site_occupancy
  Yb  Yb0  1  0.500000  0.500000  0.500000  1
  Ho  Ho1  1  0.975716  0.893054  0.685436  1
  Ho  Ho2  1  0.893054  0.685436  0.975716  1
  Ho  Ho3  1  0.685436  0.975716  0.893054  1
  Ho  Ho4  1  0.024284  0.106946  0.314564  1
  Ho  Ho5  1  0.106946  0.314564  0.024284  1
  Ho  Ho6  1  0.314564  0.024284  0.106946  1
  Co  Co7  1  0.000000  0.000000  0.000000  1
  Cl  Cl8  1  0.839492  0.544892  0.623923  1
  Cl  Cl9  1  0.544892  0.623923  0.839492  1
  Cl  Cl10  1  0.623923  0.839492  0.544892  1
  Cl  Cl11  1  0.160508  0.455108  0.376077  1
  Cl  Cl12  1  0.455108  0.376077  0.160508  1
  Cl  Cl13  1  0.376077  0.160508  0.455108  1
  Cl  Cl14  1  0.069459  0.215127  0.677928  1
  Cl  Cl15  1  0.215127  0.677928  0.069459  1
  Cl  Cl16  1  0.677928  0.069459  0.215127  1
  Cl  Cl17  1  0.930541  0.784873  0.322072  1
  Cl  Cl18  1  0.784873  0.322072  0.930541  1
  Cl  Cl19  1  0.322072  0.930541  0.784873  1
