# generated using pymatgen
data_DyY2Mg3Ag2Ru
_symmetry_space_group_name_H-M   'P 1'
_cell_length_a   7.74610826
_cell_length_b   7.75804964
_cell_length_c   3.96672100
_cell_angle_alpha   90.00000000
_cell_angle_beta   90.00000000
_cell_angle_gamma   120.16874743
_symmetry_Int_Tables_number   1
_chemical_formula_structural   DyY2Mg3Ag2Ru
_chemical_formula_sum   'Dy1 Y2 Mg3 Ag2 Ru1'
_cell_volume   206.09023304
_cell_formula_units_Z   1
loop_
 _symmetry_equiv_pos_site_id
 _symmetry_equiv_pos_as_xyz
  1  'x, y, z'
loop_
 _atom_site_type_symbol
 _atom_site_label
 _atom_site_symmetry_multiplicity
 _atom_site_fract_x
 _atom_site_fract_y
 _atom_site_fract_z
 _atom_site_occupancy
  Dy  Dy0  1  0.962593  0.566799  0.500000  1
  Y  Y1  1  0.431858  0.396093  0.500000  1
  Y  Y2  1  0.603598  0.035600  0.500000  1
  Mg  Mg3  1  0.743867  0.744999  0.000000  1
  Mg  Mg4  1  0.254970  0.998937  0.000000  1
  Mg  Mg5  1  0.001046  0.255922  0.000000  1
  Ag  Ag6  1  0.332711  0.666480  0.000000  1
  Ag  Ag7  1  0.000000  0.999658  0.500000  1
  Ru  Ru8  1  0.669357  0.335512  0.000000  1
