# generated using pymatgen
data_Lu16GaAg3Rh4
_symmetry_space_group_name_H-M   'P 1'
_cell_length_a   9.32673392
_cell_length_b   9.34269005
_cell_length_c   9.34269000
_cell_angle_alpha   60.00000018
_cell_angle_beta   59.94339139
_cell_angle_gamma   59.94339359
_symmetry_Int_Tables_number   1
_chemical_formula_structural   Lu16GaAg3Rh4
_chemical_formula_sum   'Lu16 Ga1 Ag3 Rh4'
_cell_volume   575.15691737
_cell_formula_units_Z   1
loop_
 _symmetry_equiv_pos_site_id
 _symmetry_equiv_pos_as_xyz
  1  'x, y, z'
loop_
 _atom_site_type_symbol
 _atom_site_label
 _atom_site_symmetry_multiplicity
 _atom_site_fract_x
 _atom_site_fract_y
 _atom_site_fract_z
 _atom_site_occupancy
  Lu  Lu0  1  0.601335  0.603785  0.603785  1
  Lu  Lu1  1  0.601335  0.603785  0.191097  1
  Lu  Lu2  1  0.601335  0.191097  0.603785  1
  Lu  Lu3  1  0.195766  0.601412  0.601412  1
  Lu  Lu4  1  0.061150  0.439176  0.439176  1
  Lu  Lu5  1  0.439675  0.058964  0.058964  1
  Lu  Lu6  1  0.439675  0.058964  0.442398  1
  Lu  Lu7  1  0.061150  0.439176  0.060498  1
  Lu  Lu8  1  0.439675  0.442398  0.058964  1
  Lu  Lu9  1  0.061150  0.060498  0.439176  1
  Lu  Lu10  1  0.184512  0.814990  0.814990  1
  Lu  Lu11  1  0.813004  0.186416  0.186416  1
  Lu  Lu12  1  0.813004  0.186416  0.814164  1
  Lu  Lu13  1  0.184512  0.814990  0.185507  1
  Lu  Lu14  1  0.813004  0.814164  0.186416  1
  Lu  Lu15  1  0.184512  0.185507  0.814990  1
  Ga  Ga16  1  0.506332  0.831223  0.831223  1
  Ag  Ag17  1  0.832611  0.832600  0.832600  1
  Ag  Ag18  1  0.832611  0.832600  0.502189  1
  Ag  Ag19  1  0.832611  0.502189  0.832600  1
  Rh  Rh20  1  0.393641  0.392698  0.392698  1
  Rh  Rh21  1  0.393641  0.392698  0.820961  1
  Rh  Rh22  1  0.393641  0.820961  0.392698  1
  Rh  Rh23  1  0.820122  0.393293  0.393293  1
