# generated using pymatgen
data_Nd4Zn3(Ga5Pd2)3
_symmetry_space_group_name_H-M   'P 1'
_cell_length_a   7.71078139
_cell_length_b   7.73109004
_cell_length_c   9.70182700
_cell_angle_alpha   90.00000000
_cell_angle_beta   90.00000000
_cell_angle_gamma   119.26598755
_symmetry_Int_Tables_number   1
_chemical_formula_structural   Nd4Zn3(Ga5Pd2)3
_chemical_formula_sum   'Nd4 Zn3 Ga15 Pd6'
_cell_volume   504.53140873
_cell_formula_units_Z   1
loop_
 _symmetry_equiv_pos_site_id
 _symmetry_equiv_pos_as_xyz
  1  'x, y, z'
loop_
 _atom_site_type_symbol
 _atom_site_label
 _atom_site_symmetry_multiplicity
 _atom_site_fract_x
 _atom_site_fract_y
 _atom_site_fract_z
 _atom_site_occupancy
  Nd  Nd0  1  0.996206  0.670067  0.250000  1
  Nd  Nd1  1  0.003649  0.330476  0.750000  1
  Nd  Nd2  1  0.671552  0.997889  0.250000  1
  Nd  Nd3  1  0.330292  0.003639  0.750000  1
  Zn  Zn4  1  0.140962  0.139541  0.250000  1
  Zn  Zn5  1  0.862989  0.862504  0.750000  1
  Zn  Zn6  1  0.342329  0.541529  0.250000  1
  Ga  Ga7  1  0.008630  0.335799  0.083822  1
  Ga  Ga8  1  0.994540  0.667103  0.919183  1
  Ga  Ga9  1  0.994540  0.667103  0.580817  1
  Ga  Ga10  1  0.333160  0.003158  0.418228  1
  Ga  Ga11  1  0.008630  0.335799  0.416178  1
  Ga  Ga12  1  0.667934  0.996299  0.581330  1
  Ga  Ga13  1  0.667934  0.996299  0.918670  1
  Ga  Ga14  1  0.333160  0.003158  0.081772  1
  Ga  Ga15  1  0.332767  0.332640  0.556906  1
  Ga  Ga16  1  0.662454  0.665105  0.438449  1
  Ga  Ga17  1  0.662454  0.665105  0.061551  1
  Ga  Ga18  1  0.332767  0.332640  0.943094  1
  Ga  Ga19  1  0.657303  0.456800  0.750000  1
  Ga  Ga20  1  0.538828  0.342590  0.250000  1
  Ga  Ga21  1  0.458269  0.656930  0.750000  1
  Pd  Pd22  1  0.673286  0.327490  0.000054  1
  Pd  Pd23  1  0.327159  0.672536  0.996879  1
  Pd  Pd24  1  0.327159  0.672536  0.503121  1
  Pd  Pd25  1  0.673286  0.327490  0.499946  1
  Pd  Pd26  1  0.998881  0.998889  0.000483  1
  Pd  Pd27  1  0.998881  0.998889  0.499517  1
