# generated using pymatgen
data_Zr5Ti3(Co4P3)4
_symmetry_space_group_name_H-M   'P 1'
_cell_length_a   11.93291700
_cell_length_b   11.93291739
_cell_length_c   3.62733400
_cell_angle_alpha   90.00000000
_cell_angle_beta   90.00000000
_cell_angle_gamma   119.99999615
_symmetry_Int_Tables_number   1
_chemical_formula_structural   Zr5Ti3(Co4P3)4
_chemical_formula_sum   'Zr5 Ti3 Co16 P12'
_cell_volume   447.31292695
_cell_formula_units_Z   1
loop_
 _symmetry_equiv_pos_site_id
 _symmetry_equiv_pos_as_xyz
  1  'x, y, z'
loop_
 _atom_site_type_symbol
 _atom_site_label
 _atom_site_symmetry_multiplicity
 _atom_site_fract_x
 _atom_site_fract_y
 _atom_site_fract_z
 _atom_site_occupancy
  Zr  Zr0  1  0.666667  0.333333  0.000000  1
  Zr  Zr1  1  0.333333  0.666667  0.000000  1
  Zr  Zr2  1  0.819918  0.819918  0.500000  1
  Zr  Zr3  1  0.180082  0.000000  0.500000  1
  Zr  Zr4  1  0.000000  0.180082  0.500000  1
  Ti  Ti5  1  0.442742  0.442742  0.000000  1
  Ti  Ti6  1  0.557258  0.000000  0.000000  1
  Ti  Ti7  1  0.000000  0.557258  0.000000  1
  Co  Co8  1  0.196106  0.374341  0.000000  1
  Co  Co9  1  0.178235  0.803894  0.000000  1
  Co  Co10  1  0.821765  0.625659  0.000000  1
  Co  Co11  1  0.803894  0.178235  0.000000  1
  Co  Co12  1  0.374341  0.196106  0.000000  1
  Co  Co13  1  0.126482  0.481705  0.500000  1
  Co  Co14  1  0.355224  0.873518  0.500000  1
  Co  Co15  1  0.518295  0.644776  0.500000  1
  Co  Co16  1  0.644776  0.518295  0.500000  1
  Co  Co17  1  0.873518  0.355224  0.500000  1
  Co  Co18  1  0.481705  0.126482  0.500000  1
  Co  Co19  1  0.000000  0.000000  0.000000  1
  Co  Co20  1  0.718235  0.000000  0.500000  1
  Co  Co21  1  0.000000  0.718235  0.500000  1
  Co  Co22  1  0.625659  0.821765  0.000000  1
  Co  Co23  1  0.281765  0.281765  0.500000  1
  P  P24  1  0.645967  0.645967  0.000000  1
  P  P25  1  0.354033  0.000000  0.000000  1
  P  P26  1  0.000000  0.354033  0.000000  1
  P  P27  1  0.482568  0.313605  0.500000  1
  P  P28  1  0.686395  0.168962  0.500000  1
  P  P29  1  0.831038  0.517432  0.500000  1
  P  P30  1  0.517432  0.831038  0.500000  1
  P  P31  1  0.168962  0.686395  0.500000  1
  P  P32  1  0.823647  0.000000  0.000000  1
  P  P33  1  0.000000  0.823647  0.000000  1
  P  P34  1  0.313605  0.482568  0.500000  1
  P  P35  1  0.176353  0.176353  0.000000  1
