# generated using pymatgen
data_Er3AlZn2Ni3
_symmetry_space_group_name_H-M   'P 1'
_cell_length_a   7.02152779
_cell_length_b   7.02152795
_cell_length_c   3.74693200
_cell_angle_alpha   90.00000000
_cell_angle_beta   90.00000000
_cell_angle_gamma   120.86659695
_symmetry_Int_Tables_number   1
_chemical_formula_structural   Er3AlZn2Ni3
_chemical_formula_sum   'Er3 Al1 Zn2 Ni3'
_cell_volume   158.56620430
_cell_formula_units_Z   1
loop_
 _symmetry_equiv_pos_site_id
 _symmetry_equiv_pos_as_xyz
  1  'x, y, z'
loop_
 _atom_site_type_symbol
 _atom_site_label
 _atom_site_symmetry_multiplicity
 _atom_site_fract_x
 _atom_site_fract_y
 _atom_site_fract_z
 _atom_site_occupancy
  Er  Er0  1  0.413808  0.996749  0.500000  1
  Er  Er1  1  0.996749  0.413808  0.500000  1
  Er  Er2  1  0.592969  0.592969  0.500000  1
  Al  Al3  1  0.239669  0.239669  0.000000  1
  Zn  Zn4  1  0.758152  0.003111  0.000000  1
  Zn  Zn5  1  0.003111  0.758152  0.000000  1
  Ni  Ni6  1  0.330501  0.655102  0.000000  1
  Ni  Ni7  1  0.655102  0.330501  0.000000  1
  Ni  Ni8  1  0.009939  0.009939  0.500000  1
