# generated using pymatgen
data_Ca2Pr18Si15Ir
_symmetry_space_group_name_H-M   'P 1'
_cell_length_a   7.93381535
_cell_length_b   7.92079336
_cell_length_c   15.23458916
_cell_angle_alpha   90.07404490
_cell_angle_beta   89.66817211
_cell_angle_gamma   90.19821608
_symmetry_Int_Tables_number   1
_chemical_formula_structural   Ca2Pr18Si15Ir
_chemical_formula_sum   'Ca2 Pr18 Si15 Ir1'
_cell_volume   957.35119810
_cell_formula_units_Z   1
loop_
 _symmetry_equiv_pos_site_id
 _symmetry_equiv_pos_as_xyz
  1  'x, y, z'
loop_
 _atom_site_type_symbol
 _atom_site_label
 _atom_site_symmetry_multiplicity
 _atom_site_fract_x
 _atom_site_fract_y
 _atom_site_fract_z
 _atom_site_occupancy
  Ca  Ca0  1  0.309386  0.309650  0.999712  1
  Ca  Ca1  1  0.189956  0.810175  0.250402  1
  Pr  Pr2  1  0.822999  0.188213  0.747960  1
  Pr  Pr3  1  0.691000  0.688248  0.500758  1
  Pr  Pr4  1  0.375922  0.009694  0.447806  1
  Pr  Pr5  1  0.487670  0.875698  0.699292  1
  Pr  Pr6  1  0.509094  0.123636  0.197535  1
  Pr  Pr7  1  0.874633  0.489257  0.299570  1
  Pr  Pr8  1  0.125586  0.509089  0.800565  1
  Pr  Pr9  1  0.625510  0.991101  0.948799  1
  Pr  Pr10  1  0.006174  0.374668  0.550943  1
  Pr  Pr11  1  0.990245  0.623503  0.052191  1
  Pr  Pr12  1  0.132651  0.986811  0.874467  1
  Pr  Pr13  1  0.514736  0.628605  0.125783  1
  Pr  Pr14  1  0.472412  0.362601  0.629505  1
  Pr  Pr15  1  0.627611  0.513263  0.874783  1
  Pr  Pr16  1  0.374021  0.483623  0.373262  1
  Pr  Pr17  1  0.874241  0.016949  0.376148  1
  Pr  Pr18  1  0.986343  0.126343  0.124086  1
  Pr  Pr19  1  0.027236  0.879598  0.625208  1
  Si  Si20  1  0.333486  0.698823  0.950087  1
  Si  Si21  1  0.663991  0.301130  0.450645  1
  Si  Si22  1  0.701124  0.334707  0.051356  1
  Si  Si23  1  0.304957  0.668910  0.547032  1
  Si  Si24  1  0.800869  0.834926  0.200950  1
  Si  Si25  1  0.166091  0.202243  0.298121  1
  Si  Si26  1  0.833301  0.801574  0.800221  1
  Si  Si27  1  0.286327  0.917898  0.059391  1
  Si  Si28  1  0.582181  0.786219  0.309655  1
  Si  Si29  1  0.425431  0.206480  0.812796  1
  Si  Si30  1  0.783465  0.581009  0.690966  1
  Si  Si31  1  0.212414  0.420742  0.189629  1
  Si  Si32  1  0.702999  0.073661  0.558491  1
  Si  Si33  1  0.918332  0.286913  0.941754  1
  Si  Si34  1  0.080238  0.715642  0.440648  1
  Ir  Ir35  1  0.187363  0.178398  0.699484  1
