# generated using pymatgen
data_EuThMgSi2
_symmetry_space_group_name_H-M   'P 1'
_cell_length_a   7.41218255
_cell_length_b   7.41218326
_cell_length_c   4.39091600
_cell_angle_alpha   90.00000000
_cell_angle_beta   90.00000000
_cell_angle_gamma   90.52597831
_symmetry_Int_Tables_number   1
_chemical_formula_structural   EuThMgSi2
_chemical_formula_sum   'Eu2 Th2 Mg2 Si4'
_cell_volume   241.22875967
_cell_formula_units_Z   2
loop_
 _symmetry_equiv_pos_site_id
 _symmetry_equiv_pos_as_xyz
  1  'x, y, z'
loop_
 _atom_site_type_symbol
 _atom_site_label
 _atom_site_symmetry_multiplicity
 _atom_site_fract_x
 _atom_site_fract_y
 _atom_site_fract_z
 _atom_site_occupancy
  Eu  Eu0  1  0.178802  0.321198  0.500000  1
  Eu  Eu1  1  0.821198  0.678802  0.500000  1
  Th  Th2  1  0.678598  0.178598  0.500000  1
  Th  Th3  1  0.321402  0.821402  0.500000  1
  Mg  Mg4  1  0.000000  0.000000  0.000000  1
  Mg  Mg5  1  0.500000  0.500000  0.000000  1
  Si  Si6  1  0.117735  0.617735  0.000000  1
  Si  Si7  1  0.882265  0.382265  0.000000  1
  Si  Si8  1  0.613820  0.886180  0.000000  1
  Si  Si9  1  0.386180  0.113820  0.000000  1
