# generated using pymatgen
data_Er3Fe8Ru
_symmetry_space_group_name_H-M   'P 1'
_cell_length_a   8.78007559
_cell_length_b   8.78007557
_cell_length_c   8.78007517
_cell_angle_alpha   33.45729527
_cell_angle_beta   33.45729494
_cell_angle_gamma   33.45729354
_symmetry_Int_Tables_number   1
_chemical_formula_structural   Er3Fe8Ru
_chemical_formula_sum   'Er3 Fe8 Ru1'
_cell_volume   183.21727676
_cell_formula_units_Z   1
loop_
 _symmetry_equiv_pos_site_id
 _symmetry_equiv_pos_as_xyz
  1  'x, y, z'
loop_
 _atom_site_type_symbol
 _atom_site_label
 _atom_site_symmetry_multiplicity
 _atom_site_fract_x
 _atom_site_fract_y
 _atom_site_fract_z
 _atom_site_occupancy
  Er  Er0  1  0.141788  0.141788  0.141788  1
  Er  Er1  1  0.000000  0.000000  0.000000  1
  Er  Er2  1  0.858212  0.858212  0.858212  1
  Fe  Fe3  1  0.418171  0.418171  0.923394  1
  Fe  Fe4  1  0.923394  0.418171  0.418171  1
  Fe  Fe5  1  0.581829  0.076606  0.581829  1
  Fe  Fe6  1  0.581829  0.581829  0.076606  1
  Fe  Fe7  1  0.418171  0.923394  0.418171  1
  Fe  Fe8  1  0.076606  0.581829  0.581829  1
  Fe  Fe9  1  0.332801  0.332801  0.332801  1
  Fe  Fe10  1  0.667199  0.667199  0.667199  1
  Ru  Ru11  1  0.500000  0.500000  0.500000  1
