# generated using pymatgen
data_Pr7Tm13Pb16
_symmetry_space_group_name_H-M   'P 1'
_cell_length_a   8.22836263
_cell_length_b   8.35016681
_cell_length_c   15.68031003
_cell_angle_alpha   90.06395130
_cell_angle_beta   89.60480963
_cell_angle_gamma   90.51308357
_symmetry_Int_Tables_number   1
_chemical_formula_structural   Pr7Tm13Pb16
_chemical_formula_sum   'Pr7 Tm13 Pb16'
_cell_volume   1077.29646283
_cell_formula_units_Z   1
loop_
 _symmetry_equiv_pos_site_id
 _symmetry_equiv_pos_as_xyz
  1  'x, y, z'
loop_
 _atom_site_type_symbol
 _atom_site_label
 _atom_site_symmetry_multiplicity
 _atom_site_fract_x
 _atom_site_fract_y
 _atom_site_fract_z
 _atom_site_occupancy
  Pr  Pr0  1  0.522699  0.321272  0.401358  1
  Pr  Pr1  1  0.476347  0.678435  0.903896  1
  Pr  Pr2  1  0.978313  0.822779  0.595967  1
  Pr  Pr3  1  0.975840  0.824695  0.904266  1
  Pr  Pr4  1  0.478137  0.677424  0.596258  1
  Pr  Pr5  1  0.523106  0.321100  0.097123  1
  Pr  Pr6  1  0.020000  0.176760  0.404362  1
  Tm  Tm7  1  0.863033  0.658010  0.123434  1
  Tm  Tm8  1  0.359926  0.842325  0.376448  1
  Tm  Tm9  1  0.634855  0.157547  0.878508  1
  Tm  Tm10  1  0.138099  0.342080  0.623884  1
  Tm  Tm11  1  0.134191  0.340925  0.877760  1
  Tm  Tm12  1  0.638451  0.158260  0.622849  1
  Tm  Tm13  1  0.364301  0.843444  0.122095  1
  Tm  Tm14  1  0.862382  0.656407  0.374317  1
  Tm  Tm15  1  0.031611  0.175207  0.099407  1
  Tm  Tm16  1  0.698031  0.995929  0.248662  1
  Tm  Tm17  1  0.196911  0.505401  0.248673  1
  Tm  Tm18  1  0.802266  0.493934  0.750265  1
  Tm  Tm19  1  0.301995  0.005102  0.751086  1
  Pb  Pb20  1  0.058308  0.872047  0.249239  1
  Pb  Pb21  1  0.557650  0.630356  0.249575  1
  Pb  Pb22  1  0.441091  0.369396  0.750883  1
  Pb  Pb23  1  0.940611  0.129299  0.750314  1
  Pb  Pb24  1  0.839783  0.345071  0.246648  1
  Pb  Pb25  1  0.330238  0.149619  0.249381  1
  Pb  Pb26  1  0.665901  0.850675  0.749917  1
  Pb  Pb27  1  0.164678  0.651102  0.750200  1
  Pb  Pb28  1  0.797209  0.459620  0.956493  1
  Pb  Pb29  1  0.299538  0.044044  0.543511  1
  Pb  Pb30  1  0.711804  0.964756  0.045379  1
  Pb  Pb31  1  0.200726  0.541158  0.455990  1
  Pb  Pb32  1  0.200444  0.537950  0.044139  1
  Pb  Pb33  1  0.699402  0.954345  0.456031  1
  Pb  Pb34  1  0.292852  0.045613  0.959233  1
  Pb  Pb35  1  0.799273  0.457915  0.542450  1
