# generated using pymatgen
data_LiDy3Zn(SiAg)2
_symmetry_space_group_name_H-M   'P 1'
_cell_length_a   7.11083980
_cell_length_b   7.11084047
_cell_length_c   4.16687900
_cell_angle_alpha   90.00000000
_cell_angle_beta   90.00000000
_cell_angle_gamma   119.60242359
_symmetry_Int_Tables_number   1
_chemical_formula_structural   LiDy3Zn(SiAg)2
_chemical_formula_sum   'Li1 Dy3 Zn1 Si2 Ag2'
_cell_volume   183.19319488
_cell_formula_units_Z   1
loop_
 _symmetry_equiv_pos_site_id
 _symmetry_equiv_pos_as_xyz
  1  'x, y, z'
loop_
 _atom_site_type_symbol
 _atom_site_label
 _atom_site_symmetry_multiplicity
 _atom_site_fract_x
 _atom_site_fract_y
 _atom_site_fract_z
 _atom_site_occupancy
  Li  Li0  1  0.757673  0.757673  0.000000  1
  Dy  Dy1  1  0.420862  0.420862  0.500000  1
  Dy  Dy2  1  0.576766  0.997245  0.500000  1
  Dy  Dy3  1  0.997245  0.576766  0.500000  1
  Zn  Zn4  1  0.996146  0.996146  0.500000  1
  Si  Si5  1  0.666601  0.335789  0.000000  1
  Si  Si6  1  0.335789  0.666601  0.000000  1
  Ag  Ag7  1  0.249528  0.999391  0.000000  1
  Ag  Ag8  1  0.999391  0.249528  0.000000  1
