# generated using pymatgen
data_Ho16MgCd3Ru3Pt
_symmetry_space_group_name_H-M   'P 1'
_cell_length_a   9.65252059
_cell_length_b   9.62323040
_cell_length_c   9.62322895
_cell_angle_alpha   59.51546355
_cell_angle_beta   59.64356123
_cell_angle_gamma   59.64356188
_symmetry_Int_Tables_number   1
_chemical_formula_structural   Ho16MgCd3Ru3Pt
_chemical_formula_sum   'Ho16 Mg1 Cd3 Ru3 Pt1'
_cell_volume   626.33708407
_cell_formula_units_Z   1
loop_
 _symmetry_equiv_pos_site_id
 _symmetry_equiv_pos_as_xyz
  1  'x, y, z'
loop_
 _atom_site_type_symbol
 _atom_site_label
 _atom_site_symmetry_multiplicity
 _atom_site_fract_x
 _atom_site_fract_y
 _atom_site_fract_z
 _atom_site_occupancy
  Ho  Ho0  1  0.346007  0.345910  0.345910  1
  Ho  Ho1  1  0.351152  0.350112  0.956669  1
  Ho  Ho2  1  0.351152  0.956669  0.350112  1
  Ho  Ho3  1  0.951883  0.351775  0.351775  1
  Ho  Ho4  1  0.803021  0.190975  0.190975  1
  Ho  Ho5  1  0.186025  0.811799  0.811799  1
  Ho  Ho6  1  0.188605  0.805943  0.188878  1
  Ho  Ho7  1  0.810047  0.188041  0.810443  1
  Ho  Ho8  1  0.188605  0.188878  0.805943  1
  Ho  Ho9  1  0.810047  0.810443  0.188041  1
  Ho  Ho10  1  0.937110  0.561722  0.561722  1
  Ho  Ho11  1  0.565510  0.937130  0.937130  1
  Ho  Ho12  1  0.561951  0.938583  0.561799  1
  Ho  Ho13  1  0.935905  0.565059  0.938923  1
  Ho  Ho14  1  0.561951  0.561799  0.938583  1
  Ho  Ho15  1  0.935905  0.938923  0.565059  1
  Mg  Mg16  1  0.274788  0.574709  0.574709  1
  Cd  Cd17  1  0.581299  0.581420  0.581420  1
  Cd  Cd18  1  0.580969  0.581163  0.255911  1
  Cd  Cd19  1  0.580969  0.255911  0.581163  1
  Ru  Ru20  1  0.139199  0.141295  0.578679  1
  Ru  Ru21  1  0.139199  0.578679  0.141295  1
  Ru  Ru22  1  0.578862  0.140775  0.140775  1
  Pt  Pt23  1  0.139840  0.142289  0.142289  1
