# generated using pymatgen
data_Ba2(OsO3)3
_symmetry_space_group_name_H-M   'P 1'
_cell_length_a   8.16875482
_cell_length_b   8.16875397
_cell_length_c   8.16875400
_cell_angle_alpha   109.47122071
_cell_angle_beta   109.47121860
_cell_angle_gamma   109.47121777
_symmetry_Int_Tables_number   1
_chemical_formula_structural   Ba2(OsO3)3
_chemical_formula_sum   'Ba4 Os6 O18'
_cell_volume   419.60980703
_cell_formula_units_Z   2
loop_
 _symmetry_equiv_pos_site_id
 _symmetry_equiv_pos_as_xyz
  1  'x, y, z'
loop_
 _atom_site_type_symbol
 _atom_site_label
 _atom_site_symmetry_multiplicity
 _atom_site_fract_x
 _atom_site_fract_y
 _atom_site_fract_z
 _atom_site_occupancy
  Ba  Ba0  1  0.000000  0.000000  0.379740  1
  Ba  Ba1  1  0.000000  0.379740  0.000000  1
  Ba  Ba2  1  0.620260  0.620260  0.620260  1
  Ba  Ba3  1  0.379740  0.000000  0.000000  1
  Os  Os4  1  0.365788  0.500000  0.865788  1
  Os  Os5  1  0.865788  0.365788  0.500000  1
  Os  Os6  1  0.500000  0.134212  0.634212  1
  Os  Os7  1  0.134212  0.634212  0.500000  1
  Os  Os8  1  0.500000  0.865788  0.365788  1
  Os  Os9  1  0.634212  0.500000  0.134212  1
  O  O10  1  0.334165  0.000000  0.334165  1
  O  O11  1  0.334165  0.334165  0.000000  1
  O  O12  1  0.000000  0.665835  0.665835  1
  O  O13  1  0.665835  0.665835  0.000000  1
  O  O14  1  0.000000  0.334165  0.334165  1
  O  O15  1  0.665835  0.000000  0.665835  1
  O  O16  1  0.371399  0.303025  0.646618  1
  O  O17  1  0.068373  0.343593  0.696975  1
  O  O18  1  0.724780  0.353382  0.656407  1
  O  O19  1  0.353382  0.656407  0.724780  1
  O  O20  1  0.275220  0.931627  0.628601  1
  O  O21  1  0.646618  0.371399  0.303025  1
  O  O22  1  0.303025  0.646618  0.371399  1
  O  O23  1  0.696975  0.068373  0.343593  1
  O  O24  1  0.931627  0.628601  0.275220  1
  O  O25  1  0.656407  0.724780  0.353382  1
  O  O26  1  0.628601  0.275220  0.931627  1
  O  O27  1  0.343593  0.696975  0.068373  1
