# generated using pymatgen
data_Tb4Sc6BiPb7
_symmetry_space_group_name_H-M   'P 1'
_cell_length_a   7.97573900
_cell_length_b   8.01884620
_cell_length_c   15.03566800
_cell_angle_alpha   90.09577350
_cell_angle_beta   90.00000000
_cell_angle_gamma   90.00000000
_symmetry_Int_Tables_number   1
_chemical_formula_structural   Tb4Sc6BiPb7
_chemical_formula_sum   'Tb8 Sc12 Bi2 Pb14'
_cell_volume   961.62321309
_cell_formula_units_Z   2
loop_
 _symmetry_equiv_pos_site_id
 _symmetry_equiv_pos_as_xyz
  1  'x, y, z'
loop_
 _atom_site_type_symbol
 _atom_site_label
 _atom_site_symmetry_multiplicity
 _atom_site_fract_x
 _atom_site_fract_y
 _atom_site_fract_z
 _atom_site_occupancy
  Tb  Tb0  1  0.536167  0.326290  0.900963  1
  Tb  Tb1  1  0.036167  0.173710  0.599037  1
  Tb  Tb2  1  0.462392  0.676525  0.400909  1
  Tb  Tb3  1  0.962392  0.823475  0.099091  1
  Tb  Tb4  1  0.465432  0.673269  0.098069  1
  Tb  Tb5  1  0.965432  0.826731  0.401931  1
  Tb  Tb6  1  0.531803  0.321567  0.598544  1
  Tb  Tb7  1  0.031803  0.178433  0.901456  1
  Sc  Sc8  1  0.372602  0.841085  0.875736  1
  Sc  Sc9  1  0.872602  0.658915  0.624264  1
  Sc  Sc10  1  0.626563  0.154128  0.375363  1
  Sc  Sc11  1  0.126563  0.345872  0.124637  1
  Sc  Sc12  1  0.633180  0.157861  0.124050  1
  Sc  Sc13  1  0.133180  0.342139  0.375950  1
  Sc  Sc14  1  0.370655  0.843097  0.623996  1
  Sc  Sc15  1  0.870655  0.656903  0.876004  1
  Sc  Sc16  1  0.201558  0.505510  0.749431  1
  Sc  Sc17  1  0.701558  0.994490  0.750569  1
  Sc  Sc18  1  0.797666  0.494740  0.248303  1
  Sc  Sc19  1  0.297666  0.005260  0.251697  1
  Bi  Bi20  1  0.291992  0.040362  0.045074  1
  Bi  Bi21  1  0.791992  0.459638  0.454926  1
  Pb  Pb22  1  0.709110  0.961065  0.544308  1
  Pb  Pb23  1  0.209110  0.538935  0.955692  1
  Pb  Pb24  1  0.710990  0.960916  0.955646  1
  Pb  Pb25  1  0.210990  0.539084  0.544354  1
  Pb  Pb26  1  0.291252  0.039076  0.456030  1
  Pb  Pb27  1  0.791252  0.460924  0.043970  1
  Pb  Pb28  1  0.564200  0.633285  0.748788  1
  Pb  Pb29  1  0.064200  0.866715  0.751212  1
  Pb  Pb30  1  0.436560  0.366377  0.249576  1
  Pb  Pb31  1  0.936560  0.133623  0.250424  1
  Pb  Pb32  1  0.344898  0.151043  0.750944  1
  Pb  Pb33  1  0.844898  0.348957  0.749056  1
  Pb  Pb34  1  0.652981  0.848053  0.249742  1
  Pb  Pb35  1  0.152981  0.651947  0.250258  1
