# generated using pymatgen
data_Zr4Co19NiP12
_symmetry_space_group_name_H-M   'P 1'
_cell_length_a   3.60418700
_cell_length_b   10.13632346
_cell_length_c   11.65282411
_cell_angle_alpha   89.89260112
_cell_angle_beta   90.00000000
_cell_angle_gamma   90.00000000
_symmetry_Int_Tables_number   1
_chemical_formula_structural   Zr4Co19NiP12
_chemical_formula_sum   'Zr4 Co19 Ni1 P12'
_cell_volume   425.71426691
_cell_formula_units_Z   1
loop_
 _symmetry_equiv_pos_site_id
 _symmetry_equiv_pos_as_xyz
  1  'x, y, z'
loop_
 _atom_site_type_symbol
 _atom_site_label
 _atom_site_symmetry_multiplicity
 _atom_site_fract_x
 _atom_site_fract_y
 _atom_site_fract_z
 _atom_site_occupancy
  Zr  Zr0  1  0.250000  0.580241  0.702223  1
  Zr  Zr1  1  0.250000  0.918984  0.204015  1
  Zr  Zr2  1  0.750000  0.419194  0.297295  1
  Zr  Zr3  1  0.750000  0.078960  0.798197  1
  Co  Co4  1  0.250000  0.780315  0.493954  1
  Co  Co5  1  0.750000  0.282304  0.006908  1
  Co  Co6  1  0.750000  0.219918  0.505795  1
  Co  Co7  1  0.250000  0.409394  0.486560  1
  Co  Co8  1  0.250000  0.091148  0.986254  1
  Co  Co9  1  0.750000  0.590553  0.514136  1
  Co  Co10  1  0.750000  0.909901  0.015687  1
  Co  Co11  1  0.250000  0.224396  0.178317  1
  Co  Co12  1  0.250000  0.276332  0.678015  1
  Co  Co13  1  0.750000  0.775733  0.819222  1
  Co  Co14  1  0.750000  0.723121  0.323774  1
  Co  Co15  1  0.250000  0.883762  0.699959  1
  Co  Co16  1  0.250000  0.618794  0.201004  1
  Co  Co17  1  0.750000  0.117596  0.299454  1
  Co  Co18  1  0.750000  0.381794  0.799614  1
  Co  Co19  1  0.250000  0.465854  0.930181  1
  Co  Co20  1  0.250000  0.033329  0.430315  1
  Co  Co21  1  0.750000  0.534327  0.068476  1
  Co  Co22  1  0.750000  0.967772  0.569016  1
  Ni  Ni23  1  0.250000  0.715421  0.991001  1
  P  P24  1  0.250000  0.421068  0.114449  1
  P  P25  1  0.250000  0.080675  0.613930  1
  P  P26  1  0.750000  0.579614  0.884254  1
  P  P27  1  0.750000  0.919890  0.385958  1
  P  P28  1  0.250000  0.265711  0.869424  1
  P  P29  1  0.250000  0.234011  0.369794  1
  P  P30  1  0.750000  0.734085  0.132614  1
  P  P31  1  0.750000  0.766955  0.629595  1
  P  P32  1  0.250000  0.600311  0.389877  1
  P  P33  1  0.250000  0.898452  0.889906  1
  P  P34  1  0.750000  0.399114  0.610459  1
  P  P35  1  0.750000  0.100974  0.110369  1
