# generated using pymatgen
data_Th6MnSb2
_symmetry_space_group_name_H-M   'P 1'
_cell_length_a   8.66232300
_cell_length_b   8.66232345
_cell_length_c   3.94607300
_cell_angle_alpha   90.00000000
_cell_angle_beta   90.00000000
_cell_angle_gamma   120.00000212
_symmetry_Int_Tables_number   1
_chemical_formula_structural   Th6MnSb2
_chemical_formula_sum   'Th6 Mn1 Sb2'
_cell_volume   256.42744624
_cell_formula_units_Z   1
loop_
 _symmetry_equiv_pos_site_id
 _symmetry_equiv_pos_as_xyz
  1  'x, y, z'
loop_
 _atom_site_type_symbol
 _atom_site_label
 _atom_site_symmetry_multiplicity
 _atom_site_fract_x
 _atom_site_fract_y
 _atom_site_fract_z
 _atom_site_occupancy
  Th  Th0  1  0.237149  0.000000  0.500000  1
  Th  Th1  1  0.000000  0.237149  0.500000  1
  Th  Th2  1  0.762851  0.762851  0.500000  1
  Th  Th3  1  0.586028  0.000000  0.000000  1
  Th  Th4  1  0.000000  0.586028  0.000000  1
  Th  Th5  1  0.413972  0.413972  0.000000  1
  Mn  Mn6  1  0.000000  0.000000  0.000000  1
  Sb  Sb7  1  0.333333  0.666667  0.500000  1
  Sb  Sb8  1  0.666667  0.333333  0.500000  1
