# generated using pymatgen
data_DyTm3Sb10
_symmetry_space_group_name_H-M   'P 1'
_cell_length_a   4.20776000
_cell_length_b   13.16608170
_cell_length_c   14.56751130
_cell_angle_alpha   78.46685937
_cell_angle_beta   90.00000000
_cell_angle_gamma   90.00000000
_symmetry_Int_Tables_number   1
_chemical_formula_structural   DyTm3Sb10
_chemical_formula_sum   'Dy2 Tm6 Sb20'
_cell_volume   790.74124755
_cell_formula_units_Z   2
loop_
 _symmetry_equiv_pos_site_id
 _symmetry_equiv_pos_as_xyz
  1  'x, y, z'
loop_
 _atom_site_type_symbol
 _atom_site_label
 _atom_site_symmetry_multiplicity
 _atom_site_fract_x
 _atom_site_fract_y
 _atom_site_fract_z
 _atom_site_occupancy
  Dy  Dy0  1  0.250000  0.953694  0.359045  1
  Dy  Dy1  1  0.750000  0.046306  0.640955  1
  Tm  Tm2  1  0.250000  0.395279  0.770672  1
  Tm  Tm3  1  0.750000  0.604721  0.229328  1
  Tm  Tm4  1  0.250000  0.661438  0.856172  1
  Tm  Tm5  1  0.750000  0.338562  0.143828  1
  Tm  Tm6  1  0.250000  0.668255  0.576352  1
  Tm  Tm7  1  0.750000  0.331745  0.423648  1
  Sb  Sb8  1  0.250000  0.144881  0.778359  1
  Sb  Sb9  1  0.750000  0.855119  0.221641  1
  Sb  Sb10  1  0.250000  0.145640  0.482428  1
  Sb  Sb11  1  0.750000  0.854360  0.517572  1
  Sb  Sb12  1  0.250000  0.154005  0.170240  1
  Sb  Sb13  1  0.750000  0.845995  0.829760  1
  Sb  Sb14  1  0.250000  0.420866  0.975373  1
  Sb  Sb15  1  0.750000  0.579134  0.024627  1
  Sb  Sb16  1  0.750000  0.028684  0.910244  1
  Sb  Sb17  1  0.250000  0.971316  0.089756  1
  Sb  Sb18  1  0.750000  0.140895  0.322059  1
  Sb  Sb19  1  0.250000  0.859105  0.677941  1
  Sb  Sb20  1  0.750000  0.279203  0.936787  1
  Sb  Sb21  1  0.250000  0.720797  0.063213  1
  Sb  Sb22  1  0.750000  0.285830  0.652875  1
  Sb  Sb23  1  0.250000  0.714170  0.347125  1
  Sb  Sb24  1  0.750000  0.576254  0.734387  1
  Sb  Sb25  1  0.250000  0.423746  0.265613  1
  Sb  Sb26  1  0.750000  0.571667  0.447149  1
  Sb  Sb27  1  0.250000  0.428333  0.552851  1
