# generated using pymatgen
data_Sm7Tm13Si16
_symmetry_space_group_name_H-M   'P 1'
_cell_length_a   7.63984745
_cell_length_b   7.63525259
_cell_length_c   14.13440970
_cell_angle_alpha   90.10249497
_cell_angle_beta   90.00574497
_cell_angle_gamma   90.12453539
_symmetry_Int_Tables_number   1
_chemical_formula_structural   Sm7Tm13Si16
_chemical_formula_sum   'Sm7 Tm13 Si16'
_cell_volume   824.48744792
_cell_formula_units_Z   1
loop_
 _symmetry_equiv_pos_site_id
 _symmetry_equiv_pos_as_xyz
  1  'x, y, z'
loop_
 _atom_site_type_symbol
 _atom_site_label
 _atom_site_symmetry_multiplicity
 _atom_site_fract_x
 _atom_site_fract_y
 _atom_site_fract_z
 _atom_site_occupancy
  Sm  Sm0  1  0.007093  0.358176  0.541935  1
  Sm  Sm1  1  0.643206  0.992446  0.959428  1
  Sm  Sm2  1  0.139333  0.509759  0.792823  1
  Sm  Sm3  1  0.858565  0.490172  0.290256  1
  Sm  Sm4  1  0.508922  0.139316  0.207162  1
  Sm  Sm5  1  0.490037  0.860301  0.708340  1
  Sm  Sm6  1  0.358224  0.007249  0.457352  1
  Tm  Tm7  1  0.360648  0.490548  0.375192  1
  Tm  Tm8  1  0.861018  0.006861  0.373518  1
  Tm  Tm9  1  0.993127  0.137667  0.124812  1
  Tm  Tm10  1  0.008442  0.862074  0.625232  1
  Tm  Tm11  1  0.640429  0.511589  0.877184  1
  Tm  Tm12  1  0.490456  0.360737  0.624744  1
  Tm  Tm13  1  0.509863  0.639817  0.123739  1
  Tm  Tm14  1  0.137028  0.991624  0.875721  1
  Tm  Tm15  1  0.995948  0.637312  0.043599  1
  Tm  Tm16  1  0.681300  0.681818  0.499601  1
  Tm  Tm17  1  0.816612  0.184227  0.750841  1
  Tm  Tm18  1  0.182505  0.815573  0.249542  1
  Tm  Tm19  1  0.318368  0.318163  0.000242  1
  Si  Si20  1  0.061153  0.707454  0.437593  1
  Si  Si21  1  0.940116  0.294809  0.939126  1
  Si  Si22  1  0.708394  0.062581  0.561789  1
  Si  Si23  1  0.208440  0.438841  0.186883  1
  Si  Si24  1  0.789569  0.563333  0.687876  1
  Si  Si25  1  0.438061  0.210449  0.812910  1
  Si  Si26  1  0.563170  0.789534  0.311368  1
  Si  Si27  1  0.290560  0.935931  0.062352  1
  Si  Si28  1  0.844293  0.800837  0.809868  1
  Si  Si29  1  0.153465  0.201390  0.310969  1
  Si  Si30  1  0.801473  0.843536  0.185453  1
  Si  Si31  1  0.296611  0.653263  0.561073  1
  Si  Si32  1  0.706050  0.349664  0.063180  1
  Si  Si33  1  0.653335  0.296636  0.438465  1
  Si  Si34  1  0.343508  0.701482  0.939869  1
  Si  Si35  1  0.200676  0.154833  0.689966  1
