# generated using pymatgen
data_DyErNi6(BIr)2
_symmetry_space_group_name_H-M   'P 1'
_cell_length_a   4.97450300
_cell_length_b   5.14911249
_cell_length_c   7.08279700
_cell_angle_alpha   90.00000000
_cell_angle_beta   90.00000000
_cell_angle_gamma   118.88443935
_symmetry_Int_Tables_number   1
_chemical_formula_structural   DyErNi6(BIr)2
_chemical_formula_sum   'Dy1 Er1 Ni6 B2 Ir2'
_cell_volume   158.85120559
_cell_formula_units_Z   1
loop_
 _symmetry_equiv_pos_site_id
 _symmetry_equiv_pos_as_xyz
  1  'x, y, z'
loop_
 _atom_site_type_symbol
 _atom_site_label
 _atom_site_symmetry_multiplicity
 _atom_site_fract_x
 _atom_site_fract_y
 _atom_site_fract_z
 _atom_site_occupancy
  Dy  Dy0  1  0.500000  0.000000  0.000000  1
  Er  Er1  1  0.500000  0.000000  0.500000  1
  Ni  Ni2  1  0.832194  0.664387  0.000000  1
  Ni  Ni3  1  0.167806  0.335613  0.000000  1
  Ni  Ni4  1  0.500000  0.500000  0.708232  1
  Ni  Ni5  1  0.000000  0.500000  0.708232  1
  Ni  Ni6  1  0.500000  0.500000  0.291768  1
  Ni  Ni7  1  0.000000  0.500000  0.291768  1
  B  B8  1  0.826907  0.653812  0.500000  1
  B  B9  1  0.173093  0.346188  0.500000  1
  Ir  Ir10  1  0.000000  0.000000  0.709879  1
  Ir  Ir11  1  0.000000  0.000000  0.290121  1
