# generated using pymatgen
data_Er16Ag3SnRh4
_symmetry_space_group_name_H-M   'P 1'
_cell_length_a   9.49954046
_cell_length_b   9.49954057
_cell_length_c   9.49954120
_cell_angle_alpha   59.85715465
_cell_angle_beta   59.85714929
_cell_angle_gamma   59.85714993
_symmetry_Int_Tables_number   1
_chemical_formula_structural   Er16Ag3SnRh4
_chemical_formula_sum   'Er16 Ag3 Sn1 Rh4'
_cell_volume   604.20278117
_cell_formula_units_Z   1
loop_
 _symmetry_equiv_pos_site_id
 _symmetry_equiv_pos_as_xyz
  1  'x, y, z'
loop_
 _atom_site_type_symbol
 _atom_site_label
 _atom_site_symmetry_multiplicity
 _atom_site_fract_x
 _atom_site_fract_y
 _atom_site_fract_z
 _atom_site_occupancy
  Er  Er0  1  0.190143  0.190143  0.809826  1
  Er  Er1  1  0.436517  0.062677  0.062677  1
  Er  Er2  1  0.434972  0.058896  0.434972  1
  Er  Er3  1  0.062677  0.436517  0.062677  1
  Er  Er4  1  0.647758  0.053971  0.647758  1
  Er  Er5  1  0.189081  0.812289  0.812289  1
  Er  Er6  1  0.062677  0.062677  0.436517  1
  Er  Er7  1  0.809826  0.190143  0.190143  1
  Er  Er8  1  0.812289  0.812289  0.189081  1
  Er  Er9  1  0.647758  0.647758  0.053971  1
  Er  Er10  1  0.649584  0.649584  0.649584  1
  Er  Er11  1  0.058896  0.434972  0.434972  1
  Er  Er12  1  0.053971  0.647758  0.647758  1
  Er  Er13  1  0.812289  0.189081  0.812289  1
  Er  Er14  1  0.434972  0.434972  0.058896  1
  Er  Er15  1  0.190143  0.809826  0.190143  1
  Ag  Ag16  1  0.417687  0.750981  0.417687  1
  Ag  Ag17  1  0.417687  0.417687  0.750981  1
  Ag  Ag18  1  0.750981  0.417687  0.417687  1
  Sn  Sn19  1  0.419960  0.419960  0.419960  1
  Rh  Rh20  1  0.857033  0.428976  0.857033  1
  Rh  Rh21  1  0.857033  0.857033  0.428976  1
  Rh  Rh22  1  0.428976  0.857033  0.857033  1
  Rh  Rh23  1  0.857088  0.857088  0.857088  1
