# generated using pymatgen
data_Ac6ZnSi11
_symmetry_space_group_name_H-M   'P 1'
_cell_length_a   4.50299509
_cell_length_b   4.44534889
_cell_length_c   21.60513597
_cell_angle_alpha   84.18103464
_cell_angle_beta   95.99708731
_cell_angle_gamma   90.08090586
_symmetry_Int_Tables_number   1
_chemical_formula_structural   Ac6ZnSi11
_chemical_formula_sum   'Ac6 Zn1 Si11'
_cell_volume   427.87674727
_cell_formula_units_Z   1
loop_
 _symmetry_equiv_pos_site_id
 _symmetry_equiv_pos_as_xyz
  1  'x, y, z'
loop_
 _atom_site_type_symbol
 _atom_site_label
 _atom_site_symmetry_multiplicity
 _atom_site_fract_x
 _atom_site_fract_y
 _atom_site_fract_z
 _atom_site_occupancy
  Ac  Ac0  1  0.375811  0.874316  0.252598  1
  Ac  Ac1  1  0.041447  0.208358  0.583303  1
  Ac  Ac2  1  0.706208  0.543847  0.912157  1
  Ac  Ac3  1  0.292996  0.456369  0.086579  1
  Ac  Ac4  1  0.958877  0.791131  0.417398  1
  Ac  Ac5  1  0.625138  0.125094  0.748570  1
  Zn  Zn6  1  0.763727  0.986488  0.026631  1
  Si  Si7  1  0.903671  0.346901  0.307320  1
  Si  Si8  1  0.569073  0.681328  0.639101  1
  Si  Si9  1  0.235223  0.015140  0.971077  1
  Si  Si10  1  0.430954  0.318711  0.360956  1
  Si  Si11  1  0.096555  0.652438  0.693439  1
  Si  Si12  1  0.848911  0.401689  0.196316  1
  Si  Si13  1  0.514953  0.735856  0.527960  1
  Si  Si14  1  0.179756  0.070629  0.859505  1
  Si  Si15  1  0.820168  0.929544  0.141239  1
  Si  Si16  1  0.485109  0.264468  0.471958  1
  Si  Si17  1  0.151423  0.597691  0.803894  1
