# generated using pymatgen
data_Tb3DyMn16(CoP3)4
_symmetry_space_group_name_H-M   'P 1'
_cell_length_a   3.59668300
_cell_length_b   10.57947303
_cell_length_c   12.19179804
_cell_angle_alpha   89.99114909
_cell_angle_beta   90.00000000
_cell_angle_gamma   90.00000000
_symmetry_Int_Tables_number   1
_chemical_formula_structural   Tb3DyMn16(CoP3)4
_chemical_formula_sum   'Tb3 Dy1 Mn16 Co4 P12'
_cell_volume   463.91023324
_cell_formula_units_Z   1
loop_
 _symmetry_equiv_pos_site_id
 _symmetry_equiv_pos_as_xyz
  1  'x, y, z'
loop_
 _atom_site_type_symbol
 _atom_site_label
 _atom_site_symmetry_multiplicity
 _atom_site_fract_x
 _atom_site_fract_y
 _atom_site_fract_z
 _atom_site_occupancy
  Tb  Tb0  1  0.250000  0.915691  0.207848  1
  Tb  Tb1  1  0.750000  0.415763  0.292129  1
  Tb  Tb2  1  0.750000  0.084299  0.792115  1
  Dy  Dy3  1  0.250000  0.584209  0.707874  1
  Mn  Mn4  1  0.250000  0.712044  0.987364  1
  Mn  Mn5  1  0.250000  0.787944  0.487421  1
  Mn  Mn6  1  0.750000  0.287975  0.012596  1
  Mn  Mn7  1  0.750000  0.212158  0.512740  1
  Mn  Mn8  1  0.250000  0.407492  0.493048  1
  Mn  Mn9  1  0.250000  0.092596  0.992878  1
  Mn  Mn10  1  0.750000  0.592604  0.507421  1
  Mn  Mn11  1  0.750000  0.907343  0.007084  1
  Mn  Mn12  1  0.250000  0.216729  0.175933  1
  Mn  Mn13  1  0.250000  0.283513  0.675926  1
  Mn  Mn14  1  0.750000  0.783027  0.823994  1
  Mn  Mn15  1  0.750000  0.716663  0.324081  1
  Mn  Mn16  1  0.250000  0.878235  0.697340  1
  Mn  Mn17  1  0.250000  0.621413  0.197273  1
  Mn  Mn18  1  0.750000  0.121427  0.302701  1
  Mn  Mn19  1  0.750000  0.378845  0.802570  1
  Co  Co20  1  0.250000  0.464497  0.933851  1
  Co  Co21  1  0.250000  0.035678  0.434105  1
  Co  Co22  1  0.750000  0.535717  0.065714  1
  Co  Co23  1  0.750000  0.964113  0.566018  1
  P  P24  1  0.250000  0.420566  0.111452  1
  P  P25  1  0.250000  0.079495  0.611545  1
  P  P26  1  0.750000  0.579493  0.888002  1
  P  P27  1  0.750000  0.920502  0.388479  1
  P  P28  1  0.250000  0.266769  0.872140  1
  P  P29  1  0.250000  0.233322  0.372194  1
  P  P30  1  0.750000  0.733278  0.127800  1
  P  P31  1  0.750000  0.766133  0.628042  1
  P  P32  1  0.250000  0.593169  0.386323  1
  P  P33  1  0.250000  0.906796  0.886310  1
  P  P34  1  0.750000  0.407389  0.613974  1
  P  P35  1  0.750000  0.093116  0.113714  1
