# generated using pymatgen
data_Dy2Zn14Cu3
_symmetry_space_group_name_H-M   'P 1'
_cell_length_a   8.91095600
_cell_length_b   8.91095540
_cell_length_c   8.68638000
_cell_angle_alpha   90.00000000
_cell_angle_beta   90.00000000
_cell_angle_gamma   120.00000964
_symmetry_Int_Tables_number   1
_chemical_formula_structural   Dy2Zn14Cu3
_chemical_formula_sum   'Dy4 Zn28 Cu6'
_cell_volume   597.33502864
_cell_formula_units_Z   2
loop_
 _symmetry_equiv_pos_site_id
 _symmetry_equiv_pos_as_xyz
  1  'x, y, z'
loop_
 _atom_site_type_symbol
 _atom_site_label
 _atom_site_symmetry_multiplicity
 _atom_site_fract_x
 _atom_site_fract_y
 _atom_site_fract_z
 _atom_site_occupancy
  Dy  Dy0  1  0.000000  0.000000  0.250000  1
  Dy  Dy1  1  0.000000  0.000000  0.750000  1
  Dy  Dy2  1  0.333333  0.666667  0.750000  1
  Dy  Dy3  1  0.666667  0.333333  0.250000  1
  Zn  Zn4  1  0.333333  0.666667  0.403472  1
  Zn  Zn5  1  0.666667  0.333333  0.596528  1
  Zn  Zn6  1  0.666667  0.333333  0.903472  1
  Zn  Zn7  1  0.333333  0.666667  0.096528  1
  Zn  Zn8  1  0.333409  0.369437  0.250000  1
  Zn  Zn9  1  0.630563  0.963972  0.250000  1
  Zn  Zn10  1  0.036028  0.666591  0.250000  1
  Zn  Zn11  1  0.630563  0.666591  0.250000  1
  Zn  Zn12  1  0.036028  0.369437  0.250000  1
  Zn  Zn13  1  0.333409  0.963972  0.250000  1
  Zn  Zn14  1  0.666591  0.630563  0.750000  1
  Zn  Zn15  1  0.369437  0.036028  0.750000  1
  Zn  Zn16  1  0.963972  0.333409  0.750000  1
  Zn  Zn17  1  0.369437  0.333409  0.750000  1
  Zn  Zn18  1  0.963972  0.630563  0.750000  1
  Zn  Zn19  1  0.666591  0.036028  0.750000  1
  Zn  Zn20  1  0.164711  0.835289  0.520315  1
  Zn  Zn21  1  0.164711  0.329422  0.520315  1
  Zn  Zn22  1  0.670578  0.835289  0.520315  1
  Zn  Zn23  1  0.835289  0.164711  0.479685  1
  Zn  Zn24  1  0.835289  0.670578  0.479685  1
  Zn  Zn25  1  0.329422  0.164711  0.479685  1
  Zn  Zn26  1  0.835289  0.164711  0.020315  1
  Zn  Zn27  1  0.835289  0.670578  0.020315  1
  Zn  Zn28  1  0.329422  0.164711  0.020315  1
  Zn  Zn29  1  0.164711  0.835289  0.979685  1
  Zn  Zn30  1  0.164711  0.329422  0.979685  1
  Zn  Zn31  1  0.670578  0.835289  0.979685  1
  Cu  Cu32  1  0.500000  0.500000  0.500000  1
  Cu  Cu33  1  0.500000  0.000000  0.500000  1
  Cu  Cu34  1  0.000000  0.500000  0.500000  1
  Cu  Cu35  1  0.500000  0.500000  0.000000  1
  Cu  Cu36  1  0.500000  0.000000  0.000000  1
  Cu  Cu37  1  0.000000  0.500000  0.000000  1
