# generated using pymatgen
data_ThCuNi4
_symmetry_space_group_name_H-M   'P 1'
_cell_length_a   4.93757658
_cell_length_b   4.93757631
_cell_length_c   4.03144300
_cell_angle_alpha   90.00000000
_cell_angle_beta   90.00000000
_cell_angle_gamma   119.75763086
_symmetry_Int_Tables_number   1
_chemical_formula_structural   ThCuNi4
_chemical_formula_sum   'Th1 Cu1 Ni4'
_cell_volume   85.32461023
_cell_formula_units_Z   1
loop_
 _symmetry_equiv_pos_site_id
 _symmetry_equiv_pos_as_xyz
  1  'x, y, z'
loop_
 _atom_site_type_symbol
 _atom_site_label
 _atom_site_symmetry_multiplicity
 _atom_site_fract_x
 _atom_site_fract_y
 _atom_site_fract_z
 _atom_site_occupancy
  Th  Th0  1  0.500000  0.500000  0.000000  1
  Cu  Cu1  1  0.000000  0.000000  0.500000  1
  Ni  Ni2  1  0.172670  0.827330  0.000000  1
  Ni  Ni3  1  0.827330  0.172670  0.000000  1
  Ni  Ni4  1  0.000000  0.500000  0.500000  1
  Ni  Ni5  1  0.500000  0.000000  0.500000  1
