# generated using pymatgen
data_Tm4TaTc5Ge8
_symmetry_space_group_name_H-M   'P 1'
_cell_length_a   6.92352964
_cell_length_b   6.87305725
_cell_length_c   6.93227100
_cell_angle_alpha   69.86503651
_cell_angle_beta   90.05875617
_cell_angle_gamma   90.22554069
_symmetry_Int_Tables_number   1
_chemical_formula_structural   Tm4TaTc5Ge8
_chemical_formula_sum   'Tm4 Ta1 Tc5 Ge8'
_cell_volume   309.71466182
_cell_formula_units_Z   1
loop_
 _symmetry_equiv_pos_site_id
 _symmetry_equiv_pos_as_xyz
  1  'x, y, z'
loop_
 _atom_site_type_symbol
 _atom_site_label
 _atom_site_symmetry_multiplicity
 _atom_site_fract_x
 _atom_site_fract_y
 _atom_site_fract_z
 _atom_site_occupancy
  Tm  Tm0  1  0.330007  0.558348  0.813876  1
  Tm  Tm1  1  0.824119  0.948351  0.194141  1
  Tm  Tm2  1  0.669993  0.441652  0.186124  1
  Tm  Tm3  1  0.175881  0.051649  0.805859  1
  Ta  Ta4  1  0.000000  0.500000  0.500000  1
  Tc  Tc5  1  0.500000  0.000000  0.500000  1
  Tc  Tc6  1  0.858676  0.732080  0.730364  1
  Tc  Tc7  1  0.354948  0.735662  0.223928  1
  Tc  Tc8  1  0.141324  0.267920  0.269636  1
  Tc  Tc9  1  0.645052  0.264338  0.776072  1
  Ge  Ge10  1  0.567440  0.871222  0.890733  1
  Ge  Ge11  1  0.039214  0.653279  0.082986  1
  Ge  Ge12  1  0.432560  0.128778  0.109267  1
  Ge  Ge13  1  0.960786  0.346721  0.917014  1
  Ge  Ge14  1  0.153813  0.877300  0.471299  1
  Ge  Ge15  1  0.629886  0.635461  0.495916  1
  Ge  Ge16  1  0.846187  0.122700  0.528701  1
  Ge  Ge17  1  0.370114  0.364539  0.504084  1
