# generated using pymatgen
data_Y6Ho4TlBi5
_symmetry_space_group_name_H-M   'P 1'
_cell_length_a   9.12677200
_cell_length_b   9.14234563
_cell_length_c   6.45267200
_cell_angle_alpha   90.00000000
_cell_angle_beta   90.00000000
_cell_angle_gamma   120.05646287
_symmetry_Int_Tables_number   1
_chemical_formula_structural   Y6Ho4TlBi5
_chemical_formula_sum   'Y6 Ho4 Tl1 Bi5'
_cell_volume   466.01262486
_cell_formula_units_Z   1
loop_
 _symmetry_equiv_pos_site_id
 _symmetry_equiv_pos_as_xyz
  1  'x, y, z'
loop_
 _atom_site_type_symbol
 _atom_site_label
 _atom_site_symmetry_multiplicity
 _atom_site_fract_x
 _atom_site_fract_y
 _atom_site_fract_z
 _atom_site_occupancy
  Y  Y0  1  0.758412  0.757231  0.750000  1
  Y  Y1  1  0.241588  0.998819  0.750000  1
  Y  Y2  1  0.000000  0.240833  0.750000  1
  Y  Y3  1  0.236457  0.243420  0.250000  1
  Y  Y4  1  0.763543  0.006963  0.250000  1
  Y  Y5  1  0.000000  0.755931  0.250000  1
  Ho  Ho6  1  0.671628  0.334300  0.000498  1
  Ho  Ho7  1  0.328372  0.662674  0.000498  1
  Ho  Ho8  1  0.328372  0.662674  0.499502  1
  Ho  Ho9  1  0.671628  0.334300  0.499502  1
  Tl  Tl10  1  0.000000  0.393904  0.250000  1
  Bi  Bi11  1  0.392044  0.389781  0.750000  1
  Bi  Bi12  1  0.607956  0.997738  0.750000  1
  Bi  Bi13  1  0.000000  0.609095  0.750000  1
  Bi  Bi14  1  0.609553  0.610945  0.250000  1
  Bi  Bi15  1  0.390447  0.001391  0.250000  1
