# generated using pymatgen
data_La3Pr4MnBr12
_symmetry_space_group_name_H-M   'P 1'
_cell_length_a   9.73817077
_cell_length_b   9.74550257
_cell_length_c   9.38588572
_cell_angle_alpha   105.88435562
_cell_angle_beta   106.71902946
_cell_angle_gamma   106.68761943
_symmetry_Int_Tables_number   1
_chemical_formula_structural   La3Pr4MnBr12
_chemical_formula_sum   'La3 Pr4 Mn1 Br12'
_cell_volume   753.01756121
_cell_formula_units_Z   1
loop_
 _symmetry_equiv_pos_site_id
 _symmetry_equiv_pos_as_xyz
  1  'x, y, z'
loop_
 _atom_site_type_symbol
 _atom_site_label
 _atom_site_symmetry_multiplicity
 _atom_site_fract_x
 _atom_site_fract_y
 _atom_site_fract_z
 _atom_site_occupancy
  La  La0  1  0.814776  0.518183  0.608570  1
  La  La1  1  0.521871  0.590194  0.781856  1
  La  La2  1  0.001164  0.003948  0.998437  1
  Pr  Pr3  1  0.190498  0.481465  0.397260  1
  Pr  Pr4  1  0.478769  0.403011  0.206871  1
  Pr  Pr5  1  0.600268  0.809103  0.514004  1
  Pr  Pr6  1  0.395807  0.188511  0.487800  1
  Mn  Mn7  1  0.502486  0.506885  0.524563  1
  Br  Br8  1  0.714221  0.178939  0.570155  1
  Br  Br9  1  0.954338  0.875320  0.655325  1
  Br  Br10  1  0.566211  0.710400  0.171877  1
  Br  Br11  1  0.125872  0.337172  0.038680  1
  Br  Br12  1  0.668119  0.958598  0.874272  1
  Br  Br13  1  0.888814  0.675088  0.968843  1
  Br  Br14  1  0.043314  0.127310  0.340368  1
  Br  Br15  1  0.810308  0.423878  0.276131  1
  Br  Br16  1  0.336731  0.049850  0.125581  1
  Br  Br17  1  0.279266  0.812950  0.416894  1
  Br  Br18  1  0.181822  0.574581  0.719199  1
  Br  Br19  1  0.425341  0.274611  0.823313  1
