# generated using pymatgen
data_Cs4P4PdPt
_symmetry_space_group_name_H-M   'P 1'
_cell_length_a   8.28274048
_cell_length_b   8.28274053
_cell_length_c   6.38558253
_cell_angle_alpha   89.66452336
_cell_angle_beta   90.33547300
_cell_angle_gamma   130.43259309
_symmetry_Int_Tables_number   1
_chemical_formula_structural   Cs4P4PdPt
_chemical_formula_sum   'Cs4 P4 Pd1 Pt1'
_cell_volume   333.44251858
_cell_formula_units_Z   1
loop_
 _symmetry_equiv_pos_site_id
 _symmetry_equiv_pos_as_xyz
  1  'x, y, z'
loop_
 _atom_site_type_symbol
 _atom_site_label
 _atom_site_symmetry_multiplicity
 _atom_site_fract_x
 _atom_site_fract_y
 _atom_site_fract_z
 _atom_site_occupancy
  Cs  Cs0  1  0.787125  0.212875  0.251338  1
  Cs  Cs1  1  0.212875  0.787125  0.748662  1
  Cs  Cs2  1  0.420109  0.579891  0.246611  1
  Cs  Cs3  1  0.579891  0.420109  0.753389  1
  P  P4  1  0.939853  0.744870  0.249099  1
  P  P5  1  0.060147  0.255130  0.750901  1
  P  P6  1  0.255130  0.060147  0.249099  1
  P  P7  1  0.744870  0.939853  0.750901  1
  Pd  Pd8  1  0.000000  0.000000  0.500000  1
  Pt  Pt9  1  0.000000  0.000000  0.000000  1
