# generated using pymatgen
data_Li3La4ZnIrPd3
_symmetry_space_group_name_H-M   'P 1'
_cell_length_a   7.32203630
_cell_length_b   4.18930500
_cell_length_c   8.65762417
_cell_angle_alpha   90.00000000
_cell_angle_beta   90.85711707
_cell_angle_gamma   90.00000000
_symmetry_Int_Tables_number   1
_chemical_formula_structural   Li3La4ZnIrPd3
_chemical_formula_sum   'Li3 La4 Zn1 Ir1 Pd3'
_cell_volume   265.53635540
_cell_formula_units_Z   1
loop_
 _symmetry_equiv_pos_site_id
 _symmetry_equiv_pos_as_xyz
  1  'x, y, z'
loop_
 _atom_site_type_symbol
 _atom_site_label
 _atom_site_symmetry_multiplicity
 _atom_site_fract_x
 _atom_site_fract_y
 _atom_site_fract_z
 _atom_site_occupancy
  Li  Li0  1  0.622283  0.250000  0.550531  1
  Li  Li1  1  0.368991  0.750000  0.443367  1
  Li  Li2  1  0.877678  0.750000  0.054723  1
  La  La3  1  0.052546  0.250000  0.321456  1
  La  La4  1  0.539703  0.250000  0.181905  1
  La  La5  1  0.969560  0.750000  0.687243  1
  La  La6  1  0.446957  0.750000  0.801779  1
  Zn  Zn7  1  0.132778  0.250000  0.940643  1
  Ir  Ir8  1  0.244329  0.250000  0.630841  1
  Pd  Pd9  1  0.752881  0.250000  0.890075  1
  Pd  Pd10  1  0.748277  0.750000  0.380639  1
  Pd  Pd11  1  0.244019  0.750000  0.116799  1
