# generated using pymatgen
data_Ca3(ZnAu)4
_symmetry_space_group_name_H-M   'P 1'
_cell_length_a   8.47500011
_cell_length_b   8.47499960
_cell_length_c   8.47499950
_cell_angle_alpha   150.88952161
_cell_angle_beta   126.99848612
_cell_angle_gamma   61.60957925
_symmetry_Int_Tables_number   1
_chemical_formula_structural   Ca3(ZnAu)4
_chemical_formula_sum   'Ca3 Zn4 Au4'
_cell_volume   234.52260324
_cell_formula_units_Z   1
loop_
 _symmetry_equiv_pos_site_id
 _symmetry_equiv_pos_as_xyz
  1  'x, y, z'
loop_
 _atom_site_type_symbol
 _atom_site_label
 _atom_site_symmetry_multiplicity
 _atom_site_fract_x
 _atom_site_fract_y
 _atom_site_fract_z
 _atom_site_occupancy
  Ca  Ca0  1  0.500000  0.000000  0.500000  1
  Ca  Ca1  1  0.872222  0.872222  0.000000  1
  Ca  Ca2  1  0.127778  0.127778  0.000000  1
  Zn  Zn3  1  0.864948  0.672635  0.192313  1
  Zn  Zn4  1  0.480322  0.672635  0.807687  1
  Zn  Zn5  1  0.519678  0.327365  0.192313  1
  Zn  Zn6  1  0.135052  0.327365  0.807687  1
  Au  Au7  1  0.281653  0.781653  0.500000  1
  Au  Au8  1  0.718347  0.218347  0.500000  1
  Au  Au9  1  0.194738  0.500000  0.694738  1
  Au  Au10  1  0.805262  0.500000  0.305262  1
