# generated using pymatgen
data_Er4Sc4B24Ir3W
_symmetry_space_group_name_H-M   'P 1'
_cell_length_a   3.54441200
_cell_length_b   9.00134828
_cell_length_c   11.38668364
_cell_angle_alpha   90.12397671
_cell_angle_beta   90.00000000
_cell_angle_gamma   90.00000000
_symmetry_Int_Tables_number   1
_chemical_formula_structural   Er4Sc4B24Ir3W
_chemical_formula_sum   'Er4 Sc4 B24 Ir3 W1'
_cell_volume   363.28544840
_cell_formula_units_Z   1
loop_
 _symmetry_equiv_pos_site_id
 _symmetry_equiv_pos_as_xyz
  1  'x, y, z'
loop_
 _atom_site_type_symbol
 _atom_site_label
 _atom_site_symmetry_multiplicity
 _atom_site_fract_x
 _atom_site_fract_y
 _atom_site_fract_z
 _atom_site_occupancy
  Er  Er0  1  0.500000  0.317575  0.411464  1
  Er  Er1  1  0.500000  0.680338  0.585324  1
  Er  Er2  1  0.500000  0.180385  0.915998  1
  Er  Er3  1  0.500000  0.821090  0.086566  1
  Sc  Sc4  1  0.500000  0.444340  0.123682  1
  Sc  Sc5  1  0.500000  0.555596  0.875507  1
  Sc  Sc6  1  0.500000  0.054857  0.625414  1
  Sc  Sc7  1  0.500000  0.947421  0.375315  1
  B  B8  1  0.000000  0.100035  0.474791  1
  B  B9  1  0.000000  0.898936  0.528151  1
  B  B10  1  0.000000  0.401471  0.971465  1
  B  B11  1  0.000000  0.601403  0.026579  1
  B  B12  1  0.000000  0.129719  0.319480  1
  B  B13  1  0.000000  0.869499  0.681213  1
  B  B14  1  0.000000  0.370476  0.818678  1
  B  B15  1  0.000000  0.629841  0.181920  1
  B  B16  1  0.000000  0.052076  0.063878  1
  B  B17  1  0.000000  0.945133  0.932898  1
  B  B18  1  0.000000  0.445010  0.565625  1
  B  B19  1  0.000000  0.554185  0.434119  1
  B  B20  1  0.000000  0.482041  0.286187  1
  B  B21  1  0.000000  0.518546  0.714632  1
  B  B22  1  0.000000  0.018706  0.784952  1
  B  B23  1  0.000000  0.977691  0.215354  1
  B  B24  1  0.000000  0.255753  0.078675  1
  B  B25  1  0.000000  0.746373  0.919796  1
  B  B26  1  0.000000  0.246054  0.580089  1
  B  B27  1  0.000000  0.754022  0.420251  1
  B  B28  1  0.000000  0.298217  0.235915  1
  B  B29  1  0.000000  0.704561  0.764248  1
  B  B30  1  0.000000  0.205550  0.736164  1
  B  B31  1  0.000000  0.793946  0.266089  1
  Ir  Ir32  1  0.500000  0.858829  0.818539  1
  Ir  Ir33  1  0.500000  0.360101  0.680596  1
  Ir  Ir34  1  0.500000  0.640639  0.319596  1
  W  W35  1  0.500000  0.139586  0.180851  1
