# generated using pymatgen
data_NdDy3Ni4(SnH)4
_symmetry_space_group_name_H-M   'P 1'
_cell_length_a   4.28548100
_cell_length_b   7.13902206
_cell_length_c   8.36335206
_cell_angle_alpha   89.98559583
_cell_angle_beta   90.00000000
_cell_angle_gamma   90.00000000
_symmetry_Int_Tables_number   1
_chemical_formula_structural   NdDy3Ni4(SnH)4
_chemical_formula_sum   'Nd1 Dy3 Ni4 Sn4 H4'
_cell_volume   255.86958417
_cell_formula_units_Z   1
loop_
 _symmetry_equiv_pos_site_id
 _symmetry_equiv_pos_as_xyz
  1  'x, y, z'
loop_
 _atom_site_type_symbol
 _atom_site_label
 _atom_site_symmetry_multiplicity
 _atom_site_fract_x
 _atom_site_fract_y
 _atom_site_fract_z
 _atom_site_occupancy
  Nd  Nd0  1  0.750000  0.514022  0.810398  1
  Dy  Dy1  1  0.750000  0.013694  0.685424  1
  Dy  Dy2  1  0.250000  0.985928  0.313778  1
  Dy  Dy3  1  0.250000  0.486285  0.186234  1
  Ni  Ni4  1  0.750000  0.777483  0.109033  1
  Ni  Ni5  1  0.250000  0.219278  0.896370  1
  Ni  Ni6  1  0.250000  0.727134  0.600980  1
  Ni  Ni7  1  0.750000  0.275326  0.394461  1
  Sn  Sn8  1  0.750000  0.658772  0.424890  1
  Sn  Sn9  1  0.250000  0.340820  0.567795  1
  Sn  Sn10  1  0.250000  0.844250  0.929782  1
  Sn  Sn11  1  0.750000  0.156938  0.073587  1
  H  H12  1  0.250000  0.441754  0.924609  1
  H  H13  1  0.750000  0.555268  0.083333  1
  H  H14  1  0.750000  0.053838  0.421503  1
  H  H15  1  0.250000  0.949210  0.577823  1
