# generated using pymatgen
data_Rb6MnSe4
_symmetry_space_group_name_H-M   'P 1'
_cell_length_a   10.70913300
_cell_length_b   10.70913305
_cell_length_c   8.41802600
_cell_angle_alpha   90.00000000
_cell_angle_beta   90.00000000
_cell_angle_gamma   120.00000293
_symmetry_Int_Tables_number   1
_chemical_formula_structural   Rb6MnSe4
_chemical_formula_sum   'Rb12 Mn2 Se8'
_cell_volume   836.08322159
_cell_formula_units_Z   2
loop_
 _symmetry_equiv_pos_site_id
 _symmetry_equiv_pos_as_xyz
  1  'x, y, z'
loop_
 _atom_site_type_symbol
 _atom_site_label
 _atom_site_symmetry_multiplicity
 _atom_site_fract_x
 _atom_site_fract_y
 _atom_site_fract_z
 _atom_site_occupancy
  Rb  Rb0  1  0.529270  0.058540  0.366073  1
  Rb  Rb1  1  0.470730  0.529270  0.866073  1
  Rb  Rb2  1  0.941460  0.470730  0.366073  1
  Rb  Rb3  1  0.529270  0.470730  0.366073  1
  Rb  Rb4  1  0.146623  0.853377  0.542564  1
  Rb  Rb5  1  0.293244  0.146623  0.042564  1
  Rb  Rb6  1  0.058540  0.529270  0.866073  1
  Rb  Rb7  1  0.853377  0.706756  0.042564  1
  Rb  Rb8  1  0.853377  0.146623  0.042564  1
  Rb  Rb9  1  0.706756  0.853377  0.542564  1
  Rb  Rb10  1  0.146623  0.293244  0.542564  1
  Rb  Rb11  1  0.470730  0.941460  0.866073  1
  Mn  Mn12  1  0.666667  0.333333  0.752595  1
  Mn  Mn13  1  0.333333  0.666667  0.252595  1
  Se  Se14  1  0.800493  0.199507  0.655603  1
  Se  Se15  1  0.600987  0.800493  0.155603  1
  Se  Se16  1  0.199507  0.399013  0.155603  1
  Se  Se17  1  0.800493  0.600987  0.655603  1
  Se  Se18  1  0.399013  0.199507  0.655603  1
  Se  Se19  1  0.199507  0.800493  0.155603  1
  Se  Se20  1  0.666667  0.333333  0.061783  1
  Se  Se21  1  0.333333  0.666667  0.561783  1
