# generated using pymatgen
data_Ho8InCo2Ag
_symmetry_space_group_name_H-M   'P 1'
_cell_length_a   9.39183867
_cell_length_b   9.40965502
_cell_length_c   9.39157108
_cell_angle_alpha   60.33855427
_cell_angle_beta   60.17661821
_cell_angle_gamma   60.33112206
_symmetry_Int_Tables_number   1
_chemical_formula_structural   Ho8InCo2Ag
_chemical_formula_sum   'Ho16 In2 Co4 Ag2'
_cell_volume   590.62154022
_cell_formula_units_Z   2
loop_
 _symmetry_equiv_pos_site_id
 _symmetry_equiv_pos_as_xyz
  1  'x, y, z'
loop_
 _atom_site_type_symbol
 _atom_site_label
 _atom_site_symmetry_multiplicity
 _atom_site_fract_x
 _atom_site_fract_y
 _atom_site_fract_z
 _atom_site_occupancy
  Ho  Ho0  1  0.942285  0.935624  0.561847  1
  Ho  Ho1  1  0.809358  0.188020  0.188654  1
  Ho  Ho2  1  0.943596  0.560598  0.562149  1
  Ho  Ho3  1  0.940222  0.559879  0.940165  1
  Ho  Ho4  1  0.810793  0.811331  0.186188  1
  Ho  Ho5  1  0.346631  0.343870  0.346658  1
  Ho  Ho6  1  0.561852  0.935645  0.942228  1
  Ho  Ho7  1  0.563049  0.938239  0.563105  1
  Ho  Ho8  1  0.186169  0.811346  0.810743  1
  Ho  Ho9  1  0.188685  0.188015  0.809303  1
  Ho  Ho10  1  0.348918  0.347375  0.958626  1
  Ho  Ho11  1  0.348751  0.959142  0.348776  1
  Ho  Ho12  1  0.809940  0.188325  0.809932  1
  Ho  Ho13  1  0.562164  0.560566  0.943549  1
  Ho  Ho14  1  0.187746  0.811009  0.187824  1
  Ho  Ho15  1  0.958687  0.347322  0.348954  1
  In  In16  1  0.577094  0.583810  0.577098  1
  In  In17  1  0.577700  0.259643  0.577788  1
  Co  Co18  1  0.578032  0.142639  0.141252  1
  Co  Co19  1  0.141317  0.141671  0.141337  1
  Co  Co20  1  0.142683  0.576356  0.142661  1
  Co  Co21  1  0.141223  0.142699  0.578043  1
  Ag  Ag22  1  0.581555  0.583418  0.251581  1
  Ag  Ag23  1  0.251554  0.583462  0.581543  1
