# generated using pymatgen
data_Mn9Cr11Ge(WC3)2
_symmetry_space_group_name_H-M   'P 1'
_cell_length_a   7.47850104
_cell_length_b   7.47850246
_cell_length_c   7.48853200
_cell_angle_alpha   59.95563515
_cell_angle_beta   59.95562886
_cell_angle_gamma   59.99246118
_symmetry_Int_Tables_number   1
_chemical_formula_structural   Mn9Cr11Ge(WC3)2
_chemical_formula_sum   'Mn9 Cr11 Ge1 W2 C6'
_cell_volume   295.93382080
_cell_formula_units_Z   1
loop_
 _symmetry_equiv_pos_site_id
 _symmetry_equiv_pos_as_xyz
  1  'x, y, z'
loop_
 _atom_site_type_symbol
 _atom_site_label
 _atom_site_symmetry_multiplicity
 _atom_site_fract_x
 _atom_site_fract_y
 _atom_site_fract_z
 _atom_site_occupancy
  Mn  Mn0  1  0.616101  0.616101  0.151346  1
  Mn  Mn1  1  0.616331  0.151694  0.616068  1
  Mn  Mn2  1  0.151695  0.616331  0.616068  1
  Mn  Mn3  1  0.616258  0.616258  0.616212  1
  Mn  Mn4  1  0.383742  0.383742  0.848727  1
  Mn  Mn5  1  0.383669  0.848305  0.384093  1
  Mn  Mn6  1  0.848305  0.383669  0.384093  1
  Mn  Mn7  1  0.383899  0.383899  0.383547  1
  Mn  Mn8  1  0.000000  0.000000  0.342363  1
  Cr  Cr9  1  0.658310  0.999810  0.342496  1
  Cr  Cr10  1  0.999810  0.658310  0.342496  1
  Cr  Cr11  1  0.657614  0.342386  0.000757  1
  Cr  Cr12  1  0.000190  0.341690  0.000616  1
  Cr  Cr13  1  0.000250  0.342324  0.656936  1
  Cr  Cr14  1  0.342386  0.657614  0.000757  1
  Cr  Cr15  1  0.342324  0.000250  0.656936  1
  Cr  Cr16  1  0.341690  0.000190  0.000616  1
  Cr  Cr17  1  0.000000  0.000000  0.656289  1
  Cr  Cr18  1  0.999750  0.657676  0.999510  1
  Cr  Cr19  1  0.657676  0.999750  0.999510  1
  Ge  Ge20  1  0.000000  0.000000  0.000748  1
  W  W21  1  0.750313  0.750313  0.749147  1
  W  W22  1  0.249687  0.249687  0.249773  1
  C  C23  1  0.717936  0.717936  0.281944  1
  C  C24  1  0.279288  0.720712  0.281547  1
  C  C25  1  0.720712  0.279288  0.281547  1
  C  C26  1  0.282064  0.282064  0.717816  1
  C  C27  1  0.718350  0.281650  0.719021  1
  C  C28  1  0.281650  0.718350  0.719021  1
