# generated using pymatgen
data_ScCr3P4IrRh2
_symmetry_space_group_name_H-M   'P 1'
_cell_length_a   6.94727300
_cell_length_b   6.93221809
_cell_length_c   3.57180700
_cell_angle_alpha   90.00000000
_cell_angle_beta   90.00000000
_cell_angle_gamma   120.06821602
_symmetry_Int_Tables_number   1
_chemical_formula_structural   ScCr3P4IrRh2
_chemical_formula_sum   'Sc1 Cr3 P4 Ir1 Rh2'
_cell_volume   148.86968128
_cell_formula_units_Z   1
loop_
 _symmetry_equiv_pos_site_id
 _symmetry_equiv_pos_as_xyz
  1  'x, y, z'
loop_
 _atom_site_type_symbol
 _atom_site_label
 _atom_site_symmetry_multiplicity
 _atom_site_fract_x
 _atom_site_fract_y
 _atom_site_fract_z
 _atom_site_occupancy
  Sc  Sc0  1  0.000022  0.000053  0.000000  1
  Cr  Cr1  1  0.459459  0.918712  0.000000  1
  Cr  Cr2  1  0.459161  0.540395  0.000000  1
  Cr  Cr3  1  0.081259  0.540719  0.000000  1
  P  P4  1  0.666664  0.333272  0.000000  1
  P  P5  1  0.190620  0.381264  0.500000  1
  P  P6  1  0.190929  0.809398  0.500000  1
  P  P7  1  0.618516  0.809447  0.500000  1
  Ir  Ir8  1  0.804859  0.609863  0.500000  1
  Rh  Rh9  1  0.804862  0.195226  0.500000  1
  Rh  Rh10  1  0.390316  0.194985  0.500000  1
