# generated using pymatgen
data_Nd2Ho2Al17GaIr6
_symmetry_space_group_name_H-M   'P 1'
_cell_length_a   7.57099497
_cell_length_b   7.57098233
_cell_length_c   9.55436100
_cell_angle_alpha   90.00000000
_cell_angle_beta   90.00000000
_cell_angle_gamma   119.32749860
_symmetry_Int_Tables_number   1
_chemical_formula_structural   Nd2Ho2Al17GaIr6
_chemical_formula_sum   'Nd2 Ho2 Al17 Ga1 Ir6'
_cell_volume   477.46416993
_cell_formula_units_Z   1
loop_
 _symmetry_equiv_pos_site_id
 _symmetry_equiv_pos_as_xyz
  1  'x, y, z'
loop_
 _atom_site_type_symbol
 _atom_site_label
 _atom_site_symmetry_multiplicity
 _atom_site_fract_x
 _atom_site_fract_y
 _atom_site_fract_z
 _atom_site_occupancy
  Nd  Nd0  1  0.993897  0.674687  0.250000  1
  Nd  Nd1  1  0.674701  0.993905  0.250000  1
  Ho  Ho2  1  0.004988  0.326914  0.750000  1
  Ho  Ho3  1  0.326912  0.004985  0.750000  1
  Al  Al4  1  0.870003  0.870004  0.750000  1
  Al  Al5  1  0.003018  0.336011  0.068964  1
  Al  Al6  1  0.998885  0.663767  0.923154  1
  Al  Al7  1  0.998885  0.663767  0.576846  1
  Al  Al8  1  0.336011  0.003018  0.431036  1
  Al  Al9  1  0.003018  0.336011  0.431036  1
  Al  Al10  1  0.663767  0.998886  0.576846  1
  Al  Al11  1  0.663767  0.998886  0.923154  1
  Al  Al12  1  0.336011  0.003018  0.068964  1
  Al  Al13  1  0.332770  0.332770  0.555478  1
  Al  Al14  1  0.664689  0.664690  0.456111  1
  Al  Al15  1  0.664689  0.664690  0.043889  1
  Al  Al16  1  0.332770  0.332770  0.944522  1
  Al  Al17  1  0.338689  0.547559  0.250000  1
  Al  Al18  1  0.659945  0.449757  0.750000  1
  Al  Al19  1  0.547558  0.338689  0.250000  1
  Al  Al20  1  0.449758  0.659945  0.750000  1
  Ga  Ga21  1  0.138071  0.138073  0.250000  1
  Ir  Ir22  1  0.670373  0.327358  0.997952  1
  Ir  Ir23  1  0.327357  0.670374  0.997951  1
  Ir  Ir24  1  0.327357  0.670374  0.502049  1
  Ir  Ir25  1  0.670373  0.327358  0.502048  1
  Ir  Ir26  1  0.000869  0.000868  0.994907  1
  Ir  Ir27  1  0.000869  0.000868  0.505093  1
