# generated using pymatgen
data_Tm12In2FeTc2
_symmetry_space_group_name_H-M   'P 1'
_cell_length_a   8.31420271
_cell_length_b   8.31420304
_cell_length_c   8.31420310
_cell_angle_alpha   108.75741099
_cell_angle_beta   108.75740723
_cell_angle_gamma   110.90846573
_symmetry_Int_Tables_number   1
_chemical_formula_structural   Tm12In2FeTc2
_chemical_formula_sum   'Tm12 In2 Fe1 Tc2'
_cell_volume   442.21597879
_cell_formula_units_Z   1
loop_
 _symmetry_equiv_pos_site_id
 _symmetry_equiv_pos_as_xyz
  1  'x, y, z'
loop_
 _atom_site_type_symbol
 _atom_site_label
 _atom_site_symmetry_multiplicity
 _atom_site_fract_x
 _atom_site_fract_y
 _atom_site_fract_z
 _atom_site_occupancy
  Tm  Tm0  1  0.304461  0.304461  0.611347  1
  Tm  Tm1  1  0.693114  0.693114  0.388653  1
  Tm  Tm2  1  0.693114  0.304461  0.000000  1
  Tm  Tm3  1  0.304461  0.693114  0.000000  1
  Tm  Tm4  1  0.190449  0.431026  0.240578  1
  Tm  Tm5  1  0.807138  0.569636  0.762498  1
  Tm  Tm6  1  0.190449  0.949870  0.759422  1
  Tm  Tm7  1  0.949870  0.190449  0.759422  1
  Tm  Tm8  1  0.807138  0.044641  0.237502  1
  Tm  Tm9  1  0.044641  0.807138  0.237502  1
  Tm  Tm10  1  0.431026  0.190449  0.240578  1
  Tm  Tm11  1  0.569636  0.807138  0.762498  1
  In  In12  1  0.998110  0.498110  0.500000  1
  In  In13  1  0.498110  0.998110  0.500000  1
  Fe  Fe14  1  0.630694  0.630694  0.000000  1
  Tc  Tc15  1  0.386996  0.386996  0.000000  1
  Tc  Tc16  1  0.000595  0.000595  0.000000  1
