# generated using pymatgen
data_CaTi2CdBi2(SbO7)2
_symmetry_space_group_name_H-M   'P 1'
_cell_length_a   7.37455060
_cell_length_b   7.37455107
_cell_length_c   7.37455000
_cell_angle_alpha   121.00508881
_cell_angle_beta   118.89396200
_cell_angle_gamma   90.09716538
_symmetry_Int_Tables_number   1
_chemical_formula_structural   CaTi2CdBi2(SbO7)2
_chemical_formula_sum   'Ca1 Ti2 Cd1 Bi2 Sb2 O14'
_cell_volume   283.68622049
_cell_formula_units_Z   1
loop_
 _symmetry_equiv_pos_site_id
 _symmetry_equiv_pos_as_xyz
  1  'x, y, z'
loop_
 _atom_site_type_symbol
 _atom_site_label
 _atom_site_symmetry_multiplicity
 _atom_site_fract_x
 _atom_site_fract_y
 _atom_site_fract_z
 _atom_site_occupancy
  Ca  Ca0  1  0.000000  0.000000  0.500000  1
  Ti  Ti1  1  0.500000  0.500000  0.500000  1
  Ti  Ti2  1  0.500000  0.000000  0.000000  1
  Cd  Cd3  1  0.000000  0.500000  0.000000  1
  Bi  Bi4  1  0.000000  0.000000  0.000000  1
  Bi  Bi5  1  0.500000  0.000000  0.500000  1
  Sb  Sb6  1  0.500000  0.500000  0.000000  1
  Sb  Sb7  1  0.000000  0.500000  0.500000  1
  O  O8  1  0.122567  0.864595  0.242028  1
  O  O9  1  0.877433  0.135405  0.757972  1
  O  O10  1  0.431902  0.181356  0.249455  1
  O  O11  1  0.827118  0.579555  0.252437  1
  O  O12  1  0.434822  0.578701  0.259174  1
  O  O13  1  0.821414  0.173658  0.244247  1
  O  O14  1  0.429411  0.173659  0.852245  1
  O  O15  1  0.819526  0.578701  0.643878  1
  O  O16  1  0.568098  0.818644  0.750545  1
  O  O17  1  0.172882  0.420445  0.747563  1
  O  O18  1  0.565178  0.421299  0.740826  1
  O  O19  1  0.178586  0.826342  0.755753  1
  O  O20  1  0.570589  0.826341  0.147755  1
  O  O21  1  0.180474  0.421299  0.356122  1
