# generated using pymatgen
data_YbY2(MgIr)3
_symmetry_space_group_name_H-M   'P 1'
_cell_length_a   7.13221800
_cell_length_b   7.23006081
_cell_length_c   4.15749200
_cell_angle_alpha   90.00000000
_cell_angle_beta   90.00000000
_cell_angle_gamma   119.55333085
_symmetry_Int_Tables_number   1
_chemical_formula_structural   YbY2(MgIr)3
_chemical_formula_sum   'Yb1 Y2 Mg3 Ir3'
_cell_volume   186.49440199
_cell_formula_units_Z   1
loop_
 _symmetry_equiv_pos_site_id
 _symmetry_equiv_pos_as_xyz
  1  'x, y, z'
loop_
 _atom_site_type_symbol
 _atom_site_label
 _atom_site_symmetry_multiplicity
 _atom_site_fract_x
 _atom_site_fract_y
 _atom_site_fract_z
 _atom_site_occupancy
  Yb  Yb0  1  0.413875  0.000000  0.500000  1
  Y  Y1  1  0.001710  0.411721  0.500000  1
  Y  Y2  1  0.589989  0.588279  0.500000  1
  Mg  Mg3  1  0.004131  0.760787  0.000000  1
  Mg  Mg4  1  0.243344  0.239213  0.000000  1
  Mg  Mg5  1  0.749508  0.000000  0.000000  1
  Ir  Ir6  1  0.330480  0.655352  0.000000  1
  Ir  Ir7  1  0.675131  0.344648  0.000000  1
  Ir  Ir8  1  0.991834  0.000000  0.500000  1
