# generated using pymatgen
data_Hf4Ti3VRe4
_symmetry_space_group_name_H-M   'P 1'
_cell_length_a   5.32788000
_cell_length_b   5.35449185
_cell_length_c   8.75820300
_cell_angle_alpha   90.00000000
_cell_angle_beta   90.00000000
_cell_angle_gamma   120.18236861
_symmetry_Int_Tables_number   1
_chemical_formula_structural   Hf4Ti3VRe4
_chemical_formula_sum   'Hf4 Ti3 V1 Re4'
_cell_volume   215.98187649
_cell_formula_units_Z   1
loop_
 _symmetry_equiv_pos_site_id
 _symmetry_equiv_pos_as_xyz
  1  'x, y, z'
loop_
 _atom_site_type_symbol
 _atom_site_label
 _atom_site_symmetry_multiplicity
 _atom_site_fract_x
 _atom_site_fract_y
 _atom_site_fract_z
 _atom_site_occupancy
  Hf  Hf0  1  0.332291  0.663487  0.059838  1
  Hf  Hf1  1  0.665818  0.330026  0.565630  1
  Hf  Hf2  1  0.665818  0.330026  0.934370  1
  Hf  Hf3  1  0.332291  0.663487  0.440162  1
  Ti  Ti4  1  0.001858  0.003197  0.997878  1
  Ti  Ti5  1  0.001858  0.003197  0.502122  1
  Ti  Ti6  1  0.831104  0.662165  0.250000  1
  V  V7  1  0.169255  0.831877  0.750000  1
  Re  Re8  1  0.658831  0.830350  0.750000  1
  Re  Re9  1  0.341653  0.169700  0.250000  1
  Re  Re10  1  0.827643  0.169565  0.250000  1
  Re  Re11  1  0.171582  0.342922  0.750000  1
