# generated using pymatgen
data_Dy17Mg2ZrIr12
_symmetry_space_group_name_H-M   'P 1'
_cell_length_a   10.79068100
_cell_length_b   10.79068100
_cell_length_c   6.27084400
_cell_angle_alpha   90.00000000
_cell_angle_beta   90.00000000
_cell_angle_gamma   90.00000000
_symmetry_Int_Tables_number   1
_chemical_formula_structural   Dy17Mg2ZrIr12
_chemical_formula_sum   'Dy17 Mg2 Zr1 Ir12'
_cell_volume   730.16952805
_cell_formula_units_Z   1
loop_
 _symmetry_equiv_pos_site_id
 _symmetry_equiv_pos_as_xyz
  1  'x, y, z'
loop_
 _atom_site_type_symbol
 _atom_site_label
 _atom_site_symmetry_multiplicity
 _atom_site_fract_x
 _atom_site_fract_y
 _atom_site_fract_z
 _atom_site_occupancy
  Dy  Dy0  1  0.282586  0.085213  0.378360  1
  Dy  Dy1  1  0.289625  0.913394  0.878779  1
  Dy  Dy2  1  0.710375  0.086606  0.878779  1
  Dy  Dy3  1  0.717414  0.914787  0.378360  1
  Dy  Dy4  1  0.585495  0.784409  0.879061  1
  Dy  Dy5  1  0.586904  0.206952  0.377701  1
  Dy  Dy6  1  0.413096  0.793048  0.377701  1
  Dy  Dy7  1  0.414505  0.215591  0.879061  1
  Dy  Dy8  1  0.206952  0.413096  0.622299  1
  Dy  Dy9  1  0.215591  0.585495  0.120939  1
  Dy  Dy10  1  0.784409  0.414505  0.120939  1
  Dy  Dy11  1  0.793048  0.586904  0.622299  1
  Dy  Dy12  1  0.913394  0.710375  0.121221  1
  Dy  Dy13  1  0.914787  0.282586  0.621640  1
  Dy  Dy14  1  0.085213  0.717414  0.621640  1
  Dy  Dy15  1  0.086606  0.289625  0.121221  1
  Dy  Dy16  1  0.500000  0.500000  0.500000  1
  Mg  Mg17  1  0.000000  0.000000  0.500000  1
  Mg  Mg18  1  0.500000  0.500000  0.000000  1
  Zr  Zr19  1  0.000000  0.000000  0.000000  1
  Ir  Ir20  1  0.853152  0.151031  0.238360  1
  Ir  Ir21  1  0.848969  0.853152  0.761640  1
  Ir  Ir22  1  0.151031  0.146848  0.761640  1
  Ir  Ir23  1  0.146848  0.848969  0.238360  1
  Ir  Ir24  1  0.656455  0.345836  0.743655  1
  Ir  Ir25  1  0.654164  0.656455  0.256345  1
  Ir  Ir26  1  0.345836  0.343545  0.256345  1
  Ir  Ir27  1  0.343545  0.654164  0.743655  1
  Ir  Ir28  1  0.500000  0.000000  0.121738  1
  Ir  Ir29  1  0.500000  0.000000  0.623107  1
  Ir  Ir30  1  0.000000  0.500000  0.878262  1
  Ir  Ir31  1  0.000000  0.500000  0.376893  1
