# generated using pymatgen
data_LiBe9Pt2
_symmetry_space_group_name_H-M   'P 1'
_cell_length_a   7.39144839
_cell_length_b   7.39144843
_cell_length_c   7.39144811
_cell_angle_alpha   33.64484062
_cell_angle_beta   33.64483791
_cell_angle_gamma   33.64483345
_symmetry_Int_Tables_number   1
_chemical_formula_structural   LiBe9Pt2
_chemical_formula_sum   'Li1 Be9 Pt2'
_cell_volume   110.42855569
_cell_formula_units_Z   1
loop_
 _symmetry_equiv_pos_site_id
 _symmetry_equiv_pos_as_xyz
  1  'x, y, z'
loop_
 _atom_site_type_symbol
 _atom_site_label
 _atom_site_symmetry_multiplicity
 _atom_site_fract_x
 _atom_site_fract_y
 _atom_site_fract_z
 _atom_site_occupancy
  Li  Li0  1  0.625356  0.625356  0.625356  1
  Be  Be1  1  0.062373  0.563160  0.563160  1
  Be  Be2  1  0.561295  0.062201  0.062201  1
  Be  Be3  1  0.563160  0.563160  0.062373  1
  Be  Be4  1  0.062201  0.062201  0.561295  1
  Be  Be5  1  0.812212  0.812212  0.812212  1
  Be  Be6  1  0.312739  0.312739  0.312739  1
  Be  Be7  1  0.563160  0.062373  0.563160  1
  Be  Be8  1  0.062201  0.561295  0.062201  1
  Be  Be9  1  0.124251  0.124251  0.124251  1
  Pt  Pt10  1  0.002426  0.002426  0.002426  1
  Pt  Pt11  1  0.498623  0.498623  0.498623  1
