# generated using pymatgen
data_Nd6Sb6Pd3Au
_symmetry_space_group_name_H-M   'P 1'
_cell_length_a   4.58680900
_cell_length_b   4.58681052
_cell_length_c   23.73448000
_cell_angle_alpha   90.00000000
_cell_angle_beta   90.00000000
_cell_angle_gamma   120.00001071
_symmetry_Int_Tables_number   1
_chemical_formula_structural   Nd6Sb6Pd3Au
_chemical_formula_sum   'Nd6 Sb6 Pd3 Au1'
_cell_volume   432.44587762
_cell_formula_units_Z   1
loop_
 _symmetry_equiv_pos_site_id
 _symmetry_equiv_pos_as_xyz
  1  'x, y, z'
loop_
 _atom_site_type_symbol
 _atom_site_label
 _atom_site_symmetry_multiplicity
 _atom_site_fract_x
 _atom_site_fract_y
 _atom_site_fract_z
 _atom_site_occupancy
  Nd  Nd0  1  0.666667  0.333333  0.924650  1
  Nd  Nd1  1  0.333333  0.666667  0.077440  1
  Nd  Nd2  1  0.333333  0.666667  0.420186  1
  Nd  Nd3  1  0.666667  0.333333  0.571583  1
  Nd  Nd4  1  0.333333  0.666667  0.249306  1
  Nd  Nd5  1  0.666667  0.333333  0.754793  1
  Sb  Sb6  1  0.333333  0.666667  0.650881  1
  Sb  Sb7  1  0.000000  0.000000  0.495993  1
  Sb  Sb8  1  0.666667  0.333333  0.337968  1
  Sb  Sb9  1  0.333333  0.666667  0.844042  1
  Sb  Sb10  1  0.666667  0.333333  0.161381  1
  Sb  Sb11  1  0.000000  0.000000  0.002159  1
  Pd  Pd12  1  0.000000  0.000000  0.823353  1
  Pd  Pd13  1  0.000000  0.000000  0.168298  1
  Pd  Pd14  1  0.000000  0.000000  0.332046  1
  Au  Au15  1  0.000000  0.000000  0.685922  1
