# generated using pymatgen
data_Yb4CuNiH12
_symmetry_space_group_name_H-M   'P 1'
_cell_length_a   6.83368162
_cell_length_b   6.83368051
_cell_length_c   5.02566514
_cell_angle_alpha   90.00883309
_cell_angle_beta   90.00882262
_cell_angle_gamma   136.77027010
_symmetry_Int_Tables_number   1
_chemical_formula_structural   Yb4CuNiH12
_chemical_formula_sum   'Yb4 Cu1 Ni1 H12'
_cell_volume   160.74819619
_cell_formula_units_Z   1
loop_
 _symmetry_equiv_pos_site_id
 _symmetry_equiv_pos_as_xyz
  1  'x, y, z'
loop_
 _atom_site_type_symbol
 _atom_site_label
 _atom_site_symmetry_multiplicity
 _atom_site_fract_x
 _atom_site_fract_y
 _atom_site_fract_z
 _atom_site_occupancy
  Yb  Yb0  1  0.146105  0.853895  0.500000  1
  Yb  Yb1  1  0.646073  0.353927  0.000000  1
  Yb  Yb2  1  0.853895  0.146105  0.500000  1
  Yb  Yb3  1  0.353927  0.646073  0.000000  1
  Cu  Cu4  1  0.000000  0.000000  0.000000  1
  Ni  Ni5  1  0.500000  0.500000  0.500000  1
  H  H6  1  0.999853  0.500067  0.749837  1
  H  H7  1  0.499933  0.000147  0.250163  1
  H  H8  1  0.000147  0.499933  0.250163  1
  H  H9  1  0.500067  0.999853  0.749837  1
  H  H10  1  0.377077  0.622923  0.500000  1
  H  H11  1  0.875005  0.124995  0.000000  1
  H  H12  1  0.622923  0.377077  0.500000  1
  H  H13  1  0.124995  0.875005  0.000000  1
  H  H14  1  0.265643  0.265643  0.736433  1
  H  H15  1  0.734357  0.734357  0.263567  1
  H  H16  1  0.265307  0.265307  0.264152  1
  H  H17  1  0.734693  0.734693  0.735848  1
