# generated using pymatgen
data_Sc2BiC
_symmetry_space_group_name_H-M   'P 1'
_cell_length_a   3.46104800
_cell_length_b   3.46105400
_cell_length_c   14.70870300
_cell_angle_alpha   90.00000000
_cell_angle_beta   90.00000000
_cell_angle_gamma   119.99992352
_symmetry_Int_Tables_number   1
_chemical_formula_structural   Sc2BiC
_chemical_formula_sum   'Sc4 Bi2 C2'
_cell_volume   152.58833815
_cell_formula_units_Z   2
loop_
 _symmetry_equiv_pos_site_id
 _symmetry_equiv_pos_as_xyz
  1  'x, y, z'
loop_
 _atom_site_type_symbol
 _atom_site_label
 _atom_site_symmetry_multiplicity
 _atom_site_fract_x
 _atom_site_fract_y
 _atom_site_fract_z
 _atom_site_occupancy
  Sc  Sc0  1  0.333326  0.666651  0.080379  1
  Sc  Sc1  1  0.333326  0.666651  0.419621  1
  Sc  Sc2  1  0.666675  0.333349  0.580379  1
  Sc  Sc3  1  0.666675  0.333349  0.919621  1
  Bi  Bi4  1  0.666684  0.333365  0.250000  1
  Bi  Bi5  1  0.333317  0.666635  0.750000  1
  C  C6  1  0.000000  0.000000  0.000000  1
  C  C7  1  0.000000  0.000000  0.500000  1
