# generated using pymatgen
data_HoErNbB2Ru5
_symmetry_space_group_name_H-M   'P 1'
_cell_length_a   9.65764740
_cell_length_b   9.65764740
_cell_length_c   3.12429600
_cell_angle_alpha   90.00000000
_cell_angle_beta   90.00000000
_cell_angle_gamma   90.06171179
_symmetry_Int_Tables_number   1
_chemical_formula_structural   HoErNbB2Ru5
_chemical_formula_sum   'Ho2 Er2 Nb2 B4 Ru10'
_cell_volume   291.40339788
_cell_formula_units_Z   2
loop_
 _symmetry_equiv_pos_site_id
 _symmetry_equiv_pos_as_xyz
  1  'x, y, z'
loop_
 _atom_site_type_symbol
 _atom_site_label
 _atom_site_symmetry_multiplicity
 _atom_site_fract_x
 _atom_site_fract_y
 _atom_site_fract_z
 _atom_site_occupancy
  Ho  Ho0  1  0.825117  0.674883  0.000000  1
  Ho  Ho1  1  0.174883  0.325117  0.000000  1
  Er  Er2  1  0.325086  0.825086  0.000000  1
  Er  Er3  1  0.674914  0.174914  0.000000  1
  Nb  Nb4  1  0.500000  0.500000  0.000000  1
  Nb  Nb5  1  0.000000  0.000000  0.000000  1
  B  B6  1  0.620224  0.879776  0.000000  1
  B  B7  1  0.379776  0.120224  0.000000  1
  B  B8  1  0.120417  0.620417  0.000000  1
  B  B9  1  0.879583  0.379583  0.000000  1
  Ru  Ru10  1  0.570672  0.718429  0.500000  1
  Ru  Ru11  1  0.429328  0.281571  0.500000  1
  Ru  Ru12  1  0.071318  0.781798  0.500000  1
  Ru  Ru13  1  0.928682  0.218202  0.500000  1
  Ru  Ru14  1  0.281798  0.571318  0.500000  1
  Ru  Ru15  1  0.718202  0.428682  0.500000  1
  Ru  Ru16  1  0.218429  0.070672  0.500000  1
  Ru  Ru17  1  0.781571  0.929328  0.500000  1
  Ru  Ru18  1  0.500000  0.000000  0.500000  1
  Ru  Ru19  1  0.000000  0.500000  0.500000  1
