# generated using pymatgen
data_Ho7Tm9(InRu)4
_symmetry_space_group_name_H-M   'P 1'
_cell_length_a   9.54693955
_cell_length_b   9.54693958
_cell_length_c   9.58186100
_cell_angle_alpha   59.87892136
_cell_angle_beta   59.87892128
_cell_angle_gamma   59.85330210
_symmetry_Int_Tables_number   1
_chemical_formula_structural   Ho7Tm9(InRu)4
_chemical_formula_sum   'Ho7 Tm9 In4 Ru4'
_cell_volume   615.72097045
_cell_formula_units_Z   1
loop_
 _symmetry_equiv_pos_site_id
 _symmetry_equiv_pos_as_xyz
  1  'x, y, z'
loop_
 _atom_site_type_symbol
 _atom_site_label
 _atom_site_symmetry_multiplicity
 _atom_site_fract_x
 _atom_site_fract_y
 _atom_site_fract_z
 _atom_site_occupancy
  Ho  Ho0  1  0.059725  0.059725  0.440275  1
  Ho  Ho1  1  0.191667  0.808178  0.808439  1
  Ho  Ho2  1  0.808178  0.191667  0.191715  1
  Ho  Ho3  1  0.808178  0.191667  0.808439  1
  Ho  Ho4  1  0.191667  0.808178  0.191715  1
  Ho  Ho5  1  0.808418  0.808418  0.191582  1
  Ho  Ho6  1  0.192167  0.192167  0.807833  1
  Tm  Tm7  1  0.598275  0.598275  0.598158  1
  Tm  Tm8  1  0.598275  0.598275  0.205292  1
  Tm  Tm9  1  0.598428  0.205868  0.597851  1
  Tm  Tm10  1  0.205868  0.598428  0.597851  1
  Tm  Tm11  1  0.059210  0.440080  0.441145  1
  Tm  Tm12  1  0.440080  0.059210  0.059566  1
  Tm  Tm13  1  0.440080  0.059210  0.441145  1
  Tm  Tm14  1  0.059210  0.440080  0.059566  1
  Tm  Tm15  1  0.439914  0.439914  0.060086  1
  In  In16  1  0.832274  0.832274  0.833007  1
  In  In17  1  0.832274  0.832274  0.502444  1
  In  In18  1  0.831873  0.502721  0.832703  1
  In  In19  1  0.502721  0.831873  0.832703  1
  Ru  Ru20  1  0.390355  0.390355  0.389733  1
  Ru  Ru21  1  0.390355  0.390355  0.829558  1
  Ru  Ru22  1  0.392859  0.827951  0.389596  1
  Ru  Ru23  1  0.827951  0.392859  0.389596  1
