# generated using pymatgen
data_Sc12InTc3Pb
_symmetry_space_group_name_H-M   'P 1'
_cell_length_a   7.97133672
_cell_length_b   7.97172234
_cell_length_c   7.97133500
_cell_angle_alpha   108.93998214
_cell_angle_beta   109.01752036
_cell_angle_gamma   110.45872182
_symmetry_Int_Tables_number   1
_chemical_formula_structural   Sc12InTc3Pb
_chemical_formula_sum   'Sc12 In1 Tc3 Pb1'
_cell_volume   389.85747448
_cell_formula_units_Z   1
loop_
 _symmetry_equiv_pos_site_id
 _symmetry_equiv_pos_as_xyz
  1  'x, y, z'
loop_
 _atom_site_type_symbol
 _atom_site_label
 _atom_site_symmetry_multiplicity
 _atom_site_fract_x
 _atom_site_fract_y
 _atom_site_fract_z
 _atom_site_occupancy
  Sc  Sc0  1  0.189008  0.428463  0.239455  1
  Sc  Sc1  1  0.810992  0.571537  0.760545  1
  Sc  Sc2  1  0.189179  0.949697  0.760516  1
  Sc  Sc3  1  0.953001  0.191142  0.761999  1
  Sc  Sc4  1  0.810821  0.050303  0.239484  1
  Sc  Sc5  1  0.046999  0.808858  0.238001  1
  Sc  Sc6  1  0.429142  0.191142  0.238141  1
  Sc  Sc7  1  0.570858  0.808858  0.761859  1
  Sc  Sc8  1  0.302383  0.306042  0.608538  1
  Sc  Sc9  1  0.697617  0.693958  0.391462  1
  Sc  Sc10  1  0.697504  0.306042  0.003658  1
  Sc  Sc11  1  0.302496  0.693958  0.996342  1
  In  In12  1  0.000000  0.500000  0.500000  1
  Tc  Tc13  1  0.362765  0.362623  0.999859  1
  Tc  Tc14  1  0.637235  0.637377  0.000141  1
  Tc  Tc15  1  0.000000  0.000000  0.000000  1
  Pb  Pb16  1  0.500000  0.000000  0.500000  1
