# generated using pymatgen
data_CaYPaIr3
_symmetry_space_group_name_H-M   'P 1'
_cell_length_a   5.41067932
_cell_length_b   5.80262142
_cell_length_c   5.80262100
_cell_angle_alpha   59.99999670
_cell_angle_beta   57.57335680
_cell_angle_gamma   57.57336311
_symmetry_Int_Tables_number   1
_chemical_formula_structural   CaYPaIr3
_chemical_formula_sum   'Ca1 Y1 Pa1 Ir3'
_cell_volume   123.89148822
_cell_formula_units_Z   1
loop_
 _symmetry_equiv_pos_site_id
 _symmetry_equiv_pos_as_xyz
  1  'x, y, z'
loop_
 _atom_site_type_symbol
 _atom_site_label
 _atom_site_symmetry_multiplicity
 _atom_site_fract_x
 _atom_site_fract_y
 _atom_site_fract_z
 _atom_site_occupancy
  Ca  Ca0  1  0.497467  0.500844  0.500844  1
  Y  Y1  1  0.756790  0.747737  0.747737  1
  Pa  Pa2  1  0.623732  0.125423  0.125423  1
  Ir  Ir3  1  0.124004  0.125253  0.125253  1
  Ir  Ir4  1  0.124004  0.125253  0.625490  1
  Ir  Ir5  1  0.124004  0.625490  0.125253  1
