# generated using pymatgen
data_Yb8Si16TcW11
_symmetry_space_group_name_H-M   'P 1'
_cell_length_a   6.73284630
_cell_length_b   6.89030877
_cell_length_c   12.94573600
_cell_angle_alpha   89.91653815
_cell_angle_beta   89.94326456
_cell_angle_gamma   90.19134679
_symmetry_Int_Tables_number   1
_chemical_formula_structural   Yb8Si16TcW11
_chemical_formula_sum   'Yb8 Si16 Tc1 W11'
_cell_volume   600.56640267
_cell_formula_units_Z   1
loop_
 _symmetry_equiv_pos_site_id
 _symmetry_equiv_pos_as_xyz
  1  'x, y, z'
loop_
 _atom_site_type_symbol
 _atom_site_label
 _atom_site_symmetry_multiplicity
 _atom_site_fract_x
 _atom_site_fract_y
 _atom_site_fract_z
 _atom_site_occupancy
  Yb  Yb0  1  0.998405  0.167296  0.089739  1
  Yb  Yb1  1  0.000599  0.831754  0.911127  1
  Yb  Yb2  1  0.502761  0.667740  0.910362  1
  Yb  Yb3  1  0.001228  0.833450  0.589467  1
  Yb  Yb4  1  0.498645  0.333854  0.090387  1
  Yb  Yb5  1  0.998608  0.165823  0.409456  1
  Yb  Yb6  1  0.497553  0.335243  0.409819  1
  Yb  Yb7  1  0.500947  0.667813  0.590334  1
  Si  Si8  1  0.034324  0.120243  0.750460  1
  Si  Si9  1  0.966807  0.875228  0.246247  1
  Si  Si10  1  0.463049  0.623380  0.248661  1
  Si  Si11  1  0.535336  0.379426  0.750823  1
  Si  Si12  1  0.298223  0.862900  0.750569  1
  Si  Si13  1  0.700901  0.136666  0.250381  1
  Si  Si14  1  0.197290  0.363291  0.249475  1
  Si  Si15  1  0.799555  0.637855  0.749881  1
  Si  Si16  1  0.160387  0.457135  0.544598  1
  Si  Si17  1  0.839216  0.542043  0.455355  1
  Si  Si18  1  0.339849  0.957991  0.454628  1
  Si  Si19  1  0.842830  0.541999  0.047550  1
  Si  Si20  1  0.660917  0.042999  0.544299  1
  Si  Si21  1  0.161491  0.456774  0.955676  1
  Si  Si22  1  0.660094  0.043568  0.955209  1
  Si  Si23  1  0.339503  0.956377  0.046844  1
  Tc  Tc24  1  0.168790  0.661893  0.125705  1
  W  W25  1  0.159297  0.488968  0.750349  1
  W  W26  1  0.838153  0.509849  0.250807  1
  W  W27  1  0.340248  0.990274  0.249788  1
  W  W28  1  0.659197  0.011030  0.750041  1
  W  W29  1  0.336047  0.167643  0.627844  1
  W  W30  1  0.664838  0.831922  0.372022  1
  W  W31  1  0.164493  0.667490  0.369870  1
  W  W32  1  0.664038  0.834556  0.127543  1
  W  W33  1  0.835180  0.334003  0.627884  1
  W  W34  1  0.334588  0.166513  0.873602  1
  W  W35  1  0.836613  0.335006  0.873197  1
