# generated using pymatgen
data_TbPrMn2Co10P7
_symmetry_space_group_name_H-M   'P 1'
_cell_length_a   9.07875905
_cell_length_b   9.09767826
_cell_length_c   3.62886900
_cell_angle_alpha   90.00000000
_cell_angle_beta   90.00000000
_cell_angle_gamma   120.04201773
_symmetry_Int_Tables_number   1
_chemical_formula_structural   TbPrMn2Co10P7
_chemical_formula_sum   'Tb1 Pr1 Mn2 Co10 P7'
_cell_volume   259.46271074
_cell_formula_units_Z   1
loop_
 _symmetry_equiv_pos_site_id
 _symmetry_equiv_pos_as_xyz
  1  'x, y, z'
loop_
 _atom_site_type_symbol
 _atom_site_label
 _atom_site_symmetry_multiplicity
 _atom_site_fract_x
 _atom_site_fract_y
 _atom_site_fract_z
 _atom_site_occupancy
  Tb  Tb0  1  0.334169  0.667363  0.500000  1
  Pr  Pr1  1  0.668205  0.333571  0.000000  1
  Mn  Mn2  1  0.780643  0.897792  0.500000  1
  Mn  Mn3  1  0.117560  0.218456  0.500000  1
  Co  Co4  1  0.062470  0.634939  0.000000  1
  Co  Co5  1  0.570008  0.937732  0.000000  1
  Co  Co6  1  0.367803  0.430000  0.000000  1
  Co  Co7  1  0.272378  0.115938  0.000000  1
  Co  Co8  1  0.844834  0.726849  0.000000  1
  Co  Co9  1  0.884951  0.157154  0.000000  1
  Co  Co10  1  0.430669  0.044003  0.500000  1
  Co  Co11  1  0.613850  0.566754  0.500000  1
  Co  Co12  1  0.955408  0.388942  0.500000  1
  Co  Co13  1  0.093537  0.878101  0.500000  1
  P  P14  1  0.299944  0.889762  0.000000  1
  P  P15  1  0.589050  0.699384  0.000000  1
  P  P16  1  0.111016  0.413480  0.000000  1
  P  P17  1  0.400654  0.290105  0.500000  1
  P  P18  1  0.892686  0.604361  0.500000  1
  P  P19  1  0.710833  0.107105  0.500000  1
  P  P20  1  0.999332  0.998209  0.000000  1
