# generated using pymatgen
data_AlCr(BW)4
_symmetry_space_group_name_H-M   'P 1'
_cell_length_a   5.87352000
_cell_length_b   5.87352000
_cell_length_c   3.16303300
_cell_angle_alpha   90.00000000
_cell_angle_beta   90.00000000
_cell_angle_gamma   90.00000000
_symmetry_Int_Tables_number   1
_chemical_formula_structural   AlCr(BW)4
_chemical_formula_sum   'Al1 Cr1 B4 W4'
_cell_volume   109.11906268
_cell_formula_units_Z   1
loop_
 _symmetry_equiv_pos_site_id
 _symmetry_equiv_pos_as_xyz
  1  'x, y, z'
loop_
 _atom_site_type_symbol
 _atom_site_label
 _atom_site_symmetry_multiplicity
 _atom_site_fract_x
 _atom_site_fract_y
 _atom_site_fract_z
 _atom_site_occupancy
  Al  Al0  1  0.000000  0.000000  0.000000  1
  Cr  Cr1  1  0.500000  0.500000  0.000000  1
  B  B2  1  0.114011  0.613693  0.000000  1
  B  B3  1  0.885989  0.386307  0.000000  1
  B  B4  1  0.613693  0.885989  0.000000  1
  B  B5  1  0.386307  0.114011  0.000000  1
  W  W6  1  0.820364  0.673058  0.500000  1
  W  W7  1  0.179636  0.326942  0.500000  1
  W  W8  1  0.673058  0.179636  0.500000  1
  W  W9  1  0.326942  0.820364  0.500000  1
