# generated using pymatgen
data_Cs4V3MoN8
_symmetry_space_group_name_H-M   'P 1'
_cell_length_a   6.00904300
_cell_length_b   8.51994600
_cell_length_c   12.02572800
_cell_angle_alpha   90.00000000
_cell_angle_beta   90.00000000
_cell_angle_gamma   90.00000000
_symmetry_Int_Tables_number   1
_chemical_formula_structural   Cs4V3MoN8
_chemical_formula_sum   'Cs8 V6 Mo2 N16'
_cell_volume   615.67785172
_cell_formula_units_Z   2
loop_
 _symmetry_equiv_pos_site_id
 _symmetry_equiv_pos_as_xyz
  1  'x, y, z'
loop_
 _atom_site_type_symbol
 _atom_site_label
 _atom_site_symmetry_multiplicity
 _atom_site_fract_x
 _atom_site_fract_y
 _atom_site_fract_z
 _atom_site_occupancy
  Cs  Cs0  1  0.750000  0.129550  0.000000  1
  Cs  Cs1  1  0.250000  0.870450  0.500000  1
  Cs  Cs2  1  0.250000  0.886529  0.000000  1
  Cs  Cs3  1  0.750000  0.113471  0.500000  1
  Cs  Cs4  1  0.732954  0.371537  0.256272  1
  Cs  Cs5  1  0.232954  0.628463  0.243728  1
  Cs  Cs6  1  0.267046  0.628463  0.756272  1
  Cs  Cs7  1  0.767046  0.371537  0.743728  1
  V  V8  1  0.250000  0.364769  0.000000  1
  V  V9  1  0.750000  0.635231  0.500000  1
  V  V10  1  0.239263  0.120924  0.248357  1
  V  V11  1  0.739263  0.879076  0.251643  1
  V  V12  1  0.760737  0.879076  0.748357  1
  V  V13  1  0.260737  0.120924  0.751643  1
  Mo  Mo14  1  0.750000  0.622885  0.000000  1
  Mo  Mo15  1  0.250000  0.377115  0.500000  1
  N  N16  1  0.981871  0.007661  0.249759  1
  N  N17  1  0.481871  0.992339  0.250241  1
  N  N18  1  0.018129  0.992339  0.749759  1
  N  N19  1  0.518129  0.007661  0.750241  1
  N  N20  1  0.247771  0.249432  0.372329  1
  N  N21  1  0.747771  0.750568  0.127671  1
  N  N22  1  0.752229  0.750568  0.872329  1
  N  N23  1  0.252229  0.249432  0.627671  1
  N  N24  1  0.752237  0.757678  0.623054  1
  N  N25  1  0.252237  0.242322  0.876946  1
  N  N26  1  0.247763  0.242322  0.123054  1
  N  N27  1  0.747763  0.757678  0.376946  1
  N  N28  1  0.502389  0.506731  0.499869  1
  N  N29  1  0.002389  0.493269  0.000131  1
  N  N30  1  0.497611  0.493269  0.999869  1
  N  N31  1  0.997611  0.506731  0.500131  1
