# generated using pymatgen
data_Tb4Ce2CdIn9
_symmetry_space_group_name_H-M   'P 1'
_cell_length_a   6.50458543
_cell_length_b   6.48576592
_cell_length_c   10.45482900
_cell_angle_alpha   90.00000000
_cell_angle_beta   90.00000000
_cell_angle_gamma   102.83932042
_symmetry_Int_Tables_number   1
_chemical_formula_structural   Tb4Ce2CdIn9
_chemical_formula_sum   'Tb4 Ce2 Cd1 In9'
_cell_volume   430.03236485
_cell_formula_units_Z   1
loop_
 _symmetry_equiv_pos_site_id
 _symmetry_equiv_pos_as_xyz
  1  'x, y, z'
loop_
 _atom_site_type_symbol
 _atom_site_label
 _atom_site_symmetry_multiplicity
 _atom_site_fract_x
 _atom_site_fract_y
 _atom_site_fract_z
 _atom_site_occupancy
  Tb  Tb0  1  0.620170  0.618937  0.250000  1
  Tb  Tb1  1  0.377290  0.379434  0.750000  1
  Tb  Tb2  1  0.793091  0.204567  0.502506  1
  Tb  Tb3  1  0.793091  0.204567  0.997494  1
  Ce  Ce4  1  0.205141  0.791267  0.504396  1
  Ce  Ce5  1  0.205141  0.791267  0.995604  1
  Cd  Cd6  1  0.006687  0.008441  0.250000  1
  In  In7  1  0.994054  0.993597  0.750000  1
  In  In8  1  0.304191  0.304244  0.045912  1
  In  In9  1  0.693998  0.693545  0.954834  1
  In  In10  1  0.304191  0.304244  0.454088  1
  In  In11  1  0.693998  0.693545  0.545166  1
  In  In12  1  0.508898  0.072192  0.250000  1
  In  In13  1  0.927718  0.497666  0.750000  1
  In  In14  1  0.502458  0.934381  0.750000  1
  In  In15  1  0.069886  0.508105  0.250000  1
