# generated using pymatgen
data_RbTa2I11
_symmetry_space_group_name_H-M   'P 1'
_cell_length_a   8.25616525
_cell_length_b   8.39237538
_cell_length_c   20.72253119
_cell_angle_alpha   79.31934869
_cell_angle_beta   79.75998096
_cell_angle_gamma   88.95451940
_symmetry_Int_Tables_number   1
_chemical_formula_structural   RbTa2I11
_chemical_formula_sum   'Rb2 Ta4 I22'
_cell_volume   1388.33004735
_cell_formula_units_Z   2
loop_
 _symmetry_equiv_pos_site_id
 _symmetry_equiv_pos_as_xyz
  1  'x, y, z'
loop_
 _atom_site_type_symbol
 _atom_site_label
 _atom_site_symmetry_multiplicity
 _atom_site_fract_x
 _atom_site_fract_y
 _atom_site_fract_z
 _atom_site_occupancy
  Rb  Rb0  1  0.746422  0.755114  0.504686  1
  Rb  Rb1  1  0.253578  0.244886  0.495314  1
  Ta  Ta2  1  0.319219  0.821254  0.351365  1
  Ta  Ta3  1  0.680781  0.178746  0.648635  1
  Ta  Ta4  1  0.836640  0.333282  0.085067  1
  Ta  Ta5  1  0.163360  0.666718  0.914933  1
  I  I6  1  0.252466  0.786138  0.495423  1
  I  I7  1  0.747534  0.213862  0.504577  1
  I  I8  1  0.583320  0.017089  0.351650  1
  I  I9  1  0.416680  0.982911  0.648350  1
  I  I10  1  0.522054  0.552437  0.367898  1
  I  I11  1  0.477946  0.447563  0.632102  1
  I  I12  1  0.376354  0.847603  0.218475  1
  I  I13  1  0.623646  0.152397  0.781525  1
  I  I14  1  0.052308  0.610501  0.366468  1
  I  I15  1  0.947692  0.389499  0.633532  1
  I  I16  1  0.114026  0.083698  0.346706  1
  I  I17  1  0.885974  0.916302  0.653294  1
  I  I18  1  0.900886  0.037747  0.146396  1
  I  I19  1  0.099114  0.962253  0.853604  1
  I  I20  1  0.535228  0.383346  0.147586  1
  I  I21  1  0.464772  0.616654  0.852414  1
  I  I22  1  0.721739  0.218875  0.986389  1
  I  I23  1  0.278261  0.781125  0.013611  1
  I  I24  1  0.981744  0.480891  0.167428  1
  I  I25  1  0.018256  0.519109  0.832572  1
  I  I26  1  0.163720  0.343452  0.999672  1
  I  I27  1  0.836280  0.656548  0.000328  1
