# generated using pymatgen
data_Hf6Sc2Si16Mo11W
_symmetry_space_group_name_H-M   'P 1'
_cell_length_a   6.57145875
_cell_length_b   6.76798594
_cell_length_c   12.64915257
_cell_angle_alpha   90.03742640
_cell_angle_beta   89.95658321
_cell_angle_gamma   90.13698597
_symmetry_Int_Tables_number   1
_chemical_formula_structural   Hf6Sc2Si16Mo11W
_chemical_formula_sum   'Hf6 Sc2 Si16 Mo11 W1'
_cell_volume   562.57600746
_cell_formula_units_Z   1
loop_
 _symmetry_equiv_pos_site_id
 _symmetry_equiv_pos_as_xyz
  1  'x, y, z'
loop_
 _atom_site_type_symbol
 _atom_site_label
 _atom_site_symmetry_multiplicity
 _atom_site_fract_x
 _atom_site_fract_y
 _atom_site_fract_z
 _atom_site_occupancy
  Hf  Hf0  1  0.503020  0.670250  0.906895  1
  Hf  Hf1  1  0.005120  0.828482  0.592927  1
  Hf  Hf2  1  0.495743  0.329207  0.092738  1
  Hf  Hf3  1  0.995480  0.170634  0.407456  1
  Hf  Hf4  1  0.494680  0.328576  0.407674  1
  Hf  Hf5  1  0.504639  0.670804  0.592615  1
  Sc  Sc6  1  0.994358  0.171299  0.091902  1
  Sc  Sc7  1  0.005954  0.828104  0.907761  1
  Si  Si8  1  0.032051  0.122037  0.751056  1
  Si  Si9  1  0.967517  0.876996  0.248952  1
  Si  Si10  1  0.467061  0.622755  0.250519  1
  Si  Si11  1  0.534409  0.376730  0.749455  1
  Si  Si12  1  0.300051  0.861763  0.750495  1
  Si  Si13  1  0.700211  0.138652  0.249524  1
  Si  Si14  1  0.197759  0.360557  0.249174  1
  Si  Si15  1  0.801347  0.640524  0.750885  1
  Si  Si16  1  0.167496  0.458860  0.542096  1
  Si  Si17  1  0.832490  0.541152  0.457374  1
  Si  Si18  1  0.332225  0.959111  0.457350  1
  Si  Si19  1  0.833411  0.540040  0.043901  1
  Si  Si20  1  0.668035  0.040935  0.543033  1
  Si  Si21  1  0.166415  0.459998  0.956623  1
  Si  Si22  1  0.667683  0.038823  0.956279  1
  Si  Si23  1  0.332399  0.961274  0.043371  1
  Mo  Mo24  1  0.831294  0.488327  0.250568  1
  Mo  Mo25  1  0.332128  0.013460  0.250964  1
  Mo  Mo26  1  0.667508  0.987283  0.749014  1
  Mo  Mo27  1  0.331430  0.165076  0.622863  1
  Mo  Mo28  1  0.668113  0.835612  0.377461  1
  Mo  Mo29  1  0.168900  0.663557  0.376704  1
  Mo  Mo30  1  0.665664  0.834487  0.123802  1
  Mo  Mo31  1  0.832195  0.337140  0.623358  1
  Mo  Mo32  1  0.333880  0.166171  0.875910  1
  Mo  Mo33  1  0.830492  0.337290  0.875963  1
  Mo  Mo34  1  0.170691  0.663452  0.123943  1
  W  W35  1  0.168145  0.510582  0.749394  1
