# generated using pymatgen
data_Tb2YbAl7Cu2
_symmetry_space_group_name_H-M   'P 1'
_cell_length_a   9.12272335
_cell_length_b   9.12272369
_cell_length_c   9.12272300
_cell_angle_alpha   35.35761456
_cell_angle_beta   35.35761151
_cell_angle_gamma   35.35761108
_symmetry_Int_Tables_number   1
_chemical_formula_structural   Tb2YbAl7Cu2
_chemical_formula_sum   'Tb2 Yb1 Al7 Cu2'
_cell_volume   227.14722540
_cell_formula_units_Z   1
loop_
 _symmetry_equiv_pos_site_id
 _symmetry_equiv_pos_as_xyz
  1  'x, y, z'
loop_
 _atom_site_type_symbol
 _atom_site_label
 _atom_site_symmetry_multiplicity
 _atom_site_fract_x
 _atom_site_fract_y
 _atom_site_fract_z
 _atom_site_occupancy
  Tb  Tb0  1  0.857997  0.857997  0.857997  1
  Tb  Tb1  1  0.142003  0.142003  0.142003  1
  Yb  Yb2  1  0.000000  0.000000  0.000000  1
  Al  Al3  1  0.417790  0.417790  0.927772  1
  Al  Al4  1  0.927772  0.417790  0.417790  1
  Al  Al5  1  0.417790  0.927772  0.417790  1
  Al  Al6  1  0.500000  0.500000  0.500000  1
  Al  Al7  1  0.582210  0.072228  0.582210  1
  Al  Al8  1  0.072228  0.582210  0.582210  1
  Al  Al9  1  0.582210  0.582210  0.072228  1
  Cu  Cu10  1  0.664701  0.664701  0.664701  1
  Cu  Cu11  1  0.335299  0.335299  0.335299  1
