# generated using pymatgen
data_Sc5Ni19P12
_symmetry_space_group_name_H-M   'P 1'
_cell_length_a   11.93765700
_cell_length_b   11.93765656
_cell_length_c   3.62078900
_cell_angle_alpha   90.00000000
_cell_angle_beta   90.00000000
_cell_angle_gamma   119.99999846
_symmetry_Int_Tables_number   1
_chemical_formula_structural   Sc5Ni19P12
_chemical_formula_sum   'Sc5 Ni19 P12'
_cell_volume   446.86056692
_cell_formula_units_Z   1
loop_
 _symmetry_equiv_pos_site_id
 _symmetry_equiv_pos_as_xyz
  1  'x, y, z'
loop_
 _atom_site_type_symbol
 _atom_site_label
 _atom_site_symmetry_multiplicity
 _atom_site_fract_x
 _atom_site_fract_y
 _atom_site_fract_z
 _atom_site_occupancy
  Sc  Sc0  1  0.333333  0.666667  0.500000  1
  Sc  Sc1  1  0.666667  0.333333  0.500000  1
  Sc  Sc2  1  0.185182  0.000000  0.000000  1
  Sc  Sc3  1  0.000000  0.185182  0.000000  1
  Sc  Sc4  1  0.814818  0.814818  0.000000  1
  Ni  Ni5  1  0.196970  0.378095  0.500000  1
  Ni  Ni6  1  0.621905  0.818875  0.500000  1
  Ni  Ni7  1  0.181125  0.803030  0.500000  1
  Ni  Ni8  1  0.818875  0.621905  0.500000  1
  Ni  Ni9  1  0.803030  0.181125  0.500000  1
  Ni  Ni10  1  0.378095  0.196970  0.500000  1
  Ni  Ni11  1  0.549662  0.000000  0.500000  1
  Ni  Ni12  1  0.000000  0.549662  0.500000  1
  Ni  Ni13  1  0.450338  0.450338  0.500000  1
  Ni  Ni14  1  0.126752  0.483949  0.000000  1
  Ni  Ni15  1  0.516051  0.642803  0.000000  1
  Ni  Ni16  1  0.357197  0.873248  0.000000  1
  Ni  Ni17  1  0.642803  0.516051  0.000000  1
  Ni  Ni18  1  0.873248  0.357197  0.000000  1
  Ni  Ni19  1  0.483949  0.126752  0.000000  1
  Ni  Ni20  1  0.715016  0.000000  0.000000  1
  Ni  Ni21  1  0.000000  0.715016  0.000000  1
  Ni  Ni22  1  0.284984  0.284984  0.000000  1
  Ni  Ni23  1  0.000000  0.000000  0.500000  1
  P  P24  1  0.360685  0.000000  0.500000  1
  P  P25  1  0.000000  0.360685  0.500000  1
  P  P26  1  0.639315  0.639315  0.500000  1
  P  P27  1  0.316206  0.483972  0.000000  1
  P  P28  1  0.516028  0.832233  0.000000  1
  P  P29  1  0.167767  0.683794  0.000000  1
  P  P30  1  0.832233  0.516028  0.000000  1
  P  P31  1  0.683794  0.167767  0.000000  1
  P  P32  1  0.483972  0.316206  0.000000  1
  P  P33  1  0.824141  0.000000  0.500000  1
  P  P34  1  0.000000  0.824141  0.500000  1
  P  P35  1  0.175859  0.175859  0.500000  1
