# generated using pymatgen
data_Tb10Y2Tc3Ni
_symmetry_space_group_name_H-M   'P 1'
_cell_length_a   6.29518965
_cell_length_b   7.37365220
_cell_length_c   9.27191600
_cell_angle_alpha   90.00000000
_cell_angle_beta   90.00000000
_cell_angle_gamma   90.27821629
_symmetry_Int_Tables_number   1
_chemical_formula_structural   Tb10Y2Tc3Ni
_chemical_formula_sum   'Tb10 Y2 Tc3 Ni1'
_cell_volume   430.38372035
_cell_formula_units_Z   1
loop_
 _symmetry_equiv_pos_site_id
 _symmetry_equiv_pos_as_xyz
  1  'x, y, z'
loop_
 _atom_site_type_symbol
 _atom_site_label
 _atom_site_symmetry_multiplicity
 _atom_site_fract_x
 _atom_site_fract_y
 _atom_site_fract_z
 _atom_site_occupancy
  Tb  Tb0  1  0.328174  0.677565  0.067574  1
  Tb  Tb1  1  0.164412  0.177302  0.437009  1
  Tb  Tb2  1  0.668078  0.323483  0.562967  1
  Tb  Tb3  1  0.834350  0.823294  0.937836  1
  Tb  Tb4  1  0.668078  0.323483  0.937033  1
  Tb  Tb5  1  0.834350  0.823294  0.562164  1
  Tb  Tb6  1  0.328174  0.677565  0.432426  1
  Tb  Tb7  1  0.164412  0.177302  0.062991  1
  Tb  Tb8  1  0.869429  0.542048  0.250000  1
  Tb  Tb9  1  0.625944  0.041007  0.250000  1
  Y  Y10  1  0.141039  0.456895  0.750000  1
  Y  Y11  1  0.371363  0.957976  0.750000  1
  Tc  Tc12  1  0.038065  0.887091  0.250000  1
  Tc  Tc13  1  0.459253  0.388967  0.250000  1
  Tc  Tc14  1  0.954669  0.110172  0.750000  1
  Ni  Ni15  1  0.550212  0.612555  0.750000  1
