# generated using pymatgen
data_LaPrCu2Si2Sn
_symmetry_space_group_name_H-M   'P 1'
_cell_length_a   9.55928679
_cell_length_b   9.55928527
_cell_length_c   6.79297200
_cell_angle_alpha   90.00000000
_cell_angle_beta   90.00000000
_cell_angle_gamma   152.45351966
_symmetry_Int_Tables_number   1
_chemical_formula_structural   LaPrCu2Si2Sn
_chemical_formula_sum   'La2 Pr2 Cu4 Si4 Sn2'
_cell_volume   287.07307338
_cell_formula_units_Z   2
loop_
 _symmetry_equiv_pos_site_id
 _symmetry_equiv_pos_as_xyz
  1  'x, y, z'
loop_
 _atom_site_type_symbol
 _atom_site_label
 _atom_site_symmetry_multiplicity
 _atom_site_fract_x
 _atom_site_fract_y
 _atom_site_fract_z
 _atom_site_occupancy
  La  La0  1  0.547341  0.452659  0.250000  1
  La  La1  1  0.452659  0.547341  0.750000  1
  Pr  Pr2  1  0.344647  0.655353  0.250000  1
  Pr  Pr3  1  0.655353  0.344647  0.750000  1
  Cu  Cu4  1  0.823427  0.176573  0.564323  1
  Cu  Cu5  1  0.176573  0.823427  0.435677  1
  Cu  Cu6  1  0.176573  0.823427  0.064323  1
  Cu  Cu7  1  0.823427  0.176573  0.935677  1
  Si  Si8  1  0.941302  0.058698  0.073049  1
  Si  Si9  1  0.058698  0.941302  0.926951  1
  Si  Si10  1  0.058698  0.941302  0.573049  1
  Si  Si11  1  0.941302  0.058698  0.426951  1
  Sn  Sn12  1  0.722661  0.277339  0.250000  1
  Sn  Sn13  1  0.277339  0.722661  0.750000  1
