# generated using pymatgen
data_Yb8Sb3Pd22
_symmetry_space_group_name_H-M   'P 1'
_cell_length_a   7.99780100
_cell_length_b   8.55522100
_cell_length_c   8.52394700
_cell_angle_alpha   90.00000000
_cell_angle_beta   90.00000000
_cell_angle_gamma   90.00000000
_symmetry_Int_Tables_number   1
_chemical_formula_structural   Yb8Sb3Pd22
_chemical_formula_sum   'Yb8 Sb3 Pd22'
_cell_volume   583.23364259
_cell_formula_units_Z   1
loop_
 _symmetry_equiv_pos_site_id
 _symmetry_equiv_pos_as_xyz
  1  'x, y, z'
loop_
 _atom_site_type_symbol
 _atom_site_label
 _atom_site_symmetry_multiplicity
 _atom_site_fract_x
 _atom_site_fract_y
 _atom_site_fract_z
 _atom_site_occupancy
  Yb  Yb0  1  0.250770  0.223117  0.253405  1
  Yb  Yb1  1  0.746687  0.742904  0.745755  1
  Yb  Yb2  1  0.746687  0.742904  0.254245  1
  Yb  Yb3  1  0.746687  0.257096  0.745755  1
  Yb  Yb4  1  0.250770  0.223117  0.746595  1
  Yb  Yb5  1  0.250770  0.776883  0.253405  1
  Yb  Yb6  1  0.250770  0.776883  0.746595  1
  Yb  Yb7  1  0.746687  0.257096  0.254245  1
  Sb  Sb8  1  0.999583  0.000000  0.000000  1
  Sb  Sb9  1  0.273014  0.500000  0.000000  1
  Sb  Sb10  1  0.258142  0.500000  0.500000  1
  Pd  Pd11  1  0.738525  0.500000  0.000000  1
  Pd  Pd12  1  0.003993  0.259779  0.500000  1
  Pd  Pd13  1  0.497284  0.265983  0.000000  1
  Pd  Pd14  1  0.003993  0.740221  0.500000  1
  Pd  Pd15  1  0.497284  0.734017  0.000000  1
  Pd  Pd16  1  0.505835  0.000000  0.266912  1
  Pd  Pd17  1  0.260116  0.000000  0.500000  1
  Pd  Pd18  1  0.505835  0.000000  0.733088  1
  Pd  Pd19  1  0.731922  0.000000  0.500000  1
  Pd  Pd20  1  0.016025  0.500000  0.262808  1
  Pd  Pd21  1  0.016025  0.500000  0.737192  1
  Pd  Pd22  1  0.748198  0.500000  0.500000  1
  Pd  Pd23  1  0.495436  0.252893  0.500000  1
  Pd  Pd24  1  0.495436  0.747107  0.500000  1
  Pd  Pd25  1  0.484749  0.500000  0.255888  1
  Pd  Pd26  1  0.484749  0.500000  0.744112  1
  Pd  Pd27  1  0.317037  0.000000  0.000000  1
  Pd  Pd28  1  0.685081  0.000000  0.000000  1
  Pd  Pd29  1  0.006963  0.301044  0.000000  1
  Pd  Pd30  1  0.006963  0.698956  0.000000  1
  Pd  Pd31  1  0.988992  0.000000  0.301095  1
  Pd  Pd32  1  0.988992  0.000000  0.698905  1
