# generated using pymatgen
data_Dy2Al9Co2Pt
_symmetry_space_group_name_H-M   'P 1'
_cell_length_a   7.47230711
_cell_length_b   7.47230741
_cell_length_c   9.35663300
_cell_angle_alpha   90.00000000
_cell_angle_beta   90.00000000
_cell_angle_gamma   119.53495277
_symmetry_Int_Tables_number   1
_chemical_formula_structural   Dy2Al9Co2Pt
_chemical_formula_sum   'Dy4 Al18 Co4 Pt2'
_cell_volume   454.54387817
_cell_formula_units_Z   2
loop_
 _symmetry_equiv_pos_site_id
 _symmetry_equiv_pos_as_xyz
  1  'x, y, z'
loop_
 _atom_site_type_symbol
 _atom_site_label
 _atom_site_symmetry_multiplicity
 _atom_site_fract_x
 _atom_site_fract_y
 _atom_site_fract_z
 _atom_site_occupancy
  Dy  Dy0  1  0.993425  0.669593  0.250389  1
  Dy  Dy1  1  0.006575  0.330407  0.750389  1
  Dy  Dy2  1  0.669593  0.993425  0.249611  1
  Dy  Dy3  1  0.330407  0.006575  0.749611  1
  Al  Al4  1  0.121534  0.121534  0.250000  1
  Al  Al5  1  0.878466  0.878466  0.750000  1
  Al  Al6  1  0.331037  0.325015  0.546075  1
  Al  Al7  1  0.668963  0.674985  0.046075  1
  Al  Al8  1  0.325015  0.331037  0.953925  1
  Al  Al9  1  0.674985  0.668963  0.453925  1
  Al  Al10  1  0.341096  0.549622  0.241786  1
  Al  Al11  1  0.658904  0.450378  0.741786  1
  Al  Al12  1  0.549622  0.341096  0.258214  1
  Al  Al13  1  0.450378  0.658904  0.758214  1
  Al  Al14  1  0.006208  0.334292  0.073266  1
  Al  Al15  1  0.993792  0.665708  0.573266  1
  Al  Al16  1  0.334292  0.006208  0.426734  1
  Al  Al17  1  0.665708  0.993792  0.926734  1
  Al  Al18  1  0.009897  0.673705  0.926802  1
  Al  Al19  1  0.990103  0.326295  0.426802  1
  Al  Al20  1  0.673705  0.009897  0.573198  1
  Al  Al21  1  0.326295  0.990103  0.073198  1
  Co  Co22  1  0.000137  0.999863  0.000000  1
  Co  Co23  1  0.999863  0.000137  0.500000  1
  Co  Co24  1  0.329146  0.670854  0.000000  1
  Co  Co25  1  0.670854  0.329146  0.500000  1
  Pt  Pt26  1  0.672074  0.327926  0.000000  1
  Pt  Pt27  1  0.327926  0.672074  0.500000  1
