# generated using pymatgen
data_SrNd3Ir2(RhO7)2
_symmetry_space_group_name_H-M   'P 1'
_cell_length_a   7.42913049
_cell_length_b   7.39458549
_cell_length_c   7.42913091
_cell_angle_alpha   59.86724885
_cell_angle_beta   59.82333420
_cell_angle_gamma   59.86724830
_symmetry_Int_Tables_number   1
_chemical_formula_structural   SrNd3Ir2(RhO7)2
_chemical_formula_sum   'Sr1 Nd3 Ir2 Rh2 O14'
_cell_volume   287.62035078
_cell_formula_units_Z   1
loop_
 _symmetry_equiv_pos_site_id
 _symmetry_equiv_pos_as_xyz
  1  'x, y, z'
loop_
 _atom_site_type_symbol
 _atom_site_label
 _atom_site_symmetry_multiplicity
 _atom_site_fract_x
 _atom_site_fract_y
 _atom_site_fract_z
 _atom_site_occupancy
  Sr  Sr0  1  0.125000  0.625000  0.125000  1
  Nd  Nd1  1  0.625000  0.125000  0.125000  1
  Nd  Nd2  1  0.125000  0.125000  0.625000  1
  Nd  Nd3  1  0.125000  0.125000  0.125000  1
  Ir  Ir4  1  0.125000  0.625000  0.625000  1
  Ir  Ir5  1  0.625000  0.625000  0.125000  1
  Rh  Rh6  1  0.625000  0.125000  0.625000  1
  Rh  Rh7  1  0.625000  0.625000  0.625000  1
  O  O8  1  0.696911  0.705363  0.294610  1
  O  O9  1  0.293271  0.297557  0.707832  1
  O  O10  1  0.708907  0.290154  0.708907  1
  O  O11  1  0.301608  0.705213  0.301608  1
  O  O12  1  0.294610  0.705363  0.696911  1
  O  O13  1  0.707832  0.297557  0.293271  1
  O  O14  1  0.553089  0.544637  0.955390  1
  O  O15  1  0.956729  0.952443  0.542168  1
  O  O16  1  0.541093  0.959846  0.541093  1
  O  O17  1  0.948392  0.544787  0.948392  1
  O  O18  1  0.955390  0.544637  0.553089  1
  O  O19  1  0.542168  0.952443  0.956729  1
  O  O20  1  0.252727  0.239536  0.252727  1
  O  O21  1  0.997273  0.010464  0.997273  1
