# generated using pymatgen
data_LuP4Ru5Rh
_symmetry_space_group_name_H-M   'P 1'
_cell_length_a   6.94947790
_cell_length_b   6.94947700
_cell_length_c   3.72927100
_cell_angle_alpha   90.00000000
_cell_angle_beta   90.00000000
_cell_angle_gamma   120.51394799
_symmetry_Int_Tables_number   1
_chemical_formula_structural   LuP4Ru5Rh
_chemical_formula_sum   'Lu1 P4 Ru5 Rh1'
_cell_volume   155.16234661
_cell_formula_units_Z   1
loop_
 _symmetry_equiv_pos_site_id
 _symmetry_equiv_pos_as_xyz
  1  'x, y, z'
loop_
 _atom_site_type_symbol
 _atom_site_label
 _atom_site_symmetry_multiplicity
 _atom_site_fract_x
 _atom_site_fract_y
 _atom_site_fract_z
 _atom_site_occupancy
  Lu  Lu0  1  0.333018  0.666982  0.000000  1
  P  P1  1  0.670802  0.329198  0.000000  1
  P  P2  1  0.715223  0.861783  0.500000  1
  P  P3  1  0.138217  0.284777  0.500000  1
  P  P4  1  0.143674  0.856326  0.500000  1
  Ru  Ru5  1  0.266416  0.133314  0.000000  1
  Ru  Ru6  1  0.866686  0.733584  0.000000  1
  Ru  Ru7  1  0.868584  0.131416  0.000000  1
  Ru  Ru8  1  0.937965  0.468969  0.500000  1
  Ru  Ru9  1  0.531031  0.062035  0.500000  1
  Rh  Rh10  1  0.528383  0.471617  0.500000  1
