# generated using pymatgen
data_Tb2FeIr3
_symmetry_space_group_name_H-M   'P 1'
_cell_length_a   5.18441221
_cell_length_b   5.18441252
_cell_length_c   5.18441225
_cell_angle_alpha   63.67481315
_cell_angle_beta   63.67480460
_cell_angle_gamma   63.67480414
_symmetry_Int_Tables_number   1
_chemical_formula_structural   Tb2FeIr3
_chemical_formula_sum   'Tb2 Fe1 Ir3'
_cell_volume   106.52923276
_cell_formula_units_Z   1
loop_
 _symmetry_equiv_pos_site_id
 _symmetry_equiv_pos_as_xyz
  1  'x, y, z'
loop_
 _atom_site_type_symbol
 _atom_site_label
 _atom_site_symmetry_multiplicity
 _atom_site_fract_x
 _atom_site_fract_y
 _atom_site_fract_z
 _atom_site_occupancy
  Tb  Tb0  1  0.626293  0.626293  0.626293  1
  Tb  Tb1  1  0.373707  0.373707  0.373707  1
  Fe  Fe2  1  0.000000  0.000000  0.000000  1
  Ir  Ir3  1  0.000000  0.500000  0.000000  1
  Ir  Ir4  1  0.500000  0.000000  0.000000  1
  Ir  Ir5  1  0.000000  0.000000  0.500000  1
