# generated using pymatgen
data_Li4CeHo3Si8
_symmetry_space_group_name_H-M   'P 1'
_cell_length_a   3.80456500
_cell_length_b   7.59856353
_cell_length_c   10.20265915
_cell_angle_alpha   90.02323835
_cell_angle_beta   90.00000000
_cell_angle_gamma   90.00000000
_symmetry_Int_Tables_number   1
_chemical_formula_structural   Li4CeHo3Si8
_chemical_formula_sum   'Li4 Ce1 Ho3 Si8'
_cell_volume   294.95098405
_cell_formula_units_Z   1
loop_
 _symmetry_equiv_pos_site_id
 _symmetry_equiv_pos_as_xyz
  1  'x, y, z'
loop_
 _atom_site_type_symbol
 _atom_site_label
 _atom_site_symmetry_multiplicity
 _atom_site_fract_x
 _atom_site_fract_y
 _atom_site_fract_z
 _atom_site_occupancy
  Li  Li0  1  0.250000  0.991493  0.391955  1
  Li  Li1  1  0.250000  0.487987  0.106994  1
  Li  Li2  1  0.750000  0.012126  0.611489  1
  Li  Li3  1  0.750000  0.509590  0.892661  1
  Ce  Ce4  1  0.750000  0.355392  0.362494  1
  Ho  Ho5  1  0.250000  0.137709  0.862620  1
  Ho  Ho6  1  0.250000  0.639965  0.635417  1
  Ho  Ho7  1  0.750000  0.862178  0.135627  1
  Si  Si8  1  0.250000  0.233992  0.570786  1
  Si  Si9  1  0.250000  0.733192  0.932780  1
  Si  Si10  1  0.750000  0.775096  0.431165  1
  Si  Si11  1  0.750000  0.261294  0.064505  1
  Si  Si12  1  0.250000  0.657808  0.321947  1
  Si  Si13  1  0.250000  0.153517  0.177087  1
  Si  Si14  1  0.750000  0.344400  0.681952  1
  Si  Si15  1  0.750000  0.844261  0.820520  1
