# generated using pymatgen
data_DyEr9(SiPb3)2
_symmetry_space_group_name_H-M   'P 1'
_cell_length_a   9.26430831
_cell_length_b   9.26430784
_cell_length_c   6.46542500
_cell_angle_alpha   90.00000000
_cell_angle_beta   90.00000000
_cell_angle_gamma   119.97027905
_symmetry_Int_Tables_number   1
_chemical_formula_structural   DyEr9(SiPb3)2
_chemical_formula_sum   'Dy1 Er9 Si2 Pb6'
_cell_volume   480.71057422
_cell_formula_units_Z   1
loop_
 _symmetry_equiv_pos_site_id
 _symmetry_equiv_pos_as_xyz
  1  'x, y, z'
loop_
 _atom_site_type_symbol
 _atom_site_label
 _atom_site_symmetry_multiplicity
 _atom_site_fract_x
 _atom_site_fract_y
 _atom_site_fract_z
 _atom_site_occupancy
  Dy  Dy0  1  0.750856  0.750856  0.250000  1
  Er  Er1  1  0.248424  0.999998  0.250000  1
  Er  Er2  1  0.000101  0.751601  0.750000  1
  Er  Er3  1  0.999998  0.248424  0.250000  1
  Er  Er4  1  0.333266  0.666664  0.500009  1
  Er  Er5  1  0.751601  0.000101  0.750000  1
  Er  Er6  1  0.666664  0.333266  0.500009  1
  Er  Er7  1  0.248580  0.248580  0.750000  1
  Er  Er8  1  0.333266  0.666664  0.999991  1
  Er  Er9  1  0.666664  0.333266  0.999991  1
  Si  Si10  1  0.000469  0.000469  0.999468  1
  Si  Si11  1  0.000469  0.000469  0.500532  1
  Pb  Pb12  1  0.607010  0.000399  0.250000  1
  Pb  Pb13  1  0.392638  0.000044  0.750000  1
  Pb  Pb14  1  0.000399  0.607010  0.250000  1
  Pb  Pb15  1  0.607245  0.607245  0.750000  1
  Pb  Pb16  1  0.392305  0.392305  0.250000  1
  Pb  Pb17  1  0.000044  0.392638  0.750000  1
