# generated using pymatgen
data_Sm6Ni16As13Pd4
_symmetry_space_group_name_H-M   'P 1'
_cell_length_a   13.33845300
_cell_length_b   13.33845399
_cell_length_c   3.97069300
_cell_angle_alpha   90.00000000
_cell_angle_beta   90.00000000
_cell_angle_gamma   120.00000002
_symmetry_Int_Tables_number   1
_chemical_formula_structural   Sm6Ni16As13Pd4
_chemical_formula_sum   'Sm6 Ni16 As13 Pd4'
_cell_volume   611.79778419
_cell_formula_units_Z   1
loop_
 _symmetry_equiv_pos_site_id
 _symmetry_equiv_pos_as_xyz
  1  'x, y, z'
loop_
 _atom_site_type_symbol
 _atom_site_label
 _atom_site_symmetry_multiplicity
 _atom_site_fract_x
 _atom_site_fract_y
 _atom_site_fract_z
 _atom_site_occupancy
  Sm  Sm0  1  0.185983  0.468951  0.000000  1
  Sm  Sm1  1  0.531049  0.717032  0.000000  1
  Sm  Sm2  1  0.282968  0.814017  0.000000  1
  Sm  Sm3  1  0.719905  0.188496  0.500000  1
  Sm  Sm4  1  0.811504  0.531409  0.500000  1
  Sm  Sm5  1  0.468591  0.280095  0.500000  1
  Ni  Ni6  1  0.090216  0.200652  0.000000  1
  Ni  Ni7  1  0.799348  0.889563  0.000000  1
  Ni  Ni8  1  0.110437  0.909784  0.000000  1
  Ni  Ni9  1  0.666667  0.333333  0.000000  1
  Ni  Ni10  1  0.420420  0.439626  0.000000  1
  Ni  Ni11  1  0.560374  0.980793  0.000000  1
  Ni  Ni12  1  0.019207  0.579580  0.000000  1
  Ni  Ni13  1  0.242663  0.315626  0.500000  1
  Ni  Ni14  1  0.684374  0.927037  0.500000  1
  Ni  Ni15  1  0.072963  0.757337  0.500000  1
  Ni  Ni16  1  0.438994  0.026775  0.500000  1
  Ni  Ni17  1  0.973225  0.412219  0.500000  1
  Ni  Ni18  1  0.587781  0.561006  0.500000  1
  Ni  Ni19  1  0.922732  0.244671  0.000000  1
  Ni  Ni20  1  0.755329  0.678061  0.000000  1
  Ni  Ni21  1  0.321939  0.077268  0.000000  1
  As  As22  1  0.388112  0.515528  0.500000  1
  As  As23  1  0.484472  0.872584  0.500000  1
  As  As24  1  0.127416  0.611888  0.500000  1
  As  As25  1  0.048135  0.286049  0.500000  1
  As  As26  1  0.713951  0.762085  0.500000  1
  As  As27  1  0.237915  0.951865  0.500000  1
  As  As28  1  0.524536  0.139715  0.000000  1
  As  As29  1  0.860285  0.384821  0.000000  1
  As  As30  1  0.615179  0.475464  0.000000  1
  As  As31  1  0.761257  0.045502  0.000000  1
  As  As32  1  0.954498  0.715755  0.000000  1
  As  As33  1  0.284245  0.238743  0.000000  1
  As  As34  1  0.000000  0.000000  0.000000  1
  Pd  Pd35  1  0.333333  0.666667  0.500000  1
  Pd  Pd36  1  0.917667  0.071558  0.500000  1
  Pd  Pd37  1  0.928442  0.846109  0.500000  1
  Pd  Pd38  1  0.153891  0.082333  0.500000  1
