# generated using pymatgen
data_Li4La7NdSi12
_symmetry_space_group_name_H-M   'P 1'
_cell_length_a   11.23362130
_cell_length_b   9.51901500
_cell_length_c   8.41766503
_cell_angle_alpha   77.28428091
_cell_angle_beta   55.74960303
_cell_angle_gamma   46.99968062
_symmetry_Int_Tables_number   1
_chemical_formula_structural   Li4La7NdSi12
_chemical_formula_sum   'Li4 La7 Nd1 Si12'
_cell_volume   523.81080540
_cell_formula_units_Z   1
loop_
 _symmetry_equiv_pos_site_id
 _symmetry_equiv_pos_as_xyz
  1  'x, y, z'
loop_
 _atom_site_type_symbol
 _atom_site_label
 _atom_site_symmetry_multiplicity
 _atom_site_fract_x
 _atom_site_fract_y
 _atom_site_fract_z
 _atom_site_occupancy
  Li  Li0  1  0.832086  0.167403  0.833445  1
  Li  Li1  1  0.167403  0.832086  0.167066  1
  Li  Li2  1  0.417091  0.083388  0.416650  1
  Li  Li3  1  0.083388  0.417091  0.082871  1
  La  La4  1  0.622785  0.622785  0.377215  1
  La  La5  1  0.376929  0.376929  0.623071  1
  La  La6  1  0.627120  0.627120  0.872880  1
  La  La7  1  0.873095  0.873095  0.626905  1
  La  La8  1  0.123989  0.123989  0.876011  1
  La  La9  1  0.876024  0.876024  0.123976  1
  La  La10  1  0.126134  0.126134  0.373866  1
  Nd  Nd11  1  0.374021  0.374021  0.125979  1
  Si  Si12  1  0.174018  0.832652  0.660947  1
  Si  Si13  1  0.332242  0.660287  0.833764  1
  Si  Si14  1  0.660287  0.332242  0.173706  1
  Si  Si15  1  0.832652  0.174018  0.332381  1
  Si  Si16  1  0.076709  0.416693  0.588196  1
  Si  Si17  1  0.918927  0.588495  0.416314  1
  Si  Si18  1  0.588495  0.918927  0.076265  1
  Si  Si19  1  0.416693  0.076709  0.918404  1
  Si  Si20  1  0.665197  0.334480  0.666621  1
  Si  Si21  1  0.334480  0.665197  0.333702  1
  Si  Si22  1  0.584551  0.915684  0.584409  1
  Si  Si23  1  0.915684  0.584551  0.915356  1
