# generated using pymatgen
data_Tb5(InSb)2
_symmetry_space_group_name_H-M   'P 1'
_cell_length_a   8.84509475
_cell_length_b   8.84509460
_cell_length_c   8.15037000
_cell_angle_alpha   90.00000000
_cell_angle_beta   90.00000000
_cell_angle_gamma   125.08503940
_symmetry_Int_Tables_number   1
_chemical_formula_structural   Tb5(InSb)2
_chemical_formula_sum   'Tb10 In4 Sb4'
_cell_volume   521.78880547
_cell_formula_units_Z   2
loop_
 _symmetry_equiv_pos_site_id
 _symmetry_equiv_pos_as_xyz
  1  'x, y, z'
loop_
 _atom_site_type_symbol
 _atom_site_label
 _atom_site_symmetry_multiplicity
 _atom_site_fract_x
 _atom_site_fract_y
 _atom_site_fract_z
 _atom_site_occupancy
  Tb  Tb0  1  0.033214  0.308702  0.332154  1
  Tb  Tb1  1  0.966786  0.691298  0.667846  1
  Tb  Tb2  1  0.466786  0.191298  0.832154  1
  Tb  Tb3  1  0.808702  0.533214  0.167846  1
  Tb  Tb4  1  0.533214  0.808702  0.167846  1
  Tb  Tb5  1  0.191298  0.466786  0.832154  1
  Tb  Tb6  1  0.691298  0.966786  0.667846  1
  Tb  Tb7  1  0.308702  0.033214  0.332154  1
  Tb  Tb8  1  0.000000  0.000000  0.000000  1
  Tb  Tb9  1  0.500000  0.500000  0.500000  1
  In  In10  1  0.371903  0.371903  0.127622  1
  In  In11  1  0.628097  0.628097  0.872378  1
  In  In12  1  0.128097  0.128097  0.627622  1
  In  In13  1  0.871903  0.871903  0.372378  1
  Sb  Sb14  1  0.796165  0.203835  0.000000  1
  Sb  Sb15  1  0.203835  0.796165  0.000000  1
  Sb  Sb16  1  0.703835  0.296165  0.500000  1
  Sb  Sb17  1  0.296165  0.703835  0.500000  1
