# generated using pymatgen
data_Dy11Ho5(In3Ru)2
_symmetry_space_group_name_H-M   'P 1'
_cell_length_a   10.40748809
_cell_length_b   10.40748891
_cell_length_c   7.03618306
_cell_angle_alpha   89.98730851
_cell_angle_beta   90.01269384
_cell_angle_gamma   120.00755040
_symmetry_Int_Tables_number   1
_chemical_formula_structural   Dy11Ho5(In3Ru)2
_chemical_formula_sum   'Dy11 Ho5 In6 Ru2'
_cell_volume   659.97362372
_cell_formula_units_Z   1
loop_
 _symmetry_equiv_pos_site_id
 _symmetry_equiv_pos_as_xyz
  1  'x, y, z'
loop_
 _atom_site_type_symbol
 _atom_site_label
 _atom_site_symmetry_multiplicity
 _atom_site_fract_x
 _atom_site_fract_y
 _atom_site_fract_z
 _atom_site_occupancy
  Dy  Dy0  1  0.533239  0.066327  0.507964  1
  Dy  Dy1  1  0.933673  0.466761  0.507964  1
  Dy  Dy2  1  0.533111  0.466889  0.508132  1
  Dy  Dy3  1  0.466957  0.933820  0.008154  1
  Dy  Dy4  1  0.066180  0.533043  0.008154  1
  Dy  Dy5  1  0.466869  0.533131  0.008087  1
  Dy  Dy6  1  0.177147  0.354286  0.712144  1
  Dy  Dy7  1  0.645714  0.822853  0.712144  1
  Dy  Dy8  1  0.177122  0.822878  0.712136  1
  Dy  Dy9  1  0.822847  0.645726  0.212160  1
  Dy  Dy10  1  0.354274  0.177153  0.212160  1
  Ho  Ho11  1  0.822842  0.177158  0.212102  1
  Ho  Ho12  1  0.666716  0.333284  0.884997  1
  Ho  Ho13  1  0.333327  0.666673  0.384876  1
  Ho  Ho14  1  0.999971  0.000029  0.493044  1
  Ho  Ho15  1  0.999976  0.000024  0.993104  1
  In  In16  1  0.837402  0.674806  0.752464  1
  In  In17  1  0.325194  0.162598  0.752464  1
  In  In18  1  0.837387  0.162613  0.752614  1
  In  In19  1  0.162384  0.325066  0.252382  1
  In  In20  1  0.674934  0.837616  0.252382  1
  In  In21  1  0.162599  0.837401  0.252487  1
  Ru  Ru22  1  0.666799  0.333201  0.282887  1
  Ru  Ru23  1  0.333338  0.666662  0.783043  1
