# generated using pymatgen
data_ScZn2Fe6Sn3Ge
_symmetry_space_group_name_H-M   'P 1'
_cell_length_a   5.12559200
_cell_length_b   5.12559037
_cell_length_c   8.71356000
_cell_angle_alpha   90.00000000
_cell_angle_beta   90.00000000
_cell_angle_gamma   120.00001052
_symmetry_Int_Tables_number   1
_chemical_formula_structural   ScZn2Fe6Sn3Ge
_chemical_formula_sum   'Sc1 Zn2 Fe6 Sn3 Ge1'
_cell_volume   198.25043089
_cell_formula_units_Z   1
loop_
 _symmetry_equiv_pos_site_id
 _symmetry_equiv_pos_as_xyz
  1  'x, y, z'
loop_
 _atom_site_type_symbol
 _atom_site_label
 _atom_site_symmetry_multiplicity
 _atom_site_fract_x
 _atom_site_fract_y
 _atom_site_fract_z
 _atom_site_occupancy
  Sc  Sc0  1  0.000000  0.000000  0.000000  1
  Zn  Zn1  1  0.666667  0.333333  0.000000  1
  Zn  Zn2  1  0.666667  0.333333  0.500000  1
  Fe  Fe3  1  0.500916  0.499084  0.763839  1
  Fe  Fe4  1  0.500916  0.001834  0.763839  1
  Fe  Fe5  1  0.998166  0.499084  0.763839  1
  Fe  Fe6  1  0.500916  0.499084  0.236161  1
  Fe  Fe7  1  0.500916  0.001834  0.236161  1
  Fe  Fe8  1  0.998166  0.499084  0.236161  1
  Sn  Sn9  1  0.333333  0.666667  0.500000  1
  Sn  Sn10  1  0.000000  0.000000  0.664810  1
  Sn  Sn11  1  0.000000  0.000000  0.335190  1
  Ge  Ge12  1  0.333333  0.666667  0.000000  1
