# generated using pymatgen
data_TmLu3TiOs7
_symmetry_space_group_name_H-M   'P 1'
_cell_length_a   5.36686700
_cell_length_b   5.36686748
_cell_length_c   8.59555100
_cell_angle_alpha   90.00000000
_cell_angle_beta   90.00000000
_cell_angle_gamma   119.99999090
_symmetry_Int_Tables_number   1
_chemical_formula_structural   TmLu3TiOs7
_chemical_formula_sum   'Tm1 Lu3 Ti1 Os7'
_cell_volume   214.41052357
_cell_formula_units_Z   1
loop_
 _symmetry_equiv_pos_site_id
 _symmetry_equiv_pos_as_xyz
  1  'x, y, z'
loop_
 _atom_site_type_symbol
 _atom_site_label
 _atom_site_symmetry_multiplicity
 _atom_site_fract_x
 _atom_site_fract_y
 _atom_site_fract_z
 _atom_site_occupancy
  Tm  Tm0  1  0.333333  0.666667  0.438405  1
  Lu  Lu1  1  0.666667  0.333333  0.561628  1
  Lu  Lu2  1  0.666667  0.333333  0.928352  1
  Lu  Lu3  1  0.333333  0.666667  0.071587  1
  Ti  Ti4  1  0.000000  0.000000  0.999990  1
  Os  Os5  1  0.173010  0.346019  0.750980  1
  Os  Os6  1  0.173010  0.826990  0.750980  1
  Os  Os7  1  0.346087  0.173044  0.249024  1
  Os  Os8  1  0.826956  0.653913  0.249024  1
  Os  Os9  1  0.653981  0.826990  0.750980  1
  Os  Os10  1  0.826956  0.173044  0.249024  1
  Os  Os11  1  0.000000  0.000000  0.500025  1
