# generated using pymatgen
data_Er4S5
_symmetry_space_group_name_H-M   'P 1'
_cell_length_a   6.67717042
_cell_length_b   5.45929083
_cell_length_c   6.67198329
_cell_angle_alpha   114.04470567
_cell_angle_beta   80.55749945
_cell_angle_gamma   113.94644652
_symmetry_Int_Tables_number   1
_chemical_formula_structural   Er4S5
_chemical_formula_sum   'Er4 S5'
_cell_volume   202.98918442
_cell_formula_units_Z   1
loop_
 _symmetry_equiv_pos_site_id
 _symmetry_equiv_pos_as_xyz
  1  'x, y, z'
loop_
 _atom_site_type_symbol
 _atom_site_label
 _atom_site_symmetry_multiplicity
 _atom_site_fract_x
 _atom_site_fract_y
 _atom_site_fract_z
 _atom_site_occupancy
  Er  Er0  1  0.761321  0.832190  0.289622  1
  Er  Er1  1  0.146107  0.628123  0.496584  1
  Er  Er2  1  0.350853  0.025150  0.086613  1
  Er  Er3  1  0.556825  0.434362  0.699822  1
  S  S4  1  0.157936  0.132055  0.492652  1
  S  S5  1  0.354187  0.531801  0.097076  1
  S  S6  1  0.553201  0.927049  0.689199  1
  S  S7  1  0.749648  0.328670  0.293395  1
  S  S8  1  0.953746  0.731197  0.893088  1
