# generated using pymatgen
data_SrYb2(AsO4)2
_symmetry_space_group_name_H-M   'P 1'
_cell_length_a   5.88974096
_cell_length_b   6.96257559
_cell_length_c   9.75995000
_cell_angle_alpha   109.84887785
_cell_angle_beta   101.18971618
_cell_angle_gamma   99.42258806
_symmetry_Int_Tables_number   1
_chemical_formula_structural   SrYb2(AsO4)2
_chemical_formula_sum   'Sr2 Yb4 As4 O16'
_cell_volume   357.68372293
_cell_formula_units_Z   2
loop_
 _symmetry_equiv_pos_site_id
 _symmetry_equiv_pos_as_xyz
  1  'x, y, z'
loop_
 _atom_site_type_symbol
 _atom_site_label
 _atom_site_symmetry_multiplicity
 _atom_site_fract_x
 _atom_site_fract_y
 _atom_site_fract_z
 _atom_site_occupancy
  Sr  Sr0  1  0.237497  0.211727  0.443585  1
  Sr  Sr1  1  0.762503  0.788273  0.556415  1
  Yb  Yb2  1  0.497618  0.565091  0.835283  1
  Yb  Yb3  1  0.143540  0.819652  0.059971  1
  Yb  Yb4  1  0.856461  0.180348  0.940029  1
  Yb  Yb5  1  0.502382  0.434908  0.164716  1
  As  As6  1  0.870807  0.391561  0.700431  1
  As  As7  1  0.129193  0.608440  0.299568  1
  As  As8  1  0.319165  0.014464  0.791908  1
  As  As9  1  0.680835  0.985536  0.208092  1
  O  O10  1  0.632297  0.453307  0.608339  1
  O  O11  1  0.367703  0.546693  0.391661  1
  O  O12  1  0.217737  0.979905  0.608896  1
  O  O13  1  0.782264  0.020095  0.391104  1
  O  O14  1  0.134394  0.462057  0.661899  1
  O  O15  1  0.865606  0.537943  0.338101  1
  O  O16  1  0.801604  0.145073  0.698062  1
  O  O17  1  0.198397  0.854927  0.301938  1
  O  O18  1  0.535721  0.881213  0.818250  1
  O  O19  1  0.464279  0.118786  0.181749  1
  O  O20  1  0.116211  0.463990  0.114226  1
  O  O21  1  0.883789  0.536010  0.885774  1
  O  O22  1  0.532468  0.725053  0.089695  1
  O  O23  1  0.084349  0.940064  0.859874  1
  O  O24  1  0.915651  0.059936  0.140126  1
  O  O25  1  0.467533  0.274947  0.910305  1
