# generated using pymatgen
data_Tb3TmPd3PtF28
_symmetry_space_group_name_H-M   'P 1'
_cell_length_a   5.53051235
_cell_length_b   8.86915259
_cell_length_c   11.95666202
_cell_angle_alpha   62.44622777
_cell_angle_beta   90.04383977
_cell_angle_gamma   90.03066066
_symmetry_Int_Tables_number   1
_chemical_formula_structural   Tb3TmPd3PtF28
_chemical_formula_sum   'Tb3 Tm1 Pd3 Pt1 F28'
_cell_volume   519.96464545
_cell_formula_units_Z   1
loop_
 _symmetry_equiv_pos_site_id
 _symmetry_equiv_pos_as_xyz
  1  'x, y, z'
loop_
 _atom_site_type_symbol
 _atom_site_label
 _atom_site_symmetry_multiplicity
 _atom_site_fract_x
 _atom_site_fract_y
 _atom_site_fract_z
 _atom_site_occupancy
  Tb  Tb0  1  0.738200  0.186047  0.735940  1
  Tb  Tb1  1  0.761357  0.185234  0.235518  1
  Tb  Tb2  1  0.237782  0.812407  0.765522  1
  Tm  Tm3  1  0.261874  0.812979  0.263532  1
  Pd  Pd4  1  0.759683  0.727642  0.045282  1
  Pd  Pd5  1  0.241742  0.271180  0.958013  1
  Pd  Pd6  1  0.258902  0.275112  0.455756  1
  Pt  Pt7  1  0.741397  0.727657  0.540946  1
  F  F8  1  0.938158  0.702651  0.413620  1
  F  F9  1  0.066573  0.297806  0.583339  1
  F  F10  1  0.433318  0.296098  0.084849  1
  F  F11  1  0.565387  0.703323  0.918831  1
  F  F12  1  0.467801  0.727351  0.136991  1
  F  F13  1  0.535094  0.273894  0.867214  1
  F  F14  1  0.966985  0.276307  0.364422  1
  F  F15  1  0.036278  0.726133  0.633327  1
  F  F16  1  0.951222  0.746042  0.176114  1
  F  F17  1  0.055581  0.254315  0.825404  1
  F  F18  1  0.444999  0.257108  0.323704  1
  F  F19  1  0.551747  0.745888  0.673781  1
  F  F20  1  0.773544  0.480484  0.142738  1
  F  F21  1  0.226766  0.518516  0.859680  1
  F  F22  1  0.275074  0.522988  0.356848  1
  F  F23  1  0.727071  0.478695  0.640417  1
  F  F24  1  0.941537  0.278757  0.041156  1
  F  F25  1  0.057376  0.719593  0.960580  1
  F  F26  1  0.438845  0.721829  0.454971  1
  F  F27  1  0.558422  0.280580  0.540498  1
  F  F28  1  0.745091  0.976877  0.448704  1
  F  F29  1  0.254697  0.028303  0.548621  1
  F  F30  1  0.245054  0.024254  0.050448  1
  F  F31  1  0.756722  0.974184  0.952011  1
  F  F32  1  0.580129  0.966960  0.232851  1
  F  F33  1  0.409872  0.031201  0.769107  1
  F  F34  1  0.086397  0.024505  0.267471  1
  F  F35  1  0.909318  0.967103  0.731792  1
