# generated using pymatgen
data_RbCuF5
_symmetry_space_group_name_H-M   'P 1'
_cell_length_a   5.53235935
_cell_length_b   7.81578750
_cell_length_c   10.53472700
_cell_angle_alpha   90.00000000
_cell_angle_beta   90.00000000
_cell_angle_gamma   89.67449167
_symmetry_Int_Tables_number   1
_chemical_formula_structural   RbCuF5
_chemical_formula_sum   'Rb4 Cu4 F20'
_cell_volume   455.51155801
_cell_formula_units_Z   4
loop_
 _symmetry_equiv_pos_site_id
 _symmetry_equiv_pos_as_xyz
  1  'x, y, z'
loop_
 _atom_site_type_symbol
 _atom_site_label
 _atom_site_symmetry_multiplicity
 _atom_site_fract_x
 _atom_site_fract_y
 _atom_site_fract_z
 _atom_site_occupancy
  Rb  Rb0  1  0.496846  0.892503  0.975545  1
  Rb  Rb1  1  0.503154  0.107497  0.475545  1
  Rb  Rb2  1  0.999578  0.361141  0.123214  1
  Rb  Rb3  1  0.000422  0.638859  0.623214  1
  Cu  Cu4  1  0.001927  0.875668  0.240738  1
  Cu  Cu5  1  0.504256  0.572991  0.338650  1
  Cu  Cu6  1  0.495744  0.427009  0.838650  1
  Cu  Cu7  1  0.998073  0.124332  0.740738  1
  F  F8  1  0.248987  0.558196  0.918374  1
  F  F9  1  0.733686  0.692417  0.244542  1
  F  F10  1  0.245790  0.045442  0.226127  1
  F  F11  1  0.765905  0.297281  0.740734  1
  F  F12  1  0.495490  0.271158  0.963286  1
  F  F13  1  0.754210  0.954558  0.726127  1
  F  F14  1  0.504012  0.577798  0.710562  1
  F  F15  1  0.233300  0.962361  0.730927  1
  F  F16  1  0.992044  0.850567  0.071940  1
  F  F17  1  0.766700  0.037639  0.230927  1
  F  F18  1  0.495988  0.422202  0.210562  1
  F  F19  1  0.751013  0.441804  0.418374  1
  F  F20  1  0.234095  0.702719  0.240734  1
  F  F21  1  0.003732  0.891498  0.409500  1
  F  F22  1  0.007956  0.149433  0.571940  1
  F  F23  1  0.266314  0.307583  0.744542  1
  F  F24  1  0.996268  0.108502  0.909500  1
  F  F25  1  0.269095  0.453929  0.417369  1
  F  F26  1  0.504510  0.728842  0.463286  1
  F  F27  1  0.730905  0.546071  0.917369  1
