# generated using pymatgen
data_Cs6Na4NbInAs6
_symmetry_space_group_name_H-M   'P 1'
_cell_length_a   11.02106826
_cell_length_b   11.02106886
_cell_length_c   17.03039400
_cell_angle_alpha   90.00000000
_cell_angle_beta   90.00000000
_cell_angle_gamma   142.69230537
_symmetry_Int_Tables_number   1
_chemical_formula_structural   Cs6Na4NbInAs6
_chemical_formula_sum   'Cs12 Na8 Nb2 In2 As12'
_cell_volume   1253.75582999
_cell_formula_units_Z   2
loop_
 _symmetry_equiv_pos_site_id
 _symmetry_equiv_pos_as_xyz
  1  'x, y, z'
loop_
 _atom_site_type_symbol
 _atom_site_label
 _atom_site_symmetry_multiplicity
 _atom_site_fract_x
 _atom_site_fract_y
 _atom_site_fract_z
 _atom_site_occupancy
  Cs  Cs0  1  0.608354  0.949030  0.826816  1
  Cs  Cs1  1  0.272920  0.278813  0.318149  1
  Cs  Cs2  1  0.227080  0.221187  0.818149  1
  Cs  Cs3  1  0.721187  0.727080  0.681851  1
  Cs  Cs4  1  0.449030  0.108354  0.673184  1
  Cs  Cs5  1  0.891646  0.550970  0.326816  1
  Cs  Cs6  1  0.050970  0.391646  0.173184  1
  Cs  Cs7  1  0.396662  0.063545  0.172626  1
  Cs  Cs8  1  0.563545  0.896662  0.327374  1
  Cs  Cs9  1  0.103338  0.436455  0.672626  1
  Cs  Cs10  1  0.936455  0.603338  0.827374  1
  Cs  Cs11  1  0.778813  0.772920  0.181851  1
  Na  Na12  1  0.081604  0.918396  0.000000  1
  Na  Na13  1  0.580473  0.419527  0.500000  1
  Na  Na14  1  0.919527  0.080473  0.000000  1
  Na  Na15  1  0.751053  0.248947  0.000000  1
  Na  Na16  1  0.748947  0.251053  0.500000  1
  Na  Na17  1  0.244814  0.755186  0.000000  1
  Na  Na18  1  0.255186  0.744814  0.500000  1
  Na  Na19  1  0.418396  0.581604  0.500000  1
  Nb  Nb20  1  0.080886  0.919114  0.500000  1
  Nb  Nb21  1  0.419114  0.580886  0.000000  1
  In  In22  1  0.914130  0.085870  0.500000  1
  In  In23  1  0.585870  0.414130  0.000000  1
  As  As24  1  0.065804  0.382966  0.403267  1
  As  As25  1  0.882966  0.565804  0.096733  1
  As  As26  1  0.434196  0.117034  0.903267  1
  As  As27  1  0.617034  0.934196  0.596733  1
  As  As28  1  0.948393  0.645465  0.586320  1
  As  As29  1  0.145465  0.448393  0.913680  1
  As  As30  1  0.551607  0.854535  0.086320  1
  As  As31  1  0.354535  0.051607  0.413680  1
  As  As32  1  0.209277  0.195095  0.586256  1
  As  As33  1  0.695095  0.709277  0.913744  1
  As  As34  1  0.290723  0.304905  0.086256  1
  As  As35  1  0.804905  0.790723  0.413744  1
