# generated using pymatgen
data_Na2NbNO2
_symmetry_space_group_name_H-M   'P 1'
_cell_length_a   6.41351923
_cell_length_b   6.41351808
_cell_length_c   5.39291300
_cell_angle_alpha   90.00000000
_cell_angle_beta   90.00000000
_cell_angle_gamma   61.07285924
_symmetry_Int_Tables_number   1
_chemical_formula_structural   Na2NbNO2
_chemical_formula_sum   'Na4 Nb2 N2 O4'
_cell_volume   194.15163987
_cell_formula_units_Z   2
loop_
 _symmetry_equiv_pos_site_id
 _symmetry_equiv_pos_as_xyz
  1  'x, y, z'
loop_
 _atom_site_type_symbol
 _atom_site_label
 _atom_site_symmetry_multiplicity
 _atom_site_fract_x
 _atom_site_fract_y
 _atom_site_fract_z
 _atom_site_occupancy
  Na  Na0  1  0.491070  0.172368  0.016534  1
  Na  Na1  1  0.827632  0.508930  0.016534  1
  Na  Na2  1  0.172368  0.491070  0.516533  1
  Na  Na3  1  0.508930  0.827632  0.516533  1
  Nb  Nb4  1  0.840981  0.159019  0.497037  1
  Nb  Nb5  1  0.159019  0.840981  0.997036  1
  N  N6  1  0.881274  0.118726  0.138944  1
  N  N7  1  0.118726  0.881274  0.638943  1
  O  O8  1  0.166607  0.550322  0.074978  1
  O  O9  1  0.449677  0.833393  0.074978  1
  O  O10  1  0.550322  0.166607  0.574976  1
  O  O11  1  0.833393  0.449677  0.574976  1
