# generated using pymatgen
data_EuYCr2F14
_symmetry_space_group_name_H-M   'P 1'
_cell_length_a   5.52896146
_cell_length_b   8.88300812
_cell_length_c   11.82602084
_cell_angle_alpha   62.71890962
_cell_angle_beta   90.02109769
_cell_angle_gamma   89.98471275
_symmetry_Int_Tables_number   1
_chemical_formula_structural   EuYCr2F14
_chemical_formula_sum   'Eu2 Y2 Cr4 F28'
_cell_volume   516.21528605
_cell_formula_units_Z   2
loop_
 _symmetry_equiv_pos_site_id
 _symmetry_equiv_pos_as_xyz
  1  'x, y, z'
loop_
 _atom_site_type_symbol
 _atom_site_label
 _atom_site_symmetry_multiplicity
 _atom_site_fract_x
 _atom_site_fract_y
 _atom_site_fract_z
 _atom_site_occupancy
  Eu  Eu0  1  0.264150  0.809065  0.266525  1
  Eu  Eu1  1  0.735850  0.190935  0.733475  1
  Y  Y2  1  0.764647  0.192935  0.232991  1
  Y  Y3  1  0.235353  0.807065  0.767009  1
  Cr  Cr4  1  0.756489  0.723854  0.042557  1
  Cr  Cr5  1  0.243511  0.276146  0.957443  1
  Cr  Cr6  1  0.258003  0.272046  0.454471  1
  Cr  Cr7  1  0.741997  0.727954  0.545529  1
  F  F8  1  0.933500  0.706633  0.426614  1
  F  F9  1  0.066500  0.293367  0.573386  1
  F  F10  1  0.434951  0.291688  0.079710  1
  F  F11  1  0.565049  0.708312  0.920290  1
  F  F12  1  0.480425  0.728653  0.132894  1
  F  F13  1  0.519575  0.271347  0.867106  1
  F  F14  1  0.980381  0.269247  0.362185  1
  F  F15  1  0.019619  0.730753  0.637815  1
  F  F16  1  0.945718  0.739724  0.167139  1
  F  F17  1  0.054282  0.260276  0.832861  1
  F  F18  1  0.451306  0.252539  0.331711  1
  F  F19  1  0.548694  0.747461  0.668289  1
  F  F20  1  0.764264  0.490053  0.135323  1
  F  F21  1  0.235736  0.509947  0.864677  1
  F  F22  1  0.269918  0.504563  0.360151  1
  F  F23  1  0.730082  0.495437  0.639849  1
  F  F24  1  0.958803  0.283752  0.044439  1
  F  F25  1  0.041197  0.716248  0.955561  1
  F  F26  1  0.457527  0.717268  0.460440  1
  F  F27  1  0.542473  0.282732  0.539560  1
  F  F28  1  0.742832  0.959088  0.454528  1
  F  F29  1  0.257168  0.040912  0.545472  1
  F  F30  1  0.240767  0.044662  0.046564  1
  F  F31  1  0.759233  0.955338  0.953436  1
  F  F32  1  0.596436  0.972910  0.228767  1
  F  F33  1  0.403564  0.027090  0.771233  1
  F  F34  1  0.089270  0.031798  0.272358  1
  F  F35  1  0.910730  0.968202  0.727642  1
