# generated using pymatgen
data_Th6CoOsPd6
_symmetry_space_group_name_H-M   'P 1'
_cell_length_a   8.05617154
_cell_length_b   8.05617206
_cell_length_c   8.05617016
_cell_angle_alpha   114.16000342
_cell_angle_beta   114.16000466
_cell_angle_gamma   114.16000288
_symmetry_Int_Tables_number   1
_chemical_formula_structural   Th6CoOsPd6
_chemical_formula_sum   'Th6 Co1 Os1 Pd6'
_cell_volume   313.86068656
_cell_formula_units_Z   1
loop_
 _symmetry_equiv_pos_site_id
 _symmetry_equiv_pos_as_xyz
  1  'x, y, z'
loop_
 _atom_site_type_symbol
 _atom_site_label
 _atom_site_symmetry_multiplicity
 _atom_site_fract_x
 _atom_site_fract_y
 _atom_site_fract_z
 _atom_site_occupancy
  Th  Th0  1  0.392646  0.038422  0.275050  1
  Th  Th1  1  0.038422  0.275050  0.392646  1
  Th  Th2  1  0.275050  0.392646  0.038422  1
  Th  Th3  1  0.607354  0.961578  0.724950  1
  Th  Th4  1  0.961578  0.724950  0.607354  1
  Th  Th5  1  0.724950  0.607354  0.961578  1
  Co  Co6  1  0.000000  0.000000  0.000000  1
  Os  Os7  1  0.500000  0.500000  0.500000  1
  Pd  Pd8  1  0.234443  0.070336  0.575749  1
  Pd  Pd9  1  0.070336  0.575749  0.234443  1
  Pd  Pd10  1  0.575749  0.234443  0.070336  1
  Pd  Pd11  1  0.765557  0.929664  0.424251  1
  Pd  Pd12  1  0.929664  0.424251  0.765557  1
  Pd  Pd13  1  0.424251  0.765557  0.929664  1
