# generated using pymatgen
data_TmHfGa8Fe9
_symmetry_space_group_name_H-M   'P 1'
_cell_length_a   6.55651154
_cell_length_b   6.55117684
_cell_length_c   6.55333700
_cell_angle_alpha   83.72100174
_cell_angle_beta   96.18957477
_cell_angle_gamma   96.22057655
_symmetry_Int_Tables_number   1
_chemical_formula_structural   TmHfGa8Fe9
_chemical_formula_sum   'Tm1 Hf1 Ga8 Fe9'
_cell_volume   276.83375007
_cell_formula_units_Z   1
loop_
 _symmetry_equiv_pos_site_id
 _symmetry_equiv_pos_as_xyz
  1  'x, y, z'
loop_
 _atom_site_type_symbol
 _atom_site_label
 _atom_site_symmetry_multiplicity
 _atom_site_fract_x
 _atom_site_fract_y
 _atom_site_fract_z
 _atom_site_occupancy
  Tm  Tm0  1  0.635911  0.364101  0.364048  1
  Hf  Hf1  1  0.378647  0.621386  0.621350  1
  Ga  Ga2  1  0.320048  0.325098  0.998994  1
  Ga  Ga3  1  0.675019  0.679864  0.999051  1
  Ga  Ga4  1  0.868298  0.131627  0.131368  1
  Ga  Ga5  1  0.320145  0.998996  0.325021  1
  Ga  Ga6  1  0.001052  0.679999  0.324816  1
  Ga  Ga7  1  0.674888  0.999119  0.679946  1
  Ga  Ga8  1  0.000968  0.325019  0.680142  1
  Ga  Ga9  1  0.139609  0.860368  0.860674  1
  Fe  Fe10  1  0.498762  0.001571  0.001767  1
  Fe  Fe11  1  0.998361  0.501218  0.001706  1
  Fe  Fe12  1  0.336820  0.663497  0.170847  1
  Fe  Fe13  1  0.167277  0.339691  0.339913  1
  Fe  Fe14  1  0.660173  0.832716  0.339735  1
  Fe  Fe15  1  0.998286  0.001645  0.501208  1
  Fe  Fe16  1  0.336656  0.170914  0.663409  1
  Fe  Fe17  1  0.829065  0.663453  0.663191  1
  Fe  Fe18  1  0.660018  0.339714  0.832816  1
