# generated using pymatgen
data_Li4Pr4GeBi3
_symmetry_space_group_name_H-M   'P 1'
_cell_length_a   9.67651300
_cell_length_b   9.67651318
_cell_length_c   7.54515600
_cell_angle_alpha   90.00000000
_cell_angle_beta   90.00000000
_cell_angle_gamma   120.00000279
_symmetry_Int_Tables_number   1
_chemical_formula_structural   Li4Pr4GeBi3
_chemical_formula_sum   'Li8 Pr8 Ge2 Bi6'
_cell_volume   611.83824416
_cell_formula_units_Z   2
loop_
 _symmetry_equiv_pos_site_id
 _symmetry_equiv_pos_as_xyz
  1  'x, y, z'
loop_
 _atom_site_type_symbol
 _atom_site_label
 _atom_site_symmetry_multiplicity
 _atom_site_fract_x
 _atom_site_fract_y
 _atom_site_fract_z
 _atom_site_occupancy
  Li  Li0  1  0.823567  0.176433  0.718209  1
  Li  Li1  1  0.823567  0.647133  0.718209  1
  Li  Li2  1  0.352867  0.176433  0.718209  1
  Li  Li3  1  0.176433  0.823567  0.218209  1
  Li  Li4  1  0.176433  0.352867  0.218209  1
  Li  Li5  1  0.647133  0.823567  0.218209  1
  Li  Li6  1  0.666667  0.333333  0.338070  1
  Li  Li7  1  0.333333  0.666667  0.838070  1
  Pr  Pr8  1  0.485586  0.514414  0.498716  1
  Pr  Pr9  1  0.485586  0.971172  0.498716  1
  Pr  Pr10  1  0.028828  0.514414  0.498716  1
  Pr  Pr11  1  0.514414  0.485586  0.998716  1
  Pr  Pr12  1  0.514414  0.028828  0.998716  1
  Pr  Pr13  1  0.971172  0.485586  0.998716  1
  Pr  Pr14  1  0.000000  0.000000  0.499498  1
  Pr  Pr15  1  0.000000  0.000000  0.999498  1
  Ge  Ge16  1  0.666667  0.333333  0.749968  1
  Ge  Ge17  1  0.333333  0.666667  0.249968  1
  Bi  Bi18  1  0.833552  0.166448  0.263564  1
  Bi  Bi19  1  0.833552  0.667104  0.263564  1
  Bi  Bi20  1  0.332896  0.166448  0.263564  1
  Bi  Bi21  1  0.166448  0.833552  0.763564  1
  Bi  Bi22  1  0.166448  0.332896  0.763564  1
  Bi  Bi23  1  0.667104  0.833552  0.763564  1
