# generated using pymatgen
data_Pr4Ga4Ni3Ru
_symmetry_space_group_name_H-M   'P 1'
_cell_length_a   4.45750000
_cell_length_b   7.15413131
_cell_length_c   7.51241092
_cell_angle_alpha   90.68258890
_cell_angle_beta   90.00000000
_cell_angle_gamma   90.00000000
_symmetry_Int_Tables_number   1
_chemical_formula_structural   Pr4Ga4Ni3Ru
_chemical_formula_sum   'Pr4 Ga4 Ni3 Ru1'
_cell_volume   239.55033035
_cell_formula_units_Z   1
loop_
 _symmetry_equiv_pos_site_id
 _symmetry_equiv_pos_as_xyz
  1  'x, y, z'
loop_
 _atom_site_type_symbol
 _atom_site_label
 _atom_site_symmetry_multiplicity
 _atom_site_fract_x
 _atom_site_fract_y
 _atom_site_fract_z
 _atom_site_occupancy
  Pr  Pr0  1  0.250000  0.028608  0.809192  1
  Pr  Pr1  1  0.250000  0.526476  0.691568  1
  Pr  Pr2  1  0.750000  0.976969  0.196143  1
  Pr  Pr3  1  0.750000  0.478238  0.301735  1
  Ga  Ga4  1  0.250000  0.175580  0.420856  1
  Ga  Ga5  1  0.250000  0.671841  0.077654  1
  Ga  Ga6  1  0.750000  0.824885  0.588560  1
  Ga  Ga7  1  0.750000  0.327607  0.916790  1
  Ni  Ni8  1  0.250000  0.301346  0.091700  1
  Ni  Ni9  1  0.750000  0.196048  0.591644  1
  Ni  Ni10  1  0.750000  0.694648  0.906627  1
  Ru  Ru11  1  0.250000  0.797755  0.407532  1
