# generated using pymatgen
data_Lu8Si16MoW11
_symmetry_space_group_name_H-M   'P 1'
_cell_length_a   6.69442991
_cell_length_b   6.88758422
_cell_length_c   12.80470452
_cell_angle_alpha   89.97064694
_cell_angle_beta   89.97466595
_cell_angle_gamma   90.05598945
_symmetry_Int_Tables_number   1
_chemical_formula_structural   Lu8Si16MoW11
_chemical_formula_sum   'Lu8 Si16 Mo1 W11'
_cell_volume   590.40465821
_cell_formula_units_Z   1
loop_
 _symmetry_equiv_pos_site_id
 _symmetry_equiv_pos_as_xyz
  1  'x, y, z'
loop_
 _atom_site_type_symbol
 _atom_site_label
 _atom_site_symmetry_multiplicity
 _atom_site_fract_x
 _atom_site_fract_y
 _atom_site_fract_z
 _atom_site_occupancy
  Lu  Lu0  1  0.495882  0.331527  0.093088  1
  Lu  Lu1  1  0.995423  0.168597  0.406644  1
  Lu  Lu2  1  0.503777  0.668583  0.593283  1
  Lu  Lu3  1  0.004677  0.831298  0.906595  1
  Lu  Lu4  1  0.504129  0.668163  0.906829  1
  Lu  Lu5  1  0.003686  0.830785  0.593286  1
  Lu  Lu6  1  0.496049  0.331708  0.406594  1
  Lu  Lu7  1  0.995502  0.168914  0.093197  1
  Si  Si8  1  0.662453  0.039332  0.546732  1
  Si  Si9  1  0.163065  0.460040  0.953902  1
  Si  Si10  1  0.336362  0.960827  0.046025  1
  Si  Si11  1  0.837258  0.539665  0.453632  1
  Si  Si12  1  0.337064  0.961094  0.453487  1
  Si  Si13  1  0.836530  0.540077  0.046141  1
  Si  Si14  1  0.664209  0.039273  0.953858  1
  Si  Si15  1  0.162782  0.459719  0.546698  1
  Si  Si16  1  0.534858  0.373000  0.749212  1
  Si  Si17  1  0.036114  0.127031  0.749985  1
  Si  Si18  1  0.464681  0.626314  0.250174  1
  Si  Si19  1  0.964586  0.873320  0.250144  1
  Si  Si20  1  0.801545  0.635700  0.750269  1
  Si  Si21  1  0.302228  0.864785  0.749810  1
  Si  Si22  1  0.198225  0.364044  0.249993  1
  Si  Si23  1  0.698107  0.135822  0.249981  1
  Mo  Mo24  1  0.330865  0.164411  0.624028  1
  W  W25  1  0.831052  0.335266  0.625005  1
  W  W26  1  0.332685  0.165112  0.874311  1
  W  W27  1  0.169028  0.664171  0.124868  1
  W  W28  1  0.668341  0.835725  0.375404  1
  W  W29  1  0.169494  0.664325  0.375328  1
  W  W30  1  0.668361  0.835416  0.125091  1
  W  W31  1  0.830627  0.336368  0.875498  1
  W  W32  1  0.667533  0.996928  0.750877  1
  W  W33  1  0.166743  0.502721  0.750513  1
  W  W34  1  0.333140  0.002478  0.249539  1
  W  W35  1  0.832943  0.497461  0.249975  1
