# generated using pymatgen
data_Tb3Ce(AuI6)4
_symmetry_space_group_name_H-M   'P 1'
_cell_length_a   9.02242278
_cell_length_b   11.28348762
_cell_length_c   16.07992800
_cell_angle_alpha   103.26337720
_cell_angle_beta   96.35605754
_cell_angle_gamma   112.83453723
_symmetry_Int_Tables_number   1
_chemical_formula_structural   Tb3Ce(AuI6)4
_chemical_formula_sum   'Tb3 Ce1 Au4 I24'
_cell_volume   1431.60418598
_cell_formula_units_Z   1
loop_
 _symmetry_equiv_pos_site_id
 _symmetry_equiv_pos_as_xyz
  1  'x, y, z'
loop_
 _atom_site_type_symbol
 _atom_site_label
 _atom_site_symmetry_multiplicity
 _atom_site_fract_x
 _atom_site_fract_y
 _atom_site_fract_z
 _atom_site_occupancy
  Tb  Tb0  1  0.423548  0.082933  0.374979  1
  Tb  Tb1  1  0.980368  0.314248  0.873300  1
  Tb  Tb2  1  0.022325  0.688933  0.129115  1
  Ce  Ce3  1  0.576060  0.917555  0.622755  1
  Au  Au4  1  0.292972  0.630077  0.764236  1
  Au  Au5  1  0.706387  0.369650  0.235910  1
  Au  Au6  1  0.499019  0.498356  0.499664  1
  Au  Au7  1  0.000387  0.000416  0.000269  1
  I  I8  1  0.607622  0.736627  0.751460  1
  I  I9  1  0.392101  0.261960  0.249647  1
  I  I10  1  0.276416  0.847663  0.734279  1
  I  I11  1  0.721920  0.152234  0.266984  1
  I  I12  1  0.976775  0.524790  0.772434  1
  I  I13  1  0.023205  0.474594  0.227414  1
  I  I14  1  0.308993  0.410317  0.791935  1
  I  I15  1  0.690972  0.590409  0.208765  1
  I  I16  1  0.682763  0.361305  0.507280  1
  I  I17  1  0.311776  0.632758  0.490320  1
  I  I18  1  0.763032  0.730762  0.527200  1
  I  I19  1  0.235894  0.265626  0.470408  1
  I  I20  1  0.796455  0.117282  0.978190  1
  I  I21  1  0.203774  0.883141  0.022032  1
  I  I22  1  0.769828  0.794162  0.035465  1
  I  I23  1  0.231306  0.207406  0.965631  1
  I  I24  1  0.620116  0.194317  0.745753  1
  I  I25  1  0.379852  0.808526  0.255914  1
  I  I26  1  0.946164  0.054555  0.727118  1
  I  I27  1  0.055998  0.947072  0.273920  1
  I  I28  1  0.725959  0.050441  0.480409  1
  I  I29  1  0.275370  0.949638  0.515890  1
  I  I30  1  0.767435  0.436733  0.976001  1
  I  I31  1  0.235210  0.565513  0.025322  1
