# generated using pymatgen
data_Dy4Al4Ru3Au
_symmetry_space_group_name_H-M   'P 1'
_cell_length_a   4.20509300
_cell_length_b   6.98274423
_cell_length_c   8.04881158
_cell_angle_alpha   89.84485982
_cell_angle_beta   90.00000000
_cell_angle_gamma   90.00000000
_symmetry_Int_Tables_number   1
_chemical_formula_structural   Dy4Al4Ru3Au
_chemical_formula_sum   'Dy4 Al4 Ru3 Au1'
_cell_volume   236.33710328
_cell_formula_units_Z   1
loop_
 _symmetry_equiv_pos_site_id
 _symmetry_equiv_pos_as_xyz
  1  'x, y, z'
loop_
 _atom_site_type_symbol
 _atom_site_label
 _atom_site_symmetry_multiplicity
 _atom_site_fract_x
 _atom_site_fract_y
 _atom_site_fract_z
 _atom_site_occupancy
  Dy  Dy0  1  0.250000  0.024220  0.329267  1
  Dy  Dy1  1  0.250000  0.544802  0.183435  1
  Dy  Dy2  1  0.750000  0.967814  0.678049  1
  Dy  Dy3  1  0.750000  0.471960  0.812747  1
  Al  Al4  1  0.250000  0.134899  0.931561  1
  Al  Al5  1  0.250000  0.639664  0.559741  1
  Al  Al6  1  0.750000  0.848551  0.056236  1
  Al  Al7  1  0.750000  0.364165  0.446924  1
  Ru  Ru8  1  0.250000  0.269945  0.621318  1
  Ru  Ru9  1  0.250000  0.768596  0.880205  1
  Ru  Ru10  1  0.750000  0.735463  0.377120  1
  Au  Au11  1  0.750000  0.229922  0.123396  1
