# generated using pymatgen
data_CoTc6Ni
_symmetry_space_group_name_H-M   'P 1'
_cell_length_a   5.38672700
_cell_length_b   5.38672725
_cell_length_c   4.30876300
_cell_angle_alpha   90.00000000
_cell_angle_beta   90.00000000
_cell_angle_gamma   119.99999234
_symmetry_Int_Tables_number   1
_chemical_formula_structural   CoTc6Ni
_chemical_formula_sum   'Co1 Tc6 Ni1'
_cell_volume   108.27625443
_cell_formula_units_Z   1
loop_
 _symmetry_equiv_pos_site_id
 _symmetry_equiv_pos_as_xyz
  1  'x, y, z'
loop_
 _atom_site_type_symbol
 _atom_site_label
 _atom_site_symmetry_multiplicity
 _atom_site_fract_x
 _atom_site_fract_y
 _atom_site_fract_z
 _atom_site_occupancy
  Co  Co0  1  0.666667  0.333333  0.250000  1
  Tc  Tc1  1  0.167805  0.335611  0.250000  1
  Tc  Tc2  1  0.664389  0.832195  0.250000  1
  Tc  Tc3  1  0.167805  0.832195  0.250000  1
  Tc  Tc4  1  0.833474  0.666949  0.750000  1
  Tc  Tc5  1  0.333051  0.166526  0.750000  1
  Tc  Tc6  1  0.833474  0.166526  0.750000  1
  Ni  Ni7  1  0.333333  0.666667  0.750000  1
