# generated using pymatgen
data_Dy7Pu3(SiB4)4
_symmetry_space_group_name_H-M   'P 1'
_cell_length_a   7.23090381
_cell_length_b   7.23090381
_cell_length_c   8.10824071
_cell_angle_alpha   90.03164322
_cell_angle_beta   90.03164322
_cell_angle_gamma   89.68933788
_symmetry_Int_Tables_number   1
_chemical_formula_structural   Dy7Pu3(SiB4)4
_chemical_formula_sum   'Dy7 Pu3 Si4 B16'
_cell_volume   423.94086920
_cell_formula_units_Z   1
loop_
 _symmetry_equiv_pos_site_id
 _symmetry_equiv_pos_as_xyz
  1  'x, y, z'
loop_
 _atom_site_type_symbol
 _atom_site_label
 _atom_site_symmetry_multiplicity
 _atom_site_fract_x
 _atom_site_fract_y
 _atom_site_fract_z
 _atom_site_occupancy
  Dy  Dy0  1  0.817813  0.682127  0.222581  1
  Dy  Dy1  1  0.817966  0.681809  0.777266  1
  Dy  Dy2  1  0.681904  0.181904  0.776482  1
  Dy  Dy3  1  0.181809  0.317966  0.777266  1
  Dy  Dy4  1  0.182127  0.317813  0.222581  1
  Dy  Dy5  1  0.006419  0.996322  0.498778  1
  Dy  Dy6  1  0.496322  0.506419  0.498778  1
  Pu  Pu7  1  0.683293  0.183293  0.231181  1
  Pu  Pu8  1  0.316102  0.816102  0.772098  1
  Pu  Pu9  1  0.317335  0.817335  0.229195  1
  Si  Si10  1  0.112157  0.612157  0.501547  1
  Si  Si11  1  0.881920  0.381920  0.496707  1
  Si  Si12  1  0.388052  0.116978  0.497480  1
  Si  Si13  1  0.616978  0.888052  0.497480  1
  B  B14  1  0.173932  0.037577  0.999426  1
  B  B15  1  0.826806  0.961962  0.000259  1
  B  B16  1  0.959040  0.172575  0.000029  1
  B  B17  1  0.326726  0.541420  0.999498  1
  B  B18  1  0.041420  0.826726  0.999498  1
  B  B19  1  0.672575  0.459040  0.000029  1
  B  B20  1  0.537577  0.673932  0.999426  1
  B  B21  1  0.461962  0.326806  0.000259  1
  B  B22  1  0.090234  0.590234  0.999887  1
  B  B23  1  0.909535  0.409535  0.001527  1
  B  B24  1  0.410680  0.089501  0.001395  1
  B  B25  1  0.589501  0.910680  0.001395  1
  B  B26  1  0.999390  0.999292  0.160188  1
  B  B27  1  0.001788  0.999343  0.838788  1
  B  B28  1  0.499343  0.501788  0.838788  1
  B  B29  1  0.499292  0.499390  0.160188  1
