# generated using pymatgen
data_Pr5SmNb2O14
_symmetry_space_group_name_H-M   'P 1'
_cell_length_a   6.75162009
_cell_length_b   6.72180872
_cell_length_c   7.76003528
_cell_angle_alpha   90.03504160
_cell_angle_beta   90.06427466
_cell_angle_gamma   108.72177467
_symmetry_Int_Tables_number   1
_chemical_formula_structural   Pr5SmNb2O14
_chemical_formula_sum   'Pr5 Sm1 Nb2 O14'
_cell_volume   333.53993626
_cell_formula_units_Z   1
loop_
 _symmetry_equiv_pos_site_id
 _symmetry_equiv_pos_as_xyz
  1  'x, y, z'
loop_
 _atom_site_type_symbol
 _atom_site_label
 _atom_site_symmetry_multiplicity
 _atom_site_fract_x
 _atom_site_fract_y
 _atom_site_fract_z
 _atom_site_occupancy
  Pr  Pr0  1  0.463888  0.000687  0.258214  1
  Pr  Pr1  1  0.997756  0.537019  0.241608  1
  Pr  Pr2  1  0.460516  0.465229  0.999887  1
  Pr  Pr3  1  0.535147  0.531564  0.502083  1
  Pr  Pr4  1  0.536571  0.998493  0.758115  1
  Sm  Sm5  1  0.000809  0.462926  0.741160  1
  Nb  Nb6  1  0.002964  0.003597  0.501999  1
  Nb  Nb7  1  0.997317  0.996298  0.999495  1
  O  O8  1  0.939046  0.062894  0.750114  1
  O  O9  1  0.643938  0.365002  0.753061  1
  O  O10  1  0.303465  0.058807  0.538384  1
  O  O11  1  0.964597  0.704148  0.953480  1
  O  O12  1  0.629910  0.370713  0.249004  1
  O  O13  1  0.925787  0.680570  0.527381  1
  O  O14  1  0.322827  0.081542  0.978303  1
  O  O15  1  0.075924  0.322107  0.018936  1
  O  O16  1  0.678155  0.917982  0.477903  1
  O  O17  1  0.363347  0.625380  0.747375  1
  O  O18  1  0.697927  0.941230  0.038454  1
  O  O19  1  0.041039  0.300532  0.462928  1
  O  O20  1  0.361160  0.633680  0.251854  1
  O  O21  1  0.057912  0.939601  0.250261  1
