# generated using pymatgen
data_Pu2Ga3Au
_symmetry_space_group_name_H-M   'P 1'
_cell_length_a   5.59379339
_cell_length_b   5.50795445
_cell_length_c   5.59379300
_cell_angle_alpha   59.48311074
_cell_angle_beta   59.99999638
_cell_angle_gamma   59.48310152
_symmetry_Int_Tables_number   1
_chemical_formula_structural   Pu2Ga3Au
_chemical_formula_sum   'Pu2 Ga3 Au1'
_cell_volume   120.90673956
_cell_formula_units_Z   1
loop_
 _symmetry_equiv_pos_site_id
 _symmetry_equiv_pos_as_xyz
  1  'x, y, z'
loop_
 _atom_site_type_symbol
 _atom_site_label
 _atom_site_symmetry_multiplicity
 _atom_site_fract_x
 _atom_site_fract_y
 _atom_site_fract_z
 _atom_site_occupancy
  Pu  Pu0  1  0.744154  0.767537  0.744154  1
  Pu  Pu1  1  0.505846  0.482463  0.505846  1
  Ga  Ga2  1  0.125000  0.125000  0.625000  1
  Ga  Ga3  1  0.125000  0.125000  0.125000  1
  Ga  Ga4  1  0.625000  0.125000  0.125000  1
  Au  Au5  1  0.125000  0.625000  0.125000  1
