# generated using pymatgen
data_DyEr9(AsPb3)2
_symmetry_space_group_name_H-M   'P 1'
_cell_length_a   9.11854700
_cell_length_b   9.11854812
_cell_length_c   6.76900300
_cell_angle_alpha   90.00000000
_cell_angle_beta   90.00000000
_cell_angle_gamma   119.98324808
_symmetry_Int_Tables_number   1
_chemical_formula_structural   DyEr9(AsPb3)2
_chemical_formula_sum   'Dy1 Er9 As2 Pb6'
_cell_volume   487.50599307
_cell_formula_units_Z   1
loop_
 _symmetry_equiv_pos_site_id
 _symmetry_equiv_pos_as_xyz
  1  'x, y, z'
loop_
 _atom_site_type_symbol
 _atom_site_label
 _atom_site_symmetry_multiplicity
 _atom_site_fract_x
 _atom_site_fract_y
 _atom_site_fract_z
 _atom_site_occupancy
  Dy  Dy0  1  0.753896  0.753896  0.750000  1
  Er  Er1  1  0.245086  0.000003  0.750000  1
  Er  Er2  1  0.000003  0.245086  0.750000  1
  Er  Er3  1  0.245534  0.245534  0.250000  1
  Er  Er4  1  0.754946  0.000087  0.250000  1
  Er  Er5  1  0.000087  0.754946  0.250000  1
  Er  Er6  1  0.666608  0.333114  0.000060  1
  Er  Er7  1  0.333114  0.666608  0.000060  1
  Er  Er8  1  0.333114  0.666608  0.499940  1
  Er  Er9  1  0.666608  0.333114  0.499940  1
  As  As10  1  0.000687  0.000687  0.000629  1
  As  As11  1  0.000687  0.000687  0.499371  1
  Pb  Pb12  1  0.397868  0.397868  0.750000  1
  Pb  Pb13  1  0.601243  0.000391  0.750000  1
  Pb  Pb14  1  0.000391  0.601243  0.750000  1
  Pb  Pb15  1  0.601634  0.601634  0.250000  1
  Pb  Pb16  1  0.398564  0.999932  0.250000  1
  Pb  Pb17  1  0.999932  0.398564  0.250000  1
