# generated using pymatgen
data_Tb4Er8InCo4Cu
_symmetry_space_group_name_H-M   'P 1'
_cell_length_a   8.28138699
_cell_length_b   8.28138647
_cell_length_c   8.28138633
_cell_angle_alpha   110.79251015
_cell_angle_beta   110.82165743
_cell_angle_gamma   106.83130857
_symmetry_Int_Tables_number   1
_chemical_formula_structural   Tb4Er8InCo4Cu
_chemical_formula_sum   'Tb4 Er8 In1 Co4 Cu1'
_cell_volume   436.51510194
_cell_formula_units_Z   1
loop_
 _symmetry_equiv_pos_site_id
 _symmetry_equiv_pos_as_xyz
  1  'x, y, z'
loop_
 _atom_site_type_symbol
 _atom_site_label
 _atom_site_symmetry_multiplicity
 _atom_site_fract_x
 _atom_site_fract_y
 _atom_site_fract_z
 _atom_site_occupancy
  Tb  Tb0  1  0.186284  0.288264  0.474547  1
  Tb  Tb1  1  0.813716  0.711736  0.525453  1
  Tb  Tb2  1  0.186284  0.711736  0.898020  1
  Tb  Tb3  1  0.813716  0.288264  0.101980  1
  Er  Er4  1  0.315803  0.621497  0.305695  1
  Er  Er5  1  0.684197  0.378503  0.694305  1
  Er  Er6  1  0.315803  0.010108  0.694305  1
  Er  Er7  1  0.684197  0.989892  0.305695  1
  Er  Er8  1  0.417740  0.218802  0.198937  1
  Er  Er9  1  0.582260  0.781198  0.801063  1
  Er  Er10  1  0.019865  0.218802  0.801063  1
  Er  Er11  1  0.980135  0.781198  0.198937  1
  In  In12  1  0.500000  0.500000  0.000000  1
  Co  Co13  1  0.113369  0.613369  0.500000  1
  Co  Co14  1  0.886631  0.386631  0.500000  1
  Co  Co15  1  0.376760  0.000000  0.376760  1
  Co  Co16  1  0.623240  0.000000  0.623240  1
  Cu  Cu17  1  0.000000  0.000000  0.000000  1
