# generated using pymatgen
data_YTh5NiCl15
_symmetry_space_group_name_H-M   'P 1'
_cell_length_a   9.77130257
_cell_length_b   9.77125080
_cell_length_c   9.77125102
_cell_angle_alpha   110.10127599
_cell_angle_beta   109.15707102
_cell_angle_gamma   109.15707412
_symmetry_Int_Tables_number   1
_chemical_formula_structural   YTh5NiCl15
_chemical_formula_sum   'Y1 Th5 Ni1 Cl15'
_cell_volume   718.11154549
_cell_formula_units_Z   1
loop_
 _symmetry_equiv_pos_site_id
 _symmetry_equiv_pos_as_xyz
  1  'x, y, z'
loop_
 _atom_site_type_symbol
 _atom_site_label
 _atom_site_symmetry_multiplicity
 _atom_site_fract_x
 _atom_site_fract_y
 _atom_site_fract_z
 _atom_site_occupancy
  Y  Y0  1  0.000006  0.249338  0.249338  1
  Th  Th1  1  0.000006  0.750226  0.750226  1
  Th  Th2  1  0.245102  0.004033  0.249134  1
  Th  Th3  1  0.754907  0.004037  0.758936  1
  Th  Th4  1  0.245102  0.249134  0.004033  1
  Th  Th5  1  0.754907  0.758936  0.004037  1
  Ni  Ni6  1  0.999923  0.994020  0.994020  1
  Cl  Cl7  1  0.491072  0.246193  0.246193  1
  Cl  Cl8  1  0.508937  0.755125  0.755125  1
  Cl  Cl9  1  0.000004  0.246196  0.755123  1
  Cl  Cl10  1  0.000004  0.755123  0.246196  1
  Cl  Cl11  1  0.239565  0.487789  0.248229  1
  Cl  Cl12  1  0.760442  0.008668  0.248228  1
  Cl  Cl13  1  0.753885  0.507800  0.753918  1
  Cl  Cl14  1  0.246120  0.000037  0.753914  1
  Cl  Cl15  1  0.239565  0.248229  0.487789  1
  Cl  Cl16  1  0.753885  0.753918  0.507800  1
  Cl  Cl17  1  0.760442  0.248228  0.008668  1
  Cl  Cl18  1  0.246120  0.753914  0.000037  1
  Cl  Cl19  1  0.000004  0.495238  0.495238  1
  Cl  Cl20  1  0.500000  0.991905  0.491910  1
  Cl  Cl21  1  0.500000  0.491910  0.991905  1
