# generated using pymatgen
data_Tb11Ho5Cd4Co3Ru
_symmetry_space_group_name_H-M   'P 1'
_cell_length_a   9.57851415
_cell_length_b   9.57831286
_cell_length_c   9.57831303
_cell_angle_alpha   59.60439636
_cell_angle_beta   59.58220807
_cell_angle_gamma   59.60514511
_symmetry_Int_Tables_number   1
_chemical_formula_structural   Tb11Ho5Cd4Co3Ru
_chemical_formula_sum   'Tb11 Ho5 Cd4 Co3 Ru1'
_cell_volume   615.69725944
_cell_formula_units_Z   1
loop_
 _symmetry_equiv_pos_site_id
 _symmetry_equiv_pos_as_xyz
  1  'x, y, z'
loop_
 _atom_site_type_symbol
 _atom_site_label
 _atom_site_symmetry_multiplicity
 _atom_site_fract_x
 _atom_site_fract_y
 _atom_site_fract_z
 _atom_site_occupancy
  Tb  Tb0  1  0.812591  0.187581  0.812726  1
  Tb  Tb1  1  0.437362  0.057225  0.437367  1
  Tb  Tb2  1  0.599905  0.211349  0.600029  1
  Tb  Tb3  1  0.812634  0.812610  0.187658  1
  Tb  Tb4  1  0.211411  0.600425  0.599366  1
  Tb  Tb5  1  0.807827  0.189670  0.189704  1
  Tb  Tb6  1  0.057412  0.437507  0.437536  1
  Tb  Tb7  1  0.189743  0.808222  0.188983  1
  Tb  Tb8  1  0.599077  0.600285  0.211297  1
  Tb  Tb9  1  0.189809  0.189036  0.808132  1
  Tb  Tb10  1  0.062397  0.435594  0.061429  1
  Ho  Ho11  1  0.437842  0.437883  0.057059  1
  Ho  Ho12  1  0.595227  0.595485  0.596022  1
  Ho  Ho13  1  0.188186  0.812363  0.812507  1
  Ho  Ho14  1  0.061928  0.060831  0.436127  1
  Ho  Ho15  1  0.435904  0.061753  0.061835  1
  Cd  Cd16  1  0.829698  0.829838  0.508015  1
  Cd  Cd17  1  0.830101  0.830066  0.829618  1
  Cd  Cd18  1  0.507743  0.829525  0.829839  1
  Cd  Cd19  1  0.829385  0.507982  0.829874  1
  Co  Co20  1  0.828817  0.392468  0.392756  1
  Co  Co21  1  0.392102  0.829069  0.392836  1
  Co  Co22  1  0.392406  0.392840  0.828996  1
  Ru  Ru23  1  0.390496  0.390392  0.390289  1
