# generated using pymatgen
data_Dy10Er2Co4IrPb
_symmetry_space_group_name_H-M   'P 1'
_cell_length_a   8.31220650
_cell_length_b   8.32163276
_cell_length_c   8.32186712
_cell_angle_alpha   111.05571884
_cell_angle_beta   110.49883865
_cell_angle_gamma   106.93601804
_symmetry_Int_Tables_number   1
_chemical_formula_structural   Dy10Er2Co4IrPb
_chemical_formula_sum   'Dy10 Er2 Co4 Ir1 Pb1'
_cell_volume   442.20115740
_cell_formula_units_Z   1
loop_
 _symmetry_equiv_pos_site_id
 _symmetry_equiv_pos_as_xyz
  1  'x, y, z'
loop_
 _atom_site_type_symbol
 _atom_site_label
 _atom_site_symmetry_multiplicity
 _atom_site_fract_x
 _atom_site_fract_y
 _atom_site_fract_z
 _atom_site_occupancy
  Dy  Dy0  1  0.018162  0.213534  0.804606  1
  Dy  Dy1  1  0.981838  0.786466  0.195394  1
  Dy  Dy2  1  0.183107  0.287013  0.469306  1
  Dy  Dy3  1  0.816893  0.712987  0.530694  1
  Dy  Dy4  1  0.183112  0.713807  0.896092  1
  Dy  Dy5  1  0.816888  0.286193  0.103908  1
  Dy  Dy6  1  0.315206  0.621868  0.308510  1
  Dy  Dy7  1  0.684794  0.378132  0.691490  1
  Dy  Dy8  1  0.315198  0.006698  0.693351  1
  Dy  Dy9  1  0.684802  0.993302  0.306649  1
  Er  Er10  1  0.408598  0.213082  0.195510  1
  Er  Er11  1  0.591402  0.786918  0.804490  1
  Co  Co12  1  0.377280  0.000593  0.376682  1
  Co  Co13  1  0.622720  0.999407  0.623318  1
  Co  Co14  1  0.112149  0.611231  0.500928  1
  Co  Co15  1  0.887851  0.388769  0.499072  1
  Ir  Ir16  1  0.000000  0.000000  0.000000  1
  Pb  Pb17  1  0.500000  0.500000  0.000000  1
