# generated using pymatgen
data_Ac5PrNpO12
_symmetry_space_group_name_H-M   'P 1'
_cell_length_a   7.07862271
_cell_length_b   7.07354124
_cell_length_c   7.08512700
_cell_angle_alpha   98.67984543
_cell_angle_beta   98.65634782
_cell_angle_gamma   98.50060121
_symmetry_Int_Tables_number   1
_chemical_formula_structural   Ac5PrNpO12
_chemical_formula_sum   'Ac5 Pr1 Np1 O12'
_cell_volume   341.38184364
_cell_formula_units_Z   1
loop_
 _symmetry_equiv_pos_site_id
 _symmetry_equiv_pos_as_xyz
  1  'x, y, z'
loop_
 _atom_site_type_symbol
 _atom_site_label
 _atom_site_symmetry_multiplicity
 _atom_site_fract_x
 _atom_site_fract_y
 _atom_site_fract_z
 _atom_site_occupancy
  Ac  Ac0  1  0.601501  0.143598  0.303750  1
  Ac  Ac1  1  0.394899  0.854477  0.693199  1
  Ac  Ac2  1  0.692768  0.396893  0.858008  1
  Ac  Ac3  1  0.857381  0.695040  0.392209  1
  Ac  Ac4  1  0.143075  0.307037  0.606550  1
  Pr  Pr5  1  0.312829  0.608939  0.146761  1
  Np  Np6  1  0.003015  0.000184  0.001794  1
  O  O7  1  0.442690  0.178105  0.595182  1
  O  O8  1  0.933994  0.711194  0.037430  1
  O  O9  1  0.178991  0.590182  0.431453  1
  O  O10  1  0.821687  0.409171  0.558691  1
  O  O11  1  0.553190  0.819865  0.398467  1
  O  O12  1  0.583760  0.444245  0.177184  1
  O  O13  1  0.400877  0.559846  0.828180  1
  O  O14  1  0.961133  0.063304  0.290142  1
  O  O15  1  0.040360  0.935348  0.710912  1
  O  O16  1  0.712904  0.041220  0.933884  1
  O  O17  1  0.073505  0.290141  0.970177  1
  O  O18  1  0.291443  0.951212  0.066028  1
