# generated using pymatgen
data_Ho4Al10Ga7SiIr6
_symmetry_space_group_name_H-M   'P 1'
_cell_length_a   7.54291177
_cell_length_b   7.54003134
_cell_length_c   9.45625724
_cell_angle_alpha   90.09854364
_cell_angle_beta   89.85104598
_cell_angle_gamma   119.82654142
_symmetry_Int_Tables_number   1
_chemical_formula_structural   Ho4Al10Ga7SiIr6
_chemical_formula_sum   'Ho4 Al10 Ga7 Si1 Ir6'
_cell_volume   466.57021869
_cell_formula_units_Z   1
loop_
 _symmetry_equiv_pos_site_id
 _symmetry_equiv_pos_as_xyz
  1  'x, y, z'
loop_
 _atom_site_type_symbol
 _atom_site_label
 _atom_site_symmetry_multiplicity
 _atom_site_fract_x
 _atom_site_fract_y
 _atom_site_fract_z
 _atom_site_occupancy
  Ho  Ho0  1  0.996039  0.671925  0.245957  1
  Ho  Ho1  1  0.002304  0.333660  0.754054  1
  Ho  Ho2  1  0.675459  0.997538  0.248976  1
  Ho  Ho3  1  0.329978  0.001078  0.751126  1
  Al  Al4  1  0.998041  0.666443  0.571903  1
  Al  Al5  1  0.336412  0.000278  0.423079  1
  Al  Al6  1  0.001476  0.336532  0.424950  1
  Al  Al7  1  0.666400  0.999252  0.573895  1
  Al  Al8  1  0.665131  0.997017  0.925274  1
  Al  Al9  1  0.337713  0.002093  0.077756  1
  Al  Al10  1  0.331498  0.331497  0.558398  1
  Al  Al11  1  0.663560  0.663693  0.443830  1
  Al  Al12  1  0.663591  0.663179  0.054889  1
  Al  Al13  1  0.331500  0.331789  0.942866  1
  Ga  Ga14  1  0.875917  0.878533  0.749474  1
  Ga  Ga15  1  0.998272  0.335908  0.082902  1
  Ga  Ga16  1  0.000887  0.667859  0.919683  1
  Ga  Ga17  1  0.339664  0.550978  0.250596  1
  Ga  Ga18  1  0.658992  0.451554  0.749337  1
  Ga  Ga19  1  0.549232  0.338928  0.250084  1
  Ga  Ga20  1  0.453477  0.660324  0.749959  1
  Si  Si21  1  0.128711  0.124978  0.250469  1
  Ir  Ir22  1  0.666083  0.324608  0.998820  1
  Ir  Ir23  1  0.331021  0.672341  0.000781  1
  Ir  Ir24  1  0.326449  0.670306  0.500748  1
  Ir  Ir25  1  0.671061  0.327149  0.499537  1
  Ir  Ir26  1  0.000616  0.000212  0.011442  1
  Ir  Ir27  1  0.000516  0.000344  0.489215  1
