# generated using pymatgen
data_TmMgReH6
_symmetry_space_group_name_H-M   'P 1'
_cell_length_a   4.86835136
_cell_length_b   4.86836909
_cell_length_c   4.86833000
_cell_angle_alpha   119.99976759
_cell_angle_beta   119.99972810
_cell_angle_gamma   89.99999406
_symmetry_Int_Tables_number   1
_chemical_formula_structural   TmMgReH6
_chemical_formula_sum   'Tm1 Mg1 Re1 H6'
_cell_volume   81.58940297
_cell_formula_units_Z   1
loop_
 _symmetry_equiv_pos_site_id
 _symmetry_equiv_pos_as_xyz
  1  'x, y, z'
loop_
 _atom_site_type_symbol
 _atom_site_label
 _atom_site_symmetry_multiplicity
 _atom_site_fract_x
 _atom_site_fract_y
 _atom_site_fract_z
 _atom_site_occupancy
  Tm  Tm0  1  0.749999  0.249996  0.499999  1
  Mg  Mg1  1  0.250004  0.749984  0.499986  1
  Re  Re2  1  0.999991  0.999986  0.999998  1
  H  H3  1  0.255440  0.255445  0.000005  1
  H  H4  1  0.744563  0.255443  0.000001  1
  H  H5  1  0.255437  0.744568  0.000004  1
  H  H6  1  0.744563  0.744566  0.000001  1
  H  H7  1  0.744561  0.744565  0.489123  1
  H  H8  1  0.255437  0.255442  0.510878  1
