# generated using pymatgen
data_TmCoP2Ir
_symmetry_space_group_name_H-M   'P 1'
_cell_length_a   3.99909300
_cell_length_b   3.99909300
_cell_length_c   9.13573600
_cell_angle_alpha   90.00000000
_cell_angle_beta   90.00000000
_cell_angle_gamma   90.00000000
_symmetry_Int_Tables_number   1
_chemical_formula_structural   TmCoP2Ir
_chemical_formula_sum   'Tm2 Co2 P4 Ir2'
_cell_volume   146.10549462
_cell_formula_units_Z   2
loop_
 _symmetry_equiv_pos_site_id
 _symmetry_equiv_pos_as_xyz
  1  'x, y, z'
loop_
 _atom_site_type_symbol
 _atom_site_label
 _atom_site_symmetry_multiplicity
 _atom_site_fract_x
 _atom_site_fract_y
 _atom_site_fract_z
 _atom_site_occupancy
  Tm  Tm0  1  0.000000  0.500000  0.266142  1
  Tm  Tm1  1  0.500000  0.000000  0.733858  1
  Co  Co2  1  0.000000  0.500000  0.608388  1
  Co  Co3  1  0.500000  0.000000  0.391612  1
  P  P4  1  0.000000  0.000000  0.500000  1
  P  P5  1  0.500000  0.500000  0.500000  1
  P  P6  1  0.000000  0.500000  0.847151  1
  P  P7  1  0.500000  0.000000  0.152849  1
  Ir  Ir8  1  0.000000  0.000000  0.000000  1
  Ir  Ir9  1  0.500000  0.500000  0.000000  1
