# generated using pymatgen
data_GdAlF6
_symmetry_space_group_name_H-M   'P 1'
_cell_length_a   5.74923786
_cell_length_b   5.74923785
_cell_length_c   5.74923800
_cell_angle_alpha   59.99999911
_cell_angle_beta   59.99999920
_cell_angle_gamma   59.99999938
_symmetry_Int_Tables_number   1
_chemical_formula_structural   GdAlF6
_chemical_formula_sum   'Gd1 Al1 F6'
_cell_volume   134.37418237
_cell_formula_units_Z   1
loop_
 _symmetry_equiv_pos_site_id
 _symmetry_equiv_pos_as_xyz
  1  'x, y, z'
loop_
 _atom_site_type_symbol
 _atom_site_label
 _atom_site_symmetry_multiplicity
 _atom_site_fract_x
 _atom_site_fract_y
 _atom_site_fract_z
 _atom_site_occupancy
  Gd  Gd0  1  0.500001  0.500001  0.500001  1
  Al  Al1  1  0.000000  0.000000  0.000000  1
  F  F2  1  0.225164  0.774837  0.225164  1
  F  F3  1  0.774835  0.774835  0.225166  1
  F  F4  1  0.774837  0.225164  0.225164  1
  F  F5  1  0.774835  0.225166  0.774835  1
  F  F6  1  0.225164  0.225164  0.774837  1
  F  F7  1  0.225166  0.774835  0.774835  1
