# generated using pymatgen
data_Li3La4Sn6Pd
_symmetry_space_group_name_H-M   'P 1'
_cell_length_a   10.41200032
_cell_length_b   10.41200060
_cell_length_c   7.49304150
_cell_angle_alpha   89.12128155
_cell_angle_beta   90.87871864
_cell_angle_gamma   153.56859462
_symmetry_Int_Tables_number   1
_chemical_formula_structural   Li3La4Sn6Pd
_chemical_formula_sum   'Li3 La4 Sn6 Pd1'
_cell_volume   361.53940400
_cell_formula_units_Z   1
loop_
 _symmetry_equiv_pos_site_id
 _symmetry_equiv_pos_as_xyz
  1  'x, y, z'
loop_
 _atom_site_type_symbol
 _atom_site_label
 _atom_site_symmetry_multiplicity
 _atom_site_fract_x
 _atom_site_fract_y
 _atom_site_fract_z
 _atom_site_occupancy
  Li  Li0  1  0.194603  0.805397  0.561632  1
  Li  Li1  1  0.808527  0.191473  0.069269  1
  Li  Li2  1  0.193839  0.806161  0.936868  1
  La  La3  1  0.547877  0.452123  0.748417  1
  La  La4  1  0.450080  0.549920  0.249404  1
  La  La5  1  0.340507  0.659493  0.738953  1
  La  La6  1  0.661389  0.338611  0.258780  1
  Sn  Sn7  1  0.933177  0.066823  0.940890  1
  Sn  Sn8  1  0.067381  0.932619  0.057381  1
  Sn  Sn9  1  0.931146  0.068854  0.554545  1
  Sn  Sn10  1  0.066993  0.933007  0.441439  1
  Sn  Sn11  1  0.719952  0.280048  0.745077  1
  Sn  Sn12  1  0.282118  0.717882  0.257548  1
  Pd  Pd13  1  0.802412  0.197588  0.439797  1
