# generated using pymatgen
data_CrCo3(OsO3)8
_symmetry_space_group_name_H-M   'P 1'
_cell_length_a   6.49544742
_cell_length_b   6.48378044
_cell_length_c   10.42975013
_cell_angle_alpha   71.88405990
_cell_angle_beta   71.86208379
_cell_angle_gamma   89.99124947
_symmetry_Int_Tables_number   1
_chemical_formula_structural   CrCo3(OsO3)8
_chemical_formula_sum   'Cr1 Co3 Os8 O24'
_cell_volume   394.45345814
_cell_formula_units_Z   1
loop_
 _symmetry_equiv_pos_site_id
 _symmetry_equiv_pos_as_xyz
  1  'x, y, z'
loop_
 _atom_site_type_symbol
 _atom_site_label
 _atom_site_symmetry_multiplicity
 _atom_site_fract_x
 _atom_site_fract_y
 _atom_site_fract_z
 _atom_site_occupancy
  Cr  Cr0  1  0.666607  0.666620  0.666767  1
  Co  Co1  1  0.416740  0.916718  0.166637  1
  Co  Co2  1  0.166650  0.166658  0.666699  1
  Co  Co3  1  0.916597  0.416635  0.166673  1
  Os  Os4  1  0.251089  0.751069  0.498049  1
  Os  Os5  1  0.751100  0.251285  0.497678  1
  Os  Os6  1  0.082387  0.582296  0.835271  1
  Os  Os7  1  0.582210  0.081949  0.835701  1
  Os  Os8  1  0.500604  0.500623  0.998701  1
  Os  Os9  1  0.001902  0.001641  0.996568  1
  Os  Os10  1  0.331558  0.331681  0.336774  1
  Os  Os11  1  0.832607  0.832760  0.334563  1
  O  O12  1  0.731416  0.917173  0.165590  1
  O  O13  1  0.230239  0.416095  0.167758  1
  O  O14  1  0.103045  0.917223  0.165614  1
  O  O15  1  0.601934  0.416146  0.167750  1
  O  O16  1  0.166509  0.851908  0.666596  1
  O  O17  1  0.666616  0.355185  0.666632  1
  O  O18  1  0.166790  0.481468  0.666711  1
  O  O19  1  0.666700  0.978134  0.666704  1
  O  O20  1  0.552646  0.750806  0.498363  1
  O  O21  1  0.050065  0.254546  0.490963  1
  O  O22  1  0.384510  0.582620  0.834943  1
  O  O23  1  0.874833  0.079083  0.842095  1
  O  O24  1  0.948924  0.750693  0.498383  1
  O  O25  1  0.458640  0.254296  0.491182  1
  O  O26  1  0.780561  0.582521  0.834945  1
  O  O27  1  0.283215  0.078823  0.842317  1
  O  O28  1  0.328010  0.030889  0.344057  1
  O  O29  1  0.828427  0.534028  0.342685  1
  O  O30  1  0.005338  0.708268  0.989343  1
  O  O31  1  0.504811  0.209826  0.990664  1
  O  O32  1  0.005314  0.302263  0.989287  1
  O  O33  1  0.504896  0.799303  0.990648  1
  O  O34  1  0.327980  0.625277  0.344005  1
  O  O35  1  0.828533  0.123498  0.342683  1
