# generated using pymatgen
data_Er3(GaIr)2
_symmetry_space_group_name_H-M   'P 1'
_cell_length_a   5.55297100
_cell_length_b   7.74345700
_cell_length_c   13.54659400
_cell_angle_alpha   90.00000000
_cell_angle_beta   90.00000000
_cell_angle_gamma   90.00000000
_symmetry_Int_Tables_number   1
_chemical_formula_structural   Er3(GaIr)2
_chemical_formula_sum   'Er12 Ga8 Ir8'
_cell_volume   582.49259853
_cell_formula_units_Z   4
loop_
 _symmetry_equiv_pos_site_id
 _symmetry_equiv_pos_as_xyz
  1  'x, y, z'
loop_
 _atom_site_type_symbol
 _atom_site_label
 _atom_site_symmetry_multiplicity
 _atom_site_fract_x
 _atom_site_fract_y
 _atom_site_fract_z
 _atom_site_occupancy
  Er  Er0  1  0.625998  0.265075  0.250000  1
  Er  Er1  1  0.374002  0.734925  0.750000  1
  Er  Er2  1  0.374002  0.765075  0.250000  1
  Er  Er3  1  0.625998  0.234925  0.750000  1
  Er  Er4  1  0.155067  0.399306  0.096959  1
  Er  Er5  1  0.844933  0.600694  0.903041  1
  Er  Er6  1  0.844933  0.600694  0.596959  1
  Er  Er7  1  0.844933  0.899306  0.403041  1
  Er  Er8  1  0.155067  0.399306  0.403041  1
  Er  Er9  1  0.155067  0.100694  0.596959  1
  Er  Er10  1  0.155067  0.100694  0.903041  1
  Er  Er11  1  0.844933  0.899306  0.096959  1
  Ga  Ga12  1  0.119981  0.110524  0.250000  1
  Ga  Ga13  1  0.880019  0.889476  0.750000  1
  Ga  Ga14  1  0.880019  0.610524  0.250000  1
  Ga  Ga15  1  0.119981  0.389476  0.750000  1
  Ga  Ga16  1  0.654164  0.250000  0.000000  1
  Ga  Ga17  1  0.345836  0.750000  0.000000  1
  Ga  Ga18  1  0.345836  0.750000  0.500000  1
  Ga  Ga19  1  0.654164  0.250000  0.500000  1
  Ir  Ir20  1  0.359160  0.040349  0.095021  1
  Ir  Ir21  1  0.640840  0.959651  0.904979  1
  Ir  Ir22  1  0.640840  0.959651  0.595021  1
  Ir  Ir23  1  0.640840  0.540349  0.404979  1
  Ir  Ir24  1  0.359160  0.040349  0.404979  1
  Ir  Ir25  1  0.359160  0.459651  0.595021  1
  Ir  Ir26  1  0.359160  0.459651  0.904979  1
  Ir  Ir27  1  0.640840  0.540349  0.095021  1
