# generated using pymatgen
data_Sc2Ta3Si4
_symmetry_space_group_name_H-M   'P 1'
_cell_length_a   6.69789006
_cell_length_b   6.88673500
_cell_length_c   13.12636300
_cell_angle_alpha   90.00000000
_cell_angle_beta   90.00000000
_cell_angle_gamma   90.00778992
_symmetry_Int_Tables_number   1
_chemical_formula_structural   Sc2Ta3Si4
_chemical_formula_sum   'Sc8 Ta12 Si16'
_cell_volume   605.47440994
_cell_formula_units_Z   4
loop_
 _symmetry_equiv_pos_site_id
 _symmetry_equiv_pos_as_xyz
  1  'x, y, z'
loop_
 _atom_site_type_symbol
 _atom_site_label
 _atom_site_symmetry_multiplicity
 _atom_site_fract_x
 _atom_site_fract_y
 _atom_site_fract_z
 _atom_site_occupancy
  Sc  Sc0  1  0.500397  0.673269  0.594660  1
  Sc  Sc1  1  0.000148  0.826607  0.905495  1
  Sc  Sc2  1  0.499902  0.326902  0.094588  1
  Sc  Sc3  1  0.000176  0.173421  0.405525  1
  Sc  Sc4  1  0.499902  0.326902  0.405412  1
  Sc  Sc5  1  0.000176  0.173421  0.094475  1
  Sc  Sc6  1  0.500397  0.673269  0.905340  1
  Sc  Sc7  1  0.000148  0.826607  0.594505  1
  Ta  Ta8  1  0.662975  0.174505  0.624634  1
  Ta  Ta9  1  0.163258  0.325379  0.875387  1
  Ta  Ta10  1  0.336495  0.825385  0.124686  1
  Ta  Ta11  1  0.836893  0.674395  0.375293  1
  Ta  Ta12  1  0.336495  0.825385  0.375314  1
  Ta  Ta13  1  0.836893  0.674395  0.124707  1
  Ta  Ta14  1  0.662975  0.174505  0.875366  1
  Ta  Ta15  1  0.163258  0.325379  0.624613  1
  Ta  Ta16  1  0.838055  0.493246  0.750000  1
  Ta  Ta17  1  0.337885  0.007179  0.750000  1
  Ta  Ta18  1  0.161761  0.506908  0.250000  1
  Ta  Ta19  1  0.661850  0.992605  0.250000  1
  Si  Si20  1  0.669431  0.968084  0.460532  1
  Si  Si21  1  0.169510  0.531881  0.039335  1
  Si  Si22  1  0.330515  0.031809  0.960731  1
  Si  Si23  1  0.830649  0.468064  0.539345  1
  Si  Si24  1  0.330515  0.031809  0.539269  1
  Si  Si25  1  0.830649  0.468064  0.960655  1
  Si  Si26  1  0.669431  0.968084  0.039468  1
  Si  Si27  1  0.169510  0.531881  0.460665  1
  Si  Si28  1  0.459767  0.387084  0.750000  1
  Si  Si29  1  0.959457  0.113437  0.750000  1
  Si  Si30  1  0.540090  0.612585  0.250000  1
  Si  Si31  1  0.040330  0.887247  0.250000  1
  Si  Si32  1  0.705459  0.861636  0.750000  1
  Si  Si33  1  0.205642  0.638657  0.750000  1
  Si  Si34  1  0.294503  0.138959  0.250000  1
  Si  Si35  1  0.794501  0.361052  0.250000  1
