# generated using pymatgen
data_Er2Fe3Co7Ni2P7
_symmetry_space_group_name_H-M   'P 1'
_cell_length_a   8.97721858
_cell_length_b   8.99734053
_cell_length_c   3.63109500
_cell_angle_alpha   90.00000000
_cell_angle_beta   90.00000000
_cell_angle_gamma   120.05735461
_symmetry_Int_Tables_number   1
_chemical_formula_structural   Er2Fe3Co7Ni2P7
_chemical_formula_sum   'Er2 Fe3 Co7 Ni2 P7'
_cell_volume   253.84751288
_cell_formula_units_Z   1
loop_
 _symmetry_equiv_pos_site_id
 _symmetry_equiv_pos_as_xyz
  1  'x, y, z'
loop_
 _atom_site_type_symbol
 _atom_site_label
 _atom_site_symmetry_multiplicity
 _atom_site_fract_x
 _atom_site_fract_y
 _atom_site_fract_z
 _atom_site_occupancy
  Er  Er0  1  0.998430  0.999836  0.000000  1
  Er  Er1  1  0.334638  0.667607  0.500000  1
  Fe  Fe2  1  0.884307  0.457328  0.500000  1
  Fe  Fe3  1  0.542776  0.426238  0.500000  1
  Fe  Fe4  1  0.573439  0.116308  0.500000  1
  Co  Co5  1  0.605599  0.901635  0.000000  1
  Co  Co6  1  0.822380  0.214735  0.000000  1
  Co  Co7  1  0.785906  0.608938  0.000000  1
  Co  Co8  1  0.390071  0.176472  0.000000  1
  Co  Co9  1  0.051564  0.282797  0.500000  1
  Co  Co10  1  0.716087  0.767546  0.500000  1
  Co  Co11  1  0.232371  0.946703  0.500000  1
  Ni  Ni12  1  0.099940  0.704622  0.000000  1
  Ni  Ni13  1  0.296655  0.395978  0.000000  1
  P  P14  1  0.074129  0.443121  0.000000  1
  P  P15  1  0.557211  0.634143  0.000000  1
  P  P16  1  0.373682  0.926797  0.000000  1
  P  P17  1  0.778904  0.043107  0.500000  1
  P  P18  1  0.954197  0.737922  0.500000  1
  P  P19  1  0.261978  0.215058  0.500000  1
  P  P20  1  0.665736  0.333111  0.000000  1
