# generated using pymatgen
data_Hf2Zr4Ga6Pt5Rh
_symmetry_space_group_name_H-M   'P 1'
_cell_length_a   7.20471591
_cell_length_b   7.22112389
_cell_length_c   7.08964000
_cell_angle_alpha   90.00000000
_cell_angle_beta   90.00000000
_cell_angle_gamma   120.29106765
_symmetry_Int_Tables_number   1
_chemical_formula_structural   Hf2Zr4Ga6Pt5Rh
_chemical_formula_sum   'Hf2 Zr4 Ga6 Pt5 Rh1'
_cell_volume   318.48956174
_cell_formula_units_Z   1
loop_
 _symmetry_equiv_pos_site_id
 _symmetry_equiv_pos_as_xyz
  1  'x, y, z'
loop_
 _atom_site_type_symbol
 _atom_site_label
 _atom_site_symmetry_multiplicity
 _atom_site_fract_x
 _atom_site_fract_y
 _atom_site_fract_z
 _atom_site_occupancy
  Hf  Hf0  1  0.978804  0.595242  0.250000  1
  Hf  Hf1  1  0.615866  0.021100  0.250000  1
  Zr  Zr2  1  0.404895  0.382943  0.250000  1
  Zr  Zr3  1  0.589140  0.976328  0.750000  1
  Zr  Zr4  1  0.389024  0.411697  0.750000  1
  Zr  Zr5  1  0.023557  0.612671  0.750000  1
  Ga  Ga6  1  0.265619  0.999104  0.003297  1
  Ga  Ga7  1  0.265619  0.999104  0.496703  1
  Ga  Ga8  1  0.000773  0.266603  0.496506  1
  Ga  Ga9  1  0.000773  0.266603  0.003494  1
  Ga  Ga10  1  0.733161  0.733440  0.003053  1
  Ga  Ga11  1  0.733161  0.733440  0.496947  1
  Pt  Pt12  1  0.668236  0.333007  0.527699  1
  Pt  Pt13  1  0.999855  0.999648  0.750000  1
  Pt  Pt14  1  0.668236  0.333007  0.972301  1
  Pt  Pt15  1  0.332864  0.669170  0.036659  1
  Pt  Pt16  1  0.332864  0.669170  0.463341  1
  Rh  Rh17  1  0.997553  0.997723  0.250000  1
