# generated using pymatgen
data_EuNpN3
_symmetry_space_group_name_H-M   'P 1'
_cell_length_a   5.83294446
_cell_length_b   5.83294485
_cell_length_c   5.83294500
_cell_angle_alpha   60.36824633
_cell_angle_beta   60.36824415
_cell_angle_gamma   60.36824533
_symmetry_Int_Tables_number   1
_chemical_formula_structural   EuNpN3
_chemical_formula_sum   'Eu2 Np2 N6'
_cell_volume   141.49824058
_cell_formula_units_Z   2
loop_
 _symmetry_equiv_pos_site_id
 _symmetry_equiv_pos_as_xyz
  1  'x, y, z'
loop_
 _atom_site_type_symbol
 _atom_site_label
 _atom_site_symmetry_multiplicity
 _atom_site_fract_x
 _atom_site_fract_y
 _atom_site_fract_z
 _atom_site_occupancy
  Eu  Eu0  1  0.250000  0.250000  0.250000  1
  Eu  Eu1  1  0.750000  0.750000  0.750000  1
  Np  Np2  1  0.000000  0.000000  0.000000  1
  Np  Np3  1  0.500000  0.500000  0.500000  1
  N  N4  1  0.749999  0.323701  0.176299  1
  N  N5  1  0.676299  0.823700  0.250001  1
  N  N6  1  0.176299  0.749998  0.323701  1
  N  N7  1  0.823700  0.250001  0.676299  1
  N  N8  1  0.323700  0.176300  0.749999  1
  N  N9  1  0.250000  0.676299  0.823701  1
