# generated using pymatgen
data_Sr2Zn3Au14
_symmetry_space_group_name_H-M   'P 1'
_cell_length_a   7.27594155
_cell_length_b   7.27594179
_cell_length_c   7.27770278
_cell_angle_alpha   97.16793818
_cell_angle_beta   97.16794183
_cell_angle_gamma   82.76432232
_symmetry_Int_Tables_number   1
_chemical_formula_structural   Sr2Zn3Au14
_chemical_formula_sum   'Sr2 Zn3 Au14'
_cell_volume   376.88631714
_cell_formula_units_Z   1
loop_
 _symmetry_equiv_pos_site_id
 _symmetry_equiv_pos_as_xyz
  1  'x, y, z'
loop_
 _atom_site_type_symbol
 _atom_site_label
 _atom_site_symmetry_multiplicity
 _atom_site_fract_x
 _atom_site_fract_y
 _atom_site_fract_z
 _atom_site_occupancy
  Sr  Sr0  1  0.151334  0.151334  0.347834  1
  Sr  Sr1  1  0.848667  0.848667  0.652166  1
  Zn  Zn2  1  0.500000  0.000000  0.000000  1
  Zn  Zn3  1  0.000000  0.500000  0.000000  1
  Zn  Zn4  1  0.500000  0.500000  0.500000  1
  Au  Au5  1  0.800326  0.199674  0.000000  1
  Au  Au6  1  0.199674  0.800326  0.000000  1
  Au  Au7  1  0.395818  0.395818  0.103491  1
  Au  Au8  1  0.843725  0.843725  0.137221  1
  Au  Au9  1  0.801710  0.500435  0.301857  1
  Au  Au10  1  0.500435  0.801710  0.301857  1
  Au  Au11  1  0.637577  0.156988  0.343202  1
  Au  Au12  1  0.156988  0.637577  0.343202  1
  Au  Au13  1  0.843012  0.362423  0.656798  1
  Au  Au14  1  0.362423  0.843012  0.656798  1
  Au  Au15  1  0.499565  0.198290  0.698143  1
  Au  Au16  1  0.198290  0.499565  0.698143  1
  Au  Au17  1  0.156275  0.156275  0.862779  1
  Au  Au18  1  0.604182  0.604182  0.896509  1
