# generated using pymatgen
data_Hf10CuSn3GePb3
_symmetry_space_group_name_H-M   'P 1'
_cell_length_a   8.68093401
_cell_length_b   8.68190711
_cell_length_c   5.82960201
_cell_angle_alpha   89.99709859
_cell_angle_beta   90.00579687
_cell_angle_gamma   119.99629237
_symmetry_Int_Tables_number   1
_chemical_formula_structural   Hf10CuSn3GePb3
_chemical_formula_sum   'Hf10 Cu1 Sn3 Ge1 Pb3'
_cell_volume   380.51111701
_cell_formula_units_Z   1
loop_
 _symmetry_equiv_pos_site_id
 _symmetry_equiv_pos_as_xyz
  1  'x, y, z'
loop_
 _atom_site_type_symbol
 _atom_site_label
 _atom_site_symmetry_multiplicity
 _atom_site_fract_x
 _atom_site_fract_y
 _atom_site_fract_z
 _atom_site_occupancy
  Hf  Hf0  1  0.331435  0.666646  0.001120  1
  Hf  Hf1  1  0.664591  0.333350  0.498817  1
  Hf  Hf2  1  0.664791  0.333354  0.001120  1
  Hf  Hf3  1  0.331240  0.666650  0.498817  1
  Hf  Hf4  1  0.261469  0.000000  0.250882  1
  Hf  Hf5  1  0.263724  0.259453  0.749421  1
  Hf  Hf6  1  0.004272  0.740547  0.749421  1
  Hf  Hf7  1  0.004261  0.265649  0.250294  1
  Hf  Hf8  1  0.738611  0.734351  0.250294  1
  Hf  Hf9  1  0.736395  0.000000  0.750069  1
  Cu  Cu10  1  0.999296  0.000000  0.499700  1
  Sn  Sn11  1  0.999447  0.611066  0.250113  1
  Sn  Sn12  1  0.388381  0.388934  0.250113  1
  Sn  Sn13  1  0.389551  0.000000  0.749727  1
  Ge  Ge14  1  0.999046  0.000000  0.000377  1
  Pb  Pb15  1  0.612672  0.000000  0.250230  1
  Pb  Pb16  1  0.611466  0.612116  0.749743  1
  Pb  Pb17  1  0.999350  0.387884  0.749743  1
