# generated using pymatgen
data_Nb6Al7Cu5
_symmetry_space_group_name_H-M   'P 1'
_cell_length_a   8.74529600
_cell_length_b   8.73894673
_cell_length_c   8.10427600
_cell_angle_alpha   90.00000000
_cell_angle_beta   90.00000000
_cell_angle_gamma   120.45307946
_symmetry_Int_Tables_number   1
_chemical_formula_structural   Nb6Al7Cu5
_chemical_formula_sum   'Nb12 Al14 Cu10'
_cell_volume   533.92163091
_cell_formula_units_Z   2
loop_
 _symmetry_equiv_pos_site_id
 _symmetry_equiv_pos_as_xyz
  1  'x, y, z'
loop_
 _atom_site_type_symbol
 _atom_site_label
 _atom_site_symmetry_multiplicity
 _atom_site_fract_x
 _atom_site_fract_y
 _atom_site_fract_z
 _atom_site_occupancy
  Nb  Nb0  1  0.327954  0.995513  0.066904  1
  Nb  Nb1  1  0.672046  0.004487  0.933096  1
  Nb  Nb2  1  0.995443  0.331059  0.064036  1
  Nb  Nb3  1  0.672046  0.004487  0.566904  1
  Nb  Nb4  1  0.995443  0.331059  0.435964  1
  Nb  Nb5  1  0.004557  0.668941  0.935964  1
  Nb  Nb6  1  0.327954  0.995513  0.433096  1
  Nb  Nb7  1  0.004557  0.668941  0.564036  1
  Nb  Nb8  1  0.664648  0.666314  0.066376  1
  Nb  Nb9  1  0.335352  0.333686  0.933624  1
  Nb  Nb10  1  0.335352  0.333686  0.566376  1
  Nb  Nb11  1  0.664648  0.666314  0.433624  1
  Al  Al12  1  0.841599  0.345038  0.750000  1
  Al  Al13  1  0.158401  0.654962  0.250000  1
  Al  Al14  1  0.340465  0.667362  0.507052  1
  Al  Al15  1  0.659535  0.332638  0.492948  1
  Al  Al16  1  0.659535  0.332638  0.007052  1
  Al  Al17  1  0.340465  0.667362  0.992948  1
  Al  Al18  1  0.189357  0.999072  0.750000  1
  Al  Al19  1  0.810643  0.000928  0.250000  1
  Al  Al20  1  0.009470  0.183826  0.750000  1
  Al  Al21  1  0.990530  0.816174  0.250000  1
  Al  Al22  1  0.814608  0.811176  0.750000  1
  Al  Al23  1  0.185392  0.188824  0.250000  1
  Al  Al24  1  0.000000  0.000000  0.500000  1
  Al  Al25  1  0.000000  0.000000  0.000000  1
  Cu  Cu26  1  0.164015  0.500078  0.750000  1
  Cu  Cu27  1  0.835985  0.499922  0.250000  1
  Cu  Cu28  1  0.502309  0.660581  0.750000  1
  Cu  Cu29  1  0.504829  0.164568  0.750000  1
  Cu  Cu30  1  0.497691  0.339419  0.250000  1
  Cu  Cu31  1  0.495171  0.835432  0.250000  1
  Cu  Cu32  1  0.343046  0.839519  0.750000  1
  Cu  Cu33  1  0.662160  0.496666  0.750000  1
  Cu  Cu34  1  0.656954  0.160481  0.250000  1
  Cu  Cu35  1  0.337840  0.503334  0.250000  1
