# generated using pymatgen
data_La4ErB4Pd7Rh8
_symmetry_space_group_name_H-M   'P 1'
_cell_length_a   4.27492400
_cell_length_b   4.27492400
_cell_length_c   21.37070800
_cell_angle_alpha   90.00000000
_cell_angle_beta   90.00000000
_cell_angle_gamma   90.00000000
_symmetry_Int_Tables_number   1
_chemical_formula_structural   La4ErB4Pd7Rh8
_chemical_formula_sum   'La4 Er1 B4 Pd7 Rh8'
_cell_volume   390.54915883
_cell_formula_units_Z   1
loop_
 _symmetry_equiv_pos_site_id
 _symmetry_equiv_pos_as_xyz
  1  'x, y, z'
loop_
 _atom_site_type_symbol
 _atom_site_label
 _atom_site_symmetry_multiplicity
 _atom_site_fract_x
 _atom_site_fract_y
 _atom_site_fract_z
 _atom_site_occupancy
  La  La0  1  0.000000  0.000000  0.898770  1
  La  La1  1  0.000000  0.000000  0.101230  1
  La  La2  1  0.000000  0.000000  0.303431  1
  La  La3  1  0.000000  0.000000  0.696569  1
  Er  Er4  1  0.000000  0.000000  0.500000  1
  B  B5  1  0.500000  0.500000  0.189175  1
  B  B6  1  0.500000  0.500000  0.398100  1
  B  B7  1  0.500000  0.500000  0.601900  1
  B  B8  1  0.500000  0.500000  0.810825  1
  Pd  Pd9  1  0.500000  0.500000  0.909621  1
  Pd  Pd10  1  0.500000  0.500000  0.090379  1
  Pd  Pd11  1  0.500000  0.500000  0.297515  1
  Pd  Pd12  1  0.500000  0.500000  0.500000  1
  Pd  Pd13  1  0.500000  0.500000  0.702485  1
  Pd  Pd14  1  0.500000  0.000000  0.000000  1
  Pd  Pd15  1  0.000000  0.500000  0.000000  1
  Rh  Rh16  1  0.500000  0.000000  0.202163  1
  Rh  Rh17  1  0.500000  0.000000  0.405110  1
  Rh  Rh18  1  0.500000  0.000000  0.594890  1
  Rh  Rh19  1  0.500000  0.000000  0.797837  1
  Rh  Rh20  1  0.000000  0.500000  0.202163  1
  Rh  Rh21  1  0.000000  0.500000  0.405110  1
  Rh  Rh22  1  0.000000  0.500000  0.594890  1
  Rh  Rh23  1  0.000000  0.500000  0.797837  1
