# generated using pymatgen
data_Yb2Y6Cu3Si12Pd
_symmetry_space_group_name_H-M   'P 1'
_cell_length_a   8.11041100
_cell_length_b   8.02296346
_cell_length_c   8.16260702
_cell_angle_alpha   89.99304170
_cell_angle_beta   90.00000000
_cell_angle_gamma   120.36120507
_symmetry_Int_Tables_number   1
_chemical_formula_structural   Yb2Y6Cu3Si12Pd
_chemical_formula_sum   'Yb2 Y6 Cu3 Si12 Pd1'
_cell_volume   458.29480932
_cell_formula_units_Z   1
loop_
 _symmetry_equiv_pos_site_id
 _symmetry_equiv_pos_as_xyz
  1  'x, y, z'
loop_
 _atom_site_type_symbol
 _atom_site_label
 _atom_site_symmetry_multiplicity
 _atom_site_fract_x
 _atom_site_fract_y
 _atom_site_fract_z
 _atom_site_occupancy
  Yb  Yb0  1  0.500788  0.001576  0.250153  1
  Yb  Yb1  1  0.500369  0.000739  0.749843  1
  Y  Y2  1  0.998062  0.499268  0.250248  1
  Y  Y3  1  0.998765  0.499587  0.749740  1
  Y  Y4  1  0.501206  0.499268  0.250248  1
  Y  Y5  1  0.500822  0.499587  0.749740  1
  Y  Y6  1  0.000115  0.000230  0.249789  1
  Y  Y7  1  0.000140  0.000279  0.750186  1
  Cu  Cu8  1  0.335407  0.670815  0.000787  1
  Cu  Cu9  1  0.664375  0.328749  0.999142  1
  Cu  Cu10  1  0.665110  0.330219  0.500551  1
  Si  Si11  1  0.170211  0.340421  0.999921  1
  Si  Si12  1  0.830107  0.660213  0.000083  1
  Si  Si13  1  0.663270  0.829319  0.000040  1
  Si  Si14  1  0.830913  0.661825  0.500111  1
  Si  Si15  1  0.335883  0.170290  0.999947  1
  Si  Si16  1  0.166334  0.332667  0.499826  1
  Si  Si17  1  0.166050  0.829319  0.000040  1
  Si  Si18  1  0.336622  0.170226  0.500197  1
  Si  Si19  1  0.834407  0.170290  0.999947  1
  Si  Si20  1  0.668894  0.832461  0.499800  1
  Si  Si21  1  0.833606  0.170226  0.500197  1
  Si  Si22  1  0.163568  0.832461  0.499800  1
  Pd  Pd23  1  0.334980  0.669961  0.499663  1
