# generated using pymatgen
data_Tb3Er7Bi6
_symmetry_space_group_name_H-M   'P 1'
_cell_length_a   8.25007100
_cell_length_b   9.50235518
_cell_length_c   11.99756322
_cell_angle_alpha   89.97793056
_cell_angle_beta   90.00000000
_cell_angle_gamma   90.00000000
_symmetry_Int_Tables_number   1
_chemical_formula_structural   Tb3Er7Bi6
_chemical_formula_sum   'Tb6 Er14 Bi12'
_cell_volume   940.55015725
_cell_formula_units_Z   2
loop_
 _symmetry_equiv_pos_site_id
 _symmetry_equiv_pos_as_xyz
  1  'x, y, z'
loop_
 _atom_site_type_symbol
 _atom_site_label
 _atom_site_symmetry_multiplicity
 _atom_site_fract_x
 _atom_site_fract_y
 _atom_site_fract_z
 _atom_site_occupancy
  Tb  Tb0  1  0.693701  0.936161  0.058780  1
  Tb  Tb1  1  0.193701  0.563839  0.441220  1
  Tb  Tb2  1  0.312686  0.250030  0.219191  1
  Tb  Tb3  1  0.812686  0.249970  0.280809  1
  Tb  Tb4  1  0.687463  0.749834  0.780686  1
  Tb  Tb5  1  0.187463  0.750166  0.719314  1
  Er  Er6  1  0.352879  0.749990  0.215716  1
  Er  Er7  1  0.852879  0.750010  0.284284  1
  Er  Er8  1  0.647392  0.249852  0.784352  1
  Er  Er9  1  0.147392  0.250148  0.715648  1
  Er  Er10  1  0.693491  0.564016  0.058728  1
  Er  Er11  1  0.193491  0.935984  0.441272  1
  Er  Er12  1  0.306559  0.064463  0.941372  1
  Er  Er13  1  0.806559  0.435537  0.558628  1
  Er  Er14  1  0.306335  0.435663  0.941256  1
  Er  Er15  1  0.806335  0.064337  0.558744  1
  Er  Er16  1  0.475472  0.249784  0.488683  1
  Er  Er17  1  0.975472  0.250216  0.011317  1
  Er  Er18  1  0.525135  0.750264  0.511515  1
  Er  Er19  1  0.025135  0.749736  0.988485  1
  Bi  Bi20  1  0.406871  0.749456  0.957728  1
  Bi  Bi21  1  0.906871  0.750544  0.542272  1
  Bi  Bi22  1  0.592102  0.251355  0.041833  1
  Bi  Bi23  1  0.092102  0.248645  0.458167  1
  Bi  Bi24  1  0.564787  0.994653  0.325715  1
  Bi  Bi25  1  0.064787  0.505347  0.174285  1
  Bi  Bi26  1  0.434979  0.494575  0.674625  1
  Bi  Bi27  1  0.934979  0.005425  0.825375  1
  Bi  Bi28  1  0.434971  0.005466  0.674375  1
  Bi  Bi29  1  0.934971  0.494534  0.825625  1
  Bi  Bi30  1  0.565178  0.505345  0.325428  1
  Bi  Bi31  1  0.065178  0.994655  0.174572  1
