# generated using pymatgen
data_Tb6YCo3Sn23Rh3
_symmetry_space_group_name_H-M   'P 1'
_cell_length_a   9.80080137
_cell_length_b   9.80171874
_cell_length_c   10.06263100
_cell_angle_alpha   90.00894883
_cell_angle_beta   90.01453373
_cell_angle_gamma   119.99985814
_symmetry_Int_Tables_number   1
_chemical_formula_structural   Tb6YCo3Sn23Rh3
_chemical_formula_sum   'Tb6 Y1 Co3 Sn23 Rh3'
_cell_volume   837.15637028
_cell_formula_units_Z   1
loop_
 _symmetry_equiv_pos_site_id
 _symmetry_equiv_pos_as_xyz
  1  'x, y, z'
loop_
 _atom_site_type_symbol
 _atom_site_label
 _atom_site_symmetry_multiplicity
 _atom_site_fract_x
 _atom_site_fract_y
 _atom_site_fract_z
 _atom_site_occupancy
  Tb  Tb0  1  0.477550  0.521144  0.307203  1
  Tb  Tb1  1  0.520826  0.478029  0.693558  1
  Tb  Tb2  1  0.478481  0.957024  0.306926  1
  Tb  Tb3  1  0.521861  0.043580  0.693415  1
  Tb  Tb4  1  0.043783  0.521322  0.306959  1
  Tb  Tb5  1  0.957027  0.477943  0.693682  1
  Y  Y6  1  0.999378  0.998675  0.000623  1
  Co  Co7  1  0.168579  0.335559  0.802931  1
  Co  Co8  1  0.336403  0.169657  0.196877  1
  Co  Co9  1  0.664487  0.832886  0.801268  1
  Sn  Sn10  1  0.350469  0.004467  0.004610  1
  Sn  Sn11  1  0.649467  0.995590  0.994978  1
  Sn  Sn12  1  0.004947  0.349697  0.995085  1
  Sn  Sn13  1  0.000428  0.648526  0.999956  1
  Sn  Sn14  1  0.648777  0.653466  0.995261  1
  Sn  Sn15  1  0.345332  0.345660  0.000057  1
  Sn  Sn16  1  0.335685  0.664302  0.817717  1
  Sn  Sn17  1  0.661327  0.330728  0.180859  1
  Sn  Sn18  1  0.999532  0.999084  0.500297  1
  Sn  Sn19  1  0.779025  0.220679  0.455778  1
  Sn  Sn20  1  0.220645  0.778985  0.544278  1
  Sn  Sn21  1  0.778914  0.557823  0.456368  1
  Sn  Sn22  1  0.218979  0.437894  0.549668  1
  Sn  Sn23  1  0.438369  0.219123  0.451087  1
  Sn  Sn24  1  0.561715  0.780733  0.549522  1
  Sn  Sn25  1  0.333472  0.666981  0.116797  1
  Sn  Sn26  1  0.666868  0.333667  0.883036  1
  Sn  Sn27  1  0.123639  0.887330  0.276763  1
  Sn  Sn28  1  0.883184  0.117728  0.725649  1
  Sn  Sn29  1  0.123441  0.236753  0.277010  1
  Sn  Sn30  1  0.876619  0.763182  0.722569  1
  Sn  Sn31  1  0.760284  0.880767  0.281338  1
  Sn  Sn32  1  0.237205  0.124213  0.722270  1
  Rh  Rh33  1  0.832848  0.168881  0.195786  1
  Rh  Rh34  1  0.169193  0.833940  0.802142  1
  Rh  Rh35  1  0.831259  0.663984  0.197678  1
