# generated using pymatgen
data_Li4La6Pt13
_symmetry_space_group_name_H-M   'P 1'
_cell_length_a   8.45261093
_cell_length_b   8.45261100
_cell_length_c   8.45261100
_cell_angle_alpha   109.47122064
_cell_angle_beta   109.47122081
_cell_angle_gamma   109.47122030
_symmetry_Int_Tables_number   1
_chemical_formula_structural   Li4La6Pt13
_chemical_formula_sum   'Li4 La6 Pt13'
_cell_volume   464.89058856
_cell_formula_units_Z   1
loop_
 _symmetry_equiv_pos_site_id
 _symmetry_equiv_pos_as_xyz
  1  'x, y, z'
loop_
 _atom_site_type_symbol
 _atom_site_label
 _atom_site_symmetry_multiplicity
 _atom_site_fract_x
 _atom_site_fract_y
 _atom_site_fract_z
 _atom_site_occupancy
  Li  Li0  1  0.000000  0.000000  0.500000  1
  Li  Li1  1  0.000000  0.500000  0.000000  1
  Li  Li2  1  0.500000  0.000000  0.000000  1
  Li  Li3  1  0.500000  0.500000  0.500000  1
  La  La4  1  0.693801  0.693801  0.000000  1
  La  La5  1  0.306199  0.000000  0.306199  1
  La  La6  1  0.000000  0.306199  0.306199  1
  La  La7  1  0.306199  0.306199  0.000000  1
  La  La8  1  0.693801  0.000000  0.693801  1
  La  La9  1  0.000000  0.693801  0.693801  1
  Pt  Pt10  1  0.330667  0.330667  0.661334  1
  Pt  Pt11  1  0.669333  0.000000  0.330667  1
  Pt  Pt12  1  0.000000  0.669333  0.330667  1
  Pt  Pt13  1  0.669333  0.330667  0.000000  1
  Pt  Pt14  1  0.330667  0.661334  0.330667  1
  Pt  Pt15  1  0.000000  0.330667  0.669333  1
  Pt  Pt16  1  0.330667  0.669333  0.000000  1
  Pt  Pt17  1  0.330667  0.000000  0.669333  1
  Pt  Pt18  1  0.661334  0.330667  0.330667  1
  Pt  Pt19  1  0.669333  0.669333  0.338666  1
  Pt  Pt20  1  0.669333  0.338666  0.669333  1
  Pt  Pt21  1  0.338666  0.669333  0.669333  1
  Pt  Pt22  1  0.000000  0.000000  0.000000  1
