# generated using pymatgen
data_Ca3Dy12Nb5(ReN4)12
_symmetry_space_group_name_H-M   'P 1'
_cell_length_a   11.21867748
_cell_length_b   11.14025982
_cell_length_c   11.22262013
_cell_angle_alpha   109.25172516
_cell_angle_beta   109.75795160
_cell_angle_gamma   109.24238802
_symmetry_Int_Tables_number   1
_chemical_formula_structural   Ca3Dy12Nb5(ReN4)12
_chemical_formula_sum   'Ca3 Dy12 Nb5 Re12 N48'
_cell_volume   1081.84193965
_cell_formula_units_Z   1
loop_
 _symmetry_equiv_pos_site_id
 _symmetry_equiv_pos_as_xyz
  1  'x, y, z'
loop_
 _atom_site_type_symbol
 _atom_site_label
 _atom_site_symmetry_multiplicity
 _atom_site_fract_x
 _atom_site_fract_y
 _atom_site_fract_z
 _atom_site_occupancy
  Ca  Ca0  1  0.500000  0.500000  0.000000  1
  Ca  Ca1  1  0.500000  0.000000  0.500000  1
  Ca  Ca2  1  0.500000  0.500000  0.500000  1
  Dy  Dy3  1  0.246495  0.375192  0.123062  1
  Dy  Dy4  1  0.373806  0.747961  0.126243  1
  Dy  Dy5  1  0.371483  0.123125  0.243796  1
  Dy  Dy6  1  0.879462  0.628127  0.256939  1
  Dy  Dy7  1  0.750079  0.126745  0.373036  1
  Dy  Dy8  1  0.121910  0.246185  0.375548  1
  Dy  Dy9  1  0.878090  0.753815  0.624452  1
  Dy  Dy10  1  0.249921  0.873255  0.626964  1
  Dy  Dy11  1  0.120538  0.371873  0.743061  1
  Dy  Dy12  1  0.628517  0.876875  0.756204  1
  Dy  Dy13  1  0.626194  0.252039  0.873757  1
  Dy  Dy14  1  0.753505  0.624808  0.876938  1
  Nb  Nb15  1  0.000000  0.000000  0.000000  1
  Nb  Nb16  1  0.500000  0.000000  0.000000  1
  Nb  Nb17  1  0.000000  0.500000  0.000000  1
  Nb  Nb18  1  0.000000  0.000000  0.500000  1
  Nb  Nb19  1  0.000000  0.500000  0.500000  1
  Re  Re20  1  0.873085  0.247518  0.124424  1
  Re  Re21  1  0.757086  0.879801  0.124953  1
  Re  Re22  1  0.628363  0.370733  0.248520  1
  Re  Re23  1  0.122462  0.873048  0.245547  1
  Re  Re24  1  0.239102  0.618573  0.370510  1
  Re  Re25  1  0.628788  0.756197  0.375215  1
  Re  Re26  1  0.371211  0.243803  0.624785  1
  Re  Re27  1  0.760898  0.381427  0.629489  1
  Re  Re28  1  0.877538  0.126952  0.754452  1
  Re  Re29  1  0.371637  0.629266  0.751480  1
  Re  Re30  1  0.242913  0.120199  0.875047  1
  Re  Re31  1  0.126915  0.752481  0.875576  1
  N  N32  1  0.315519  0.901035  0.017928  1
  N  N33  1  0.205576  0.117974  0.023833  1
  N  N34  1  0.888036  0.398474  0.086712  1
  N  N35  1  0.728100  0.702156  0.097804  1
  N  N36  1  0.637708  0.402919  0.103232  1
  N  N37  1  0.977689  0.684088  0.098376  1
  N  N38  1  0.600423  0.908645  0.111273  1
  N  N39  1  0.013433  0.199841  0.114768  1
  N  N40  1  0.207342  0.593540  0.186813  1
  N  N41  1  0.470295  0.600867  0.203453  1
  N  N42  1  0.111730  0.016010  0.202256  1
  N  N43  1  0.589364  0.182047  0.207482  1
  N  N44  1  0.473390  0.369461  0.267436  1
  N  N45  1  0.299654  0.903245  0.270659  1
  N  N46  1  0.902849  0.024434  0.316376  1
  N  N47  1  0.913836  0.297420  0.314945  1
  N  N48  1  0.264436  0.464787  0.363591  1
  N  N49  1  0.598150  0.903352  0.363732  1
  N  N50  1  0.813202  0.521590  0.407368  1
  N  N51  1  0.089732  0.885172  0.401218  1
  N  N52  1  0.091385  0.621370  0.411683  1
  N  N53  1  0.816461  0.789275  0.407342  1
  N  N54  1  0.606628  0.208496  0.475938  1
  N  N55  1  0.364173  0.260843  0.466634  1
  N  N56  1  0.635827  0.739157  0.533366  1
  N  N57  1  0.393373  0.791504  0.524062  1
  N  N58  1  0.183538  0.210724  0.592657  1
  N  N59  1  0.908615  0.378631  0.588316  1
  N  N60  1  0.910268  0.114827  0.598781  1
  N  N61  1  0.186798  0.478410  0.592633  1
  N  N62  1  0.401849  0.096648  0.636269  1
  N  N63  1  0.735564  0.535213  0.636409  1
  N  N64  1  0.086164  0.702580  0.685055  1
  N  N65  1  0.097150  0.975565  0.683624  1
  N  N66  1  0.700346  0.096755  0.729341  1
  N  N67  1  0.526610  0.630539  0.732564  1
  N  N68  1  0.410635  0.817952  0.792517  1
  N  N69  1  0.888271  0.983991  0.797745  1
  N  N70  1  0.529705  0.399134  0.796547  1
  N  N71  1  0.792657  0.406459  0.813186  1
  N  N72  1  0.399576  0.091355  0.888726  1
  N  N73  1  0.986568  0.800160  0.885233  1
  N  N74  1  0.022310  0.315912  0.901623  1
  N  N75  1  0.362293  0.597080  0.896768  1
  N  N76  1  0.271900  0.297844  0.902196  1
  N  N77  1  0.111963  0.601525  0.913288  1
  N  N78  1  0.684481  0.098964  0.982071  1
  N  N79  1  0.794425  0.882027  0.976168  1
