# generated using pymatgen
data_Dy2Tm9ThCo4
_symmetry_space_group_name_H-M   'P 1'
_cell_length_a   6.18552492
_cell_length_b   6.88415786
_cell_length_c   9.36716100
_cell_angle_alpha   90.00000000
_cell_angle_beta   90.00000000
_cell_angle_gamma   91.05112390
_symmetry_Int_Tables_number   1
_chemical_formula_structural   Dy2Tm9ThCo4
_chemical_formula_sum   'Dy2 Tm9 Th1 Co4'
_cell_volume   398.80654692
_cell_formula_units_Z   1
loop_
 _symmetry_equiv_pos_site_id
 _symmetry_equiv_pos_as_xyz
  1  'x, y, z'
loop_
 _atom_site_type_symbol
 _atom_site_label
 _atom_site_symmetry_multiplicity
 _atom_site_fract_x
 _atom_site_fract_y
 _atom_site_fract_z
 _atom_site_occupancy
  Dy  Dy0  1  0.858947  0.543104  0.250000  1
  Dy  Dy1  1  0.639979  0.042131  0.250000  1
  Tm  Tm2  1  0.672180  0.324275  0.933097  1
  Tm  Tm3  1  0.360847  0.958961  0.750000  1
  Tm  Tm4  1  0.175940  0.172195  0.430936  1
  Tm  Tm5  1  0.825650  0.824873  0.568608  1
  Tm  Tm6  1  0.175940  0.172195  0.069064  1
  Tm  Tm7  1  0.825650  0.824873  0.931392  1
  Tm  Tm8  1  0.672180  0.324275  0.566903  1
  Tm  Tm9  1  0.324844  0.676628  0.068368  1
  Tm  Tm10  1  0.324844  0.676628  0.431632  1
  Th  Th11  1  0.150832  0.447479  0.750000  1
  Co  Co12  1  0.535037  0.612406  0.750000  1
  Co  Co13  1  0.956665  0.127384  0.750000  1
  Co  Co14  1  0.049100  0.885557  0.250000  1
  Co  Co15  1  0.451366  0.387036  0.250000  1
