# generated using pymatgen
data_Lu12Th8Si13Te3
_symmetry_space_group_name_H-M   'P 1'
_cell_length_a   7.57609494
_cell_length_b   7.71620072
_cell_length_c   14.73969800
_cell_angle_alpha   89.96239784
_cell_angle_beta   90.02847359
_cell_angle_gamma   90.00687974
_symmetry_Int_Tables_number   1
_chemical_formula_structural   Lu12Th8Si13Te3
_chemical_formula_sum   'Lu12 Th8 Si13 Te3'
_cell_volume   861.66283096
_cell_formula_units_Z   1
loop_
 _symmetry_equiv_pos_site_id
 _symmetry_equiv_pos_as_xyz
  1  'x, y, z'
loop_
 _atom_site_type_symbol
 _atom_site_label
 _atom_site_symmetry_multiplicity
 _atom_site_fract_x
 _atom_site_fract_y
 _atom_site_fract_z
 _atom_site_occupancy
  Lu  Lu0  1  0.357977  0.830885  0.877384  1
  Lu  Lu1  1  0.845553  0.668515  0.625162  1
  Lu  Lu2  1  0.655254  0.169195  0.375044  1
  Lu  Lu3  1  0.158488  0.331471  0.122796  1
  Lu  Lu4  1  0.634336  0.153358  0.124487  1
  Lu  Lu5  1  0.129585  0.340289  0.367785  1
  Lu  Lu6  1  0.372596  0.838071  0.631338  1
  Lu  Lu7  1  0.860915  0.675636  0.873438  1
  Lu  Lu8  1  0.184451  0.493183  0.757301  1
  Lu  Lu9  1  0.687250  0.008331  0.752835  1
  Lu  Lu10  1  0.812502  0.508010  0.252305  1
  Lu  Lu11  1  0.312679  0.992664  0.245262  1
  Th  Th12  1  0.500668  0.313256  0.901487  1
  Th  Th13  1  0.000706  0.178411  0.601062  1
  Th  Th14  1  0.498854  0.678891  0.399372  1
  Th  Th15  1  0.992977  0.827827  0.096087  1
  Th  Th16  1  0.478822  0.687682  0.098740  1
  Th  Th17  1  0.972389  0.816604  0.397791  1
  Th  Th18  1  0.526487  0.314756  0.602773  1
  Th  Th19  1  0.012579  0.174516  0.901577  1
  Si  Si20  1  0.304395  0.038591  0.041224  1
  Si  Si21  1  0.799128  0.461089  0.457100  1
  Si  Si22  1  0.700854  0.960353  0.543405  1
  Si  Si23  1  0.201276  0.538690  0.957109  1
  Si  Si24  1  0.694736  0.958772  0.958698  1
  Si  Si25  1  0.559276  0.610283  0.752125  1
  Si  Si26  1  0.062839  0.884901  0.747883  1
  Si  Si27  1  0.442666  0.383666  0.250671  1
  Si  Si28  1  0.941145  0.116065  0.246604  1
  Si  Si29  1  0.306420  0.128831  0.750213  1
  Si  Si30  1  0.808990  0.371763  0.752780  1
  Si  Si31  1  0.689053  0.868879  0.248310  1
  Si  Si32  1  0.188637  0.632631  0.248492  1
  Te  Te33  1  0.196485  0.543631  0.541931  1
  Te  Te34  1  0.303371  0.044526  0.458370  1
  Te  Te35  1  0.805662  0.455775  0.041060  1
