# generated using pymatgen
data_Er4Tm8Fe2Co3Bi
_symmetry_space_group_name_H-M   'P 1'
_cell_length_a   8.21008807
_cell_length_b   8.21008814
_cell_length_c   8.21008868
_cell_angle_alpha   111.08045800
_cell_angle_beta   111.78281315
_cell_angle_gamma   105.61858294
_symmetry_Int_Tables_number   1
_chemical_formula_structural   Er4Tm8Fe2Co3Bi
_chemical_formula_sum   'Er4 Tm8 Fe2 Co3 Bi1'
_cell_volume   424.56255664
_cell_formula_units_Z   1
loop_
 _symmetry_equiv_pos_site_id
 _symmetry_equiv_pos_as_xyz
  1  'x, y, z'
loop_
 _atom_site_type_symbol
 _atom_site_label
 _atom_site_symmetry_multiplicity
 _atom_site_fract_x
 _atom_site_fract_y
 _atom_site_fract_z
 _atom_site_occupancy
  Er  Er0  1  0.208525  0.405048  0.196524  1
  Er  Er1  1  0.791475  0.594952  0.803476  1
  Er  Er2  1  0.208525  0.012000  0.803476  1
  Er  Er3  1  0.791475  0.988000  0.196524  1
  Tm  Tm4  1  0.284710  0.184871  0.469581  1
  Tm  Tm5  1  0.715290  0.815129  0.530419  1
  Tm  Tm6  1  0.284710  0.815129  0.099839  1
  Tm  Tm7  1  0.715290  0.184871  0.900161  1
  Tm  Tm8  1  0.619001  0.310551  0.308450  1
  Tm  Tm9  1  0.380999  0.689449  0.691550  1
  Tm  Tm10  1  0.002103  0.310551  0.691550  1
  Tm  Tm11  1  0.997897  0.689449  0.308450  1
  Fe  Fe12  1  0.000000  0.382294  0.382294  1
  Fe  Fe13  1  0.000000  0.617706  0.617706  1
  Co  Co14  1  0.388976  0.888976  0.500000  1
  Co  Co15  1  0.611024  0.111024  0.500000  1
  Co  Co16  1  0.000000  0.000000  0.000000  1
  Bi  Bi17  1  0.500000  0.500000  0.000000  1
