# generated using pymatgen
data_Cs3Si4Ag
_symmetry_space_group_name_H-M   'P 1'
_cell_length_a   6.14810700
_cell_length_b   7.23425000
_cell_length_c   13.07676200
_cell_angle_alpha   90.00000000
_cell_angle_beta   90.00000000
_cell_angle_gamma   90.00000000
_symmetry_Int_Tables_number   1
_chemical_formula_structural   Cs3Si4Ag
_chemical_formula_sum   'Cs6 Si8 Ag2'
_cell_volume   581.61439895
_cell_formula_units_Z   2
loop_
 _symmetry_equiv_pos_site_id
 _symmetry_equiv_pos_as_xyz
  1  'x, y, z'
loop_
 _atom_site_type_symbol
 _atom_site_label
 _atom_site_symmetry_multiplicity
 _atom_site_fract_x
 _atom_site_fract_y
 _atom_site_fract_z
 _atom_site_occupancy
  Cs  Cs0  1  0.842695  0.500000  0.267726  1
  Cs  Cs1  1  0.842695  0.500000  0.732274  1
  Cs  Cs2  1  0.426977  0.500000  0.500000  1
  Cs  Cs3  1  0.157305  0.000000  0.232274  1
  Cs  Cs4  1  0.157305  0.000000  0.767726  1
  Cs  Cs5  1  0.573023  0.000000  0.000000  1
  Si  Si6  1  0.072875  0.323166  0.000000  1
  Si  Si7  1  0.330433  0.500000  0.098467  1
  Si  Si8  1  0.669567  0.000000  0.598467  1
  Si  Si9  1  0.072875  0.676834  0.000000  1
  Si  Si10  1  0.927125  0.823166  0.500000  1
  Si  Si11  1  0.669567  0.000000  0.401533  1
  Si  Si12  1  0.330433  0.500000  0.901533  1
  Si  Si13  1  0.927125  0.176834  0.500000  1
  Ag  Ag14  1  0.700267  0.500000  0.000000  1
  Ag  Ag15  1  0.299733  0.000000  0.500000  1
