# generated using pymatgen
data_Zr2B2AsRu5
_symmetry_space_group_name_H-M   'P 1'
_cell_length_a   9.37532500
_cell_length_b   9.37532500
_cell_length_c   3.09144100
_cell_angle_alpha   90.00000000
_cell_angle_beta   90.00000000
_cell_angle_gamma   90.00000000
_symmetry_Int_Tables_number   1
_chemical_formula_structural   Zr2B2AsRu5
_chemical_formula_sum   'Zr4 B4 As2 Ru10'
_cell_volume   271.72752044
_cell_formula_units_Z   2
loop_
 _symmetry_equiv_pos_site_id
 _symmetry_equiv_pos_as_xyz
  1  'x, y, z'
loop_
 _atom_site_type_symbol
 _atom_site_label
 _atom_site_symmetry_multiplicity
 _atom_site_fract_x
 _atom_site_fract_y
 _atom_site_fract_z
 _atom_site_occupancy
  Zr  Zr0  1  0.675156  0.175156  0.000000  1
  Zr  Zr1  1  0.324844  0.824844  0.000000  1
  Zr  Zr2  1  0.175156  0.324844  0.000000  1
  Zr  Zr3  1  0.824844  0.675156  0.000000  1
  B  B4  1  0.123227  0.623227  0.000000  1
  B  B5  1  0.876773  0.376773  0.000000  1
  B  B6  1  0.623227  0.876773  0.000000  1
  B  B7  1  0.376773  0.123227  0.000000  1
  As  As8  1  0.000000  0.000000  0.000000  1
  As  As9  1  0.500000  0.500000  0.000000  1
  Ru  Ru10  1  0.213810  0.069444  0.500000  1
  Ru  Ru11  1  0.786190  0.930556  0.500000  1
  Ru  Ru12  1  0.069444  0.786190  0.500000  1
  Ru  Ru13  1  0.713810  0.430556  0.500000  1
  Ru  Ru14  1  0.930556  0.213810  0.500000  1
  Ru  Ru15  1  0.286190  0.569444  0.500000  1
  Ru  Ru16  1  0.569444  0.713810  0.500000  1
  Ru  Ru17  1  0.430556  0.286190  0.500000  1
  Ru  Ru18  1  0.500000  0.000000  0.500000  1
  Ru  Ru19  1  0.000000  0.500000  0.500000  1
