# generated using pymatgen
data_TbTh11(AlPd5)4
_symmetry_space_group_name_H-M   'P 1'
_cell_length_a   8.36672285
_cell_length_b   8.36672199
_cell_length_c   13.48588900
_cell_angle_alpha   90.08790168
_cell_angle_beta   89.91209148
_cell_angle_gamma   127.07647133
_symmetry_Int_Tables_number   1
_chemical_formula_structural   TbTh11(AlPd5)4
_chemical_formula_sum   'Tb1 Th11 Al4 Pd20'
_cell_volume   753.18364676
_cell_formula_units_Z   1
loop_
 _symmetry_equiv_pos_site_id
 _symmetry_equiv_pos_as_xyz
  1  'x, y, z'
loop_
 _atom_site_type_symbol
 _atom_site_label
 _atom_site_symmetry_multiplicity
 _atom_site_fract_x
 _atom_site_fract_y
 _atom_site_fract_z
 _atom_site_occupancy
  Tb  Tb0  1  0.121901  0.878099  0.447874  1
  Th  Th1  1  0.936290  0.063710  0.252193  1
  Th  Th2  1  0.066418  0.933582  0.748602  1
  Th  Th3  1  0.313085  0.686915  0.251989  1
  Th  Th4  1  0.684862  0.315138  0.749000  1
  Th  Th5  1  0.628664  0.371336  0.466533  1
  Th  Th6  1  0.369886  0.630114  0.531962  1
  Th  Th7  1  0.628564  0.371436  0.032872  1
  Th  Th8  1  0.371102  0.628898  0.967688  1
  Th  Th9  1  0.878053  0.121947  0.946783  1
  Th  Th10  1  0.122127  0.877873  0.053997  1
  Th  Th11  1  0.879740  0.120260  0.551510  1
  Al  Al12  1  0.723409  0.276591  0.249753  1
  Al  Al13  1  0.277351  0.722649  0.750024  1
  Al  Al14  1  0.530292  0.469708  0.249910  1
  Al  Al15  1  0.468806  0.531194  0.749482  1
  Pd  Pd16  1  0.325923  0.071364  0.249968  1
  Pd  Pd17  1  0.070040  0.324730  0.749433  1
  Pd  Pd18  1  0.675270  0.929960  0.749433  1
  Pd  Pd19  1  0.928636  0.674077  0.249968  1
  Pd  Pd20  1  0.575860  0.010535  0.395994  1
  Pd  Pd21  1  0.008128  0.571909  0.604286  1
  Pd  Pd22  1  0.572693  0.008741  0.104144  1
  Pd  Pd23  1  0.008852  0.573480  0.896147  1
  Pd  Pd24  1  0.428091  0.991872  0.604286  1
  Pd  Pd25  1  0.989465  0.424140  0.395994  1
  Pd  Pd26  1  0.426520  0.991148  0.896147  1
  Pd  Pd27  1  0.991259  0.427307  0.104144  1
  Pd  Pd28  1  0.684341  0.737852  0.393220  1
  Pd  Pd29  1  0.738429  0.685565  0.606839  1
  Pd  Pd30  1  0.686505  0.740313  0.107383  1
  Pd  Pd31  1  0.739227  0.686055  0.892498  1
  Pd  Pd32  1  0.314435  0.261571  0.606839  1
  Pd  Pd33  1  0.262148  0.315659  0.393220  1
  Pd  Pd34  1  0.313945  0.260773  0.892498  1
  Pd  Pd35  1  0.259687  0.313495  0.107383  1
