# generated using pymatgen
data_CaTb6NiI12
_symmetry_space_group_name_H-M   'P 1'
_cell_length_a   9.80586746
_cell_length_b   9.80586787
_cell_length_c   9.80586898
_cell_angle_alpha   106.86496983
_cell_angle_beta   106.86496827
_cell_angle_gamma   106.86497042
_symmetry_Int_Tables_number   1
_chemical_formula_structural   CaTb6NiI12
_chemical_formula_sum   'Ca1 Tb6 Ni1 I12'
_cell_volume   788.11713043
_cell_formula_units_Z   1
loop_
 _symmetry_equiv_pos_site_id
 _symmetry_equiv_pos_as_xyz
  1  'x, y, z'
loop_
 _atom_site_type_symbol
 _atom_site_label
 _atom_site_symmetry_multiplicity
 _atom_site_fract_x
 _atom_site_fract_y
 _atom_site_fract_z
 _atom_site_occupancy
  Ca  Ca0  1  0.500000  0.500000  0.500000  1
  Tb  Tb1  1  0.904360  0.974596  0.706048  1
  Tb  Tb2  1  0.706048  0.904360  0.974596  1
  Tb  Tb3  1  0.974596  0.706048  0.904360  1
  Tb  Tb4  1  0.095640  0.025404  0.293952  1
  Tb  Tb5  1  0.293952  0.095640  0.025404  1
  Tb  Tb6  1  0.025404  0.293952  0.095640  1
  Ni  Ni7  1  0.000000  0.000000  0.000000  1
  I  I8  1  0.926645  0.320089  0.776432  1
  I  I9  1  0.776432  0.926645  0.320089  1
  I  I10  1  0.320089  0.776432  0.926645  1
  I  I11  1  0.073355  0.679911  0.223568  1
  I  I12  1  0.223568  0.073355  0.679911  1
  I  I13  1  0.679911  0.223568  0.073355  1
  I  I14  1  0.542448  0.850179  0.620257  1
  I  I15  1  0.620257  0.542448  0.850179  1
  I  I16  1  0.850179  0.620257  0.542448  1
  I  I17  1  0.457552  0.149821  0.379743  1
  I  I18  1  0.379743  0.457552  0.149821  1
  I  I19  1  0.149821  0.379743  0.457552  1
