# generated using pymatgen
data_Ho3AlGa2NiPd2
_symmetry_space_group_name_H-M   'P 1'
_cell_length_a   7.24740828
_cell_length_b   7.19832175
_cell_length_c   3.80075100
_cell_angle_alpha   90.00000000
_cell_angle_beta   90.00000000
_cell_angle_gamma   119.77620498
_symmetry_Int_Tables_number   1
_chemical_formula_structural   Ho3AlGa2NiPd2
_chemical_formula_sum   'Ho3 Al1 Ga2 Ni1 Pd2'
_cell_volume   172.10322261
_cell_formula_units_Z   1
loop_
 _symmetry_equiv_pos_site_id
 _symmetry_equiv_pos_as_xyz
  1  'x, y, z'
loop_
 _atom_site_type_symbol
 _atom_site_label
 _atom_site_symmetry_multiplicity
 _atom_site_fract_x
 _atom_site_fract_y
 _atom_site_fract_z
 _atom_site_occupancy
  Ho  Ho0  1  0.000000  0.601441  0.500000  1
  Ho  Ho1  1  0.592172  0.996432  0.500000  1
  Ho  Ho2  1  0.407828  0.404260  0.500000  1
  Al  Al3  1  0.000000  0.234329  0.000000  1
  Ga  Ga4  1  0.240800  0.002993  0.000000  1
  Ga  Ga5  1  0.759200  0.762193  0.000000  1
  Ni  Ni6  1  0.000000  0.005002  0.500000  1
  Pd  Pd7  1  0.327366  0.660359  0.000000  1
  Pd  Pd8  1  0.672634  0.332993  0.000000  1
