# generated using pymatgen
data_Y5Ho11MgHg3Ir4
_symmetry_space_group_name_H-M   'P 1'
_cell_length_a   9.62825628
_cell_length_b   9.60402088
_cell_length_c   9.60402047
_cell_angle_alpha   59.89821519
_cell_angle_beta   59.93191448
_cell_angle_gamma   59.93190869
_symmetry_Int_Tables_number   1
_chemical_formula_structural   Y5Ho11MgHg3Ir4
_chemical_formula_sum   'Y5 Ho11 Mg1 Hg3 Ir4'
_cell_volume   626.83983858
_cell_formula_units_Z   1
loop_
 _symmetry_equiv_pos_site_id
 _symmetry_equiv_pos_as_xyz
  1  'x, y, z'
loop_
 _atom_site_type_symbol
 _atom_site_label
 _atom_site_symmetry_multiplicity
 _atom_site_fract_x
 _atom_site_fract_y
 _atom_site_fract_z
 _atom_site_occupancy
  Y  Y0  1  0.810103  0.188768  0.188768  1
  Y  Y1  1  0.811139  0.189600  0.812080  1
  Y  Y2  1  0.187781  0.810438  0.189398  1
  Y  Y3  1  0.811139  0.812080  0.189600  1
  Y  Y4  1  0.187781  0.189398  0.810438  1
  Ho  Ho5  1  0.598654  0.597352  0.597352  1
  Ho  Ho6  1  0.600095  0.598520  0.205265  1
  Ho  Ho7  1  0.600095  0.205265  0.598520  1
  Ho  Ho8  1  0.193784  0.602508  0.602508  1
  Ho  Ho9  1  0.057778  0.441228  0.441228  1
  Ho  Ho10  1  0.435591  0.061962  0.061962  1
  Ho  Ho11  1  0.437213  0.061093  0.439061  1
  Ho  Ho12  1  0.057970  0.440021  0.058997  1
  Ho  Ho13  1  0.437213  0.439061  0.061093  1
  Ho  Ho14  1  0.057970  0.058997  0.440021  1
  Ho  Ho15  1  0.188964  0.810246  0.810246  1
  Mg  Mg16  1  0.535638  0.820841  0.820841  1
  Hg  Hg17  1  0.832509  0.836058  0.836058  1
  Hg  Hg18  1  0.832350  0.836513  0.494345  1
  Hg  Hg19  1  0.832350  0.494345  0.836513  1
  Ir  Ir20  1  0.389091  0.393291  0.393291  1
  Ir  Ir21  1  0.389455  0.394987  0.825043  1
  Ir  Ir22  1  0.389455  0.825043  0.394987  1
  Ir  Ir23  1  0.825878  0.392383  0.392383  1
