# generated using pymatgen
data_Nd6UO12
_symmetry_space_group_name_H-M   'P 1'
_cell_length_a   6.82086856
_cell_length_b   6.82086854
_cell_length_c   6.82086957
_cell_angle_alpha   98.78835865
_cell_angle_beta   98.78835138
_cell_angle_gamma   98.78837130
_symmetry_Int_Tables_number   1
_chemical_formula_structural   Nd6UO12
_chemical_formula_sum   'Nd6 U1 O12'
_cell_volume   304.84679988
_cell_formula_units_Z   1
loop_
 _symmetry_equiv_pos_site_id
 _symmetry_equiv_pos_as_xyz
  1  'x, y, z'
loop_
 _atom_site_type_symbol
 _atom_site_label
 _atom_site_symmetry_multiplicity
 _atom_site_fract_x
 _atom_site_fract_y
 _atom_site_fract_z
 _atom_site_occupancy
  Nd  Nd0  1  0.315460  0.610550  0.145428  1
  Nd  Nd1  1  0.610550  0.145428  0.315460  1
  Nd  Nd2  1  0.389450  0.854572  0.684540  1
  Nd  Nd3  1  0.684540  0.389450  0.854572  1
  Nd  Nd4  1  0.854572  0.684540  0.389450  1
  Nd  Nd5  1  0.145428  0.315460  0.610550  1
  U  U6  1  0.000000  0.000000  0.000000  1
  O  O7  1  0.435498  0.177583  0.590214  1
  O  O8  1  0.928933  0.700038  0.044464  1
  O  O9  1  0.177583  0.590214  0.435498  1
  O  O10  1  0.822417  0.409786  0.564502  1
  O  O11  1  0.564502  0.822417  0.409786  1
  O  O12  1  0.590214  0.435498  0.177583  1
  O  O13  1  0.409786  0.564502  0.822417  1
  O  O14  1  0.955536  0.071067  0.299962  1
  O  O15  1  0.044464  0.928933  0.700038  1
  O  O16  1  0.700038  0.044464  0.928933  1
  O  O17  1  0.071067  0.299962  0.955536  1
  O  O18  1  0.299962  0.955536  0.071067  1
