# generated using pymatgen
data_NaMnCr(Sb6Pt)2
_symmetry_space_group_name_H-M   'P 1'
_cell_length_a   8.13868545
_cell_length_b   8.21350829
_cell_length_c   8.18999588
_cell_angle_alpha   109.51017779
_cell_angle_beta   109.20567971
_cell_angle_gamma   109.48917390
_symmetry_Int_Tables_number   1
_chemical_formula_structural   NaMnCr(Sb6Pt)2
_chemical_formula_sum   'Na1 Mn1 Cr1 Sb12 Pt2'
_cell_volume   422.52759864
_cell_formula_units_Z   1
loop_
 _symmetry_equiv_pos_site_id
 _symmetry_equiv_pos_as_xyz
  1  'x, y, z'
loop_
 _atom_site_type_symbol
 _atom_site_label
 _atom_site_symmetry_multiplicity
 _atom_site_fract_x
 _atom_site_fract_y
 _atom_site_fract_z
 _atom_site_occupancy
  Na  Na0  1  0.000000  0.000000  0.000000  1
  Mn  Mn1  1  0.500000  0.500000  0.500000  1
  Cr  Cr2  1  0.500000  0.000000  0.000000  1
  Sb  Sb3  1  0.653499  0.810784  0.151377  1
  Sb  Sb4  1  0.843354  0.341046  0.188955  1
  Sb  Sb5  1  0.507603  0.831290  0.660208  1
  Sb  Sb6  1  0.834282  0.653759  0.506812  1
  Sb  Sb7  1  0.492397  0.168710  0.339792  1
  Sb  Sb8  1  0.156646  0.658954  0.811045  1
  Sb  Sb9  1  0.803244  0.151357  0.652649  1
  Sb  Sb10  1  0.196756  0.848643  0.347351  1
  Sb  Sb11  1  0.165718  0.346241  0.493188  1
  Sb  Sb12  1  0.651934  0.506512  0.832343  1
  Sb  Sb13  1  0.348066  0.493488  0.167657  1
  Sb  Sb14  1  0.346501  0.189216  0.848623  1
  Pt  Pt15  1  0.000000  0.000000  0.500000  1
  Pt  Pt16  1  0.000000  0.500000  0.000000  1
