# generated using pymatgen
data_LiYHgPt3
_symmetry_space_group_name_H-M   'P 1'
_cell_length_a   5.46802290
_cell_length_b   5.46802342
_cell_length_c   5.18844671
_cell_angle_alpha   58.20092232
_cell_angle_beta   58.20092627
_cell_angle_gamma   60.00001026
_symmetry_Int_Tables_number   1
_chemical_formula_structural   LiYHgPt3
_chemical_formula_sum   'Li1 Y1 Hg1 Pt3'
_cell_volume   106.61585283
_cell_formula_units_Z   1
loop_
 _symmetry_equiv_pos_site_id
 _symmetry_equiv_pos_as_xyz
  1  'x, y, z'
loop_
 _atom_site_type_symbol
 _atom_site_label
 _atom_site_symmetry_multiplicity
 _atom_site_fract_x
 _atom_site_fract_y
 _atom_site_fract_z
 _atom_site_occupancy
  Li  Li0  1  0.622717  0.622717  0.131848  1
  Y  Y1  1  0.004437  0.004437  0.986688  1
  Hg  Hg2  1  0.251588  0.251588  0.245236  1
  Pt  Pt3  1  0.623341  0.124574  0.628742  1
  Pt  Pt4  1  0.623341  0.623341  0.628742  1
  Pt  Pt5  1  0.124574  0.623341  0.628742  1
