# generated using pymatgen
data_Y8Er2Os3Ru
_symmetry_space_group_name_H-M   'P 1'
_cell_length_a   6.37066860
_cell_length_b   7.36189058
_cell_length_c   8.46528846
_cell_angle_alpha   96.78276016
_cell_angle_beta   112.21562898
_cell_angle_gamma   90.02687695
_symmetry_Int_Tables_number   1
_chemical_formula_structural   Y8Er2Os3Ru
_chemical_formula_sum   'Y8 Er2 Os3 Ru1'
_cell_volume   364.53896419
_cell_formula_units_Z   1
loop_
 _symmetry_equiv_pos_site_id
 _symmetry_equiv_pos_as_xyz
  1  'x, y, z'
loop_
 _atom_site_type_symbol
 _atom_site_label
 _atom_site_symmetry_multiplicity
 _atom_site_fract_x
 _atom_site_fract_y
 _atom_site_fract_z
 _atom_site_occupancy
  Y  Y0  1  0.794388  0.583599  0.816869  1
  Y  Y1  1  0.975242  0.916509  0.182351  1
  Y  Y2  1  0.207779  0.417283  0.186372  1
  Y  Y3  1  0.024719  0.084636  0.818437  1
  Y  Y4  1  0.203955  0.683221  0.565951  1
  Y  Y5  1  0.639851  0.817439  0.435188  1
  Y  Y6  1  0.794014  0.316045  0.432923  1
  Y  Y7  1  0.361254  0.181466  0.564376  1
  Er  Er8  1  0.423141  0.749878  0.999905  1
  Er  Er9  1  0.577565  0.250239  0.000345  1
  Os  Os10  1  0.602149  0.923802  0.784114  1
  Os  Os11  1  0.817222  0.576275  0.216333  1
  Os  Os12  1  0.397571  0.076307  0.214967  1
  Ru  Ru13  1  0.181150  0.423301  0.781870  1
