# generated using pymatgen
data_Er14TmTh(CdNi)4
_symmetry_space_group_name_H-M   'P 1'
_cell_length_a   9.47241276
_cell_length_b   9.47241276
_cell_length_c   9.46975805
_cell_angle_alpha   60.19582748
_cell_angle_beta   60.19582592
_cell_angle_gamma   60.14463425
_symmetry_Int_Tables_number   1
_chemical_formula_structural   Er14TmTh(CdNi)4
_chemical_formula_sum   'Er14 Tm1 Th1 Cd4 Ni4'
_cell_volume   603.25305913
_cell_formula_units_Z   1
loop_
 _symmetry_equiv_pos_site_id
 _symmetry_equiv_pos_as_xyz
  1  'x, y, z'
loop_
 _atom_site_type_symbol
 _atom_site_label
 _atom_site_symmetry_multiplicity
 _atom_site_fract_x
 _atom_site_fract_y
 _atom_site_fract_z
 _atom_site_occupancy
  Er  Er0  1  0.349543  0.947922  0.349688  1
  Er  Er1  1  0.947922  0.349543  0.349688  1
  Er  Er2  1  0.813615  0.188500  0.188758  1
  Er  Er3  1  0.189844  0.813022  0.813233  1
  Er  Er4  1  0.188500  0.813615  0.188758  1
  Er  Er5  1  0.813022  0.189844  0.813233  1
  Er  Er6  1  0.189111  0.189111  0.812702  1
  Er  Er7  1  0.812925  0.812925  0.190509  1
  Er  Er8  1  0.936508  0.565683  0.565920  1
  Er  Er9  1  0.563395  0.937969  0.937886  1
  Er  Er10  1  0.565683  0.936508  0.565920  1
  Er  Er11  1  0.937969  0.563395  0.937886  1
  Er  Er12  1  0.566205  0.566205  0.936793  1
  Er  Er13  1  0.937294  0.937294  0.563974  1
  Tm  Tm14  1  0.350184  0.350184  0.948072  1
  Th  Th15  1  0.343382  0.343382  0.342593  1
  Cd  Cd16  1  0.580517  0.580517  0.582171  1
  Cd  Cd17  1  0.581306  0.581306  0.255336  1
  Cd  Cd18  1  0.581473  0.254931  0.581458  1
  Cd  Cd19  1  0.254931  0.581473  0.581458  1
  Ni  Ni20  1  0.144682  0.144682  0.140786  1
  Ni  Ni21  1  0.140790  0.140790  0.571086  1
  Ni  Ni22  1  0.139210  0.571990  0.141047  1
  Ni  Ni23  1  0.571990  0.139210  0.141047  1
