# generated using pymatgen
data_Zr4Al2IrRh9
_symmetry_space_group_name_H-M   'P 1'
_cell_length_a   5.57865546
_cell_length_b   5.57865530
_cell_length_c   8.18762900
_cell_angle_alpha   89.99991589
_cell_angle_beta   89.99991690
_cell_angle_gamma   97.52335329
_symmetry_Int_Tables_number   1
_chemical_formula_structural   Zr4Al2IrRh9
_chemical_formula_sum   'Zr4 Al2 Ir1 Rh9'
_cell_volume   252.61692739
_cell_formula_units_Z   1
loop_
 _symmetry_equiv_pos_site_id
 _symmetry_equiv_pos_as_xyz
  1  'x, y, z'
loop_
 _atom_site_type_symbol
 _atom_site_label
 _atom_site_symmetry_multiplicity
 _atom_site_fract_x
 _atom_site_fract_y
 _atom_site_fract_z
 _atom_site_occupancy
  Zr  Zr0  1  0.779413  0.220588  0.500793  1
  Zr  Zr1  1  0.220589  0.779410  0.999206  1
  Zr  Zr2  1  0.220588  0.779413  0.500793  1
  Zr  Zr3  1  0.779410  0.220589  0.999206  1
  Al  Al4  1  0.500322  0.500322  0.750000  1
  Al  Al5  1  0.499680  0.499680  0.250000  1
  Ir  Ir6  1  0.000088  0.000088  0.250001  1
  Rh  Rh7  1  0.715299  0.715299  0.001204  1
  Rh  Rh8  1  0.715300  0.715300  0.498791  1
  Rh  Rh9  1  0.284703  0.284703  0.000931  1
  Rh  Rh10  1  0.284702  0.284702  0.499072  1
  Rh  Rh11  1  0.499972  0.000075  0.750001  1
  Rh  Rh12  1  0.500021  0.999928  0.250000  1
  Rh  Rh13  1  0.999913  0.999913  0.749999  1
  Rh  Rh14  1  0.000075  0.499972  0.750001  1
  Rh  Rh15  1  0.999928  0.500021  0.250000  1
