# generated using pymatgen
data_Li3Ho4Si8Rh
_symmetry_space_group_name_H-M   'P 1'
_cell_length_a   3.80452500
_cell_length_b   7.45543822
_cell_length_c   10.05973280
_cell_angle_alpha   90.12419113
_cell_angle_beta   90.00000000
_cell_angle_gamma   90.00000000
_symmetry_Int_Tables_number   1
_chemical_formula_structural   Li3Ho4Si8Rh
_chemical_formula_sum   'Li3 Ho4 Si8 Rh1'
_cell_volume   285.33762580
_cell_formula_units_Z   1
loop_
 _symmetry_equiv_pos_site_id
 _symmetry_equiv_pos_as_xyz
  1  'x, y, z'
loop_
 _atom_site_type_symbol
 _atom_site_label
 _atom_site_symmetry_multiplicity
 _atom_site_fract_x
 _atom_site_fract_y
 _atom_site_fract_z
 _atom_site_occupancy
  Li  Li0  1  0.250000  0.490382  0.108935  1
  Li  Li1  1  0.750000  0.009378  0.604890  1
  Li  Li2  1  0.750000  0.505175  0.891688  1
  Ho  Ho3  1  0.250000  0.138250  0.866091  1
  Ho  Ho4  1  0.250000  0.641996  0.628129  1
  Ho  Ho5  1  0.750000  0.861347  0.135585  1
  Ho  Ho6  1  0.750000  0.369065  0.367376  1
  Si  Si7  1  0.250000  0.218978  0.563856  1
  Si  Si8  1  0.250000  0.732052  0.929629  1
  Si  Si9  1  0.750000  0.783815  0.432544  1
  Si  Si10  1  0.750000  0.261995  0.073054  1
  Si  Si11  1  0.250000  0.662332  0.320854  1
  Si  Si12  1  0.250000  0.153937  0.191260  1
  Si  Si13  1  0.750000  0.339887  0.675643  1
  Si  Si14  1  0.750000  0.844195  0.816775  1
  Rh  Rh15  1  0.250000  0.987215  0.393689  1
