# generated using pymatgen
data_Zr8CrSi16Mo11
_symmetry_space_group_name_H-M   'P 1'
_cell_length_a   6.74836691
_cell_length_b   6.74836706
_cell_length_c   12.46114186
_cell_angle_alpha   90.00192689
_cell_angle_beta   89.99807026
_cell_angle_gamma   90.19042911
_symmetry_Int_Tables_number   1
_chemical_formula_structural   Zr8CrSi16Mo11
_chemical_formula_sum   'Zr8 Cr1 Si16 Mo11'
_cell_volume   567.48295898
_cell_formula_units_Z   1
loop_
 _symmetry_equiv_pos_site_id
 _symmetry_equiv_pos_as_xyz
  1  'x, y, z'
loop_
 _atom_site_type_symbol
 _atom_site_label
 _atom_site_symmetry_multiplicity
 _atom_site_fract_x
 _atom_site_fract_y
 _atom_site_fract_z
 _atom_site_occupancy
  Zr  Zr0  1  0.005028  0.662564  0.032820  1
  Zr  Zr1  1  0.994098  0.337540  0.532620  1
  Zr  Zr2  1  0.662564  0.005028  0.967180  1
  Zr  Zr3  1  0.161058  0.497086  0.782628  1
  Zr  Zr4  1  0.839529  0.506162  0.282504  1
  Zr  Zr5  1  0.497086  0.161058  0.217372  1
  Zr  Zr6  1  0.506162  0.839529  0.717496  1
  Zr  Zr7  1  0.337540  0.994098  0.467380  1
  Cr  Cr8  1  0.330708  0.330708  0.000000  1
  Si  Si9  1  0.036957  0.711952  0.436271  1
  Si  Si10  1  0.963598  0.292502  0.935470  1
  Si  Si11  1  0.711952  0.036957  0.563729  1
  Si  Si12  1  0.212858  0.461014  0.184348  1
  Si  Si13  1  0.788180  0.537451  0.686377  1
  Si  Si14  1  0.461014  0.212858  0.815652  1
  Si  Si15  1  0.537451  0.788180  0.313623  1
  Si  Si16  1  0.292502  0.963598  0.064530  1
  Si  Si17  1  0.874036  0.796105  0.821138  1
  Si  Si18  1  0.125420  0.203889  0.319622  1
  Si  Si19  1  0.796105  0.874036  0.178862  1
  Si  Si20  1  0.296106  0.624296  0.570868  1
  Si  Si21  1  0.704171  0.372308  0.069479  1
  Si  Si22  1  0.624296  0.296106  0.429132  1
  Si  Si23  1  0.372308  0.704171  0.930521  1
  Si  Si24  1  0.203889  0.125420  0.680378  1
  Mo  Mo25  1  0.331998  0.493734  0.377999  1
  Mo  Mo26  1  0.832688  0.007482  0.370228  1
  Mo  Mo27  1  0.997978  0.166461  0.125382  1
  Mo  Mo28  1  0.007482  0.832688  0.629772  1
  Mo  Mo29  1  0.660652  0.505170  0.879728  1
  Mo  Mo30  1  0.493734  0.331998  0.622001  1
  Mo  Mo31  1  0.505170  0.660652  0.120272  1
  Mo  Mo32  1  0.166461  0.997978  0.874618  1
  Mo  Mo33  1  0.669243  0.669243  0.500000  1
  Mo  Mo34  1  0.831156  0.168819  0.749805  1
  Mo  Mo35  1  0.168819  0.831156  0.250195  1
