# generated using pymatgen
data_Sc4Cd2Ni3Au
_symmetry_space_group_name_H-M   'P 1'
_cell_length_a   7.38779139
_cell_length_b   7.38779139
_cell_length_c   3.27841400
_cell_angle_alpha   90.00000000
_cell_angle_beta   90.00000000
_cell_angle_gamma   88.71375965
_symmetry_Int_Tables_number   1
_chemical_formula_structural   Sc4Cd2Ni3Au
_chemical_formula_sum   'Sc4 Cd2 Ni3 Au1'
_cell_volume   178.88898498
_cell_formula_units_Z   1
loop_
 _symmetry_equiv_pos_site_id
 _symmetry_equiv_pos_as_xyz
  1  'x, y, z'
loop_
 _atom_site_type_symbol
 _atom_site_label
 _atom_site_symmetry_multiplicity
 _atom_site_fract_x
 _atom_site_fract_y
 _atom_site_fract_z
 _atom_site_occupancy
  Sc  Sc0  1  0.311146  0.163574  0.499999  1
  Sc  Sc1  1  0.851007  0.351007  0.499999  1
  Sc  Sc2  1  0.170405  0.670405  0.499999  1
  Sc  Sc3  1  0.663574  0.811146  0.499999  1
  Cd  Cd4  1  0.001797  0.994922  0.000000  1
  Cd  Cd5  1  0.494922  0.501797  0.000000  1
  Ni  Ni6  1  0.128091  0.381396  0.000000  1
  Ni  Ni7  1  0.881395  0.628091  0.000000  1
  Ni  Ni8  1  0.371145  0.871144  0.000000  1
  Au  Au9  1  0.626517  0.126517  0.000000  1
