# generated using pymatgen
data_La4(Ga8Pt3)3
_symmetry_space_group_name_H-M   'P 1'
_cell_length_a   7.63662046
_cell_length_b   7.70402138
_cell_length_c   13.51728757
_cell_angle_alpha   84.71576133
_cell_angle_beta   79.36095411
_cell_angle_gamma   60.07380187
_symmetry_Int_Tables_number   1
_chemical_formula_structural   La4(Ga8Pt3)3
_chemical_formula_sum   'La4 Ga24 Pt9'
_cell_volume   677.37759313
_cell_formula_units_Z   1
loop_
 _symmetry_equiv_pos_site_id
 _symmetry_equiv_pos_as_xyz
  1  'x, y, z'
loop_
 _atom_site_type_symbol
 _atom_site_label
 _atom_site_symmetry_multiplicity
 _atom_site_fract_x
 _atom_site_fract_y
 _atom_site_fract_z
 _atom_site_occupancy
  La  La0  1  0.394134  0.168755  0.810487  1
  La  La1  1  0.605866  0.831245  0.189513  1
  La  La2  1  0.732366  0.497837  0.810880  1
  La  La3  1  0.267634  0.502163  0.189120  1
  Ga  Ga4  1  0.688166  0.833438  0.941769  1
  Ga  Ga5  1  0.311834  0.166562  0.058231  1
  Ga  Ga6  1  0.145632  0.831612  0.558176  1
  Ga  Ga7  1  0.854368  0.168388  0.441824  1
  Ga  Ga8  1  0.478687  0.166343  0.555783  1
  Ga  Ga9  1  0.521313  0.833657  0.444217  1
  Ga  Ga10  1  0.217234  0.165159  0.329120  1
  Ga  Ga11  1  0.782766  0.834841  0.670880  1
  Ga  Ga12  1  0.438676  0.505169  0.668377  1
  Ga  Ga13  1  0.561324  0.494831  0.331623  1
  Ga  Ga14  1  0.109002  0.162234  0.667806  1
  Ga  Ga15  1  0.890998  0.837766  0.332194  1
  Ga  Ga16  1  0.351726  0.501635  0.942505  1
  Ga  Ga17  1  0.648274  0.498365  0.057495  1
  Ga  Ga18  1  0.016861  0.166189  0.950037  1
  Ga  Ga19  1  0.983139  0.833811  0.049963  1
  Ga  Ga20  1  0.186771  0.498284  0.443065  1
  Ga  Ga21  1  0.813229  0.501716  0.556935  1
  Ga  Ga22  1  0.736809  0.164707  0.182529  1
  Ga  Ga23  1  0.263191  0.835293  0.817471  1
  Ga  Ga24  1  0.062585  0.633493  0.816861  1
  Ga  Ga25  1  0.937415  0.366507  0.183139  1
  Ga  Ga26  1  0.861531  0.036250  0.816960  1
  Ga  Ga27  1  0.138469  0.963750  0.183040  1
  Pt  Pt28  1  0.118830  0.498789  0.636380  1
  Pt  Pt29  1  0.881170  0.501211  0.363620  1
  Pt  Pt30  1  0.659542  0.169686  0.999637  1
  Pt  Pt31  1  0.340458  0.830314  0.000363  1
  Pt  Pt32  1  0.542439  0.166693  0.362566  1
  Pt  Pt33  1  0.457561  0.833307  0.637434  1
  Pt  Pt34  1  0.783458  0.168446  0.635403  1
  Pt  Pt35  1  0.216542  0.831554  0.364597  1
  Pt  Pt36  1  0.000000  0.500000  0.000000  1
