# generated using pymatgen
data_Cs5Th2S4Br9
_symmetry_space_group_name_H-M   'P 1'
_cell_length_a   7.87693318
_cell_length_b   11.37612588
_cell_length_c   11.37612577
_cell_angle_alpha   106.10035825
_cell_angle_beta   110.25534583
_cell_angle_gamma   110.25534715
_symmetry_Int_Tables_number   1
_chemical_formula_structural   Cs5Th2S4Br9
_chemical_formula_sum   'Cs5 Th2 S4 Br9'
_cell_volume   800.66956799
_cell_formula_units_Z   1
loop_
 _symmetry_equiv_pos_site_id
 _symmetry_equiv_pos_as_xyz
  1  'x, y, z'
loop_
 _atom_site_type_symbol
 _atom_site_label
 _atom_site_symmetry_multiplicity
 _atom_site_fract_x
 _atom_site_fract_y
 _atom_site_fract_z
 _atom_site_occupancy
  Cs  Cs0  1  0.773386  0.429683  0.117087  1
  Cs  Cs1  1  0.773386  0.117087  0.429683  1
  Cs  Cs2  1  0.500000  0.499999  0.499999  1
  Cs  Cs3  1  0.226613  0.882912  0.570316  1
  Cs  Cs4  1  0.226613  0.570316  0.882912  1
  Th  Th5  1  0.000000  0.892801  0.107198  1
  Th  Th6  1  0.000000  0.107198  0.892801  1
  S  S7  1  0.326661  0.093432  0.093432  1
  S  S8  1  0.860204  0.093432  0.093432  1
  S  S9  1  0.139796  0.906568  0.906568  1
  S  S10  1  0.673339  0.906568  0.906568  1
  Br  Br11  1  0.261446  0.399744  0.123149  1
  Br  Br12  1  0.255202  0.778832  0.221167  1
  Br  Br13  1  0.744797  0.778832  0.221167  1
  Br  Br14  1  0.261446  0.123149  0.399744  1
  Br  Br15  1  0.000000  0.499999  0.499999  1
  Br  Br16  1  0.738555  0.876852  0.600257  1
  Br  Br17  1  0.255202  0.221167  0.778832  1
  Br  Br18  1  0.744797  0.221167  0.778832  1
  Br  Br19  1  0.738555  0.600257  0.876852  1
