# generated using pymatgen
data_Sr12CaSi14O
_symmetry_space_group_name_H-M   'P 1'
_cell_length_a   11.31592119
_cell_length_b   11.31592159
_cell_length_c   16.84133646
_cell_angle_alpha   55.83639303
_cell_angle_beta   55.83639136
_cell_angle_gamma   24.38944483
_symmetry_Int_Tables_number   1
_chemical_formula_structural   Sr12CaSi14O
_chemical_formula_sum   'Sr12 Ca1 Si14 O1'
_cell_volume   728.87460846
_cell_formula_units_Z   1
loop_
 _symmetry_equiv_pos_site_id
 _symmetry_equiv_pos_as_xyz
  1  'x, y, z'
loop_
 _atom_site_type_symbol
 _atom_site_label
 _atom_site_symmetry_multiplicity
 _atom_site_fract_x
 _atom_site_fract_y
 _atom_site_fract_z
 _atom_site_occupancy
  Sr  Sr0  1  0.190648  0.190648  0.856819  1
  Sr  Sr1  1  0.997592  0.997592  0.352191  1
  Sr  Sr2  1  0.998361  0.998361  0.120889  1
  Sr  Sr3  1  0.189651  0.189651  0.612147  1
  Sr  Sr4  1  0.182339  0.182339  0.109470  1
  Sr  Sr5  1  0.151952  0.151952  0.384049  1
  Sr  Sr6  1  0.848048  0.848048  0.615951  1
  Sr  Sr7  1  0.810349  0.810349  0.387853  1
  Sr  Sr8  1  0.817661  0.817661  0.890530  1
  Sr  Sr9  1  0.809352  0.809352  0.143181  1
  Sr  Sr10  1  0.001639  0.001639  0.879111  1
  Sr  Sr11  1  0.002408  0.002408  0.647809  1
  Ca  Ca12  1  0.500000  0.500000  0.500000  1
  Si  Si13  1  0.436198  0.436198  0.809750  1
  Si  Si14  1  0.566434  0.566434  0.949721  1
  Si  Si15  1  0.430318  0.430318  0.290551  1
  Si  Si16  1  0.563802  0.563802  0.190250  1
  Si  Si17  1  0.569682  0.569682  0.709449  1
  Si  Si18  1  0.433566  0.433566  0.050279  1
  Si  Si19  1  0.636939  0.636939  0.015910  1
  Si  Si20  1  0.642518  0.642518  0.775021  1
  Si  Si21  1  0.357482  0.357482  0.224979  1
  Si  Si22  1  0.371565  0.371565  0.734162  1
  Si  Si23  1  0.369241  0.369241  0.462248  1
  Si  Si24  1  0.630759  0.630759  0.537752  1
  Si  Si25  1  0.628435  0.628435  0.265838  1
  Si  Si26  1  0.363061  0.363061  0.984090  1
  O  O27  1  0.000000  0.000000  0.500000  1
