# generated using pymatgen
data_Tb4Lu4V(B8Rh)3
_symmetry_space_group_name_H-M   'P 1'
_cell_length_a   3.61614500
_cell_length_b   9.11716330
_cell_length_c   11.50000570
_cell_angle_alpha   90.19549122
_cell_angle_beta   90.00000000
_cell_angle_gamma   90.00000000
_symmetry_Int_Tables_number   1
_chemical_formula_structural   Tb4Lu4V(B8Rh)3
_chemical_formula_sum   'Tb4 Lu4 V1 B24 Rh3'
_cell_volume   379.14130234
_cell_formula_units_Z   1
loop_
 _symmetry_equiv_pos_site_id
 _symmetry_equiv_pos_as_xyz
  1  'x, y, z'
loop_
 _atom_site_type_symbol
 _atom_site_label
 _atom_site_symmetry_multiplicity
 _atom_site_fract_x
 _atom_site_fract_y
 _atom_site_fract_z
 _atom_site_occupancy
  Tb  Tb0  1  0.500000  0.319281  0.411458  1
  Tb  Tb1  1  0.500000  0.677496  0.584746  1
  Tb  Tb2  1  0.500000  0.178071  0.917297  1
  Tb  Tb3  1  0.500000  0.824388  0.087031  1
  Lu  Lu4  1  0.500000  0.443231  0.126354  1
  Lu  Lu5  1  0.500000  0.556554  0.872482  1
  Lu  Lu6  1  0.500000  0.055570  0.628417  1
  Lu  Lu7  1  0.500000  0.946862  0.372254  1
  V  V8  1  0.500000  0.139761  0.179877  1
  B  B9  1  0.000000  0.104050  0.473109  1
  B  B10  1  0.000000  0.895761  0.528624  1
  B  B11  1  0.000000  0.397950  0.970885  1
  B  B12  1  0.000000  0.603936  0.027761  1
  B  B13  1  0.000000  0.131521  0.316444  1
  B  B14  1  0.000000  0.867832  0.683102  1
  B  B15  1  0.000000  0.368305  0.817173  1
  B  B16  1  0.000000  0.631865  0.183544  1
  B  B17  1  0.000000  0.052750  0.066411  1
  B  B18  1  0.000000  0.946153  0.933026  1
  B  B19  1  0.000000  0.445103  0.566522  1
  B  B20  1  0.000000  0.553973  0.433030  1
  B  B21  1  0.000000  0.482917  0.286661  1
  B  B22  1  0.000000  0.516901  0.712989  1
  B  B23  1  0.000000  0.016636  0.786505  1
  B  B24  1  0.000000  0.982038  0.213901  1
  B  B25  1  0.000000  0.251275  0.080739  1
  B  B26  1  0.000000  0.749570  0.918911  1
  B  B27  1  0.000000  0.248707  0.580231  1
  B  B28  1  0.000000  0.751340  0.419238  1
  B  B29  1  0.000000  0.294880  0.235552  1
  B  B30  1  0.000000  0.705471  0.764432  1
  B  B31  1  0.000000  0.206925  0.735874  1
  B  B32  1  0.000000  0.793588  0.265501  1
  Rh  Rh33  1  0.500000  0.859367  0.819239  1
  Rh  Rh34  1  0.500000  0.359905  0.680640  1
  Rh  Rh35  1  0.500000  0.640068  0.320041  1
