# generated using pymatgen
data_SrNdNi2(B4Os3)2
_symmetry_space_group_name_H-M   'P 1'
_cell_length_a   7.61640613
_cell_length_b   7.44990330
_cell_length_c   3.98711800
_cell_angle_alpha   90.00000000
_cell_angle_beta   90.00000000
_cell_angle_gamma   88.17217897
_symmetry_Int_Tables_number   1
_chemical_formula_structural   SrNdNi2(B4Os3)2
_chemical_formula_sum   'Sr1 Nd1 Ni2 B8 Os6'
_cell_volume   226.11990208
_cell_formula_units_Z   1
loop_
 _symmetry_equiv_pos_site_id
 _symmetry_equiv_pos_as_xyz
  1  'x, y, z'
loop_
 _atom_site_type_symbol
 _atom_site_label
 _atom_site_symmetry_multiplicity
 _atom_site_fract_x
 _atom_site_fract_y
 _atom_site_fract_z
 _atom_site_occupancy
  Sr  Sr0  1  0.000000  0.000000  0.423680  1
  Nd  Nd1  1  0.500000  0.500000  0.978816  1
  Ni  Ni2  1  0.362163  0.114328  0.117117  1
  Ni  Ni3  1  0.637837  0.885672  0.117117  1
  B  B4  1  0.655977  0.804167  0.615366  1
  B  B5  1  0.172357  0.284835  0.893854  1
  B  B6  1  0.293760  0.827202  0.115218  1
  B  B7  1  0.706240  0.172798  0.115218  1
  B  B8  1  0.344023  0.195833  0.615366  1
  B  B9  1  0.827643  0.715165  0.893854  1
  B  B10  1  0.220640  0.662819  0.397465  1
  B  B11  1  0.779360  0.337181  0.397465  1
  Os  Os12  1  0.616086  0.133029  0.621159  1
  Os  Os13  1  0.106271  0.646604  0.895085  1
  Os  Os14  1  0.154388  0.387149  0.393487  1
  Os  Os15  1  0.845612  0.612851  0.393487  1
  Os  Os16  1  0.893729  0.353396  0.895085  1
  Os  Os17  1  0.383914  0.866971  0.621159  1
