# generated using pymatgen
data_Tm3Lu2(In2Rh)2
_symmetry_space_group_name_H-M   'P 1'
_cell_length_a   3.55273000
_cell_length_b   7.95545200
_cell_length_c   18.10290900
_cell_angle_alpha   90.00000000
_cell_angle_beta   90.00000000
_cell_angle_gamma   90.00000000
_symmetry_Int_Tables_number   1
_chemical_formula_structural   Tm3Lu2(In2Rh)2
_chemical_formula_sum   'Tm6 Lu4 In8 Rh4'
_cell_volume   511.65288974
_cell_formula_units_Z   2
loop_
 _symmetry_equiv_pos_site_id
 _symmetry_equiv_pos_as_xyz
  1  'x, y, z'
loop_
 _atom_site_type_symbol
 _atom_site_label
 _atom_site_symmetry_multiplicity
 _atom_site_fract_x
 _atom_site_fract_y
 _atom_site_fract_z
 _atom_site_occupancy
  Tm  Tm0  1  0.000000  0.000000  0.000000  1
  Tm  Tm1  1  0.000000  0.500000  0.500000  1
  Tm  Tm2  1  0.000000  0.747787  0.780911  1
  Tm  Tm3  1  0.000000  0.252213  0.219089  1
  Tm  Tm4  1  0.000000  0.247787  0.719089  1
  Tm  Tm5  1  0.000000  0.752213  0.280911  1
  Lu  Lu6  1  0.000000  0.877227  0.587772  1
  Lu  Lu7  1  0.000000  0.122773  0.412228  1
  Lu  Lu8  1  0.000000  0.377227  0.912228  1
  Lu  Lu9  1  0.000000  0.622773  0.087772  1
  In  In10  1  0.500000  0.801028  0.435903  1
  In  In11  1  0.500000  0.198972  0.564097  1
  In  In12  1  0.500000  0.301028  0.064097  1
  In  In13  1  0.500000  0.698972  0.935903  1
  In  In14  1  0.500000  0.930478  0.150048  1
  In  In15  1  0.500000  0.069522  0.849952  1
  In  In16  1  0.500000  0.430478  0.349952  1
  In  In17  1  0.500000  0.569522  0.650048  1
  Rh  Rh18  1  0.500000  0.965719  0.695095  1
  Rh  Rh19  1  0.500000  0.034281  0.304905  1
  Rh  Rh20  1  0.500000  0.465719  0.804905  1
  Rh  Rh21  1  0.500000  0.534281  0.195095  1
