# generated using pymatgen
data_Ba2ZrUF12
_symmetry_space_group_name_H-M   'P 1'
_cell_length_a   7.07866623
_cell_length_b   7.07866527
_cell_length_c   5.69965600
_cell_angle_alpha   90.00000000
_cell_angle_beta   90.00000000
_cell_angle_gamma   111.10257064
_symmetry_Int_Tables_number   1
_chemical_formula_structural   Ba2ZrUF12
_chemical_formula_sum   'Ba2 Zr1 U1 F12'
_cell_volume   266.44277702
_cell_formula_units_Z   1
loop_
 _symmetry_equiv_pos_site_id
 _symmetry_equiv_pos_as_xyz
  1  'x, y, z'
loop_
 _atom_site_type_symbol
 _atom_site_label
 _atom_site_symmetry_multiplicity
 _atom_site_fract_x
 _atom_site_fract_y
 _atom_site_fract_z
 _atom_site_occupancy
  Ba  Ba0  1  0.250000  0.750000  0.552195  1
  Ba  Ba1  1  0.750000  0.250000  0.447805  1
  Zr  Zr2  1  0.250000  0.250000  0.000000  1
  U  U3  1  0.750000  0.750000  0.000000  1
  F  F4  1  0.190721  0.435578  0.248006  1
  F  F5  1  0.309279  0.064422  0.248006  1
  F  F6  1  0.435578  0.190721  0.751994  1
  F  F7  1  0.064422  0.309279  0.751994  1
  F  F8  1  0.561350  0.415531  0.152553  1
  F  F9  1  0.938650  0.084469  0.152553  1
  F  F10  1  0.415531  0.561350  0.847447  1
  F  F11  1  0.084469  0.938650  0.847447  1
  F  F12  1  0.929567  0.662477  0.263799  1
  F  F13  1  0.570433  0.837523  0.263799  1
  F  F14  1  0.662477  0.929567  0.736201  1
  F  F15  1  0.837523  0.570433  0.736201  1
