# generated using pymatgen
data_Pr3Mg3AgGe2
_symmetry_space_group_name_H-M   'P 1'
_cell_length_a   7.52369500
_cell_length_b   7.52369525
_cell_length_c   4.49837400
_cell_angle_alpha   90.00000000
_cell_angle_beta   90.00000000
_cell_angle_gamma   120.00000330
_symmetry_Int_Tables_number   1
_chemical_formula_structural   Pr3Mg3AgGe2
_chemical_formula_sum   'Pr3 Mg3 Ag1 Ge2'
_cell_volume   220.52029009
_cell_formula_units_Z   1
loop_
 _symmetry_equiv_pos_site_id
 _symmetry_equiv_pos_as_xyz
  1  'x, y, z'
loop_
 _atom_site_type_symbol
 _atom_site_label
 _atom_site_symmetry_multiplicity
 _atom_site_fract_x
 _atom_site_fract_y
 _atom_site_fract_z
 _atom_site_occupancy
  Pr  Pr0  1  0.418711  0.418711  0.500000  1
  Pr  Pr1  1  0.581289  0.000000  0.500000  1
  Pr  Pr2  1  0.000000  0.581289  0.500000  1
  Mg  Mg3  1  0.755691  0.755691  0.000000  1
  Mg  Mg4  1  0.244309  0.000000  0.000000  1
  Mg  Mg5  1  0.000000  0.244309  0.000000  1
  Ag  Ag6  1  0.000000  0.000000  0.500000  1
  Ge  Ge7  1  0.666667  0.333333  0.000000  1
  Ge  Ge8  1  0.333333  0.666667  0.000000  1
