# generated using pymatgen
data_SrBi2F12
_symmetry_space_group_name_H-M   'P 1'
_cell_length_a   5.74105018
_cell_length_b   5.79356707
_cell_length_c   10.09476949
_cell_angle_alpha   95.81992911
_cell_angle_beta   96.56656328
_cell_angle_gamma   119.74644910
_symmetry_Int_Tables_number   1
_chemical_formula_structural   SrBi2F12
_chemical_formula_sum   'Sr1 Bi2 F12'
_cell_volume   284.69822978
_cell_formula_units_Z   1
loop_
 _symmetry_equiv_pos_site_id
 _symmetry_equiv_pos_as_xyz
  1  'x, y, z'
loop_
 _atom_site_type_symbol
 _atom_site_label
 _atom_site_symmetry_multiplicity
 _atom_site_fract_x
 _atom_site_fract_y
 _atom_site_fract_z
 _atom_site_occupancy
  Sr  Sr0  1  0.977639  0.942943  0.871985  1
  Bi  Bi1  1  0.199252  0.498801  0.587176  1
  Bi  Bi2  1  0.396867  0.697231  0.143841  1
  F  F3  1  0.404523  0.030699  0.229413  1
  F  F4  1  0.545381  0.593222  0.728265  1
  F  F5  1  0.080887  0.647244  0.994219  1
  F  F6  1  0.108231  0.424177  0.232482  1
  F  F7  1  0.356994  0.367181  0.014642  1
  F  F8  1  0.213245  0.185563  0.491307  1
  F  F9  1  0.730773  0.743851  0.260382  1
  F  F10  1  0.202034  0.805853  0.717666  1
  F  F11  1  0.840683  0.415477  0.480279  1
  F  F12  1  0.989737  0.253600  0.722298  1
  F  F13  1  0.452126  0.784118  0.489836  1
  F  F14  1  0.649629  0.920042  0.014207  1
