# generated using pymatgen
data_Er(Ti3Sb2)2
_symmetry_space_group_name_H-M   'P 1'
_cell_length_a   8.27846278
_cell_length_b   8.27846268
_cell_length_c   8.27846203
_cell_angle_alpha   40.55682890
_cell_angle_beta   40.55682853
_cell_angle_gamma   40.55682584
_symmetry_Int_Tables_number   1
_chemical_formula_structural   Er(Ti3Sb2)2
_chemical_formula_sum   'Er1 Ti6 Sb4'
_cell_volume   216.34701743
_cell_formula_units_Z   1
loop_
 _symmetry_equiv_pos_site_id
 _symmetry_equiv_pos_as_xyz
  1  'x, y, z'
loop_
 _atom_site_type_symbol
 _atom_site_label
 _atom_site_symmetry_multiplicity
 _atom_site_fract_x
 _atom_site_fract_y
 _atom_site_fract_z
 _atom_site_occupancy
  Er  Er0  1  0.000000  0.000000  0.000000  1
  Ti  Ti1  1  0.598894  0.598894  0.115174  1
  Ti  Ti2  1  0.884826  0.401106  0.401106  1
  Ti  Ti3  1  0.401106  0.884826  0.401106  1
  Ti  Ti4  1  0.598894  0.115174  0.598894  1
  Ti  Ti5  1  0.115174  0.598894  0.598894  1
  Ti  Ti6  1  0.401106  0.401106  0.884826  1
  Sb  Sb7  1  0.128922  0.128922  0.128922  1
  Sb  Sb8  1  0.332235  0.332235  0.332235  1
  Sb  Sb9  1  0.667765  0.667765  0.667765  1
  Sb  Sb10  1  0.871078  0.871078  0.871078  1
