# generated using pymatgen
data_Pr3PaAl14(Ga2Ir3)2
_symmetry_space_group_name_H-M   'P 1'
_cell_length_a   7.61968937
_cell_length_b   7.60721092
_cell_length_c   9.61105200
_cell_angle_alpha   90.00000000
_cell_angle_beta   90.00000000
_cell_angle_gamma   119.55317749
_symmetry_Int_Tables_number   1
_chemical_formula_structural   Pr3PaAl14(Ga2Ir3)2
_chemical_formula_sum   'Pr3 Pa1 Al14 Ga4 Ir6'
_cell_volume   484.62088880
_cell_formula_units_Z   1
loop_
 _symmetry_equiv_pos_site_id
 _symmetry_equiv_pos_as_xyz
  1  'x, y, z'
loop_
 _atom_site_type_symbol
 _atom_site_label
 _atom_site_symmetry_multiplicity
 _atom_site_fract_x
 _atom_site_fract_y
 _atom_site_fract_z
 _atom_site_occupancy
  Pr  Pr0  1  0.004806  0.330117  0.750000  1
  Pr  Pr1  1  0.672994  0.994981  0.250000  1
  Pr  Pr2  1  0.330594  0.004615  0.750000  1
  Pa  Pa3  1  0.997482  0.674425  0.250000  1
  Al  Al4  1  0.001670  0.334902  0.075206  1
  Al  Al5  1  0.996088  0.664760  0.928323  1
  Al  Al6  1  0.996088  0.664760  0.571677  1
  Al  Al7  1  0.337445  0.003658  0.424580  1
  Al  Al8  1  0.001670  0.334902  0.424794  1
  Al  Al9  1  0.665331  0.996292  0.571339  1
  Al  Al10  1  0.665331  0.996292  0.928661  1
  Al  Al11  1  0.337445  0.003658  0.075420  1
  Al  Al12  1  0.334292  0.334373  0.546177  1
  Al  Al13  1  0.663252  0.664027  0.443335  1
  Al  Al14  1  0.663252  0.664027  0.056665  1
  Al  Al15  1  0.334292  0.334373  0.953823  1
  Al  Al16  1  0.334379  0.544874  0.250000  1
  Al  Al17  1  0.548801  0.342877  0.250000  1
  Ga  Ga18  1  0.137732  0.134964  0.250000  1
  Ga  Ga19  1  0.869848  0.870217  0.750000  1
  Ga  Ga20  1  0.659113  0.454001  0.750000  1
  Ga  Ga21  1  0.453659  0.659625  0.750000  1
  Ir  Ir22  1  0.672470  0.331121  0.004948  1
  Ir  Ir23  1  0.326108  0.670271  0.005389  1
  Ir  Ir24  1  0.326108  0.670271  0.494611  1
  Ir  Ir25  1  0.672470  0.331121  0.495052  1
  Ir  Ir26  1  0.998638  0.995249  0.004531  1
  Ir  Ir27  1  0.998638  0.995249  0.495469  1
