# generated using pymatgen
data_CaTbGa3Ru
_symmetry_space_group_name_H-M   'P 1'
_cell_length_a   5.51070600
_cell_length_b   5.51070703
_cell_length_c   8.74923200
_cell_angle_alpha   90.00000000
_cell_angle_beta   90.00000000
_cell_angle_gamma   120.00000583
_symmetry_Int_Tables_number   1
_chemical_formula_structural   CaTbGa3Ru
_chemical_formula_sum   'Ca2 Tb2 Ga6 Ru2'
_cell_volume   230.09919722
_cell_formula_units_Z   2
loop_
 _symmetry_equiv_pos_site_id
 _symmetry_equiv_pos_as_xyz
  1  'x, y, z'
loop_
 _atom_site_type_symbol
 _atom_site_label
 _atom_site_symmetry_multiplicity
 _atom_site_fract_x
 _atom_site_fract_y
 _atom_site_fract_z
 _atom_site_occupancy
  Ca  Ca0  1  0.666667  0.333333  0.054629  1
  Ca  Ca1  1  0.666667  0.333333  0.445371  1
  Tb  Tb2  1  0.333333  0.666666  0.549791  1
  Tb  Tb3  1  0.333333  0.666666  0.950208  1
  Ga  Ga4  1  0.162745  0.325490  0.250001  1
  Ga  Ga5  1  0.162745  0.837254  0.250001  1
  Ga  Ga6  1  0.674509  0.837254  0.250001  1
  Ga  Ga7  1  0.325525  0.162762  0.750000  1
  Ga  Ga8  1  0.837238  0.162762  0.750000  1
  Ga  Ga9  1  0.837238  0.674475  0.750000  1
  Ru  Ru10  1  0.000000  0.000000  0.001689  1
  Ru  Ru11  1  0.000000  0.000000  0.498311  1
