# generated using pymatgen
data_HfZrUF11
_symmetry_space_group_name_H-M   'P 1'
_cell_length_a   8.49728423
_cell_length_b   8.49728327
_cell_length_c   8.49678237
_cell_angle_alpha   124.88281378
_cell_angle_beta   106.39024102
_cell_angle_gamma   98.39359966
_symmetry_Int_Tables_number   1
_chemical_formula_structural   HfZrUF11
_chemical_formula_sum   'Hf2 Zr2 U2 F22'
_cell_volume   444.47436414
_cell_formula_units_Z   2
loop_
 _symmetry_equiv_pos_site_id
 _symmetry_equiv_pos_as_xyz
  1  'x, y, z'
loop_
 _atom_site_type_symbol
 _atom_site_label
 _atom_site_symmetry_multiplicity
 _atom_site_fract_x
 _atom_site_fract_y
 _atom_site_fract_z
 _atom_site_occupancy
  Hf  Hf0  1  0.179976  0.133187  0.313163  1
  Hf  Hf1  1  0.820024  0.866813  0.686837  1
  Zr  Zr2  1  0.681165  0.366596  0.047761  1
  Zr  Zr3  1  0.318835  0.633404  0.952239  1
  U  U4  1  0.250391  0.750391  0.500000  1
  U  U5  1  0.749609  0.249609  0.500000  1
  F  F6  1  0.205498  0.390582  0.338558  1
  F  F7  1  0.794502  0.609418  0.661442  1
  F  F8  1  0.052025  0.866941  0.661442  1
  F  F9  1  0.444479  0.103513  0.810039  1
  F  F10  1  0.947975  0.133059  0.338558  1
  F  F11  1  0.555521  0.896487  0.189961  1
  F  F12  1  0.293474  0.634440  0.189961  1
  F  F13  1  0.706526  0.365560  0.810039  1
  F  F14  1  0.000000  0.000000  0.000000  1
  F  F15  1  0.500000  0.500000  0.000000  1
  F  F16  1  0.279151  0.367239  0.646390  1
  F  F17  1  0.720849  0.632761  0.353610  1
  F  F18  1  0.781165  0.127239  0.908404  1
  F  F19  1  0.218835  0.872761  0.091596  1
  F  F20  1  0.448797  0.237892  0.415055  1
  F  F21  1  0.551203  0.762108  0.584945  1
  F  F22  1  0.822838  0.033741  0.584945  1
  F  F23  1  0.678671  0.260704  0.214768  1
  F  F24  1  0.177162  0.966259  0.415055  1
  F  F25  1  0.321329  0.739296  0.785232  1
  F  F26  1  0.045934  0.463902  0.785232  1
  F  F27  1  0.954066  0.536098  0.214768  1
