# generated using pymatgen
data_Hf6Ga4CuSn
_symmetry_space_group_name_H-M   'P 1'
_cell_length_a   5.67657300
_cell_length_b   8.60908836
_cell_length_c   9.25373278
_cell_angle_alpha   90.02835907
_cell_angle_beta   90.00000000
_cell_angle_gamma   90.00000000
_symmetry_Int_Tables_number   1
_chemical_formula_structural   Hf6Ga4CuSn
_chemical_formula_sum   'Hf12 Ga8 Cu2 Sn2'
_cell_volume   452.23096252
_cell_formula_units_Z   2
loop_
 _symmetry_equiv_pos_site_id
 _symmetry_equiv_pos_as_xyz
  1  'x, y, z'
loop_
 _atom_site_type_symbol
 _atom_site_label
 _atom_site_symmetry_multiplicity
 _atom_site_fract_x
 _atom_site_fract_y
 _atom_site_fract_z
 _atom_site_occupancy
  Hf  Hf0  1  0.999249  0.735412  0.118210  1
  Hf  Hf1  1  0.499249  0.264588  0.881790  1
  Hf  Hf2  1  0.000472  0.264745  0.883358  1
  Hf  Hf3  1  0.500472  0.735255  0.116642  1
  Hf  Hf4  1  0.753796  0.475724  0.618271  1
  Hf  Hf5  1  0.253796  0.524276  0.381729  1
  Hf  Hf6  1  0.747637  0.970448  0.394331  1
  Hf  Hf7  1  0.247637  0.029552  0.605669  1
  Hf  Hf8  1  0.744913  0.373898  0.196963  1
  Hf  Hf9  1  0.244913  0.626102  0.803037  1
  Hf  Hf10  1  0.755075  0.861925  0.797075  1
  Hf  Hf11  1  0.255075  0.138075  0.202925  1
  Ga  Ga12  1  0.991184  0.252445  0.432189  1
  Ga  Ga13  1  0.491184  0.747555  0.567811  1
  Ga  Ga14  1  0.748549  0.554701  0.909782  1
  Ga  Ga15  1  0.248549  0.445299  0.090218  1
  Ga  Ga16  1  0.748485  0.136884  0.650736  1
  Ga  Ga17  1  0.248485  0.863116  0.349264  1
  Ga  Ga18  1  0.751628  0.635964  0.357545  1
  Ga  Ga19  1  0.251628  0.364036  0.642455  1
  Cu  Cu20  1  0.006820  0.748565  0.557656  1
  Cu  Cu21  1  0.506820  0.251435  0.442344  1
  Sn  Sn22  1  0.752192  0.048502  0.087851  1
  Sn  Sn23  1  0.252192  0.951498  0.912149  1
