# generated using pymatgen
data_MgAgAs3F18
_symmetry_space_group_name_H-M   'P 1'
_cell_length_a   9.48460600
_cell_length_b   10.34524800
_cell_length_c   13.93753400
_cell_angle_alpha   90.00000000
_cell_angle_beta   90.00000000
_cell_angle_gamma   90.00000000
_symmetry_Int_Tables_number   1
_chemical_formula_structural   MgAgAs3F18
_chemical_formula_sum   'Mg4 Ag4 As12 F72'
_cell_volume   1367.55921605
_cell_formula_units_Z   4
loop_
 _symmetry_equiv_pos_site_id
 _symmetry_equiv_pos_as_xyz
  1  'x, y, z'
loop_
 _atom_site_type_symbol
 _atom_site_label
 _atom_site_symmetry_multiplicity
 _atom_site_fract_x
 _atom_site_fract_y
 _atom_site_fract_z
 _atom_site_occupancy
  Mg  Mg0  1  0.000000  0.000000  0.500000  1
  Mg  Mg1  1  0.500000  0.500000  0.000000  1
  Mg  Mg2  1  0.000000  0.000000  0.000000  1
  Mg  Mg3  1  0.500000  0.500000  0.500000  1
  Ag  Ag4  1  0.528572  0.922060  0.750000  1
  Ag  Ag5  1  0.971428  0.422060  0.750000  1
  Ag  Ag6  1  0.471428  0.077940  0.250000  1
  Ag  Ag7  1  0.028572  0.577940  0.250000  1
  As  As8  1  0.113159  0.026245  0.750000  1
  As  As9  1  0.386841  0.526245  0.750000  1
  As  As10  1  0.886841  0.973755  0.250000  1
  As  As11  1  0.613159  0.473755  0.250000  1
  As  As12  1  0.692097  0.201455  0.554980  1
  As  As13  1  0.807903  0.701455  0.945020  1
  As  As14  1  0.307903  0.798545  0.054980  1
  As  As15  1  0.192097  0.298545  0.445020  1
  As  As16  1  0.307903  0.798545  0.445020  1
  As  As17  1  0.192097  0.298545  0.054980  1
  As  As18  1  0.692097  0.201455  0.945020  1
  As  As19  1  0.807903  0.701455  0.554980  1
  F  F20  1  0.114079  0.029251  0.619403  1
  F  F21  1  0.385921  0.529251  0.880597  1
  F  F22  1  0.885921  0.970749  0.119403  1
  F  F23  1  0.614079  0.470749  0.380597  1
  F  F24  1  0.885921  0.970749  0.380597  1
  F  F25  1  0.614079  0.470749  0.119403  1
  F  F26  1  0.114079  0.029251  0.880597  1
  F  F27  1  0.385921  0.529251  0.619403  1
  F  F28  1  0.145605  0.860877  0.750000  1
  F  F29  1  0.354395  0.360877  0.750000  1
  F  F30  1  0.854395  0.139123  0.250000  1
  F  F31  1  0.645605  0.639123  0.250000  1
  F  F32  1  0.296744  0.055017  0.750000  1
  F  F33  1  0.203256  0.555017  0.750000  1
  F  F34  1  0.703256  0.944983  0.250000  1
  F  F35  1  0.796744  0.444983  0.250000  1
  F  F36  1  0.084713  0.195569  0.750000  1
  F  F37  1  0.415287  0.695569  0.750000  1
  F  F38  1  0.915287  0.804431  0.250000  1
  F  F39  1  0.584713  0.304431  0.250000  1
  F  F40  1  0.931155  0.000040  0.750000  1
  F  F41  1  0.568845  0.500040  0.750000  1
  F  F42  1  0.068845  0.999960  0.250000  1
  F  F43  1  0.431155  0.499960  0.250000  1
  F  F44  1  0.826052  0.074705  0.560026  1
  F  F45  1  0.673948  0.574705  0.939974  1
  F  F46  1  0.173948  0.925295  0.060026  1
  F  F47  1  0.326052  0.425295  0.439974  1
  F  F48  1  0.173948  0.925295  0.439974  1
  F  F49  1  0.326052  0.425295  0.060026  1
  F  F50  1  0.826052  0.074705  0.939974  1
  F  F51  1  0.673948  0.574705  0.560026  1
  F  F52  1  0.790772  0.285901  0.470281  1
  F  F53  1  0.709228  0.785901  0.029719  1
  F  F54  1  0.209228  0.714099  0.970281  1
  F  F55  1  0.290772  0.214099  0.529719  1
  F  F56  1  0.209228  0.714099  0.529719  1
  F  F57  1  0.290772  0.214099  0.970281  1
  F  F58  1  0.790772  0.285901  0.029719  1
  F  F59  1  0.709228  0.785901  0.470281  1
  F  F60  1  0.603077  0.118507  0.463953  1
  F  F61  1  0.896923  0.618507  0.036047  1
  F  F62  1  0.396923  0.881493  0.963953  1
  F  F63  1  0.103077  0.381493  0.536047  1
  F  F64  1  0.396923  0.881493  0.536047  1
  F  F65  1  0.103077  0.381493  0.963953  1
  F  F66  1  0.603077  0.118507  0.036047  1
  F  F67  1  0.896923  0.618507  0.463953  1
  F  F68  1  0.558075  0.327350  0.554295  1
  F  F69  1  0.941925  0.827350  0.945705  1
  F  F70  1  0.441925  0.672650  0.054295  1
  F  F71  1  0.058075  0.172650  0.445705  1
  F  F72  1  0.441925  0.672650  0.445705  1
  F  F73  1  0.058075  0.172650  0.054295  1
  F  F74  1  0.558075  0.327350  0.945705  1
  F  F75  1  0.941925  0.827350  0.554295  1
  F  F76  1  0.594329  0.115889  0.641786  1
  F  F77  1  0.905671  0.615889  0.858214  1
  F  F78  1  0.405671  0.884111  0.141786  1
  F  F79  1  0.094329  0.384111  0.358214  1
  F  F80  1  0.405671  0.884111  0.358214  1
  F  F81  1  0.094329  0.384111  0.141786  1
  F  F82  1  0.594329  0.115889  0.858214  1
  F  F83  1  0.905671  0.615889  0.641786  1
  F  F84  1  0.781027  0.283666  0.647956  1
  F  F85  1  0.718973  0.783666  0.852044  1
  F  F86  1  0.218973  0.716334  0.147956  1
  F  F87  1  0.281027  0.216334  0.352044  1
  F  F88  1  0.218973  0.716334  0.352044  1
  F  F89  1  0.281027  0.216334  0.147956  1
  F  F90  1  0.781027  0.283666  0.852044  1
  F  F91  1  0.718973  0.783666  0.647956  1
