# generated using pymatgen
data_PmNdCu4
_symmetry_space_group_name_H-M   'P 1'
_cell_length_a   5.68121928
_cell_length_b   5.68122025
_cell_length_c   5.68121935
_cell_angle_alpha   135.33195981
_cell_angle_beta   98.57181930
_cell_angle_gamma   98.03391067
_symmetry_Int_Tables_number   1
_chemical_formula_structural   PmNdCu4
_chemical_formula_sum   'Pm1 Nd1 Cu4'
_cell_volume   119.23585061
_cell_formula_units_Z   1
loop_
 _symmetry_equiv_pos_site_id
 _symmetry_equiv_pos_as_xyz
  1  'x, y, z'
loop_
 _atom_site_type_symbol
 _atom_site_label
 _atom_site_symmetry_multiplicity
 _atom_site_fract_x
 _atom_site_fract_y
 _atom_site_fract_z
 _atom_site_occupancy
  Pm  Pm0  1  0.500000  0.500000  0.000000  1
  Nd  Nd1  1  0.000000  0.000000  0.000000  1
  Cu  Cu2  1  0.581489  0.248661  0.332829  1
  Cu  Cu3  1  0.084169  0.751340  0.332830  1
  Cu  Cu4  1  0.915832  0.248661  0.667172  1
  Cu  Cu5  1  0.418511  0.751340  0.667171  1
