# generated using pymatgen
data_CePrGd4Ta2O14
_symmetry_space_group_name_H-M   'P 1'
_cell_length_a   6.50473381
_cell_length_b   6.62288019
_cell_length_c   7.72810677
_cell_angle_alpha   106.75643922
_cell_angle_beta   89.80566107
_cell_angle_gamma   97.46572342
_symmetry_Int_Tables_number   1
_chemical_formula_structural   CePrGd4Ta2O14
_chemical_formula_sum   'Ce1 Pr1 Gd4 Ta2 O14'
_cell_volume   315.88493048
_cell_formula_units_Z   1
loop_
 _symmetry_equiv_pos_site_id
 _symmetry_equiv_pos_as_xyz
  1  'x, y, z'
loop_
 _atom_site_type_symbol
 _atom_site_label
 _atom_site_symmetry_multiplicity
 _atom_site_fract_x
 _atom_site_fract_y
 _atom_site_fract_z
 _atom_site_occupancy
  Ce  Ce0  1  0.743423  0.469203  0.614330  1
  Pr  Pr1  1  0.740874  0.465353  0.118380  1
  Gd  Gd2  1  0.544032  0.994656  0.749825  1
  Gd  Gd3  1  0.453123  0.007097  0.251028  1
  Gd  Gd4  1  0.262324  0.546986  0.393058  1
  Gd  Gd5  1  0.260442  0.536490  0.883964  1
  Ta  Ta6  1  0.002686  0.000883  0.998494  1
  Ta  Ta7  1  0.001192  0.003075  0.501035  1
  O  O8  1  0.713251  0.062335  0.480802  1
  O  O9  1  0.925862  0.677491  0.935013  1
  O  O10  1  0.712488  0.064728  0.050302  1
  O  O11  1  0.928642  0.672881  0.403409  1
  O  O12  1  0.918500  0.967749  0.740965  1
  O  O13  1  0.549904  0.346850  0.832398  1
  O  O14  1  0.534054  0.360450  0.344360  1
  O  O15  1  0.455534  0.641477  0.660969  1
  O  O16  1  0.433815  0.652452  0.165028  1
  O  O17  1  0.075923  0.027752  0.256855  1
  O  O18  1  0.081340  0.321648  0.601127  1
  O  O19  1  0.290469  0.932163  0.951348  1
  O  O20  1  0.082445  0.315526  0.051291  1
  O  O21  1  0.289675  0.932754  0.516018  1
