# generated using pymatgen
data_Dy3Al3ZnSiRh
_symmetry_space_group_name_H-M   'P 1'
_cell_length_a   6.93339800
_cell_length_b   6.93339730
_cell_length_c   4.23813000
_cell_angle_alpha   90.00000000
_cell_angle_beta   90.00000000
_cell_angle_gamma   120.00000332
_symmetry_Int_Tables_number   1
_chemical_formula_structural   Dy3Al3ZnSiRh
_chemical_formula_sum   'Dy3 Al3 Zn1 Si1 Rh1'
_cell_volume   176.44002451
_cell_formula_units_Z   1
loop_
 _symmetry_equiv_pos_site_id
 _symmetry_equiv_pos_as_xyz
  1  'x, y, z'
loop_
 _atom_site_type_symbol
 _atom_site_label
 _atom_site_symmetry_multiplicity
 _atom_site_fract_x
 _atom_site_fract_y
 _atom_site_fract_z
 _atom_site_occupancy
  Dy  Dy0  1  0.415553  0.997124  0.000000  1
  Dy  Dy1  1  0.002876  0.418428  0.000000  1
  Dy  Dy2  1  0.581572  0.584447  0.000000  1
  Al  Al3  1  0.767891  0.002492  0.500001  1
  Al  Al4  1  0.234601  0.232110  0.500001  1
  Al  Al5  1  0.997508  0.765399  0.500001  1
  Zn  Zn6  1  0.666666  0.333333  0.500001  1
  Si  Si7  1  0.333333  0.666666  0.500001  1
  Rh  Rh8  1  0.000000  0.000000  0.000000  1
