# generated using pymatgen
data_V10Si5As
_symmetry_space_group_name_H-M   'P 1'
_cell_length_a   7.06692600
_cell_length_b   7.06692640
_cell_length_c   7.05896621
_cell_angle_alpha   96.49769127
_cell_angle_beta   96.49768772
_cell_angle_gamma   140.70801474
_symmetry_Int_Tables_number   1
_chemical_formula_structural   V10Si5As
_chemical_formula_sum   'V10 Si5 As1'
_cell_volume   210.22459465
_cell_formula_units_Z   1
loop_
 _symmetry_equiv_pos_site_id
 _symmetry_equiv_pos_as_xyz
  1  'x, y, z'
loop_
 _atom_site_type_symbol
 _atom_site_label
 _atom_site_symmetry_multiplicity
 _atom_site_fract_x
 _atom_site_fract_y
 _atom_site_fract_z
 _atom_site_occupancy
  V  V0  1  0.573503  0.276758  0.850262  1
  V  V1  1  0.250287  0.750287  0.496531  1
  V  V2  1  0.074361  0.225201  0.299562  1
  V  V3  1  0.924374  0.776040  0.700414  1
  V  V4  1  0.746244  0.246244  0.496531  1
  V  V5  1  0.725201  0.574361  0.299562  1
  V  V6  1  0.427438  0.724905  0.152342  1
  V  V7  1  0.776758  0.073503  0.850262  1
  V  V8  1  0.276040  0.424374  0.700414  1
  V  V9  1  0.224905  0.927438  0.152342  1
  Si  Si10  1  0.250283  0.250283  0.000567  1
  Si  Si11  1  0.666491  0.833836  0.500327  1
  Si  Si12  1  0.833895  0.333895  0.167789  1
  Si  Si13  1  0.750283  0.750283  0.000567  1
  Si  Si14  1  0.333836  0.166491  0.500327  1
  As  As15  1  0.166100  0.666100  0.832200  1
