# generated using pymatgen
data_Er3VFeCo7P6
_symmetry_space_group_name_H-M   'P 1'
_cell_length_a   3.69039000
_cell_length_b   10.56677400
_cell_length_c   12.12507100
_cell_angle_alpha   90.00000000
_cell_angle_beta   90.00000000
_cell_angle_gamma   90.00000000
_symmetry_Int_Tables_number   1
_chemical_formula_structural   Er3VFeCo7P6
_chemical_formula_sum   'Er6 V2 Fe2 Co14 P12'
_cell_volume   472.82341354
_cell_formula_units_Z   2
loop_
 _symmetry_equiv_pos_site_id
 _symmetry_equiv_pos_as_xyz
  1  'x, y, z'
loop_
 _atom_site_type_symbol
 _atom_site_label
 _atom_site_symmetry_multiplicity
 _atom_site_fract_x
 _atom_site_fract_y
 _atom_site_fract_z
 _atom_site_occupancy
  Er  Er0  1  0.750000  0.250000  0.476049  1
  Er  Er1  1  0.250000  0.750000  0.523951  1
  Er  Er2  1  0.250000  0.930306  0.796863  1
  Er  Er3  1  0.250000  0.569694  0.796863  1
  Er  Er4  1  0.750000  0.069694  0.203137  1
  Er  Er5  1  0.750000  0.430306  0.203137  1
  V  V6  1  0.250000  0.250000  0.847097  1
  V  V7  1  0.750000  0.750000  0.152903  1
  Fe  Fe8  1  0.750000  0.250000  0.012368  1
  Fe  Fe9  1  0.250000  0.750000  0.987632  1
  Co  Co10  1  0.250000  0.250000  0.299469  1
  Co  Co11  1  0.750000  0.750000  0.700531  1
  Co  Co12  1  0.250000  0.418838  0.006275  1
  Co  Co13  1  0.250000  0.081162  0.006275  1
  Co  Co14  1  0.750000  0.581162  0.993725  1
  Co  Co15  1  0.750000  0.918838  0.993725  1
  Co  Co16  1  0.250000  0.454123  0.568820  1
  Co  Co17  1  0.250000  0.045877  0.568820  1
  Co  Co18  1  0.750000  0.545877  0.431180  1
  Co  Co19  1  0.750000  0.954123  0.431180  1
  Co  Co20  1  0.250000  0.871288  0.292994  1
  Co  Co21  1  0.250000  0.628712  0.292994  1
  Co  Co22  1  0.750000  0.128712  0.707006  1
  Co  Co23  1  0.750000  0.371288  0.707006  1
  P  P24  1  0.250000  0.250000  0.115976  1
  P  P25  1  0.750000  0.750000  0.884024  1
  P  P26  1  0.250000  0.250000  0.652545  1
  P  P27  1  0.750000  0.750000  0.347455  1
  P  P28  1  0.250000  0.439350  0.383288  1
  P  P29  1  0.250000  0.060650  0.383288  1
  P  P30  1  0.750000  0.560650  0.616712  1
  P  P31  1  0.750000  0.939350  0.616712  1
  P  P32  1  0.250000  0.903905  0.107270  1
  P  P33  1  0.250000  0.596095  0.107270  1
  P  P34  1  0.750000  0.096095  0.892730  1
  P  P35  1  0.750000  0.403905  0.892730  1
