# generated using pymatgen
data_Ca9Dy(Sn3H)2
_symmetry_space_group_name_H-M   'P 1'
_cell_length_a   9.43380123
_cell_length_b   9.43380090
_cell_length_c   9.43967247
_cell_angle_alpha   128.61439104
_cell_angle_beta   128.61438821
_cell_angle_gamma   75.59324455
_symmetry_Int_Tables_number   1
_chemical_formula_structural   Ca9Dy(Sn3H)2
_chemical_formula_sum   'Ca9 Dy1 Sn6 H2'
_cell_volume   499.10562883
_cell_formula_units_Z   1
loop_
 _symmetry_equiv_pos_site_id
 _symmetry_equiv_pos_as_xyz
  1  'x, y, z'
loop_
 _atom_site_type_symbol
 _atom_site_label
 _atom_site_symmetry_multiplicity
 _atom_site_fract_x
 _atom_site_fract_y
 _atom_site_fract_z
 _atom_site_occupancy
  Ca  Ca0  1  0.499227  0.502205  0.001381  1
  Ca  Ca1  1  0.002205  0.999227  0.001381  1
  Ca  Ca2  1  0.186694  0.686694  0.176243  1
  Ca  Ca3  1  0.008323  0.185117  0.498243  1
  Ca  Ca4  1  0.685117  0.508323  0.498243  1
  Ca  Ca5  1  0.490914  0.990914  0.180972  1
  Ca  Ca6  1  0.811220  0.311220  0.821194  1
  Ca  Ca7  1  0.988090  0.812651  0.498423  1
  Ca  Ca8  1  0.312651  0.488090  0.498423  1
  Dy  Dy9  1  0.513094  0.013094  0.822797  1
  Sn  Sn10  1  0.255511  0.243067  0.993611  1
  Sn  Sn11  1  0.743067  0.755511  0.993611  1
  Sn  Sn12  1  0.868999  0.368999  0.239269  1
  Sn  Sn13  1  0.124756  0.624756  0.750442  1
  Sn  Sn14  1  0.371652  0.127968  0.506022  1
  Sn  Sn15  1  0.627968  0.871652  0.506022  1
  H  H16  1  0.260415  0.760415  0.511873  1
  H  H17  1  0.750096  0.250096  0.501850  1
