# generated using pymatgen
data_Hf6NbCo4WN2
_symmetry_space_group_name_H-M   'P 1'
_cell_length_a   8.36986699
_cell_length_b   8.36986724
_cell_length_c   8.41368600
_cell_angle_alpha   59.82666604
_cell_angle_beta   59.82666504
_cell_angle_gamma   59.67162150
_symmetry_Int_Tables_number   1
_chemical_formula_structural   Hf6NbCo4WN2
_chemical_formula_sum   'Hf12 Nb2 Co8 W2 N4'
_cell_volume   414.65018692
_cell_formula_units_Z   2
loop_
 _symmetry_equiv_pos_site_id
 _symmetry_equiv_pos_as_xyz
  1  'x, y, z'
loop_
 _atom_site_type_symbol
 _atom_site_label
 _atom_site_symmetry_multiplicity
 _atom_site_fract_x
 _atom_site_fract_y
 _atom_site_fract_z
 _atom_site_occupancy
  Hf  Hf0  1  0.808939  0.808939  0.191061  1
  Hf  Hf1  1  0.188004  0.188004  0.811996  1
  Hf  Hf2  1  0.810042  0.191246  0.810495  1
  Hf  Hf3  1  0.191246  0.810042  0.188217  1
  Hf  Hf4  1  0.191246  0.810042  0.810495  1
  Hf  Hf5  1  0.810042  0.191246  0.188217  1
  Hf  Hf6  1  0.441061  0.441061  0.058939  1
  Hf  Hf7  1  0.061996  0.061996  0.438004  1
  Hf  Hf8  1  0.439958  0.058754  0.439505  1
  Hf  Hf9  1  0.058754  0.439958  0.061783  1
  Hf  Hf10  1  0.058754  0.439958  0.439505  1
  Hf  Hf11  1  0.439958  0.058754  0.061783  1
  Nb  Nb12  1  0.125000  0.625000  0.625000  1
  Nb  Nb13  1  0.625000  0.125000  0.625000  1
  Co  Co14  1  0.736794  0.424634  0.419287  1
  Co  Co15  1  0.424634  0.736794  0.419287  1
  Co  Co16  1  0.421439  0.421439  0.741248  1
  Co  Co17  1  0.421439  0.421439  0.415875  1
  Co  Co18  1  0.513206  0.825366  0.830713  1
  Co  Co19  1  0.825366  0.513206  0.830713  1
  Co  Co20  1  0.828561  0.828561  0.508752  1
  Co  Co21  1  0.828561  0.828561  0.834125  1
  W  W22  1  0.625000  0.625000  0.125000  1
  W  W23  1  0.625000  0.625000  0.625000  1
  N  N24  1  0.625000  0.125000  0.125000  1
  N  N25  1  0.125000  0.625000  0.125000  1
  N  N26  1  0.125000  0.125000  0.625000  1
  N  N27  1  0.125000  0.125000  0.125000  1
