# generated using pymatgen
data_Rb(ThB8)3
_symmetry_space_group_name_H-M   'P 1'
_cell_length_a   7.18594623
_cell_length_b   7.18594588
_cell_length_c   5.83795100
_cell_angle_alpha   90.00000000
_cell_angle_beta   90.00000000
_cell_angle_gamma   109.61386651
_symmetry_Int_Tables_number   1
_chemical_formula_structural   Rb(ThB8)3
_chemical_formula_sum   'Rb1 Th3 B24'
_cell_volume   283.96727880
_cell_formula_units_Z   1
loop_
 _symmetry_equiv_pos_site_id
 _symmetry_equiv_pos_as_xyz
  1  'x, y, z'
loop_
 _atom_site_type_symbol
 _atom_site_label
 _atom_site_symmetry_multiplicity
 _atom_site_fract_x
 _atom_site_fract_y
 _atom_site_fract_z
 _atom_site_occupancy
  Rb  Rb0  1  0.000000  0.000000  0.000000  1
  Th  Th1  1  0.752116  0.247884  0.500000  1
  Th  Th2  1  0.500000  0.500000  0.000000  1
  Th  Th3  1  0.247884  0.752116  0.500000  1
  B  B4  1  0.176720  0.327226  0.650511  1
  B  B5  1  0.923709  0.573302  0.151702  1
  B  B6  1  0.672774  0.823280  0.650511  1
  B  B7  1  0.426698  0.076291  0.151702  1
  B  B8  1  0.176720  0.327226  0.349489  1
  B  B9  1  0.923709  0.573302  0.848298  1
  B  B10  1  0.672774  0.823280  0.349489  1
  B  B11  1  0.426698  0.076291  0.848298  1
  B  B12  1  0.401696  0.401696  0.500000  1
  B  B13  1  0.150082  0.650990  0.000000  1
  B  B14  1  0.899207  0.899207  0.500000  1
  B  B15  1  0.650990  0.150082  0.000000  1
  B  B16  1  0.327226  0.176720  0.650511  1
  B  B17  1  0.076291  0.426698  0.151702  1
  B  B18  1  0.823280  0.672774  0.650511  1
  B  B19  1  0.573302  0.923709  0.151702  1
  B  B20  1  0.100793  0.100793  0.500000  1
  B  B21  1  0.849918  0.349010  0.000000  1
  B  B22  1  0.598304  0.598304  0.500000  1
  B  B23  1  0.349010  0.849918  0.000000  1
  B  B24  1  0.327226  0.176720  0.349489  1
  B  B25  1  0.076291  0.426698  0.848298  1
  B  B26  1  0.823280  0.672774  0.349489  1
  B  B27  1  0.573302  0.923709  0.848298  1
