# generated using pymatgen
data_Ti6SiAsN2
_symmetry_space_group_name_H-M   'P 1'
_cell_length_a   5.42514791
_cell_length_b   5.42514668
_cell_length_c   8.04343300
_cell_angle_alpha   90.00000000
_cell_angle_beta   90.00000000
_cell_angle_gamma   145.83445003
_symmetry_Int_Tables_number   1
_chemical_formula_structural   Ti6SiAsN2
_chemical_formula_sum   'Ti6 Si1 As1 N2'
_cell_volume   132.94768336
_cell_formula_units_Z   1
loop_
 _symmetry_equiv_pos_site_id
 _symmetry_equiv_pos_as_xyz
  1  'x, y, z'
loop_
 _atom_site_type_symbol
 _atom_site_label
 _atom_site_symmetry_multiplicity
 _atom_site_fract_x
 _atom_site_fract_y
 _atom_site_fract_z
 _atom_site_occupancy
  Ti  Ti0  1  0.629668  0.370332  0.551556  1
  Ti  Ti1  1  0.369989  0.630011  0.048746  1
  Ti  Ti2  1  0.369989  0.630011  0.451254  1
  Ti  Ti3  1  0.629668  0.370332  0.948444  1
  Ti  Ti4  1  0.949358  0.050642  0.750000  1
  Ti  Ti5  1  0.051647  0.948353  0.250000  1
  Si  Si6  1  0.254486  0.745514  0.750000  1
  As  As7  1  0.745503  0.254497  0.250000  1
  N  N8  1  0.999846  0.000154  0.498908  1
  N  N9  1  0.999846  0.000154  0.001092  1
