# generated using pymatgen
data_NpMnO5
_symmetry_space_group_name_H-M   'P 1'
_cell_length_a   5.51850888
_cell_length_b   5.51850904
_cell_length_c   7.28775984
_cell_angle_alpha   71.15083142
_cell_angle_beta   71.15083567
_cell_angle_gamma   69.87072807
_symmetry_Int_Tables_number   1
_chemical_formula_structural   NpMnO5
_chemical_formula_sum   'Np2 Mn2 O10'
_cell_volume   191.51997789
_cell_formula_units_Z   2
loop_
 _symmetry_equiv_pos_site_id
 _symmetry_equiv_pos_as_xyz
  1  'x, y, z'
loop_
 _atom_site_type_symbol
 _atom_site_label
 _atom_site_symmetry_multiplicity
 _atom_site_fract_x
 _atom_site_fract_y
 _atom_site_fract_z
 _atom_site_occupancy
  Np  Np0  1  0.950696  0.049304  0.250000  1
  Np  Np1  1  0.049304  0.950696  0.750000  1
  Mn  Mn2  1  0.500000  0.500000  0.000000  1
  Mn  Mn3  1  0.500000  0.500000  0.500000  1
  O  O4  1  0.410176  0.589824  0.750000  1
  O  O5  1  0.262675  0.174789  0.644252  1
  O  O6  1  0.737325  0.825211  0.355748  1
  O  O7  1  0.174789  0.262675  0.144252  1
  O  O8  1  0.589824  0.410176  0.250000  1
  O  O9  1  0.825211  0.737325  0.855748  1
  O  O10  1  0.206118  0.806968  0.042036  1
  O  O11  1  0.806968  0.206118  0.542036  1
  O  O12  1  0.793882  0.193032  0.957964  1
  O  O13  1  0.193032  0.793882  0.457964  1
