# generated using pymatgen
data_Sc5P12Ru19
_symmetry_space_group_name_H-M   'P 1'
_cell_length_a   12.41405900
_cell_length_b   12.41405922
_cell_length_c   3.93033800
_cell_angle_alpha   90.00000000
_cell_angle_beta   90.00000000
_cell_angle_gamma   119.99999675
_symmetry_Int_Tables_number   1
_chemical_formula_structural   Sc5P12Ru19
_chemical_formula_sum   'Sc5 P12 Ru19'
_cell_volume   524.55153727
_cell_formula_units_Z   1
loop_
 _symmetry_equiv_pos_site_id
 _symmetry_equiv_pos_as_xyz
  1  'x, y, z'
loop_
 _atom_site_type_symbol
 _atom_site_label
 _atom_site_symmetry_multiplicity
 _atom_site_fract_x
 _atom_site_fract_y
 _atom_site_fract_z
 _atom_site_occupancy
  Sc  Sc0  1  0.183211  0.183211  0.500000  1
  Sc  Sc1  1  0.816789  0.000000  0.500000  1
  Sc  Sc2  1  0.000000  0.816789  0.500000  1
  Sc  Sc3  1  0.333333  0.666667  0.000000  1
  Sc  Sc4  1  0.666667  0.333333  0.000000  1
  P  P5  1  0.818428  0.818428  0.000000  1
  P  P6  1  0.181572  0.000000  0.000000  1
  P  P7  1  0.000000  0.181572  0.000000  1
  P  P8  1  0.171970  0.478557  0.500000  1
  P  P9  1  0.521443  0.693413  0.500000  1
  P  P10  1  0.306587  0.828030  0.500000  1
  P  P11  1  0.693413  0.521443  0.500000  1
  P  P12  1  0.828030  0.306587  0.500000  1
  P  P13  1  0.478557  0.171970  0.500000  1
  P  P14  1  0.371834  0.371834  0.000000  1
  P  P15  1  0.628166  0.000000  0.000000  1
  P  P16  1  0.000000  0.628166  0.000000  1
  Ru  Ru17  1  0.555579  0.555579  0.000000  1
  Ru  Ru18  1  0.444421  0.000000  0.000000  1
  Ru  Ru19  1  0.000000  0.444421  0.000000  1
  Ru  Ru20  1  0.720195  0.720195  0.500000  1
  Ru  Ru21  1  0.279805  0.000000  0.500000  1
  Ru  Ru22  1  0.000000  0.279805  0.500000  1
  Ru  Ru23  1  0.185420  0.375123  0.000000  1
  Ru  Ru24  1  0.624877  0.810297  0.000000  1
  Ru  Ru25  1  0.189703  0.814580  0.000000  1
  Ru  Ru26  1  0.810297  0.624877  0.000000  1
  Ru  Ru27  1  0.814580  0.189703  0.000000  1
  Ru  Ru28  1  0.375123  0.185420  0.000000  1
  Ru  Ru29  1  0.365663  0.493214  0.500000  1
  Ru  Ru30  1  0.506786  0.872449  0.500000  1
  Ru  Ru31  1  0.127551  0.634337  0.500000  1
  Ru  Ru32  1  0.872449  0.506786  0.500000  1
  Ru  Ru33  1  0.634337  0.127551  0.500000  1
  Ru  Ru34  1  0.493214  0.365663  0.500000  1
  Ru  Ru35  1  0.000000  0.000000  0.000000  1
