# generated using pymatgen
data_Rb10Zr2AsP5
_symmetry_space_group_name_H-M   'P 1'
_cell_length_a   8.54973300
_cell_length_b   9.23437662
_cell_length_c   18.02281900
_cell_angle_alpha   60.01914384
_cell_angle_beta   90.00000000
_cell_angle_gamma   90.00000000
_symmetry_Int_Tables_number   1
_chemical_formula_structural   Rb10Zr2AsP5
_chemical_formula_sum   'Rb20 Zr4 As2 P10'
_cell_volume   1232.52924772
_cell_formula_units_Z   2
loop_
 _symmetry_equiv_pos_site_id
 _symmetry_equiv_pos_as_xyz
  1  'x, y, z'
loop_
 _atom_site_type_symbol
 _atom_site_label
 _atom_site_symmetry_multiplicity
 _atom_site_fract_x
 _atom_site_fract_y
 _atom_site_fract_z
 _atom_site_occupancy
  Rb  Rb0  1  0.174340  0.845397  0.743971  1
  Rb  Rb1  1  0.674340  0.154603  0.756029  1
  Rb  Rb2  1  0.827262  0.157361  0.258150  1
  Rb  Rb3  1  0.327262  0.842639  0.241850  1
  Rb  Rb4  1  0.163711  0.170864  0.415552  1
  Rb  Rb5  1  0.663711  0.829136  0.084448  1
  Rb  Rb6  1  0.826309  0.835887  0.581497  1
  Rb  Rb7  1  0.326309  0.164113  0.918503  1
  Rb  Rb8  1  0.011184  0.076919  0.094107  1
  Rb  Rb9  1  0.511184  0.923081  0.405893  1
  Rb  Rb10  1  0.988455  0.916980  0.910675  1
  Rb  Rb11  1  0.488455  0.083020  0.589325  1
  Rb  Rb12  1  0.517785  0.262412  0.079553  1
  Rb  Rb13  1  0.017785  0.737588  0.420447  1
  Rb  Rb14  1  0.483902  0.740599  0.921917  1
  Rb  Rb15  1  0.983902  0.259401  0.578083  1
  Rb  Rb16  1  0.980900  0.549282  0.254617  1
  Rb  Rb17  1  0.480900  0.450718  0.245383  1
  Rb  Rb18  1  0.015929  0.453609  0.742548  1
  Rb  Rb19  1  0.515929  0.546391  0.757452  1
  Zr  Zr20  1  0.374117  0.494098  0.578834  1
  Zr  Zr21  1  0.874117  0.505902  0.921166  1
  Zr  Zr22  1  0.630570  0.505088  0.419365  1
  Zr  Zr23  1  0.130570  0.494912  0.080635  1
  As  As24  1  0.750114  0.238724  0.923998  1
  As  As25  1  0.250114  0.761276  0.576002  1
  P  P26  1  0.327838  0.486458  0.438423  1
  P  P27  1  0.827838  0.513542  0.061577  1
  P  P28  1  0.675559  0.512112  0.560320  1
  P  P29  1  0.175559  0.487888  0.939680  1
  P  P30  1  0.208930  0.223855  0.214210  1
  P  P31  1  0.708930  0.776145  0.285790  1
  P  P32  1  0.793412  0.772987  0.787199  1
  P  P33  1  0.293412  0.227013  0.712801  1
  P  P34  1  0.249685  0.750890  0.078223  1
  P  P35  1  0.749685  0.249110  0.421777  1
