# generated using pymatgen
data_Na5Ta(MoH9)3
_symmetry_space_group_name_H-M   'P 1'
_cell_length_a   9.24804900
_cell_length_b   8.87612145
_cell_length_c   5.18080800
_cell_angle_alpha   90.00000000
_cell_angle_beta   90.00000000
_cell_angle_gamma   118.67833626
_symmetry_Int_Tables_number   1
_chemical_formula_structural   Na5Ta(MoH9)3
_chemical_formula_sum   'Na5 Ta1 Mo3 H27'
_cell_volume   373.10638854
_cell_formula_units_Z   1
loop_
 _symmetry_equiv_pos_site_id
 _symmetry_equiv_pos_as_xyz
  1  'x, y, z'
loop_
 _atom_site_type_symbol
 _atom_site_label
 _atom_site_symmetry_multiplicity
 _atom_site_fract_x
 _atom_site_fract_y
 _atom_site_fract_z
 _atom_site_occupancy
  Na  Na0  1  0.732819  0.745826  0.500000  1
  Na  Na1  1  0.267181  0.013007  0.500000  1
  Na  Na2  1  0.000000  0.622873  0.000000  1
  Na  Na3  1  0.424672  0.393739  0.000000  1
  Na  Na4  1  0.575328  0.969067  0.000000  1
  Ta  Ta5  1  0.000000  0.275921  0.500000  1
  Mo  Mo6  1  0.708556  0.325328  0.500000  1
  Mo  Mo7  1  0.291444  0.616774  0.500000  1
  Mo  Mo8  1  0.000000  0.051814  0.000000  1
  H  H9  1  0.876642  0.349122  0.719866  1
  H  H10  1  0.696392  0.415468  0.784751  1
  H  H11  1  0.549221  0.179634  0.703109  1
  H  H12  1  0.123358  0.472479  0.280134  1
  H  H13  1  0.549221  0.179634  0.296891  1
  H  H14  1  0.876642  0.349122  0.280134  1
  H  H15  1  0.696392  0.415468  0.215249  1
  H  H16  1  0.303608  0.719077  0.784751  1
  H  H17  1  0.450779  0.630414  0.703109  1
  H  H18  1  0.189086  0.056131  0.000000  1
  H  H19  1  0.810914  0.867046  0.000000  1
  H  H20  1  0.000000  0.253027  0.000000  1
  H  H21  1  0.874449  0.053358  0.265972  1
  H  H22  1  0.125551  0.178909  0.734028  1
  H  H23  1  0.000000  0.896925  0.783651  1
  H  H24  1  0.000000  0.896925  0.216349  1
  H  H25  1  0.125551  0.178909  0.265972  1
  H  H26  1  0.874449  0.053358  0.734028  1
  H  H27  1  0.170932  0.719027  0.500000  1
  H  H28  1  0.447121  0.832160  0.500000  1
  H  H29  1  0.253187  0.393771  0.500000  1
  H  H30  1  0.552879  0.385039  0.500000  1
  H  H31  1  0.829068  0.548095  0.500000  1
  H  H32  1  0.746813  0.140584  0.500000  1
  H  H33  1  0.123358  0.472479  0.719866  1
  H  H34  1  0.303608  0.719077  0.215249  1
  H  H35  1  0.450779  0.630414  0.296891  1
