# generated using pymatgen
data_Tb2Ho6Sc12Si15P
_symmetry_space_group_name_H-M   'P 1'
_cell_length_a   7.07614283
_cell_length_b   7.35508023
_cell_length_c   13.94717984
_cell_angle_alpha   90.03989291
_cell_angle_beta   90.00089498
_cell_angle_gamma   90.20421734
_symmetry_Int_Tables_number   1
_chemical_formula_structural   Tb2Ho6Sc12Si15P
_chemical_formula_sum   'Tb2 Ho6 Sc12 Si15 P1'
_cell_volume   725.88453112
_cell_formula_units_Z   1
loop_
 _symmetry_equiv_pos_site_id
 _symmetry_equiv_pos_as_xyz
  1  'x, y, z'
loop_
 _atom_site_type_symbol
 _atom_site_label
 _atom_site_symmetry_multiplicity
 _atom_site_fract_x
 _atom_site_fract_y
 _atom_site_fract_z
 _atom_site_occupancy
  Tb  Tb0  1  0.009776  0.174934  0.096609  1
  Tb  Tb1  1  0.991717  0.827276  0.900318  1
  Ho  Ho2  1  0.491318  0.674726  0.904034  1
  Ho  Ho3  1  0.991947  0.826510  0.599771  1
  Ho  Ho4  1  0.510478  0.324603  0.096592  1
  Ho  Ho5  1  0.009700  0.175323  0.403326  1
  Ho  Ho6  1  0.510916  0.324433  0.404023  1
  Ho  Ho7  1  0.490947  0.674742  0.595319  1
  Sc  Sc8  1  0.161209  0.501600  0.749781  1
  Sc  Sc9  1  0.837174  0.497710  0.250190  1
  Sc  Sc10  1  0.337749  0.002209  0.249959  1
  Sc  Sc11  1  0.663445  0.999090  0.749801  1
  Sc  Sc12  1  0.328426  0.172796  0.627670  1
  Sc  Sc13  1  0.666972  0.823195  0.375412  1
  Sc  Sc14  1  0.167022  0.677481  0.375573  1
  Sc  Sc15  1  0.666459  0.822810  0.125130  1
  Sc  Sc16  1  0.833238  0.323256  0.626331  1
  Sc  Sc17  1  0.329064  0.173346  0.871912  1
  Sc  Sc18  1  0.832501  0.324058  0.873501  1
  Sc  Sc19  1  0.167580  0.677117  0.124709  1
  Si  Si20  1  0.963768  0.883295  0.250405  1
  Si  Si21  1  0.464323  0.614888  0.250334  1
  Si  Si22  1  0.532552  0.383131  0.749597  1
  Si  Si23  1  0.298732  0.861850  0.749452  1
  Si  Si24  1  0.712534  0.126393  0.250594  1
  Si  Si25  1  0.213984  0.373734  0.250521  1
  Si  Si26  1  0.787403  0.628812  0.749468  1
  Si  Si27  1  0.158726  0.463278  0.540162  1
  Si  Si28  1  0.841191  0.535828  0.461425  1
  Si  Si29  1  0.339434  0.965625  0.461034  1
  Si  Si30  1  0.840389  0.536147  0.038610  1
  Si  Si31  1  0.660657  0.036515  0.540211  1
  Si  Si32  1  0.159572  0.463333  0.959785  1
  Si  Si33  1  0.658893  0.037195  0.959897  1
  Si  Si34  1  0.341047  0.965044  0.038729  1
  P  P35  1  0.029159  0.127715  0.749815  1
