# generated using pymatgen
data_Tb12InCo4Os
_symmetry_space_group_name_H-M   'P 1'
_cell_length_a   8.35283857
_cell_length_b   8.34941914
_cell_length_c   8.35283746
_cell_angle_alpha   111.32974572
_cell_angle_beta   110.20488216
_cell_angle_gamma   106.92712070
_symmetry_Int_Tables_number   1
_chemical_formula_structural   Tb12InCo4Os
_chemical_formula_sum   'Tb12 In1 Co4 Os1'
_cell_volume   447.64040030
_cell_formula_units_Z   1
loop_
 _symmetry_equiv_pos_site_id
 _symmetry_equiv_pos_as_xyz
  1  'x, y, z'
loop_
 _atom_site_type_symbol
 _atom_site_label
 _atom_site_symmetry_multiplicity
 _atom_site_fract_x
 _atom_site_fract_y
 _atom_site_fract_z
 _atom_site_occupancy
  Tb  Tb0  1  0.411042  0.217889  0.193131  1
  Tb  Tb1  1  0.588958  0.782111  0.806869  1
  Tb  Tb2  1  0.024758  0.217889  0.806846  1
  Tb  Tb3  1  0.975242  0.782111  0.193154  1
  Tb  Tb4  1  0.181305  0.283062  0.464299  1
  Tb  Tb5  1  0.818695  0.716938  0.535701  1
  Tb  Tb6  1  0.181237  0.716938  0.898244  1
  Tb  Tb7  1  0.818763  0.283062  0.101756  1
  Tb  Tb8  1  0.315532  0.621722  0.306189  1
  Tb  Tb9  1  0.684468  0.378278  0.693811  1
  Tb  Tb10  1  0.315562  0.009367  0.693804  1
  Tb  Tb11  1  0.684438  0.990633  0.306196  1
  In  In12  1  0.500000  0.500000  0.000000  1
  Co  Co13  1  0.377104  0.000000  0.377104  1
  Co  Co14  1  0.622896  0.000000  0.622896  1
  Co  Co15  1  0.111194  0.611162  0.499968  1
  Co  Co16  1  0.888806  0.388838  0.500032  1
  Os  Os17  1  0.000000  0.000000  0.000000  1
