# generated using pymatgen
data_SrLi2ErSi4
_symmetry_space_group_name_H-M   'P 1'
_cell_length_a   3.82508800
_cell_length_b   7.89842673
_cell_length_c   10.58276304
_cell_angle_alpha   89.28866635
_cell_angle_beta   90.00000000
_cell_angle_gamma   90.00000000
_symmetry_Int_Tables_number   1
_chemical_formula_structural   SrLi2ErSi4
_chemical_formula_sum   'Sr2 Li4 Er2 Si8'
_cell_volume   319.70367330
_cell_formula_units_Z   2
loop_
 _symmetry_equiv_pos_site_id
 _symmetry_equiv_pos_as_xyz
  1  'x, y, z'
loop_
 _atom_site_type_symbol
 _atom_site_label
 _atom_site_symmetry_multiplicity
 _atom_site_fract_x
 _atom_site_fract_y
 _atom_site_fract_z
 _atom_site_occupancy
  Sr  Sr0  1  0.250000  0.640182  0.635496  1
  Sr  Sr1  1  0.750000  0.359818  0.364504  1
  Li  Li2  1  0.250000  0.000841  0.388226  1
  Li  Li3  1  0.750000  0.999159  0.611774  1
  Li  Li4  1  0.250000  0.489781  0.106920  1
  Li  Li5  1  0.750000  0.510219  0.893080  1
  Er  Er6  1  0.250000  0.126139  0.867164  1
  Er  Er7  1  0.750000  0.873861  0.132836  1
  Si  Si8  1  0.750000  0.257276  0.057824  1
  Si  Si9  1  0.250000  0.742724  0.942176  1
  Si  Si10  1  0.750000  0.781348  0.417520  1
  Si  Si11  1  0.250000  0.218652  0.582480  1
  Si  Si12  1  0.750000  0.847462  0.832823  1
  Si  Si13  1  0.250000  0.152538  0.167177  1
  Si  Si14  1  0.750000  0.322529  0.690724  1
  Si  Si15  1  0.250000  0.677471  0.309276  1
