# generated using pymatgen
data_Pr3Ir8Pt
_symmetry_space_group_name_H-M   'P 1'
_cell_length_a   9.41266549
_cell_length_b   9.41266695
_cell_length_c   9.41266686
_cell_angle_alpha   33.40876647
_cell_angle_beta   33.40875028
_cell_angle_gamma   33.40876058
_symmetry_Int_Tables_number   1
_chemical_formula_structural   Pr3Ir8Pt
_chemical_formula_sum   'Pr3 Ir8 Pt1'
_cell_volume   225.14414735
_cell_formula_units_Z   1
loop_
 _symmetry_equiv_pos_site_id
 _symmetry_equiv_pos_as_xyz
  1  'x, y, z'
loop_
 _atom_site_type_symbol
 _atom_site_label
 _atom_site_symmetry_multiplicity
 _atom_site_fract_x
 _atom_site_fract_y
 _atom_site_fract_z
 _atom_site_occupancy
  Pr  Pr0  1  0.861284  0.861284  0.861284  1
  Pr  Pr1  1  0.138716  0.138716  0.138716  1
  Pr  Pr2  1  0.000000  0.000000  0.000000  1
  Ir  Ir3  1  0.419969  0.918940  0.419969  1
  Ir  Ir4  1  0.419969  0.419969  0.918940  1
  Ir  Ir5  1  0.918940  0.419969  0.419969  1
  Ir  Ir6  1  0.580031  0.081060  0.580031  1
  Ir  Ir7  1  0.580031  0.580031  0.081060  1
  Ir  Ir8  1  0.081060  0.580031  0.580031  1
  Ir  Ir9  1  0.667826  0.667826  0.667826  1
  Ir  Ir10  1  0.332174  0.332174  0.332174  1
  Pt  Pt11  1  0.500000  0.500000  0.500000  1
