# generated using pymatgen
data_Sr9Yb11Ag16
_symmetry_space_group_name_H-M   'P 1'
_cell_length_a   8.26248424
_cell_length_b   8.32539580
_cell_length_c   15.72407388
_cell_angle_alpha   90.11249480
_cell_angle_beta   89.90952854
_cell_angle_gamma   90.09478468
_symmetry_Int_Tables_number   1
_chemical_formula_structural   Sr9Yb11Ag16
_chemical_formula_sum   'Sr9 Yb11 Ag16'
_cell_volume   1081.62978682
_cell_formula_units_Z   1
loop_
 _symmetry_equiv_pos_site_id
 _symmetry_equiv_pos_as_xyz
  1  'x, y, z'
loop_
 _atom_site_type_symbol
 _atom_site_label
 _atom_site_symmetry_multiplicity
 _atom_site_fract_x
 _atom_site_fract_y
 _atom_site_fract_z
 _atom_site_occupancy
  Sr  Sr0  1  0.824330  0.667835  0.880477  1
  Sr  Sr1  1  0.483111  0.323470  0.901429  1
  Sr  Sr2  1  0.986334  0.174843  0.595135  1
  Sr  Sr3  1  0.514147  0.675141  0.402282  1
  Sr  Sr4  1  0.016273  0.825398  0.101089  1
  Sr  Sr5  1  0.513456  0.674700  0.099057  1
  Sr  Sr6  1  0.014349  0.825581  0.402136  1
  Sr  Sr7  1  0.485019  0.324667  0.595004  1
  Sr  Sr8  1  0.985901  0.174924  0.902966  1
  Yb  Yb9  1  0.325429  0.832917  0.876970  1
  Yb  Yb10  1  0.825718  0.668188  0.620895  1
  Yb  Yb11  1  0.674533  0.167736  0.377729  1
  Yb  Yb12  1  0.175627  0.330419  0.124300  1
  Yb  Yb13  1  0.673139  0.167523  0.124077  1
  Yb  Yb14  1  0.174246  0.332025  0.377826  1
  Yb  Yb15  1  0.325722  0.832708  0.620337  1
  Yb  Yb16  1  0.159541  0.495095  0.748267  1
  Yb  Yb17  1  0.657924  0.005855  0.748007  1
  Yb  Yb18  1  0.841537  0.503468  0.251514  1
  Yb  Yb19  1  0.341621  0.996921  0.250984  1
  Ag  Ag20  1  0.344070  0.036672  0.045718  1
  Ag  Ag21  1  0.847456  0.463315  0.454999  1
  Ag  Ag22  1  0.652592  0.963249  0.543543  1
  Ag  Ag23  1  0.162811  0.532902  0.959756  1
  Ag  Ag24  1  0.645382  0.975038  0.957401  1
  Ag  Ag25  1  0.152620  0.536681  0.543854  1
  Ag  Ag26  1  0.347202  0.036747  0.454940  1
  Ag  Ag27  1  0.852537  0.457991  0.051752  1
  Ag  Ag28  1  0.522935  0.623118  0.744944  1
  Ag  Ag29  1  0.033657  0.878578  0.744877  1
  Ag  Ag30  1  0.470747  0.373268  0.250971  1
  Ag  Ag31  1  0.970501  0.127232  0.250964  1
  Ag  Ag32  1  0.282994  0.123422  0.749062  1
  Ag  Ag33  1  0.776865  0.372634  0.745041  1
  Ag  Ag34  1  0.719404  0.879425  0.250804  1
  Ag  Ag35  1  0.220271  0.620311  0.250893  1
